MODEL 1
REMARK VINA RESULT: -7.572045706      0.000      0.000
REMARK  1 active torsions:
REMARK  status: ('A' for Active; 'I' for Inactive)
REMARK    1  A    between atoms: O1_1  and  C1_3 
ROOT
HETATM    1  C1  UNL     1       0.048   1.610  19.196  1.00  0.00     0.079 A 
HETATM    2  C2  UNL     1       1.007   1.911  20.185  1.00  0.00     0.037 A 
HETATM    3  C3  UNL     1       0.731   1.608  21.479  1.00  0.00     0.005 A 
HETATM    4  C4  UNL     1      -0.444   1.025  21.833  1.00  0.00     0.030 A 
HETATM    5  C5  UNL     1      -1.400   0.721  20.878  1.00  0.00     0.048 A 
HETATM    6  N1  UNL     1      -2.563   0.152  21.167  1.00  0.00    -0.341 N 
ATOM      7  H1  UNL     1      -2.762  -0.072  22.141  1.00  0.00     0.167 HD
HETATM    8  C6  UNL     1      -3.493  -0.145  20.243  1.00  0.00     0.123 A 
HETATM    9  C7  UNL     1      -4.675  -0.733  20.608  1.00  0.00     0.020 A 
HETATM   10  C8  UNL     1      -4.898  -1.019  21.952  1.00  0.00     0.016 A 
HETATM   11  C9  UNL     1      -6.070  -1.610  22.370  1.00  0.00     0.001 A 
HETATM   12  C10 UNL     1      -7.006  -1.907  21.427  1.00  0.00     0.001 A 
HETATM   13  C11 UNL     1      -6.835  -1.644  20.084  1.00  0.00     0.013 A 
HETATM   14  C12 UNL     1      -5.659  -1.055  19.684  1.00  0.00    -0.010 A 
HETATM   15  C13 UNL     1      -5.388  -0.750  18.366  1.00  0.00     0.002 A 
HETATM   16  C14 UNL     1      -6.319  -1.045  17.422  1.00  0.00     0.014 A 
HETATM   17  C15 UNL     1      -6.128  -0.772  16.067  1.00  0.00     0.001 A 
HETATM   18  C16 UNL     1      -4.946  -0.186  15.724  1.00  0.00     0.002 A 
HETATM   19  C17 UNL     1      -3.973   0.127  16.665  1.00  0.00     0.031 A 
HETATM   20  C18 UNL     1      -4.170  -0.145  17.994  1.00  0.00     0.051 A 
HETATM   21  N2  UNL     1      -3.245   0.145  18.946  1.00  0.00    -0.306 N 
HETATM   22  C19 UNL     1      -2.079   0.723  18.605  1.00  0.00     0.115 A 
HETATM   23  C20 UNL     1      -1.132   1.023  19.564  1.00  0.00     0.040 A 
ENDROOT
BRANCH   1  24
HETATM   24  O1  UNL     1       0.364   1.933  17.895  1.00  0.00    -0.360 OA
ATOM     25  H1  UNL     1      -0.250   2.483  17.423  1.00  0.00     0.217 HD
ENDBRANCH   1  24
TORSDOF 1
ENDMDL
MODEL 2
REMARK VINA RESULT: -7.427897352      1.078      1.078
REMARK  1 active torsions:
REMARK  status: ('A' for Active; 'I' for Inactive)
REMARK    1  A    between atoms: O1_1  and  C1_3 
ROOT
HETATM    1  C1  UNL     1      -0.025   0.963  18.942  1.00  0.00     0.079 A 
HETATM    2  C2  UNL     1       1.091   0.961  19.804  1.00  0.00     0.037 A 
HETATM    3  C3  UNL     1       1.028   0.244  20.955  1.00  0.00     0.005 A 
HETATM    4  C4  UNL     1      -0.082  -0.467  21.285  1.00  0.00     0.030 A 
HETATM    5  C5  UNL     1      -1.189  -0.479  20.453  1.00  0.00     0.048 A 
HETATM    6  N1  UNL     1      -2.298  -1.155  20.726  1.00  0.00    -0.341 N 
ATOM      7  H1  UNL     1      -2.336  -1.691  21.592  1.00  0.00     0.167 HD
HETATM    8  C6  UNL     1      -3.374  -1.170  19.921  1.00  0.00     0.123 A 
HETATM    9  C7  UNL     1      -4.489  -1.888  20.261  1.00  0.00     0.020 A 
HETATM   10  C8  UNL     1      -4.490  -2.604  21.455  1.00  0.00     0.016 A 
HETATM   11  C9  UNL     1      -5.587  -3.343  21.842  1.00  0.00     0.001 A 
HETATM   12  C10 UNL     1      -6.672  -3.352  21.020  1.00  0.00     0.001 A 
HETATM   13  C11 UNL     1      -6.722  -2.660  19.827  1.00  0.00     0.013 A 
HETATM   14  C12 UNL     1      -5.618  -1.929  19.456  1.00  0.00    -0.010 A 
HETATM   15  C13 UNL     1      -5.565  -1.202  18.284  1.00  0.00     0.002 A 
HETATM   16  C14 UNL     1      -6.645  -1.209  17.461  1.00  0.00     0.014 A 
HETATM   17  C15 UNL     1      -6.678  -0.503  16.258  1.00  0.00     0.001 A 
HETATM   18  C16 UNL     1      -5.559   0.206  15.937  1.00  0.00     0.002 A 
HETATM   19  C17 UNL     1      -4.438   0.233  16.757  1.00  0.00     0.031 A 
HETATM   20  C18 UNL     1      -4.416  -0.464  17.937  1.00  0.00     0.051 A 
HETATM   21  N2  UNL     1      -3.340  -0.464  18.767  1.00  0.00    -0.306 N 
HETATM   22  C19 UNL     1      -2.237   0.236  18.448  1.00  0.00     0.115 A 
HETATM   23  C20 UNL     1      -1.138   0.243  19.285  1.00  0.00     0.040 A 
ENDROOT
BRANCH   1  24
HETATM   24  O1  UNL     1       0.075   1.702  17.785  1.00  0.00    -0.360 OA
ATOM     25  H1  UNL     1       0.319   1.238  16.993  1.00  0.00     0.217 HD
ENDBRANCH   1  24
TORSDOF 1
ENDMDL
MODEL 3
REMARK VINA RESULT: -7.424828324      1.540      3.718
REMARK  1 active torsions:
REMARK  status: ('A' for Active; 'I' for Inactive)
REMARK    1  A    between atoms: O1_1  and  C1_3 
ROOT
HETATM    1  C1  UNL     1       0.111   0.143  20.664  1.00  0.00     0.079 A 
HETATM    2  C2  UNL     1       1.141   0.969  20.169  1.00  0.00     0.037 A 
HETATM    3  C3  UNL     1       0.955   1.610  18.987  1.00  0.00     0.005 A 
HETATM    4  C4  UNL     1      -0.198   1.470  18.281  1.00  0.00     0.030 A 
HETATM    5  C5  UNL     1      -1.222   0.664  18.749  1.00  0.00     0.048 A 
HETATM    6  N1  UNL     1      -2.367   0.491  18.102  1.00  0.00    -0.341 N 
ATOM      7  H1  UNL     1      -2.499   0.977  17.216  1.00  0.00     0.167 HD
HETATM    8  C6  UNL     1      -3.364  -0.290  18.553  1.00  0.00     0.123 A 
HETATM    9  C7  UNL     1      -4.522  -0.426  17.836  1.00  0.00     0.020 A 
HETATM   10  C8  UNL     1      -4.652   0.259  16.631  1.00  0.00     0.016 A 
HETATM   11  C9  UNL     1      -5.797   0.155  15.872  1.00  0.00     0.001 A 
HETATM   12  C10 UNL     1      -6.801  -0.639  16.338  1.00  0.00     0.001 A 
HETATM   13  C11 UNL     1      -6.723  -1.337  17.524  1.00  0.00     0.013 A 
HETATM   14  C12 UNL     1      -5.573  -1.222  18.269  1.00  0.00    -0.010 A 
HETATM   15  C13 UNL     1      -5.393  -1.880  19.469  1.00  0.00     0.002 A 
HETATM   16  C14 UNL     1      -6.391  -2.672  19.937  1.00  0.00     0.014 A 
HETATM   17  C15 UNL     1      -6.295  -3.371  21.140  1.00  0.00     0.001 A 
HETATM   18  C16 UNL     1      -5.134  -3.224  21.839  1.00  0.00     0.002 A 
HETATM   19  C17 UNL     1      -4.094  -2.420  21.388  1.00  0.00     0.031 A 
HETATM   20  C18 UNL     1      -4.199  -1.737  20.205  1.00  0.00     0.051 A 
HETATM   21  N2  UNL     1      -3.206  -0.941  19.728  1.00  0.00    -0.306 N 
HETATM   22  C19 UNL     1      -2.061  -0.797  20.420  1.00  0.00     0.115 A 
HETATM   23  C20 UNL     1      -1.045   0.009  19.945  1.00  0.00     0.040 A 
ENDROOT
BRANCH   1  24
HETATM   24  O1  UNL     1       0.337  -0.492  21.866  1.00  0.00    -0.360 OA
ATOM     25  H1  UNL     1      -0.179  -1.268  22.050  1.00  0.00     0.217 HD
ENDBRANCH   1  24
TORSDOF 1
ENDMDL
MODEL 4
REMARK VINA RESULT: -6.893597014      2.292      3.706
REMARK  1 active torsions:
REMARK  status: ('A' for Active; 'I' for Inactive)
REMARK    1  A    between atoms: O1_1  and  C1_3 
ROOT
HETATM    1  C1  UNL     1      -0.784  -1.505  20.461  1.00  0.00     0.079 A 
HETATM    2  C2  UNL     1       0.411  -0.801  20.209  1.00  0.00     0.037 A 
HETATM    3  C3  UNL     1       0.336   0.452  19.691  1.00  0.00     0.005 A 
HETATM    4  C4  UNL     1      -0.862   1.032  19.415  1.00  0.00     0.030 A 
HETATM    5  C5  UNL     1      -2.047   0.358  19.656  1.00  0.00     0.048 A 
HETATM    6  N1  UNL     1      -3.243   0.876  19.407  1.00  0.00    -0.341 N 
ATOM      7  H1  UNL     1      -3.290   1.817  19.018  1.00  0.00     0.167 HD
HETATM    8  C6  UNL     1      -4.396   0.226  19.639  1.00  0.00     0.123 A 
HETATM    9  C7  UNL     1      -5.599   0.817  19.359  1.00  0.00     0.020 A 
HETATM   10  C8  UNL     1      -5.608   2.105  18.829  1.00  0.00     0.016 A 
HETATM   11  C9  UNL     1      -6.792   2.744  18.531  1.00  0.00     0.001 A 
HETATM   12  C10 UNL     1      -7.955   2.076  18.770  1.00  0.00     0.001 A 
HETATM   13  C11 UNL     1      -8.000   0.801  19.293  1.00  0.00     0.013 A 
HETATM   14  C12 UNL     1      -6.810   0.179  19.585  1.00  0.00    -0.010 A 
HETATM   15  C13 UNL     1      -6.744  -1.096  20.111  1.00  0.00     0.002 A 
HETATM   16  C14 UNL     1      -7.901  -1.764  20.351  1.00  0.00     0.014 A 
HETATM   17  C15 UNL     1      -7.928  -3.055  20.881  1.00  0.00     0.001 A 
HETATM   18  C16 UNL     1      -6.721  -3.627  21.152  1.00  0.00     0.002 A 
HETATM   19  C17 UNL     1      -5.519  -2.969  20.919  1.00  0.00     0.031 A 
HETATM   20  C18 UNL     1      -5.504  -1.701  20.398  1.00  0.00     0.051 A 
HETATM   21  N2  UNL     1      -4.352  -1.024  20.155  1.00  0.00    -0.306 N 
HETATM   22  C19 UNL     1      -3.162  -1.590  20.424  1.00  0.00     0.115 A 
HETATM   23  C20 UNL     1      -1.985  -0.911  20.180  1.00  0.00     0.040 A 
ENDROOT
BRANCH   1  24
HETATM   24  O1  UNL     1      -0.668  -2.773  20.986  1.00  0.00    -0.360 OA
ATOM     25  H1  UNL     1       0.183  -3.027  21.324  1.00  0.00     0.217 HD
ENDBRANCH   1  24
TORSDOF 1
ENDMDL
MODEL 5
REMARK VINA RESULT: -6.798049417      1.810      1.955
REMARK  1 active torsions:
REMARK  status: ('A' for Active; 'I' for Inactive)
REMARK    1  A    between atoms: O1_1  and  C1_3 
ROOT
HETATM    1  C1  UNL     1      -0.324   1.320  19.428  1.00  0.00     0.079 A 
HETATM    2  C2  UNL     1       0.987   0.930  19.766  1.00  0.00     0.037 A 
HETATM    3  C3  UNL     1       1.174  -0.249  20.414  1.00  0.00     0.005 A 
HETATM    4  C4  UNL     1       0.125  -1.051  20.736  1.00  0.00     0.030 A 
HETATM    5  C5  UNL     1      -1.171  -0.687  20.412  1.00  0.00     0.048 A 
HETATM    6  N1  UNL     1      -2.231  -1.431  20.702  1.00  0.00    -0.341 N 
ATOM      7  H1  UNL     1      -2.082  -2.315  21.187  1.00  0.00     0.167 HD
HETATM    8  C6  UNL     1      -3.491  -1.081  20.390  1.00  0.00     0.123 A 
HETATM    9  C7  UNL     1      -4.542  -1.895  20.718  1.00  0.00     0.020 A 
HETATM   10  C8  UNL     1      -4.284  -3.093  21.381  1.00  0.00     0.016 A 
HETATM   11  C9  UNL     1      -5.307  -3.946  21.733  1.00  0.00     0.001 A 
HETATM   12  C10 UNL     1      -6.580  -3.583  21.412  1.00  0.00     0.001 A 
HETATM   13  C11 UNL     1      -6.888  -2.410  20.756  1.00  0.00     0.013 A 
HETATM   14  C12 UNL     1      -5.855  -1.570  20.412  1.00  0.00    -0.010 A 
HETATM   15  C13 UNL     1      -6.055  -0.372  19.755  1.00  0.00     0.002 A 
HETATM   16  C14 UNL     1      -7.322  -0.007  19.433  1.00  0.00     0.014 A 
HETATM   17  C15 UNL     1      -7.616   1.184  18.769  1.00  0.00     0.001 A 
HETATM   18  C16 UNL     1      -6.557   1.982  18.451  1.00  0.00     0.002 A 
HETATM   19  C17 UNL     1      -5.248   1.636  18.766  1.00  0.00     0.031 A 
HETATM   20  C18 UNL     1      -4.970   0.462  19.418  1.00  0.00     0.051 A 
HETATM   21  N2  UNL     1      -3.706   0.088  19.745  1.00  0.00    -0.306 N 
HETATM   22  C19 UNL     1      -2.662   0.876  19.430  1.00  0.00     0.115 A 
HETATM   23  C20 UNL     1      -1.373   0.505  19.757  1.00  0.00     0.040 A 
ENDROOT
BRANCH   1  24
HETATM   24  O1  UNL     1      -0.473   2.523  18.773  1.00  0.00    -0.360 OA
ATOM     25  H1  UNL     1      -1.203   3.072  19.034  1.00  0.00     0.217 HD
ENDBRANCH   1  24
TORSDOF 1
ENDMDL
