MODEL 1
REMARK VINA RESULT: -11.056995231      0.000      0.000
REMARK  6 active torsions:
REMARK  status: ('A' for Active; 'I' for Inactive)
REMARK    1  A    between atoms: C8_8  and  N1_9 
REMARK    2  A    between atoms: N1_9  and  C9_10 
REMARK    3  A    between atoms: N1_9  and  C18_29 
REMARK    4  A    between atoms: C9_10  and  O1_11 
REMARK    5  A    between atoms: C9_10  and  C10_13 
REMARK    6  A    between atoms: C11_17  and  C12_18 
ROOT
HETATM    1  C10 UNL     1      15.897  53.009  28.211  1.00  0.00     0.179 A 
HETATM    2  N2  UNL     1      15.443  53.519  27.084  1.00  0.00    -0.239 N 
ATOM      3  H2  UNL     1      15.985  54.178  26.526  1.00  0.00     0.196 HD
HETATM    4  O2  UNL     1      14.285  53.131  26.743  1.00  0.00    -0.217 OA
HETATM    5  C11 UNL     1      13.880  52.298  27.673  1.00  0.00     0.184 A 
HETATM    6  N3  UNL     1      14.836  52.191  28.596  1.00  0.00    -0.316 N 
ATOM      7  H3  UNL     1      14.798  51.612  29.435  1.00  0.00     0.169 HD
ENDROOT
BRANCH   1   8
HETATM    8  C9  UNL     1      17.119  53.127  29.006  1.00  0.00     0.186 C 
BRANCH   8   9
HETATM    9  N1  UNL     1      18.342  53.666  28.635  1.00  0.00    -0.349 N 
BRANCH   9  10
HETATM   10  C8  UNL     1      18.635  55.043  28.812  1.00  0.00     0.092 C 
HETATM   11  C7  UNL     1      19.791  55.400  29.719  1.00  0.00     0.017 C 
HETATM   12  C2  UNL     1      19.613  56.942  29.660  1.00  0.00    -0.038 C 
HETATM   13  C6  UNL     1      19.577  55.231  31.180  1.00  0.00     0.008 C 
HETATM   14  C1  UNL     1      20.609  57.662  30.502  1.00  0.00     0.015 C 
HETATM   15  C3  UNL     1      19.591  57.485  28.278  1.00  0.00     0.015 C 
HETATM   16  C4  UNL     1      18.204  56.916  30.277  1.00  0.00    -0.004 C 
HETATM   17  C5  UNL     1      18.483  56.239  31.571  1.00  0.00     0.006 C 
HETATM   18  C21 UNL     1      17.537  55.916  29.343  1.00  0.00     0.031 C 
ENDBRANCH   9  10
BRANCH   9  19
HETATM   19  C18 UNL     1      19.375  52.782  28.114  1.00  0.00     0.087 A 
HETATM   20  C19 UNL     1      19.243  51.320  27.950  1.00  0.00     0.027 A 
HETATM   21  C20 UNL     1      19.266  52.160  26.743  1.00  0.00     0.027 A 
ENDBRANCH   9  19
ENDBRANCH   8   9
BRANCH   8  22
HETATM   22  O1  UNL     1      17.026  52.659  30.220  1.00  0.00    -0.343 OA
ATOM     23  H1  UNL     1      17.273  51.751  30.349  1.00  0.00     0.219 HD
ENDBRANCH   8  22
ENDBRANCH   1   8
BRANCH   5  24
HETATM   24  C12 UNL     1      12.577  51.616  27.661  1.00  0.00     0.041 A 
HETATM   25  C13 UNL     1      11.452  52.307  27.275  1.00  0.00     0.043 A 
HETATM   26  C14 UNL     1      10.240  51.655  27.268  1.00  0.00     0.056 A 
HETATM   27 CL1  UNL     1       8.751  52.442  26.796  1.00  0.00    -0.083 Cl
HETATM   28  C15 UNL     1      10.182  50.339  27.644  1.00  0.00     0.057 A 
HETATM   29 CL2  UNL     1       8.684  49.438  27.663  1.00  0.00    -0.082 Cl
HETATM   30  C16 UNL     1      11.333  49.651  28.033  1.00  0.00     0.050 A 
HETATM   31  C17 UNL     1      12.545  50.298  28.041  1.00  0.00     0.050 A 
HETATM   32 CL3  UNL     1      14.020  49.503  28.513  1.00  0.00    -0.083 Cl
ENDBRANCH   5  24
TORSDOF 6
ENDMDL
MODEL 2
REMARK VINA RESULT: -10.924891084      1.083      1.308
REMARK  6 active torsions:
REMARK  status: ('A' for Active; 'I' for Inactive)
REMARK    1  A    between atoms: C8_8  and  N1_9 
REMARK    2  A    between atoms: N1_9  and  C9_10 
REMARK    3  A    between atoms: N1_9  and  C18_29 
REMARK    4  A    between atoms: C9_10  and  O1_11 
REMARK    5  A    between atoms: C9_10  and  C10_13 
REMARK    6  A    between atoms: C11_17  and  C12_18 
ROOT
HETATM    1  C10 UNL     1      16.088  52.440  28.091  1.00  0.00     0.179 A 
HETATM    2  N2  UNL     1      15.715  52.057  29.295  1.00  0.00    -0.239 N 
ATOM      3  H2  UNL     1      16.351  52.063  30.092  1.00  0.00     0.196 HD
HETATM    4  O2  UNL     1      14.507  51.682  29.393  1.00  0.00    -0.217 OA
HETATM    5  C11 UNL     1      13.981  51.800  28.196  1.00  0.00     0.184 A 
HETATM    6  N3  UNL     1      14.913  52.262  27.363  1.00  0.00    -0.316 N 
ATOM      7  H3  UNL     1      14.789  52.451  26.369  1.00  0.00     0.169 HD
ENDROOT
BRANCH   1   8
HETATM    8  C9  UNL     1      17.318  52.940  27.478  1.00  0.00     0.186 C 
BRANCH   8   9
HETATM    9  N1  UNL     1      18.469  53.401  28.100  1.00  0.00    -0.349 N 
BRANCH   9  10
HETATM   10  C8  UNL     1      18.639  54.770  28.431  1.00  0.00     0.092 C 
HETATM   11  C7  UNL     1      19.695  55.114  29.458  1.00  0.00     0.017 C 
HETATM   12  C2  UNL     1      19.402  56.637  29.534  1.00  0.00    -0.038 C 
HETATM   13  C6  UNL     1      19.391  54.781  30.874  1.00  0.00     0.008 C 
HETATM   14  C1  UNL     1      20.276  57.336  30.517  1.00  0.00     0.015 C 
HETATM   15  C3  UNL     1      19.437  57.316  28.213  1.00  0.00     0.015 C 
HETATM   16  C4  UNL     1      17.959  56.449  30.032  1.00  0.00    -0.004 C 
HETATM   17  C5  UNL     1      18.196  55.664  31.272  1.00  0.00     0.006 C 
HETATM   18  C21 UNL     1      17.441  55.505  28.955  1.00  0.00     0.031 C 
ENDBRANCH   9  10
BRANCH   9  19
HETATM   19  C18 UNL     1      19.497  52.445  28.482  1.00  0.00     0.087 A 
HETATM   20  C19 UNL     1      19.273  51.231  29.295  1.00  0.00     0.027 A 
HETATM   21  C20 UNL     1      19.568  51.070  27.863  1.00  0.00     0.027 A 
ENDBRANCH   9  19
ENDBRANCH   8   9
BRANCH   8  22
HETATM   22  O1  UNL     1      17.312  52.944  26.173  1.00  0.00    -0.343 OA
ATOM     23  H1  UNL     1      18.155  53.007  25.741  1.00  0.00     0.219 HD
ENDBRANCH   8  22
ENDBRANCH   1   8
BRANCH   5  24
HETATM   24  C12 UNL     1      12.586  51.465  27.871  1.00  0.00     0.041 A 
HETATM   25  C13 UNL     1      11.751  52.440  27.377  1.00  0.00     0.043 A 
HETATM   26  C14 UNL     1      10.448  52.111  27.076  1.00  0.00     0.056 A 
HETATM   27 CL1  UNL     1       9.306  53.275  26.445  1.00  0.00    -0.083 Cl
HETATM   28  C15 UNL     1      10.016  50.826  27.276  1.00  0.00     0.057 A 
HETATM   29 CL2  UNL     1       8.379  50.327  26.920  1.00  0.00    -0.082 Cl
HETATM   30  C16 UNL     1      10.876  49.848  27.777  1.00  0.00     0.050 A 
HETATM   31  C17 UNL     1      12.176  50.171  28.079  1.00  0.00     0.050 A 
HETATM   32 CL3  UNL     1      13.304  49.004  28.707  1.00  0.00    -0.083 Cl
ENDBRANCH   5  24
TORSDOF 6
ENDMDL
MODEL 3
REMARK VINA RESULT: -10.527830144      1.262      1.487
REMARK  6 active torsions:
REMARK  status: ('A' for Active; 'I' for Inactive)
REMARK    1  A    between atoms: C8_8  and  N1_9 
REMARK    2  A    between atoms: N1_9  and  C9_10 
REMARK    3  A    between atoms: N1_9  and  C18_29 
REMARK    4  A    between atoms: C9_10  and  O1_11 
REMARK    5  A    between atoms: C9_10  and  C10_13 
REMARK    6  A    between atoms: C11_17  and  C12_18 
ROOT
HETATM    1  C10 UNL     1      16.290  53.453  27.507  1.00  0.00     0.179 A 
HETATM    2  N2  UNL     1      15.521  54.066  26.630  1.00  0.00    -0.239 N 
ATOM      3  H2  UNL     1      15.847  54.858  26.077  1.00  0.00     0.196 HD
HETATM    4  O2  UNL     1      14.347  53.598  26.521  1.00  0.00    -0.217 OA
HETATM    5  C11 UNL     1      14.263  52.596  27.364  1.00  0.00     0.184 A 
HETATM    6  N3  UNL     1      15.432  52.469  27.993  1.00  0.00    -0.316 N 
ATOM      7  H3  UNL     1      15.658  51.773  28.704  1.00  0.00     0.169 HD
ENDROOT
BRANCH   1   8
HETATM    8  C9  UNL     1      17.663  53.597  27.988  1.00  0.00     0.186 C 
BRANCH   8   9
HETATM    9  N1  UNL     1      18.104  53.896  29.269  1.00  0.00    -0.349 N 
BRANCH   9  10
HETATM   10  C8  UNL     1      18.468  55.216  29.644  1.00  0.00     0.092 C 
HETATM   11  C7  UNL     1      19.929  55.593  29.545  1.00  0.00     0.017 C 
HETATM   12  C2  UNL     1      19.802  57.017  30.150  1.00  0.00    -0.038 C 
HETATM   13  C6  UNL     1      20.842  55.022  30.569  1.00  0.00     0.008 C 
HETATM   14  C1  UNL     1      21.115  57.715  30.242  1.00  0.00     0.015 C 
HETATM   15  C3  UNL     1      18.794  57.867  29.466  1.00  0.00     0.015 C 
HETATM   16  C4  UNL     1      19.286  56.516  31.510  1.00  0.00    -0.004 C 
HETATM   17  C5  UNL     1      20.402  55.622  31.915  1.00  0.00     0.006 C 
HETATM   18  C21 UNL     1      18.123  55.654  31.037  1.00  0.00     0.031 C 
ENDBRANCH   9  10
BRANCH   9  19
HETATM   19  C18 UNL     1      18.130  52.841  30.272  1.00  0.00     0.087 A 
HETATM   20  C19 UNL     1      18.215  51.395  29.985  1.00  0.00     0.027 A 
HETATM   21  C20 UNL     1      19.389  52.062  30.567  1.00  0.00     0.027 A 
ENDBRANCH   9  19
ENDBRANCH   8   9
BRANCH   8  22
HETATM   22  O1  UNL     1      18.580  53.417  27.077  1.00  0.00    -0.343 OA
ATOM     23  H1  UNL     1      19.168  54.144  26.911  1.00  0.00     0.219 HD
ENDBRANCH   8  22
ENDBRANCH   1   8
BRANCH   5  24
HETATM   24  C12 UNL     1      13.058  51.775  27.554  1.00  0.00     0.041 A 
HETATM   25  C13 UNL     1      11.826  52.291  27.230  1.00  0.00     0.043 A 
HETATM   26  C14 UNL     1      10.707  51.510  27.412  1.00  0.00     0.056 A 
HETATM   27 CL1  UNL     1       9.095  52.072  27.032  1.00  0.00    -0.083 Cl
HETATM   28  C15 UNL     1      10.847  50.241  27.910  1.00  0.00     0.057 A 
HETATM   29 CL2  UNL     1       9.479  49.185  28.172  1.00  0.00    -0.082 Cl
HETATM   30  C16 UNL     1      12.105  49.731  28.235  1.00  0.00     0.050 A 
HETATM   31  C17 UNL     1      13.224  50.507  28.055  1.00  0.00     0.050 A 
HETATM   32 CL3  UNL     1      14.824  49.937  28.436  1.00  0.00    -0.083 Cl
ENDBRANCH   5  24
TORSDOF 6
ENDMDL
MODEL 4
REMARK VINA RESULT: -10.386631513      1.697      2.572
REMARK  6 active torsions:
REMARK  status: ('A' for Active; 'I' for Inactive)
REMARK    1  A    between atoms: C8_8  and  N1_9 
REMARK    2  A    between atoms: N1_9  and  C9_10 
REMARK    3  A    between atoms: N1_9  and  C18_29 
REMARK    4  A    between atoms: C9_10  and  O1_11 
REMARK    5  A    between atoms: C9_10  and  C10_13 
REMARK    6  A    between atoms: C11_17  and  C12_18 
ROOT
HETATM    1  C10 UNL     1      17.304  51.121  29.155  1.00  0.00     0.179 A 
HETATM    2  N2  UNL     1      17.141  49.916  28.650  1.00  0.00    -0.239 N 
ATOM      3  H2  UNL     1      17.903  49.241  28.587  1.00  0.00     0.196 HD
HETATM    4  O2  UNL     1      15.967  49.653  28.247  1.00  0.00    -0.217 OA
HETATM    5  C11 UNL     1      15.245  50.726  28.473  1.00  0.00     0.184 A 
HETATM    6  N3  UNL     1      16.023  51.654  29.030  1.00  0.00    -0.316 N 
ATOM      7  H3  UNL     1      15.732  52.589  29.315  1.00  0.00     0.169 HD
ENDROOT
BRANCH   1   8
HETATM    8  C9  UNL     1      18.412  51.881  29.733  1.00  0.00     0.186 C 
BRANCH   8   9
HETATM    9  N1  UNL     1      19.148  52.908  29.161  1.00  0.00    -0.349 N 
BRANCH   9  10
HETATM   10  C8  UNL     1      19.519  54.061  29.899  1.00  0.00     0.092 C 
HETATM   11  C7  UNL     1      18.408  54.947  30.416  1.00  0.00     0.017 C 
HETATM   12  C2  UNL     1      19.311  56.060  31.013  1.00  0.00    -0.038 C 
HETATM   13  C6  UNL     1      17.694  55.784  29.417  1.00  0.00     0.008 C 
HETATM   14  C1  UNL     1      18.521  57.172  31.614  1.00  0.00     0.015 C 
HETATM   15  C3  UNL     1      20.328  55.552  31.969  1.00  0.00     0.015 C 
HETATM   16  C4  UNL     1      19.944  56.429  29.661  1.00  0.00    -0.004 C 
HETATM   17  C5  UNL     1      18.732  56.782  28.877  1.00  0.00     0.006 C 
HETATM   18  C21 UNL     1      20.420  55.051  29.221  1.00  0.00     0.031 C 
ENDBRANCH   9  10
BRANCH   9  19
HETATM   19  C18 UNL     1      19.607  52.767  27.786  1.00  0.00     0.087 A 
HETATM   20  C19 UNL     1      19.319  51.618  26.904  1.00  0.00     0.027 A 
HETATM   21  C20 UNL     1      18.661  52.901  26.618  1.00  0.00     0.027 A 
ENDBRANCH   9  19
ENDBRANCH   8   9
BRANCH   8  22
HETATM   22  O1  UNL     1      18.736  51.531  30.948  1.00  0.00    -0.343 OA
ATOM     23  H1  UNL     1      18.022  51.351  31.547  1.00  0.00     0.219 HD
ENDBRANCH   8  22
ENDBRANCH   1   8
BRANCH   5  24
HETATM   24  C12 UNL     1      13.816  50.843  28.149  1.00  0.00     0.041 A 
HETATM   25  C13 UNL     1      12.977  49.778  28.383  1.00  0.00     0.043 A 
HETATM   26  C14 UNL     1      11.640  49.903  28.075  1.00  0.00     0.056 A 
HETATM   27 CL1  UNL     1      10.491  48.610  28.333  1.00  0.00    -0.083 Cl
HETATM   28  C15 UNL     1      11.180  51.080  27.545  1.00  0.00     0.057 A 
HETATM   29 CL2  UNL     1       9.499  51.320  27.127  1.00  0.00    -0.082 Cl
HETATM   30  C16 UNL     1      12.044  52.151  27.314  1.00  0.00     0.050 A 
HETATM   31  C17 UNL     1      13.378  52.031  27.619  1.00  0.00     0.050 A 
HETATM   32 CL3  UNL     1      14.512  53.325  27.358  1.00  0.00    -0.083 Cl
ENDBRANCH   5  24
TORSDOF 6
ENDMDL
MODEL 5
REMARK VINA RESULT: -10.321997704      1.400      1.893
REMARK  6 active torsions:
REMARK  status: ('A' for Active; 'I' for Inactive)
REMARK    1  A    between atoms: C8_8  and  N1_9 
REMARK    2  A    between atoms: N1_9  and  C9_10 
REMARK    3  A    between atoms: N1_9  and  C18_29 
REMARK    4  A    between atoms: C9_10  and  O1_11 
REMARK    5  A    between atoms: C9_10  and  C10_13 
REMARK    6  A    between atoms: C11_17  and  C12_18 
ROOT
HETATM    1  C10 UNL     1      16.666  51.501  28.858  1.00  0.00     0.179 A 
HETATM    2  N2  UNL     1      16.603  50.281  28.366  1.00  0.00    -0.239 N 
ATOM      3  H2  UNL     1      17.426  49.686  28.274  1.00  0.00     0.196 HD
HETATM    4  O2  UNL     1      15.446  49.898  28.015  1.00  0.00    -0.217 OA
HETATM    5  C11 UNL     1      14.630  50.895  28.266  1.00  0.00     0.184 A 
HETATM    6  N3  UNL     1      15.333  51.902  28.785  1.00  0.00    -0.316 N 
ATOM      7  H3  UNL     1      14.961  52.806  29.077  1.00  0.00     0.169 HD
ENDROOT
BRANCH   1   8
HETATM    8  C9  UNL     1      17.715  52.374  29.384  1.00  0.00     0.186 C 
BRANCH   8   9
HETATM    9  N1  UNL     1      18.651  53.120  28.683  1.00  0.00    -0.349 N 
BRANCH   9  10
HETATM   10  C8  UNL     1      18.692  54.536  28.769  1.00  0.00     0.092 C 
HETATM   11  C7  UNL     1      19.769  55.152  29.632  1.00  0.00     0.017 C 
HETATM   12  C2  UNL     1      19.316  56.630  29.480  1.00  0.00    -0.038 C 
HETATM   13  C6  UNL     1      19.598  55.042  31.104  1.00  0.00     0.008 C 
HETATM   14  C1  UNL     1      20.171  57.570  30.259  1.00  0.00     0.015 C 
HETATM   15  C3  UNL     1      19.189  57.071  28.068  1.00  0.00     0.015 C 
HETATM   16  C4  UNL     1      17.939  56.392  30.122  1.00  0.00    -0.004 C 
HETATM   17  C5  UNL     1      18.342  55.860  31.450  1.00  0.00     0.006 C 
HETATM   18  C21 UNL     1      17.457  55.230  29.263  1.00  0.00     0.031 C 
ENDBRANCH   9  10
BRANCH   9  19
HETATM   19  C18 UNL     1      19.659  52.427  27.893  1.00  0.00     0.087 A 
HETATM   20  C19 UNL     1      19.653  50.984  27.581  1.00  0.00     0.027 A 
HETATM   21  C20 UNL     1      19.367  51.934  26.496  1.00  0.00     0.027 A 
ENDBRANCH   9  19
ENDBRANCH   8   9
BRANCH   8  22
HETATM   22  O1  UNL     1      17.759  52.447  30.686  1.00  0.00    -0.343 OA
ATOM     23  H1  UNL     1      17.433  51.697  31.168  1.00  0.00     0.219 HD
ENDBRANCH   8  22
ENDBRANCH   1   8
BRANCH   5  24
HETATM   24  C12 UNL     1      13.183  50.865  28.003  1.00  0.00     0.041 A 
HETATM   25  C13 UNL     1      12.458  49.742  28.327  1.00  0.00     0.043 A 
HETATM   26  C14 UNL     1      11.104  49.729  28.075  1.00  0.00     0.056 A 
HETATM   27 CL1  UNL     1      10.092  48.352  28.447  1.00  0.00    -0.083 Cl
HETATM   28  C15 UNL     1      10.514  50.829  27.511  1.00  0.00     0.057 A 
HETATM   29 CL2  UNL     1       8.803  50.894  27.159  1.00  0.00    -0.082 Cl
HETATM   30  C16 UNL     1      11.265  51.961  27.188  1.00  0.00     0.050 A 
HETATM   31  C17 UNL     1      12.615  51.979  27.437  1.00  0.00     0.050 A 
HETATM   32 CL3  UNL     1      13.613  53.355  27.063  1.00  0.00    -0.083 Cl
ENDBRANCH   5  24
TORSDOF 6
ENDMDL
