MODEL 1
REMARK VINA RESULT: -5.850947256      0.000      0.000
REMARK  3 active torsions:
REMARK  status: ('A' for Active; 'I' for Inactive)
REMARK    1  A    between atoms: N1_1  and  C1_4 
REMARK    2  A    between atoms: C3_9  and  C4_10 
REMARK    3  A    between atoms: C6_12  and  O1_13 
ROOT
HETATM    1  C1  UNL     1      -0.580   0.711  -2.665  1.00  0.00     0.143 A 
HETATM    2  N2  UNL     1      -1.130   1.161  -3.794  1.00  0.00    -0.330 N 
ATOM      3  H2  UNL     1      -1.892   1.840  -3.778  1.00  0.00     0.168 HD
HETATM    4  C2  UNL     1      -0.653   0.695  -4.936  1.00  0.00     0.093 A 
HETATM    5  S1  UNL     1      -0.952   0.900  -6.630  1.00  0.00    -0.074 SA
HETATM    6  C3  UNL     1       0.235  -0.182  -7.254  1.00  0.00    -0.000 A 
HETATM    7  C9  UNL     1       0.816  -0.658  -6.110  1.00  0.00     0.037 A 
HETATM    8  C10 UNL     1       0.337  -0.188  -4.940  1.00  0.00     0.043 A 
HETATM    9  S3  UNL     1       0.611  -0.371  -3.251  1.00  0.00    -0.052 SA
ENDROOT
BRANCH   6  10
HETATM   10  C4  UNL     1       0.545  -0.509  -8.692  1.00  0.00     0.089 C 
HETATM   11  C5  UNL     1       0.529  -1.992  -8.876  1.00  0.00     0.052 C 
HETATM   12  C6  UNL     1       0.029  -2.400 -10.247  1.00  0.00     0.120 C 
HETATM   13  C7  UNL     1       0.579  -1.520 -11.333  1.00  0.00     0.042 C 
HETATM   14  C8  UNL     1      -0.206  -0.233 -11.495  1.00  0.00     0.077 C 
HETATM   15  S2  UNL     1      -0.625   0.322  -9.800  1.00  0.00    -0.159 SA
BRANCH  12  16
HETATM   16  O1  UNL     1       0.469  -3.715 -10.459  1.00  0.00    -0.396 OA
ATOM     17  H1  UNL     1       0.717  -3.774 -11.374  1.00  0.00     0.210 HD
ENDBRANCH  12  16
ENDBRANCH   6  10
BRANCH   1  18
HETATM   18  N1  UNL     1      -0.864   1.011  -1.420  1.00  0.00    -0.380 N 
ATOM     19  H12 UNL     1      -1.730   1.399  -1.044  1.00  0.00     0.158 HD
ATOM     20  H11 UNL     1      -0.290   0.919  -0.582  1.00  0.00     0.158 HD
ENDBRANCH   1  18
TORSDOF 3
ENDMDL
MODEL 2
REMARK VINA RESULT: -5.836439713      2.631      3.049
REMARK  3 active torsions:
REMARK  status: ('A' for Active; 'I' for Inactive)
REMARK    1  A    between atoms: N1_1  and  C1_4 
REMARK    2  A    between atoms: C3_9  and  C4_10 
REMARK    3  A    between atoms: C6_12  and  O1_13 
ROOT
HETATM    1  C1  UNL     1       0.538  -0.650  -2.643  1.00  0.00     0.143 A 
HETATM    2  N2  UNL     1       1.090  -1.113  -3.765  1.00  0.00    -0.330 N 
ATOM      3  H2  UNL     1       1.849  -1.795  -3.739  1.00  0.00     0.168 HD
HETATM    4  C2  UNL     1       0.619  -0.657  -4.914  1.00  0.00     0.093 A 
HETATM    5  S1  UNL     1       0.923  -0.881  -6.604  1.00  0.00    -0.074 SA
HETATM    6  C3  UNL     1      -0.257   0.200  -7.243  1.00  0.00    -0.000 A 
HETATM    7  C9  UNL     1      -0.840   0.690  -6.107  1.00  0.00     0.037 A 
HETATM    8  C10 UNL     1      -0.368   0.230  -4.930  1.00  0.00     0.043 A 
HETATM    9  S3  UNL     1      -0.647   0.431  -3.244  1.00  0.00    -0.052 SA
ENDROOT
BRANCH   6  10
HETATM   10  C4  UNL     1      -0.560   0.514  -8.685  1.00  0.00     0.089 C 
HETATM   11  C5  UNL     1      -0.542   1.995  -8.883  1.00  0.00     0.052 C 
HETATM   12  C6  UNL     1      -0.037   2.389 -10.256  1.00  0.00     0.120 C 
HETATM   13  C7  UNL     1      -0.583   1.500 -11.336  1.00  0.00     0.042 C 
HETATM   14  C8  UNL     1       0.202   0.210 -11.483  1.00  0.00     0.077 C 
HETATM   15  S2  UNL     1       0.614  -0.329  -9.781  1.00  0.00    -0.159 SA
BRANCH  12  16
HETATM   16  O1  UNL     1      -0.475   3.703 -10.483  1.00  0.00    -0.396 OA
ATOM     17  H1  UNL     1       0.203   4.130 -10.993  1.00  0.00     0.210 HD
ENDBRANCH  12  16
ENDBRANCH   6  10
BRANCH   1  18
HETATM   18  N1  UNL     1       0.817  -0.938  -1.393  1.00  0.00    -0.380 N 
ATOM     19  H12 UNL     1       0.828  -1.853  -0.942  1.00  0.00     0.158 HD
ATOM     20  H11 UNL     1       1.077  -0.318  -0.626  1.00  0.00     0.158 HD
ENDBRANCH   1  18
TORSDOF 3
ENDMDL
MODEL 3
REMARK VINA RESULT: -5.777924113      2.522      2.876
REMARK  3 active torsions:
REMARK  status: ('A' for Active; 'I' for Inactive)
REMARK    1  A    between atoms: N1_1  and  C1_4 
REMARK    2  A    between atoms: C3_9  and  C4_10 
REMARK    3  A    between atoms: C6_12  and  O1_13 
ROOT
HETATM    1  C1  UNL     1       0.913  -0.990  -2.497  1.00  0.00     0.143 A 
HETATM    2  N2  UNL     1       0.019  -0.167  -3.047  1.00  0.00    -0.330 N 
ATOM      3  H2  UNL     1      -0.613   0.389  -2.471  1.00  0.00     0.168 HD
HETATM    4  C2  UNL     1      -0.018  -0.097  -4.368  1.00  0.00     0.093 A 
HETATM    5  S1  UNL     1      -0.917   0.749  -5.582  1.00  0.00    -0.074 SA
HETATM    6  C3  UNL     1      -0.161   0.101  -6.989  1.00  0.00    -0.000 A 
HETATM    7  C9  UNL     1       0.764  -0.750  -6.448  1.00  0.00     0.037 A 
HETATM    8  C10 UNL     1       0.811  -0.827  -5.103  1.00  0.00     0.043 A 
HETATM    9  S3  UNL     1       1.688  -1.653  -3.873  1.00  0.00    -0.052 SA
ENDROOT
BRANCH   6  10
HETATM   10  C4  UNL     1      -0.452   0.404  -8.436  1.00  0.00     0.089 C 
HETATM   11  C5  UNL     1      -0.511   1.884  -8.629  1.00  0.00     0.052 C 
HETATM   12  C6  UNL     1      -0.000   2.311  -9.990  1.00  0.00     0.120 C 
HETATM   13  C7  UNL     1      -0.475   1.398 -11.083  1.00  0.00     0.042 C 
HETATM   14  C8  UNL     1       0.383   0.154 -11.218  1.00  0.00     0.077 C 
HETATM   15  S2  UNL     1       0.789  -0.369  -9.509  1.00  0.00    -0.159 SA
BRANCH  12  16
HETATM   16  O1  UNL     1      -0.505   3.600 -10.222  1.00  0.00    -0.396 OA
ATOM     17  H1  UNL     1       0.097   4.022 -10.823  1.00  0.00     0.210 HD
ENDBRANCH  12  16
ENDBRANCH   6  10
BRANCH   1  18
HETATM   18  N1  UNL     1       1.152  -1.239  -1.231  1.00  0.00    -0.380 N 
ATOM     19  H12 UNL     1       0.530  -1.660  -0.541  1.00  0.00     0.158 HD
ATOM     20  H11 UNL     1       1.995  -1.067  -0.682  1.00  0.00     0.158 HD
ENDBRANCH   1  18
TORSDOF 3
ENDMDL
MODEL 4
REMARK VINA RESULT: -5.773127298      1.158      1.340
REMARK  3 active torsions:
REMARK  status: ('A' for Active; 'I' for Inactive)
REMARK    1  A    between atoms: N1_1  and  C1_4 
REMARK    2  A    between atoms: C3_9  and  C4_10 
REMARK    3  A    between atoms: C6_12  and  O1_13 
ROOT
HETATM    1  C1  UNL     1      -0.751   0.852  -2.407  1.00  0.00     0.143 A 
HETATM    2  N2  UNL     1       0.095   0.005  -2.996  1.00  0.00    -0.330 N 
ATOM      3  H2  UNL     1       0.706  -0.600  -2.446  1.00  0.00     0.168 HD
HETATM    4  C2  UNL     1       0.114  -0.022  -4.318  1.00  0.00     0.093 A 
HETATM    5  S1  UNL     1       0.957  -0.869  -5.571  1.00  0.00    -0.074 SA
HETATM    6  C3  UNL     1       0.218  -0.138  -6.946  1.00  0.00    -0.000 A 
HETATM    7  C9  UNL     1      -0.659   0.738  -6.365  1.00  0.00     0.037 A 
HETATM    8  C10 UNL     1      -0.687   0.772  -5.018  1.00  0.00     0.043 A 
HETATM    9  S3  UNL     1      -1.508   1.597  -3.750  1.00  0.00    -0.052 SA
ENDROOT
BRANCH   6  10
HETATM   10  C4  UNL     1       0.477  -0.405  -8.406  1.00  0.00     0.089 C 
HETATM   11  C5  UNL     1       0.541  -1.881  -8.634  1.00  0.00     0.052 C 
HETATM   12  C6  UNL     1       0.002  -2.279  -9.993  1.00  0.00     0.120 C 
HETATM   13  C7  UNL     1       0.445  -1.337 -11.076  1.00  0.00     0.042 C 
HETATM   14  C8  UNL     1      -0.423  -0.096 -11.162  1.00  0.00     0.077 C 
HETATM   15  S2  UNL     1      -0.792   0.384  -9.432  1.00  0.00    -0.159 SA
BRANCH  12  16
HETATM   16  O1  UNL     1       0.509  -3.559 -10.266  1.00  0.00    -0.396 OA
ATOM     17  H1  UNL     1      -0.150  -4.179  -9.976  1.00  0.00     0.210 HD
ENDBRANCH  12  16
ENDBRANCH   6  10
BRANCH   1  18
HETATM   18  N1  UNL     1      -0.963   1.069  -1.130  1.00  0.00    -0.380 N 
ATOM     19  H12 UNL     1      -0.882   0.411  -0.355  1.00  0.00     0.158 HD
ATOM     20  H11 UNL     1      -1.247   1.926  -0.655  1.00  0.00     0.158 HD
ENDBRANCH   1  18
TORSDOF 3
ENDMDL
MODEL 5
REMARK VINA RESULT: -5.683677792      4.000      6.857
REMARK  3 active torsions:
REMARK  status: ('A' for Active; 'I' for Inactive)
REMARK    1  A    between atoms: N1_1  and  C1_4 
REMARK    2  A    between atoms: C3_9  and  C4_10 
REMARK    3  A    between atoms: C6_12  and  O1_13 
ROOT
HETATM    1  C1  UNL     1       0.101   0.105 -11.538  1.00  0.00     0.143 A 
HETATM    2  N2  UNL     1       0.400  -0.788 -10.594  1.00  0.00    -0.330 N 
ATOM      3  H2  UNL     1       0.649  -1.748 -10.834  1.00  0.00     0.168 HD
HETATM    4  C2  UNL     1       0.362  -0.385  -9.335  1.00  0.00     0.093 A 
HETATM    5  S1  UNL     1       0.636  -1.059  -7.763  1.00  0.00    -0.074 SA
HETATM    6  C3  UNL     1       0.308   0.334  -6.803  1.00  0.00    -0.000 A 
HETATM    7  C9  UNL     1      -0.002   1.268  -7.753  1.00  0.00     0.037 A 
HETATM    8  C10 UNL     1       0.035   0.867  -9.040  1.00  0.00     0.043 A 
HETATM    9  S3  UNL     1      -0.231   1.509 -10.615  1.00  0.00    -0.052 SA
ENDROOT
BRANCH   6  10
HETATM   10  C4  UNL     1       0.355   0.474  -5.304  1.00  0.00     0.089 C 
HETATM   11  C5  UNL     1      -0.997   0.861  -4.800  1.00  0.00     0.052 C 
HETATM   12  C6  UNL     1      -1.296   0.274  -3.435  1.00  0.00     0.120 C 
HETATM   13  C7  UNL     1      -0.110   0.348  -2.517  1.00  0.00     0.042 C 
HETATM   14  C8  UNL     1       0.864  -0.795  -2.728  1.00  0.00     0.077 C 
HETATM   15  S2  UNL     1       0.948  -1.060  -4.540  1.00  0.00    -0.159 SA
BRANCH  12  16
HETATM   16  O1  UNL     1      -2.341   1.036  -2.891  1.00  0.00    -0.396 OA
ATOM     17  H1  UNL     1      -1.939   1.674  -2.313  1.00  0.00     0.210 HD
ENDBRANCH  12  16
ENDBRANCH   6  10
BRANCH   1  18
HETATM   18  N1  UNL     1       0.067  -0.037 -12.843  1.00  0.00    -0.380 N 
ATOM     19  H12 UNL     1       0.737  -0.516 -13.445  1.00  0.00     0.158 HD
ATOM     20  H11 UNL     1      -0.625   0.295 -13.514  1.00  0.00     0.158 HD
ENDBRANCH   1  18
TORSDOF 3
ENDMDL
