MODEL 1
REMARK VINA RESULT: -6.317559835      0.000      0.000
REMARK  5 active torsions:
REMARK  status: ('A' for Active; 'I' for Inactive)
REMARK    1  A    between atoms: O1_2  and  C2_3 
REMARK       I    between atoms: C2_3  and  N1_5 
REMARK    2  A    between atoms: N1_5  and  C3_7 
REMARK    3  A    between atoms: C5_10  and  C6_11 
REMARK    4  A    between atoms: N3_14  and  C9_15 
REMARK    5  A    between atoms: C13_19  and  O3_20 
ROOT
HETATM    1  C3  UNL     1      -0.030   0.116  -4.643  1.00  0.00     0.115 A 
HETATM    2  C4  UNL     1       0.625   0.958  -5.523  1.00  0.00     0.104 A 
HETATM    3  N2  UNL     1       1.422   2.067  -5.120  1.00  0.00    -0.097 NA
HETATM    4  C5  UNL     1       0.414   0.511  -6.836  1.00  0.00     0.065 A 
HETATM    5  N3  UNL     1      -0.340  -0.569  -6.777  1.00  0.00    -0.315 N 
HETATM    6  C13 UNL     1      -0.624  -0.825  -5.451  1.00  0.00     0.173 A 
ENDROOT
BRANCH   1   7
HETATM    7  N1  UNL     1       0.009   0.287  -3.235  1.00  0.00    -0.297 N 
HETATM    8  C2  UNL     1      -0.990   0.663  -2.348  1.00  0.00     0.364 C 
HETATM    9  O2  UNL     1      -2.163   0.953  -2.607  1.00  0.00    -0.238 OA
ATOM     10  H1  UNL     1       0.916   0.105  -2.806  1.00  0.00     0.171 HD
BRANCH   8  11
HETATM   11  O1  UNL     1      -0.646   0.725  -0.984  1.00  0.00    -0.309 OA
HETATM   12  C1  UNL     1      -1.050   1.823  -0.206  1.00  0.00     0.215 C 
ENDBRANCH   8  11
ENDBRANCH   1   7
BRANCH   6  13
HETATM   13  O3  UNL     1      -1.390  -1.877  -4.981  1.00  0.00    -0.344 OA
ATOM     14  H3  UNL     1      -2.208  -2.157  -5.375  1.00  0.00     0.219 HD
ENDBRANCH   6  13
BRANCH   4  15
HETATM   15  C6  UNL     1       0.898   1.361  -7.936  1.00  0.00    -0.059 C 
HETATM   16  C7  UNL     1      -0.133   2.067  -8.763  1.00  0.00     0.045 C 
HETATM   17  C8  UNL     1       2.007   0.776  -8.764  1.00  0.00     0.045 C 
ENDBRANCH   4  15
BRANCH   5  18
HETATM   18  C9  UNL     1      -0.875  -1.303  -7.912  1.00  0.00     0.029 C 
HETATM   19  C10 UNL     1      -1.930  -0.397  -8.614  1.00  0.00     0.038 C 
HETATM   20  C11 UNL     1       0.129  -1.863  -8.869  1.00  0.00     0.038 C 
HETATM   21  C12 UNL     1      -1.724  -2.509  -7.471  1.00  0.00     0.038 C 
ENDBRANCH   5  18
TORSDOF 5
ENDMDL
MODEL 2
REMARK VINA RESULT: -6.292418450      1.998      3.539
REMARK  5 active torsions:
REMARK  status: ('A' for Active; 'I' for Inactive)
REMARK    1  A    between atoms: O1_2  and  C2_3 
REMARK       I    between atoms: C2_3  and  N1_5 
REMARK    2  A    between atoms: N1_5  and  C3_7 
REMARK    3  A    between atoms: C5_10  and  C6_11 
REMARK    4  A    between atoms: N3_14  and  C9_15 
REMARK    5  A    between atoms: C13_19  and  O3_20 
ROOT
HETATM    1  C3  UNL     1       0.102  -0.115  -4.652  1.00  0.00     0.115 A 
HETATM    2  C4  UNL     1      -0.597  -0.953  -5.501  1.00  0.00     0.104 A 
HETATM    3  N2  UNL     1      -1.384  -2.056  -5.062  1.00  0.00    -0.097 NA
HETATM    4  C5  UNL     1      -0.440  -0.509  -6.823  1.00  0.00     0.065 A 
HETATM    5  N3  UNL     1       0.324   0.565  -6.797  1.00  0.00    -0.315 N 
HETATM    6  C13 UNL     1       0.667   0.821  -5.486  1.00  0.00     0.173 A 
ENDROOT
BRANCH   1   7
HETATM    7  N1  UNL     1       0.123  -0.284  -3.243  1.00  0.00    -0.297 N 
HETATM    8  C2  UNL     1       1.062  -0.899  -2.426  1.00  0.00     0.364 C 
HETATM    9  O2  UNL     1       2.108  -1.461  -2.765  1.00  0.00    -0.238 OA
ATOM     10  H1  UNL     1      -0.680   0.108  -2.752  1.00  0.00     0.171 HD
BRANCH   8  11
HETATM   11  O1  UNL     1       0.811  -0.888  -1.040  1.00  0.00    -0.309 OA
HETATM   12  C1  UNL     1       1.182  -1.988  -0.249  1.00  0.00     0.215 C 
ENDBRANCH   8  11
ENDBRANCH   1   7
BRANCH   6  13
HETATM   13  O3  UNL     1       1.461   1.867  -5.051  1.00  0.00    -0.344 OA
ATOM     14  H3  UNL     1       1.441   2.741  -5.425  1.00  0.00     0.219 HD
ENDBRANCH   6  13
BRANCH   4  15
HETATM   15  C6  UNL     1      -0.977  -1.356  -7.900  1.00  0.00    -0.059 C 
HETATM   16  C7  UNL     1       0.007  -2.150  -8.704  1.00  0.00     0.045 C 
HETATM   17  C8  UNL     1      -2.046  -0.725  -8.746  1.00  0.00     0.045 C 
ENDBRANCH   4  15
BRANCH   5  18
HETATM   18  C9  UNL     1       0.815   1.294  -7.956  1.00  0.00     0.029 C 
HETATM   19  C10 UNL     1       1.820   0.373  -8.711  1.00  0.00     0.038 C 
HETATM   20  C11 UNL     1      -0.225   1.874  -8.861  1.00  0.00     0.038 C 
HETATM   21  C12 UNL     1       1.705   2.484  -7.555  1.00  0.00     0.038 C 
ENDBRANCH   5  18
TORSDOF 5
ENDMDL
MODEL 3
REMARK VINA RESULT: -6.173013945      1.365      3.106
REMARK  5 active torsions:
REMARK  status: ('A' for Active; 'I' for Inactive)
REMARK    1  A    between atoms: O1_2  and  C2_3 
REMARK       I    between atoms: C2_3  and  N1_5 
REMARK    2  A    between atoms: N1_5  and  C3_7 
REMARK    3  A    between atoms: C5_10  and  C6_11 
REMARK    4  A    between atoms: N3_14  and  C9_15 
REMARK    5  A    between atoms: C13_19  and  O3_20 
ROOT
HETATM    1  C3  UNL     1       0.084   0.051  -4.705  1.00  0.00     0.115 A 
HETATM    2  C4  UNL     1      -0.578  -0.886  -5.476  1.00  0.00     0.104 A 
HETATM    3  N2  UNL     1      -1.360  -1.949  -4.939  1.00  0.00    -0.097 NA
HETATM    4  C5  UNL     1      -0.393  -0.585  -6.834  1.00  0.00     0.065 A 
HETATM    5  N3  UNL     1       0.354   0.499  -6.906  1.00  0.00    -0.315 N 
HETATM    6  C13 UNL     1       0.657   0.902  -5.622  1.00  0.00     0.173 A 
ENDROOT
BRANCH   1   7
HETATM    7  N1  UNL     1       0.070   0.036  -3.286  1.00  0.00    -0.297 N 
HETATM    8  C2  UNL     1      -0.740   0.717  -2.389  1.00  0.00     0.364 C 
HETATM    9  O2  UNL     1      -1.643   1.520  -2.643  1.00  0.00    -0.238 OA
ATOM     10  H1  UNL     1       0.768  -0.573  -2.858  1.00  0.00     0.171 HD
BRANCH   8  11
HETATM   11  O1  UNL     1      -0.524   0.474  -1.018  1.00  0.00    -0.309 OA
HETATM   12  C1  UNL     1      -0.767   1.489  -0.077  1.00  0.00     0.215 C 
ENDBRANCH   8  11
ENDBRANCH   1   7
BRANCH   6  13
HETATM   13  O3  UNL     1       1.423   2.004  -5.284  1.00  0.00    -0.344 OA
ATOM     14  H3  UNL     1       2.122   2.352  -5.824  1.00  0.00     0.219 HD
ENDBRANCH   6  13
BRANCH   4  15
HETATM   15  C6  UNL     1      -0.888  -1.553  -7.825  1.00  0.00    -0.059 C 
HETATM   16  C7  UNL     1       0.129  -2.226  -8.695  1.00  0.00     0.045 C 
HETATM   17  C8  UNL     1      -2.115  -1.131  -8.583  1.00  0.00     0.045 C 
ENDBRANCH   4  15
BRANCH   5  18
HETATM   18  C9  UNL     1       0.864   1.108  -8.124  1.00  0.00     0.029 C 
HETATM   19  C10 UNL     1       1.949   0.158  -8.715  1.00  0.00     0.038 C 
HETATM   20  C11 UNL     1      -0.158   1.515  -9.138  1.00  0.00     0.038 C 
HETATM   21  C12 UNL     1       1.673   2.385  -7.837  1.00  0.00     0.038 C 
ENDBRANCH   5  18
TORSDOF 5
ENDMDL
MODEL 4
REMARK VINA RESULT: -6.170009340      1.347      1.499
REMARK  5 active torsions:
REMARK  status: ('A' for Active; 'I' for Inactive)
REMARK    1  A    between atoms: O1_2  and  C2_3 
REMARK       I    between atoms: C2_3  and  N1_5 
REMARK    2  A    between atoms: N1_5  and  C3_7 
REMARK    3  A    between atoms: C5_10  and  C6_11 
REMARK    4  A    between atoms: N3_14  and  C9_15 
REMARK    5  A    between atoms: C13_19  and  O3_20 
ROOT
HETATM    1  C3  UNL     1      -0.044   0.005  -4.702  1.00  0.00     0.115 A 
HETATM    2  C4  UNL     1       0.608   0.937  -5.489  1.00  0.00     0.104 A 
HETATM    3  N2  UNL     1       1.391   2.009  -4.970  1.00  0.00    -0.097 NA
HETATM    4  C5  UNL     1       0.411   0.622  -6.842  1.00  0.00     0.065 A 
HETATM    5  N3  UNL     1      -0.333  -0.466  -6.896  1.00  0.00    -0.315 N 
HETATM    6  C13 UNL     1      -0.622  -0.856  -5.605  1.00  0.00     0.173 A 
ENDROOT
BRANCH   1   7
HETATM    7  N1  UNL     1      -0.016   0.035  -3.284  1.00  0.00    -0.297 N 
HETATM    8  C2  UNL     1       0.672  -0.765  -2.382  1.00  0.00     0.364 C 
HETATM    9  O2  UNL     1       1.420  -1.716  -2.631  1.00  0.00    -0.238 OA
ATOM     10  H1  UNL     1      -0.594   0.760  -2.859  1.00  0.00     0.171 HD
BRANCH   8  11
HETATM   11  O1  UNL     1       0.511  -0.473  -1.014  1.00  0.00    -0.309 OA
HETATM   12  C1  UNL     1       0.789  -1.455  -0.047  1.00  0.00     0.215 C 
ENDBRANCH   8  11
ENDBRANCH   1   7
BRANCH   6  13
HETATM   13  O3  UNL     1      -1.380  -1.957  -5.249  1.00  0.00    -0.344 OA
ATOM     14  H3  UNL     1      -1.840  -2.511  -5.870  1.00  0.00     0.219 HD
ENDBRANCH   6  13
BRANCH   4  15
HETATM   15  C6  UNL     1       0.893   1.582  -7.847  1.00  0.00    -0.059 C 
HETATM   16  C7  UNL     1      -0.135   2.238  -8.718  1.00  0.00     0.045 C 
HETATM   17  C8  UNL     1       2.117   1.160  -8.609  1.00  0.00     0.045 C 
ENDBRANCH   4  15
BRANCH   5  18
HETATM   18  C9  UNL     1      -0.852  -1.088  -8.103  1.00  0.00     0.029 C 
HETATM   19  C10 UNL     1      -1.943  -0.145  -8.696  1.00  0.00     0.038 C 
HETATM   20  C11 UNL     1       0.161  -1.505  -9.120  1.00  0.00     0.038 C 
HETATM   21  C12 UNL     1      -1.658  -2.362  -7.795  1.00  0.00     0.038 C 
ENDBRANCH   5  18
TORSDOF 5
ENDMDL
MODEL 5
REMARK VINA RESULT: -5.724722482      3.191      5.144
REMARK  5 active torsions:
REMARK  status: ('A' for Active; 'I' for Inactive)
REMARK    1  A    between atoms: O1_2  and  C2_3 
REMARK       I    between atoms: C2_3  and  N1_5 
REMARK    2  A    between atoms: N1_5  and  C3_7 
REMARK    3  A    between atoms: C5_10  and  C6_11 
REMARK    4  A    between atoms: N3_14  and  C9_15 
REMARK    5  A    between atoms: C13_19  and  O3_20 
ROOT
HETATM    1  C3  UNL     1       1.143  -1.032  -2.161  1.00  0.00     0.115 A 
HETATM    2  C4  UNL     1       0.985  -0.974  -3.533  1.00  0.00     0.104 A 
HETATM    3  N2  UNL     1       1.745  -1.748  -4.456  1.00  0.00    -0.097 NA
HETATM    4  C5  UNL     1      -0.057  -0.086  -3.843  1.00  0.00     0.065 A 
HETATM    5  N3  UNL     1      -0.531   0.388  -2.707  1.00  0.00    -0.315 N 
HETATM    6  C13 UNL     1       0.187  -0.172  -1.672  1.00  0.00     0.173 A 
ENDROOT
BRANCH   1   7
HETATM    7  N1  UNL     1       2.104  -1.861  -1.527  1.00  0.00    -0.297 N 
HETATM    8  C2  UNL     1       3.490  -1.779  -1.510  1.00  0.00     0.364 C 
HETATM    9  O2  UNL     1       4.206  -0.945  -2.074  1.00  0.00    -0.238 OA
ATOM     10  H1  UNL     1       1.715  -2.643  -1.001  1.00  0.00     0.171 HD
BRANCH   8  11
HETATM   11  O1  UNL     1       4.180  -2.752  -0.763  1.00  0.00    -0.309 OA
HETATM   12  C1  UNL     1       5.425  -2.445  -0.186  1.00  0.00     0.215 C 
ENDBRANCH   8  11
ENDBRANCH   1   7
BRANCH   6  13
HETATM   13  O3  UNL     1      -0.014   0.077  -0.326  1.00  0.00    -0.344 OA
ATOM     14  H3  UNL     1      -0.408   0.872   0.015  1.00  0.00     0.219 HD
ENDBRANCH   6  13
BRANCH   4  15
HETATM   15  C6  UNL     1      -0.283   0.239  -5.260  1.00  0.00    -0.059 C 
HETATM   16  C7  UNL     1      -0.790  -0.861  -6.144  1.00  0.00     0.045 C 
HETATM   17  C8  UNL     1       0.790   1.062  -5.914  1.00  0.00     0.045 C 
ENDBRANCH   4  15
BRANCH   5  18
HETATM   18  C9  UNL     1      -1.557   1.409  -2.568  1.00  0.00     0.029 C 
HETATM   19  C10 UNL     1      -1.062   2.690  -3.305  1.00  0.00     0.038 C 
HETATM   20  C11 UNL     1      -2.942   1.013  -2.972  1.00  0.00     0.038 C 
HETATM   21  C12 UNL     1      -1.689   1.901  -1.116  1.00  0.00     0.038 C 
ENDBRANCH   5  18
TORSDOF 5
ENDMDL
