MODEL 1
REMARK VINA RESULT: -5.911908994      0.000      0.000
REMARK  2 active torsions:
REMARK  status: ('A' for Active; 'I' for Inactive)
REMARK    1  A    between atoms: N2_3  and  C2_5 
REMARK    2  A    between atoms: C10_15  and  C11_16 
ROOT
HETATM    1  N1  UNL     1      -3.897   1.994  -0.596  1.00  0.00    -0.171 NA
HETATM    2  C1  UNL     1      -3.662   1.741  -1.711  1.00  0.00     0.196 C 
HETATM    3  N2  UNL     1      -3.384   1.446  -3.036  1.00  0.00    -0.126 N 
ATOM      4  H2  UNL     1      -4.122   1.473  -3.740  1.00  0.00     0.197 HD
ENDROOT
BRANCH   3   5
HETATM    5  C2  UNL     1      -2.054   1.108  -3.396  1.00  0.00     0.684 C 
HETATM    6  N3  UNL     1      -1.211   0.895  -2.488  1.00  0.00    -0.211 N 
HETATM    7  C3  UNL     1       0.192   0.538  -2.615  1.00  0.00     0.176 C 
ATOM      8  H3  UNL     1      -1.558   0.984  -1.533  1.00  0.00     0.179 HD
HETATM    9  C4  UNL     1       0.706  -0.544  -1.863  1.00  0.00    -0.156 C 
HETATM   10  C9  UNL     1       0.575   0.247  -4.096  1.00  0.00     0.070 C 
HETATM   11  C5  UNL     1       1.162  -1.755  -1.307  1.00  0.00     0.086 C 
HETATM   12  C6  UNL     1       1.669  -2.628  -2.506  1.00  0.00     0.038 C 
HETATM   13  C7  UNL     1       0.887  -2.358  -3.752  1.00  0.00    -0.029 C 
HETATM   14  C8  UNL     1       0.685  -1.169  -4.464  1.00  0.00    -0.021 C 
HETATM   15  C10 UNL     1      -0.232   1.094  -4.998  1.00  0.00     0.150 C 
HETATM   16  N4  UNL     1      -1.638   1.002  -4.753  1.00  0.00    -0.216 N 
ATOM     17  H4  UNL     1      -2.307   0.868  -5.511  1.00  0.00     0.178 HD
BRANCH  15  18
HETATM   18  C11 UNL     1       0.132   0.887  -6.429  1.00  0.00     0.006 A 
HETATM   19  C12 UNL     1       1.240   1.386  -7.069  1.00  0.00     0.017 A 
HETATM   20  C13 UNL     1       1.391   1.091  -8.363  1.00  0.00     0.008 A 
HETATM   21  C14 UNL     1       0.430   0.313  -8.951  1.00  0.00     0.050 A 
HETATM   22  S1  UNL     1      -0.653   0.024  -7.669  1.00  0.00    -0.104 SA
ENDBRANCH  15  18
ENDBRANCH   3   5
TORSDOF 2
ENDMDL
MODEL 2
REMARK VINA RESULT: -5.908750525      2.649      4.449
REMARK  2 active torsions:
REMARK  status: ('A' for Active; 'I' for Inactive)
REMARK    1  A    between atoms: N2_3  and  C2_5 
REMARK    2  A    between atoms: C10_15  and  C11_16 
ROOT
HETATM    1  N1  UNL     1       3.872  -2.025  -0.596  1.00  0.00    -0.171 NA
HETATM    2  C1  UNL     1       3.638  -1.756  -1.708  1.00  0.00     0.196 C 
HETATM    3  N2  UNL     1       3.362  -1.442  -3.029  1.00  0.00    -0.126 N 
ATOM      4  H2  UNL     1       4.103  -1.452  -3.731  1.00  0.00     0.197 HD
ENDROOT
BRANCH   3   5
HETATM    5  C2  UNL     1       2.031  -1.108  -3.388  1.00  0.00     0.684 C 
HETATM    6  N3  UNL     1       1.193  -0.878  -2.480  1.00  0.00    -0.211 N 
HETATM    7  C3  UNL     1      -0.210  -0.522  -2.606  1.00  0.00     0.176 C 
ATOM      8  H3  UNL     1       1.545  -0.952  -1.525  1.00  0.00     0.179 HD
HETATM    9  C4  UNL     1      -0.720   0.574  -1.871  1.00  0.00    -0.156 C 
HETATM   10  C9  UNL     1      -0.600  -0.256  -4.090  1.00  0.00     0.070 C 
HETATM   11  C5  UNL     1      -1.171   1.794  -1.333  1.00  0.00     0.086 C 
HETATM   12  C6  UNL     1      -1.683   2.648  -2.545  1.00  0.00     0.038 C 
HETATM   13  C7  UNL     1      -0.908   2.355  -3.790  1.00  0.00    -0.029 C 
HETATM   14  C8  UNL     1      -0.710   1.154  -4.482  1.00  0.00    -0.021 C 
HETATM   15  C10 UNL     1       0.202  -1.119  -4.982  1.00  0.00     0.150 C 
HETATM   16  N4  UNL     1       1.609  -1.025  -4.745  1.00  0.00    -0.216 N 
ATOM     17  H4  UNL     1       2.275  -0.904  -5.509  1.00  0.00     0.178 HD
BRANCH  15  18
HETATM   18  C11 UNL     1      -0.169  -0.936  -6.415  1.00  0.00     0.006 A 
HETATM   19  C12 UNL     1      -1.273  -1.457  -7.044  1.00  0.00     0.017 A 
HETATM   20  C13 UNL     1      -1.431  -1.181  -8.342  1.00  0.00     0.008 A 
HETATM   21  C14 UNL     1      -0.481  -0.401  -8.944  1.00  0.00     0.050 A 
HETATM   22  S1  UNL     1       0.603  -0.081  -7.669  1.00  0.00    -0.104 SA
ENDBRANCH  15  18
ENDBRANCH   3   5
TORSDOF 2
ENDMDL
MODEL 3
REMARK VINA RESULT: -5.373039551      3.065      5.550
REMARK  2 active torsions:
REMARK  status: ('A' for Active; 'I' for Inactive)
REMARK    1  A    between atoms: N2_3  and  C2_5 
REMARK    2  A    between atoms: C10_15  and  C11_16 
ROOT
HETATM    1  N1  UNL     1      -1.652  -2.383  -8.269  1.00  0.00    -0.171 NA
HETATM    2  C1  UNL     1      -1.602  -2.508  -7.109  1.00  0.00     0.196 C 
HETATM    3  N2  UNL     1      -1.539  -2.661  -5.733  1.00  0.00    -0.126 N 
ATOM      4  H2  UNL     1      -2.003  -3.446  -5.277  1.00  0.00     0.197 HD
ENDROOT
BRANCH   3   5
HETATM    5  C2  UNL     1      -0.818  -1.706  -4.972  1.00  0.00     0.684 C 
HETATM    6  N3  UNL     1      -1.050  -0.483  -5.148  1.00  0.00    -0.211 N 
HETATM    7  C3  UNL     1      -0.443   0.662  -4.491  1.00  0.00     0.176 C 
ATOM      8  H3  UNL     1      -1.761  -0.264  -5.846  1.00  0.00     0.179 HD
HETATM    9  C4  UNL     1      -1.268   1.682  -3.964  1.00  0.00    -0.156 C 
HETATM   10  C9  UNL     1       0.488   0.222  -3.323  1.00  0.00     0.070 C 
HETATM   11  C5  UNL     1      -2.082   2.571  -3.236  1.00  0.00     0.086 C 
HETATM   12  C6  UNL     1      -1.603   2.487  -1.745  1.00  0.00     0.038 C 
HETATM   13  C7  UNL     1      -1.099   1.121  -1.405  1.00  0.00    -0.029 C 
HETATM   14  C8  UNL     1      -0.069   0.360  -1.972  1.00  0.00    -0.021 C 
HETATM   15  C10 UNL     1       1.111  -1.079  -3.641  1.00  0.00     0.150 C 
HETATM   16  N4  UNL     1       0.164  -2.084  -4.013  1.00  0.00    -0.216 N 
ATOM     17  H4  UNL     1       0.191  -3.022  -3.613  1.00  0.00     0.178 HD
BRANCH  15  18
HETATM   18  C11 UNL     1       2.051  -1.523  -2.571  1.00  0.00     0.006 A 
HETATM   19  C12 UNL     1       3.417  -1.380  -2.576  1.00  0.00     0.017 A 
HETATM   20  C13 UNL     1       4.090  -1.847  -1.520  1.00  0.00     0.008 A 
HETATM   21  C14 UNL     1       3.366  -2.430  -0.515  1.00  0.00     0.050 A 
HETATM   22  S1  UNL     1       1.766  -2.305  -1.086  1.00  0.00    -0.104 SA
ENDBRANCH  15  18
ENDBRANCH   3   5
TORSDOF 2
ENDMDL
MODEL 4
REMARK VINA RESULT: -5.370611308      2.520      5.240
REMARK  2 active torsions:
REMARK  status: ('A' for Active; 'I' for Inactive)
REMARK    1  A    between atoms: N2_3  and  C2_5 
REMARK    2  A    between atoms: C10_15  and  C11_16 
ROOT
HETATM    1  N1  UNL     1       1.651   2.382  -8.285  1.00  0.00    -0.171 NA
HETATM    2  C1  UNL     1       1.602   2.508  -7.125  1.00  0.00     0.196 C 
HETATM    3  N2  UNL     1       1.542   2.663  -5.749  1.00  0.00    -0.126 N 
ATOM      4  H2  UNL     1       2.003   3.450  -5.294  1.00  0.00     0.197 HD
ENDROOT
BRANCH   3   5
HETATM    5  C2  UNL     1       0.825   1.705  -4.986  1.00  0.00     0.684 C 
HETATM    6  N3  UNL     1       1.066   0.483  -5.156  1.00  0.00    -0.211 N 
HETATM    7  C3  UNL     1       0.465  -0.662  -4.496  1.00  0.00     0.176 C 
ATOM      8  H3  UNL     1       1.781   0.267  -5.851  1.00  0.00     0.179 HD
HETATM    9  C4  UNL     1       1.296  -1.675  -3.961  1.00  0.00    -0.156 C 
HETATM   10  C9  UNL     1      -0.472  -0.224  -3.332  1.00  0.00     0.070 C 
HETATM   11  C5  UNL     1       2.115  -2.554  -3.227  1.00  0.00     0.086 C 
HETATM   12  C6  UNL     1       1.630  -2.467  -1.738  1.00  0.00     0.038 C 
HETATM   13  C7  UNL     1       1.115  -1.103  -1.405  1.00  0.00    -0.029 C 
HETATM   14  C8  UNL     1       0.082  -0.352  -1.979  1.00  0.00    -0.021 C 
HETATM   15  C10 UNL     1      -1.104   1.071  -3.658  1.00  0.00     0.150 C 
HETATM   16  N4  UNL     1      -0.163   2.081  -4.032  1.00  0.00    -0.216 N 
ATOM     17  H4  UNL     1      -0.198   3.021  -3.636  1.00  0.00     0.178 HD
BRANCH  15  18
HETATM   18  C11 UNL     1      -2.050   1.512  -2.593  1.00  0.00     0.006 A 
HETATM   19  C12 UNL     1      -3.416   1.364  -2.604  1.00  0.00     0.017 A 
HETATM   20  C13 UNL     1      -4.095   1.829  -1.552  1.00  0.00     0.008 A 
HETATM   21  C14 UNL     1      -3.378   2.418  -0.545  1.00  0.00     0.050 A 
HETATM   22  S1  UNL     1      -1.775   2.299  -1.109  1.00  0.00    -0.104 SA
ENDBRANCH  15  18
ENDBRANCH   3   5
TORSDOF 2
ENDMDL
MODEL 5
REMARK VINA RESULT: -5.342118234      7.138      9.966
REMARK  2 active torsions:
REMARK  status: ('A' for Active; 'I' for Inactive)
REMARK    1  A    between atoms: N2_3  and  C2_5 
REMARK    2  A    between atoms: C10_15  and  C11_16 
ROOT
HETATM    1  N1  UNL     1       0.300  -1.033   0.433  1.00  0.00    -0.171 NA
HETATM    2  C1  UNL     1       0.953  -1.629   1.196  1.00  0.00     0.196 C 
HETATM    3  N2  UNL     1       1.724  -2.342   2.101  1.00  0.00    -0.126 N 
ATOM      4  H2  UNL     1       1.314  -2.699   2.964  1.00  0.00     0.197 HD
ENDROOT
BRANCH   3   5
HETATM    5  C2  UNL     1       3.093  -2.565   1.804  1.00  0.00     0.684 C 
HETATM    6  N3  UNL     1       3.541  -2.211   0.684  1.00  0.00    -0.211 N 
HETATM    7  C3  UNL     1       4.892  -2.336   0.164  1.00  0.00     0.176 C 
ATOM      8  H3  UNL     1       2.864  -1.778   0.055  1.00  0.00     0.179 HD
HETATM    9  C4  UNL     1       5.514  -1.217  -0.436  1.00  0.00    -0.156 C 
HETATM   10  C9  UNL     1       5.880  -2.836   1.258  1.00  0.00     0.070 C 
HETATM   11  C5  UNL     1       6.217  -0.057  -0.814  1.00  0.00     0.086 C 
HETATM   12  C6  UNL     1       7.461   0.034   0.137  1.00  0.00     0.038 C 
HETATM   13  C7  UNL     1       7.163  -0.533   1.489  1.00  0.00    -0.029 C 
HETATM   14  C8  UNL     1       6.733  -1.810   1.869  1.00  0.00    -0.021 C 
HETATM   15  C10 UNL     1       5.179  -3.741   2.192  1.00  0.00     0.150 C 
HETATM   16  N4  UNL     1       3.981  -3.178   2.733  1.00  0.00    -0.216 N 
ATOM     17  H4  UNL     1       3.774  -3.214   3.731  1.00  0.00     0.178 HD
BRANCH  15  18
HETATM   18  C11 UNL     1       6.096  -4.286   3.234  1.00  0.00     0.006 A 
HETATM   19  C12 UNL     1       7.115  -5.185   3.033  1.00  0.00     0.017 A 
HETATM   20  C13 UNL     1       7.829  -5.557   4.099  1.00  0.00     0.008 A 
HETATM   21  C14 UNL     1       7.491  -5.013   5.309  1.00  0.00     0.050 A 
HETATM   22  S1  UNL     1       6.181  -3.999   4.910  1.00  0.00    -0.104 SA
ENDBRANCH  15  18
ENDBRANCH   3   5
TORSDOF 2
ENDMDL
