MODEL 1
REMARK VINA RESULT: -8.510834615      0.000      0.000
REMARK  13 active torsions:
REMARK  status: ('A' for Active; 'I' for Inactive)
REMARK    1  A    between atoms: C2_2  and  C3_3 
REMARK    2  A    between atoms: C2_2  and  C19_30 
REMARK    3  A    between atoms: C3_3  and  C4_4 
REMARK    4  A    between atoms: C4_4  and  O1_5 
REMARK    5  A    between atoms: C4_4  and  C5_7 
REMARK    6  A    between atoms: C6_8  and  C7_9 
REMARK    7  A    between atoms: C8_11  and  C9_12 
REMARK    8  A    between atoms: C10_13  and  C11_14 
REMARK    9  A    between atoms: C14_17  and  N1_18 
REMARK   10  A    between atoms: C16_22  and  N2_23 
REMARK   11  A    between atoms: C18_27  and  O7_28 
REMARK   12  A    between atoms: C19_30  and  O8_31 
REMARK   13  A    between atoms: C19_30  and  C20_33 
ROOT
HETATM    1  C7  UNL     1      25.507  36.916  24.708  1.00  0.00     0.109 A 
HETATM    2  O2  UNL     1      24.374  37.209  25.281  1.00  0.00    -0.308 OA
HETATM    3  C8  UNL     1      23.405  36.417  24.989  1.00  0.00     0.079 A 
HETATM    4  C17 UNL     1      23.966  35.469  24.106  1.00  0.00     0.076 A 
HETATM    5  C18 UNL     1      25.286  35.785  23.932  1.00  0.00     0.102 A 
ENDROOT
BRANCH   3   6
HETATM    6  C9  UNL     1      22.010  36.418  25.424  1.00  0.00     0.038 C 
HETATM    7  C10 UNL     1      21.211  37.408  25.237  1.00  0.00     0.017 C 
BRANCH   7   8
HETATM    8  C11 UNL     1      21.528  38.656  24.574  1.00  0.00    -0.003 A 
HETATM    9  C12 UNL     1      21.396  38.713  23.178  1.00  0.00     0.016 A 
HETATM   10  C13 UNL     1      21.715  39.810  22.457  1.00  0.00     0.037 A 
HETATM   11  C14 UNL     1      22.196  40.945  23.074  1.00  0.00     0.105 A 
HETATM   12  C15 UNL     1      22.332  40.903  24.433  1.00  0.00     0.073 A 
HETATM   13  C16 UNL     1      22.005  39.769  25.188  1.00  0.00     0.115 A 
BRANCH  11  14
HETATM   14  N1  UNL     1      22.533  42.112  22.314  1.00  0.00    -0.116 N 
HETATM   15  O3  UNL     1      21.733  43.021  22.103  1.00  0.00    -0.532 OA
HETATM   16  O4  UNL     1      23.801  42.201  21.814  1.00  0.00    -0.532 OA
ENDBRANCH  11  14
BRANCH  13  17
HETATM   17  N2  UNL     1      22.264  39.802  26.582  1.00  0.00    -0.115 N 
HETATM   18  O5  UNL     1      21.410  40.239  27.403  1.00  0.00    -0.532 OA
HETATM   19  O6  UNL     1      23.439  39.372  27.135  1.00  0.00    -0.532 OA
ENDBRANCH  13  17
ENDBRANCH   7   8
ENDBRANCH   3   6
BRANCH   1  20
HETATM   20  C6  UNL     1      26.767  37.631  24.852  1.00  0.00     0.038 C 
HETATM   21  C5  UNL     1      27.184  38.390  23.864  1.00  0.00     0.007 C 
BRANCH  21  22
HETATM   22  C4  UNL     1      28.440  39.172  23.871  1.00  0.00     0.141 C 
BRANCH  22  23
HETATM   23  C3  UNL     1      28.754  39.560  22.444  1.00  0.00     0.043 C 
BRANCH  23  24
HETATM   24  C2  UNL     1      29.639  40.783  22.378  1.00  0.00     0.020 C 
HETATM   25  C1  UNL     1      30.796  40.464  21.453  1.00  0.00     0.013 C 
BRANCH  24  26
HETATM   26  C19 UNL     1      28.907  41.964  21.779  1.00  0.00     0.183 C 
BRANCH  26  27
HETATM   27  O8  UNL     1      29.352  42.236  20.490  1.00  0.00    -0.388 OA
ATOM     28  H8  UNL     1      29.976  42.953  20.483  1.00  0.00     0.210 HD
ENDBRANCH  26  27
BRANCH  26  29
HETATM   29  C20 UNL     1      29.015  43.177  22.592  1.00  0.00     0.263 C 
HETATM   30  O9  UNL     1      29.006  43.120  23.796  1.00  0.00    -0.304 OA
ENDBRANCH  26  29
ENDBRANCH  24  26
ENDBRANCH  23  24
ENDBRANCH  22  23
BRANCH  22  31
HETATM   31  O1  UNL     1      28.201  40.338  24.633  1.00  0.00    -0.392 OA
ATOM     32  H1  UNL     1      27.456  40.194  25.204  1.00  0.00     0.210 HD
ENDBRANCH  22  31
ENDBRANCH  21  22
ENDBRANCH   1  20
BRANCH   5  33
HETATM   33  O7  UNL     1      26.245  35.128  23.142  1.00  0.00    -0.358 OA
ATOM     34  H7  UNL     1      26.286  34.193  22.980  1.00  0.00     0.217 HD
ENDBRANCH   5  33
TORSDOF 13
ENDMDL
MODEL 2
REMARK VINA RESULT: -8.434745015      2.023      3.048
REMARK  13 active torsions:
REMARK  status: ('A' for Active; 'I' for Inactive)
REMARK    1  A    between atoms: C2_2  and  C3_3 
REMARK    2  A    between atoms: C2_2  and  C19_30 
REMARK    3  A    between atoms: C3_3  and  C4_4 
REMARK    4  A    between atoms: C4_4  and  O1_5 
REMARK    5  A    between atoms: C4_4  and  C5_7 
REMARK    6  A    between atoms: C6_8  and  C7_9 
REMARK    7  A    between atoms: C8_11  and  C9_12 
REMARK    8  A    between atoms: C10_13  and  C11_14 
REMARK    9  A    between atoms: C14_17  and  N1_18 
REMARK   10  A    between atoms: C16_22  and  N2_23 
REMARK   11  A    between atoms: C18_27  and  O7_28 
REMARK   12  A    between atoms: C19_30  and  O8_31 
REMARK   13  A    between atoms: C19_30  and  C20_33 
ROOT
HETATM    1  C7  UNL     1      26.580  37.865  24.111  1.00  0.00     0.109 A 
HETATM    2  O2  UNL     1      25.734  37.575  25.060  1.00  0.00    -0.308 OA
HETATM    3  C8  UNL     1      25.385  36.339  25.107  1.00  0.00     0.079 A 
HETATM    4  C17 UNL     1      26.091  35.722  24.052  1.00  0.00     0.076 A 
HETATM    5  C18 UNL     1      26.840  36.683  23.429  1.00  0.00     0.102 A 
ENDROOT
BRANCH   3   6
HETATM    6  C9  UNL     1      24.472  35.641  26.011  1.00  0.00     0.038 C 
HETATM    7  C10 UNL     1      23.337  36.121  26.379  1.00  0.00     0.017 C 
BRANCH   7   8
HETATM    8  C11 UNL     1      22.765  37.387  25.973  1.00  0.00    -0.003 A 
HETATM    9  C12 UNL     1      23.060  38.522  26.745  1.00  0.00     0.016 A 
HETATM   10  C13 UNL     1      22.537  39.739  26.485  1.00  0.00     0.037 A 
HETATM   11  C14 UNL     1      21.670  39.925  25.429  1.00  0.00     0.105 A 
HETATM   12  C15 UNL     1      21.372  38.828  24.670  1.00  0.00     0.073 A 
HETATM   13  C16 UNL     1      21.909  37.561  24.934  1.00  0.00     0.115 A 
BRANCH  11  14
HETATM   14  N1  UNL     1      21.114  41.215  25.148  1.00  0.00    -0.116 N 
HETATM   15  O3  UNL     1      19.944  41.500  25.392  1.00  0.00    -0.532 OA
HETATM   16  O4  UNL     1      21.934  42.153  24.588  1.00  0.00    -0.532 OA
ENDBRANCH  11  14
BRANCH  13  17
HETATM   17  N2  UNL     1      21.467  36.475  24.138  1.00  0.00    -0.115 N 
HETATM   18  O5  UNL     1      20.430  35.818  24.432  1.00  0.00    -0.532 OA
HETATM   19  O6  UNL     1      22.119  36.061  23.009  1.00  0.00    -0.532 OA
ENDBRANCH  13  17
ENDBRANCH   7   8
ENDBRANCH   3   6
BRANCH   1  20
HETATM   20  C6  UNL     1      27.147  39.172  23.819  1.00  0.00     0.038 C 
HETATM   21  C5  UNL     1      26.407  40.243  24.001  1.00  0.00     0.007 C 
BRANCH  21  22
HETATM   22  C4  UNL     1      26.851  41.631  23.746  1.00  0.00     0.141 C 
BRANCH  22  23
HETATM   23  C3  UNL     1      28.348  41.609  23.533  1.00  0.00     0.043 C 
BRANCH  23  24
HETATM   24  C2  UNL     1      28.779  42.610  22.487  1.00  0.00     0.020 C 
HETATM   25  C1  UNL     1      29.448  43.764  23.205  1.00  0.00     0.013 C 
BRANCH  24  26
HETATM   26  C19 UNL     1      29.807  42.020  21.546  1.00  0.00     0.183 C 
BRANCH  26  27
HETATM   27  O8  UNL     1      29.386  42.096  20.224  1.00  0.00    -0.388 OA
ATOM     28  H8  UNL     1      29.600  41.303  19.746  1.00  0.00     0.210 HD
ENDBRANCH  26  27
BRANCH  26  29
HETATM   29  C20 UNL     1      30.146  40.632  21.864  1.00  0.00     0.263 C 
HETATM   30  O9  UNL     1      30.785  39.958  21.096  1.00  0.00    -0.304 OA
ENDBRANCH  26  29
ENDBRANCH  24  26
ENDBRANCH  23  24
ENDBRANCH  22  23
BRANCH  22  31
HETATM   31  O1  UNL     1      26.214  42.061  22.561  1.00  0.00    -0.392 OA
ATOM     32  H1  UNL     1      25.963  42.973  22.650  1.00  0.00     0.210 HD
ENDBRANCH  22  31
ENDBRANCH  21  22
ENDBRANCH   1  20
BRANCH   5  33
HETATM   33  O7  UNL     1      27.702  36.541  22.328  1.00  0.00    -0.358 OA
ATOM     34  H7  UNL     1      27.476  36.155  21.490  1.00  0.00     0.217 HD
ENDBRANCH   5  33
TORSDOF 13
ENDMDL
MODEL 3
REMARK VINA RESULT: -8.308729446      2.090      2.813
REMARK  13 active torsions:
REMARK  status: ('A' for Active; 'I' for Inactive)
REMARK    1  A    between atoms: C2_2  and  C3_3 
REMARK    2  A    between atoms: C2_2  and  C19_30 
REMARK    3  A    between atoms: C3_3  and  C4_4 
REMARK    4  A    between atoms: C4_4  and  O1_5 
REMARK    5  A    between atoms: C4_4  and  C5_7 
REMARK    6  A    between atoms: C6_8  and  C7_9 
REMARK    7  A    between atoms: C8_11  and  C9_12 
REMARK    8  A    between atoms: C10_13  and  C11_14 
REMARK    9  A    between atoms: C14_17  and  N1_18 
REMARK   10  A    between atoms: C16_22  and  N2_23 
REMARK   11  A    between atoms: C18_27  and  O7_28 
REMARK   12  A    between atoms: C19_30  and  O8_31 
REMARK   13  A    between atoms: C19_30  and  C20_33 
ROOT
HETATM    1  C7  UNL     1      26.702  37.377  23.875  1.00  0.00     0.109 A 
HETATM    2  O2  UNL     1      26.022  37.223  24.976  1.00  0.00    -0.308 OA
HETATM    3  C8  UNL     1      25.353  36.128  25.044  1.00  0.00     0.079 A 
HETATM    4  C17 UNL     1      25.622  35.463  23.828  1.00  0.00     0.076 A 
HETATM    5  C18 UNL     1      26.469  36.250  23.096  1.00  0.00     0.102 A 
ENDROOT
BRANCH   3   6
HETATM    6  C9  UNL     1      24.485  35.606  26.098  1.00  0.00     0.038 C 
HETATM    7  C10 UNL     1      23.426  36.209  26.505  1.00  0.00     0.017 C 
BRANCH   7   8
HETATM    8  C11 UNL     1      22.904  37.465  26.007  1.00  0.00    -0.003 A 
HETATM    9  C12 UNL     1      23.232  38.639  26.704  1.00  0.00     0.016 A 
HETATM   10  C13 UNL     1      22.756  39.853  26.355  1.00  0.00     0.037 A 
HETATM   11  C14 UNL     1      21.909  39.997  25.278  1.00  0.00     0.105 A 
HETATM   12  C15 UNL     1      21.579  38.862  24.591  1.00  0.00     0.073 A 
HETATM   13  C16 UNL     1      22.066  37.598  24.947  1.00  0.00     0.115 A 
BRANCH  11  14
HETATM   14  N1  UNL     1      21.403  41.284  24.902  1.00  0.00    -0.116 N 
HETATM   15  O3  UNL     1      20.202  41.546  24.886  1.00  0.00    -0.532 OA
HETATM   16  O4  UNL     1      22.307  42.246  24.553  1.00  0.00    -0.532 OA
ENDBRANCH  11  14
BRANCH  13  17
HETATM   17  N2  UNL     1      21.594  36.476  24.220  1.00  0.00    -0.115 N 
HETATM   18  O5  UNL     1      20.524  35.886  24.537  1.00  0.00    -0.532 OA
HETATM   19  O6  UNL     1      22.249  35.956  23.138  1.00  0.00    -0.532 OA
ENDBRANCH  13  17
ENDBRANCH   7   8
ENDBRANCH   3   6
BRANCH   1  20
HETATM   20  C6  UNL     1      27.546  38.509  23.523  1.00  0.00     0.038 C 
HETATM   21  C5  UNL     1      27.157  39.720  23.853  1.00  0.00     0.007 C 
BRANCH  21  22
HETATM   22  C4  UNL     1      27.911  40.959  23.560  1.00  0.00     0.141 C 
BRANCH  22  23
HETATM   23  C3  UNL     1      29.047  40.603  22.628  1.00  0.00     0.043 C 
BRANCH  23  24
HETATM   24  C2  UNL     1      30.387  41.002  23.200  1.00  0.00     0.020 C 
HETATM   25  C1  UNL     1      31.346  41.180  22.040  1.00  0.00     0.013 C 
BRANCH  24  26
HETATM   26  C19 UNL     1      30.310  42.332  23.917  1.00  0.00     0.183 C 
BRANCH  26  27
HETATM   27  O8  UNL     1      30.626  43.386  23.067  1.00  0.00    -0.388 OA
ATOM     28  H8  UNL     1      31.565  43.525  23.022  1.00  0.00     0.210 HD
ENDBRANCH  26  27
BRANCH  26  29
HETATM   29  C20 UNL     1      31.167  42.395  25.102  1.00  0.00     0.263 C 
HETATM   30  O9  UNL     1      30.738  42.783  26.159  1.00  0.00    -0.304 OA
ENDBRANCH  26  29
ENDBRANCH  24  26
ENDBRANCH  23  24
ENDBRANCH  22  23
BRANCH  22  31
HETATM   31  O1  UNL     1      27.024  41.842  22.904  1.00  0.00    -0.392 OA
ATOM     32  H1  UNL     1      26.234  41.938  23.422  1.00  0.00     0.210 HD
ENDBRANCH  22  31
ENDBRANCH  21  22
ENDBRANCH   1  20
BRANCH   5  33
HETATM   33  O7  UNL     1      27.010  36.003  21.822  1.00  0.00    -0.358 OA
ATOM     34  H7  UNL     1      26.666  36.331  20.999  1.00  0.00     0.217 HD
ENDBRANCH   5  33
TORSDOF 13
ENDMDL
MODEL 4
REMARK VINA RESULT: -8.266852977      1.779      4.276
REMARK  13 active torsions:
REMARK  status: ('A' for Active; 'I' for Inactive)
REMARK    1  A    between atoms: C2_2  and  C3_3 
REMARK    2  A    between atoms: C2_2  and  C19_30 
REMARK    3  A    between atoms: C3_3  and  C4_4 
REMARK    4  A    between atoms: C4_4  and  O1_5 
REMARK    5  A    between atoms: C4_4  and  C5_7 
REMARK    6  A    between atoms: C6_8  and  C7_9 
REMARK    7  A    between atoms: C8_11  and  C9_12 
REMARK    8  A    between atoms: C10_13  and  C11_14 
REMARK    9  A    between atoms: C14_17  and  N1_18 
REMARK   10  A    between atoms: C16_22  and  N2_23 
REMARK   11  A    between atoms: C18_27  and  O7_28 
REMARK   12  A    between atoms: C19_30  and  O8_31 
REMARK   13  A    between atoms: C19_30  and  C20_33 
ROOT
HETATM    1  C7  UNL     1      24.337  40.970  23.795  1.00  0.00     0.109 A 
HETATM    2  O2  UNL     1      23.483  40.541  24.681  1.00  0.00    -0.308 OA
HETATM    3  C8  UNL     1      22.254  40.792  24.405  1.00  0.00     0.079 A 
HETATM    4  C17 UNL     1      22.292  41.480  23.172  1.00  0.00     0.076 A 
HETATM    5  C18 UNL     1      23.601  41.590  22.792  1.00  0.00     0.102 A 
ENDROOT
BRANCH   3   6
HETATM    6  C9  UNL     1      21.029  40.478  25.139  1.00  0.00     0.038 C 
HETATM    7  C10 UNL     1      20.778  39.318  25.632  1.00  0.00     0.017 C 
BRANCH   7   8
HETATM    8  C11 UNL     1      21.634  38.151  25.568  1.00  0.00    -0.003 A 
HETATM    9  C12 UNL     1      21.272  37.115  24.693  1.00  0.00     0.016 A 
HETATM   10  C13 UNL     1      21.970  35.964  24.595  1.00  0.00     0.037 A 
HETATM   11  C14 UNL     1      23.092  35.749  25.368  1.00  0.00     0.105 A 
HETATM   12  C15 UNL     1      23.455  36.749  26.226  1.00  0.00     0.073 A 
HETATM   13  C16 UNL     1      22.735  37.946  26.335  1.00  0.00     0.115 A 
BRANCH  11  14
HETATM   14  N1  UNL     1      23.837  34.531  25.266  1.00  0.00    -0.116 N 
HETATM   15  O3  UNL     1      23.304  33.441  25.066  1.00  0.00    -0.532 OA
HETATM   16  O4  UNL     1      25.195  34.602  25.398  1.00  0.00    -0.532 OA
ENDBRANCH  11  14
BRANCH  13  17
HETATM   17  N2  UNL     1      23.148  38.882  27.318  1.00  0.00    -0.115 N 
HETATM   18  O5  UNL     1      24.368  39.061  27.588  1.00  0.00    -0.532 OA
HETATM   19  O6  UNL     1      22.272  39.649  28.035  1.00  0.00    -0.532 OA
ENDBRANCH  13  17
ENDBRANCH   7   8
ENDBRANCH   3   6
BRANCH   1  20
HETATM   20  C6  UNL     1      25.785  40.830  23.841  1.00  0.00     0.038 C 
HETATM   21  C5  UNL     1      26.309  39.625  23.822  1.00  0.00     0.007 C 
BRANCH  21  22
HETATM   22  C4  UNL     1      27.759  39.333  23.863  1.00  0.00     0.141 C 
BRANCH  22  23
HETATM   23  C3  UNL     1      28.326  39.598  22.487  1.00  0.00     0.043 C 
BRANCH  23  24
HETATM   24  C2  UNL     1      29.332  40.724  22.503  1.00  0.00     0.020 C 
HETATM   25  C1  UNL     1      30.482  40.325  21.599  1.00  0.00     0.013 C 
BRANCH  24  26
HETATM   26  C19 UNL     1      28.746  41.999  21.936  1.00  0.00     0.183 C 
BRANCH  26  27
HETATM   27  O8  UNL     1      29.304  42.308  20.701  1.00  0.00    -0.388 OA
ATOM     28  H8  UNL     1      30.250  42.385  20.757  1.00  0.00     0.210 HD
ENDBRANCH  26  27
BRANCH  26  29
HETATM   29  C20 UNL     1      28.897  43.146  22.833  1.00  0.00     0.263 C 
HETATM   30  O9  UNL     1      28.712  43.034  24.019  1.00  0.00    -0.304 OA
ENDBRANCH  26  29
ENDBRANCH  24  26
ENDBRANCH  23  24
ENDBRANCH  22  23
BRANCH  22  31
HETATM   31  O1  UNL     1      28.338  40.229  24.790  1.00  0.00    -0.392 OA
ATOM     32  H1  UNL     1      29.275  40.272  24.645  1.00  0.00     0.210 HD
ENDBRANCH  22  31
ENDBRANCH  21  22
ENDBRANCH   1  20
BRANCH   5  33
HETATM   33  O7  UNL     1      24.128  42.195  21.638  1.00  0.00    -0.358 OA
ATOM     34  H7  UNL     1      23.624  42.609  20.948  1.00  0.00     0.217 HD
ENDBRANCH   5  33
TORSDOF 13
ENDMDL
MODEL 5
REMARK VINA RESULT: -8.125288948      2.138      3.266
REMARK  13 active torsions:
REMARK  status: ('A' for Active; 'I' for Inactive)
REMARK    1  A    between atoms: C2_2  and  C3_3 
REMARK    2  A    between atoms: C2_2  and  C19_30 
REMARK    3  A    between atoms: C3_3  and  C4_4 
REMARK    4  A    between atoms: C4_4  and  O1_5 
REMARK    5  A    between atoms: C4_4  and  C5_7 
REMARK    6  A    between atoms: C6_8  and  C7_9 
REMARK    7  A    between atoms: C8_11  and  C9_12 
REMARK    8  A    between atoms: C10_13  and  C11_14 
REMARK    9  A    between atoms: C14_17  and  N1_18 
REMARK   10  A    between atoms: C16_22  and  N2_23 
REMARK   11  A    between atoms: C18_27  and  O7_28 
REMARK   12  A    between atoms: C19_30  and  O8_31 
REMARK   13  A    between atoms: C19_30  and  C20_33 
ROOT
HETATM    1  C7  UNL     1      26.945  36.884  23.983  1.00  0.00     0.109 A 
HETATM    2  O2  UNL     1      26.298  36.647  25.090  1.00  0.00    -0.308 OA
HETATM    3  C8  UNL     1      25.398  35.735  24.999  1.00  0.00     0.079 A 
HETATM    4  C17 UNL     1      25.451  35.304  23.655  1.00  0.00     0.076 A 
HETATM    5  C18 UNL     1      26.423  36.028  23.021  1.00  0.00     0.102 A 
ENDROOT
BRANCH   3   6
HETATM    6  C9  UNL     1      24.481  35.198  26.003  1.00  0.00     0.038 C 
HETATM    7  C10 UNL     1      23.451  35.836  26.434  1.00  0.00     0.017 C 
BRANCH   7   8
HETATM    8  C11 UNL     1      23.014  37.150  26.011  1.00  0.00    -0.003 A 
HETATM    9  C12 UNL     1      23.421  38.258  26.771  1.00  0.00     0.016 A 
HETATM   10  C13 UNL     1      23.026  39.519  26.495  1.00  0.00     0.037 A 
HETATM   11  C14 UNL     1      22.188  39.781  25.433  1.00  0.00     0.105 A 
HETATM   12  C15 UNL     1      21.782  38.711  24.684  1.00  0.00     0.073 A 
HETATM   13  C16 UNL     1      22.185  37.399  24.965  1.00  0.00     0.115 A 
BRANCH  11  14
HETATM   14  N1  UNL     1      21.769  41.117  25.134  1.00  0.00    -0.116 N 
HETATM   15  O3  UNL     1      20.589  41.463  25.156  1.00  0.00    -0.532 OA
HETATM   16  O4  UNL     1      22.732  42.031  24.816  1.00  0.00    -0.532 OA
ENDBRANCH  11  14
BRANCH  13  17
HETATM   17  N2  UNL     1      21.638  36.355  24.178  1.00  0.00    -0.115 N 
HETATM   18  O5  UNL     1      22.193  35.971  23.110  1.00  0.00    -0.532 OA
HETATM   19  O6  UNL     1      20.487  35.693  24.508  1.00  0.00    -0.532 OA
ENDBRANCH  13  17
ENDBRANCH   7   8
ENDBRANCH   3   6
BRANCH   1  20
HETATM   20  C6  UNL     1      28.010  37.856  23.787  1.00  0.00     0.038 C 
HETATM   21  C5  UNL     1      27.918  38.710  22.793  1.00  0.00     0.007 C 
BRANCH  21  22
HETATM   22  C4  UNL     1      28.923  39.749  22.476  1.00  0.00     0.141 C 
BRANCH  22  23
HETATM   23  C3  UNL     1      28.187  41.047  22.232  1.00  0.00     0.043 C 
BRANCH  23  24
HETATM   24  C2  UNL     1      27.699  41.664  23.522  1.00  0.00     0.020 C 
HETATM   25  C1  UNL     1      28.248  43.074  23.593  1.00  0.00     0.013 C 
BRANCH  24  26
HETATM   26  C19 UNL     1      26.190  41.776  23.547  1.00  0.00     0.183 C 
BRANCH  26  27
HETATM   27  O8  UNL     1      25.627  40.843  24.410  1.00  0.00    -0.388 OA
ATOM     28  H8  UNL     1      24.677  40.862  24.369  1.00  0.00     0.210 HD
ENDBRANCH  26  27
BRANCH  26  29
HETATM   29  C20 UNL     1      25.583  41.635  22.223  1.00  0.00     0.263 C 
HETATM   30  O9  UNL     1      24.466  42.033  22.007  1.00  0.00    -0.304 OA
ENDBRANCH  26  29
ENDBRANCH  24  26
ENDBRANCH  23  24
ENDBRANCH  22  23
BRANCH  22  31
HETATM   31  O1  UNL     1      29.754  39.885  23.610  1.00  0.00    -0.392 OA
ATOM     32  H1  UNL     1      29.334  40.455  24.243  1.00  0.00     0.210 HD
ENDBRANCH  22  31
ENDBRANCH  21  22
ENDBRANCH   1  20
BRANCH   5  33
HETATM   33  O7  UNL     1      26.835  35.950  21.678  1.00  0.00    -0.358 OA
ATOM     34  H7  UNL     1      26.309  36.179  20.921  1.00  0.00     0.217 HD
ENDBRANCH   5  33
TORSDOF 13
ENDMDL
