MODEL 1
REMARK VINA RESULT: -6.643502689      0.000      0.000
REMARK  6 active torsions:
REMARK  status: ('A' for Active; 'I' for Inactive)
REMARK       I    between atoms: N1_7  and  C7_8 
REMARK    1  A    between atoms: C7_8  and  C8_10 
REMARK    2  A    between atoms: C8_10  and  N2_11 
REMARK    3  A    between atoms: C8_10  and  C14_20 
REMARK    4  A    between atoms: N2_11  and  C9_14 
REMARK    5  A    between atoms: C9_14  and  C10_15 
REMARK       I    between atoms: C14_20  and  N3_22 
REMARK    6  A    between atoms: N3_22  and  C15_24 
ROOT
HETATM    1  C8  UNL     1      -4.823 -37.971   2.692  1.00  0.00     0.368 C 
ENDROOT
BRANCH   1   2
HETATM    2  C7  UNL     1      -3.613 -37.241   2.262  1.00  0.00     0.260 C 
HETATM    3  N1  UNL     1      -2.315 -37.801   2.342  1.00  0.00    -0.346 N 
HETATM    4  C2  UNL     1      -1.121 -37.077   1.949  1.00  0.00     0.083 C 
HETATM    5  C6  UNL     1      -2.120 -39.158   2.802  1.00  0.00     0.126 C 
HETATM    6  C1  UNL     1      -1.378 -36.370   0.638  1.00  0.00     0.032 C 
HETATM    7  C3  UNL     1       0.054 -38.001   1.756  1.00  0.00     0.025 C 
HETATM    8  C4  UNL     1       0.298 -38.917   2.907  1.00  0.00     0.004 C 
HETATM    9  C5  UNL     1      -0.930 -39.116   3.768  1.00  0.00     0.020 C 
HETATM   10  O1  UNL     1      -3.691 -36.052   1.787  1.00  0.00    -0.270 OA
ENDBRANCH   1   2
BRANCH   1  11
HETATM   11  N2  UNL     1      -5.456 -38.704   1.592  1.00  0.00    -0.048 N 
ATOM     12  H22 UNL     1      -6.260 -38.202   1.214  1.00  0.00     0.279 HD
ATOM     13  H21 UNL     1      -4.874 -38.710   0.755  1.00  0.00     0.279 HD
BRANCH  11  14
HETATM   14  C9  UNL     1      -5.801 -40.029   2.013  1.00  0.00     0.298 C 
BRANCH  14  15
HETATM   15  C10 UNL     1      -5.466 -41.033   0.971  1.00  0.00     0.078 A 
HETATM   16  C11 UNL     1      -4.192 -41.500   0.717  1.00  0.00     0.036 A 
HETATM   17  C12 UNL     1      -4.273 -42.415  -0.312  1.00  0.00     0.027 A 
HETATM   18  C13 UNL     1      -5.605 -42.469  -0.650  1.00  0.00     0.142 A 
HETATM   19  O2  UNL     1      -6.250 -41.646   0.127  1.00  0.00    -0.325 OA
ENDBRANCH  14  15
ENDBRANCH  11  14
ENDBRANCH   1  11
BRANCH   1  20
HETATM   20  C14 UNL     1      -5.893 -37.084   3.232  1.00  0.00     0.258 C 
HETATM   21  O3  UNL     1      -6.254 -37.341   4.436  1.00  0.00    -0.271 OA
HETATM   22  N3  UNL     1      -6.515 -36.024   2.533  1.00  0.00    -0.354 N 
ATOM     23  H3  UNL     1      -6.250 -35.803   1.572  1.00  0.00     0.162 HD
BRANCH  22  24
HETATM   24  C15 UNL     1      -7.541 -35.260   3.218  1.00  0.00     0.084 C 
HETATM   25  C16 UNL     1      -8.936 -35.719   2.764  1.00  0.00     0.025 C 
HETATM   26  C17 UNL     1      -9.873 -35.048   3.776  1.00  0.00     0.002 C 
HETATM   27  C18 UNL     1      -9.851 -33.566   3.595  1.00  0.00     0.000 C 
HETATM   28  C19 UNL     1      -8.544 -32.948   3.308  1.00  0.00     0.002 C 
HETATM   29  C20 UNL     1      -7.432 -33.817   2.883  1.00  0.00     0.025 C 
ENDBRANCH  22  24
ENDBRANCH   1  20
TORSDOF 6
ENDMDL
MODEL 2
REMARK VINA RESULT: -6.459934199      0.934      1.341
REMARK  6 active torsions:
REMARK  status: ('A' for Active; 'I' for Inactive)
REMARK       I    between atoms: N1_7  and  C7_8 
REMARK    1  A    between atoms: C7_8  and  C8_10 
REMARK    2  A    between atoms: C8_10  and  N2_11 
REMARK    3  A    between atoms: C8_10  and  C14_20 
REMARK    4  A    between atoms: N2_11  and  C9_14 
REMARK    5  A    between atoms: C9_14  and  C10_15 
REMARK       I    between atoms: C14_20  and  N3_22 
REMARK    6  A    between atoms: N3_22  and  C15_24 
ROOT
HETATM    1  C8  UNL     1      -4.700 -37.597   2.240  1.00  0.00     0.368 C 
ENDROOT
BRANCH   1   2
HETATM    2  C7  UNL     1      -3.332 -37.054   2.123  1.00  0.00     0.260 C 
HETATM    3  N1  UNL     1      -2.178 -37.828   2.396  1.00  0.00    -0.346 N 
HETATM    4  C2  UNL     1      -0.833 -37.291   2.312  1.00  0.00     0.083 C 
HETATM    5  C6  UNL     1      -2.289 -39.225   2.753  1.00  0.00     0.126 C 
HETATM    6  C1  UNL     1      -0.706 -36.469   1.051  1.00  0.00     0.032 C 
HETATM    7  C3  UNL     1       0.203 -38.385   2.260  1.00  0.00     0.025 C 
HETATM    8  C4  UNL     1       0.064 -39.400   3.343  1.00  0.00     0.004 C 
HETATM    9  C5  UNL     1      -1.331 -39.445   3.930  1.00  0.00     0.020 C 
HETATM   10  O1  UNL     1      -3.130 -35.841   1.758  1.00  0.00    -0.270 OA
ENDBRANCH   1   2
BRANCH   1  11
HETATM   11  N2  UNL     1      -5.010 -38.568   1.187  1.00  0.00    -0.048 N 
ATOM     12  H22 UNL     1      -5.629 -38.175   0.477  1.00  0.00     0.279 HD
ATOM     13  H21 UNL     1      -4.203 -38.758   0.595  1.00  0.00     0.279 HD
BRANCH  11  14
HETATM   14  C9  UNL     1      -5.546 -39.767   1.759  1.00  0.00     0.298 C 
BRANCH  14  15
HETATM   15  C10 UNL     1      -5.340 -40.935   0.864  1.00  0.00     0.078 A 
HETATM   16  C11 UNL     1      -4.128 -41.565   0.670  1.00  0.00     0.036 A 
HETATM   17  C12 UNL     1      -4.326 -42.598  -0.223  1.00  0.00     0.027 A 
HETATM   18  C13 UNL     1      -5.663 -42.555  -0.543  1.00  0.00     0.142 A 
HETATM   19  O2  UNL     1      -6.202 -41.570   0.117  1.00  0.00    -0.325 OA
ENDBRANCH  14  15
ENDBRANCH  11  14
ENDBRANCH   1  11
BRANCH   1  20
HETATM   20  C14 UNL     1      -5.765 -36.558   2.134  1.00  0.00     0.258 C 
HETATM   21  O3  UNL     1      -6.010 -36.155   0.941  1.00  0.00    -0.271 OA
HETATM   22  N3  UNL     1      -6.489 -36.007   3.216  1.00  0.00    -0.354 N 
ATOM     23  H3  UNL     1      -6.309 -36.307   4.174  1.00  0.00     0.162 HD
BRANCH  22  24
HETATM   24  C15 UNL     1      -7.495 -35.003   2.926  1.00  0.00     0.084 C 
HETATM   25  C16 UNL     1      -7.030 -33.626   3.427  1.00  0.00     0.025 C 
HETATM   26  C17 UNL     1      -8.037 -32.661   2.788  1.00  0.00     0.002 C 
HETATM   27  C18 UNL     1      -9.395 -32.872   3.372  1.00  0.00     0.000 C 
HETATM   28  C19 UNL     1      -9.801 -34.265   3.630  1.00  0.00     0.002 C 
HETATM   29  C20 UNL     1      -8.765 -35.312   3.632  1.00  0.00     0.025 C 
ENDBRANCH  22  24
ENDBRANCH   1  20
TORSDOF 6
ENDMDL
MODEL 3
REMARK VINA RESULT: -6.388432742      2.167      4.674
REMARK  6 active torsions:
REMARK  status: ('A' for Active; 'I' for Inactive)
REMARK       I    between atoms: N1_7  and  C7_8 
REMARK    1  A    between atoms: C7_8  and  C8_10 
REMARK    2  A    between atoms: C8_10  and  N2_11 
REMARK    3  A    between atoms: C8_10  and  C14_20 
REMARK    4  A    between atoms: N2_11  and  C9_14 
REMARK    5  A    between atoms: C9_14  and  C10_15 
REMARK       I    between atoms: C14_20  and  N3_22 
REMARK    6  A    between atoms: N3_22  and  C15_24 
ROOT
HETATM    1  C8  UNL     1      -6.172 -36.713   2.295  1.00  0.00     0.368 C 
ENDROOT
BRANCH   1   2
HETATM    2  C7  UNL     1      -6.044 -37.680   3.404  1.00  0.00     0.260 C 
HETATM    3  N1  UNL     1      -5.807 -39.060   3.189  1.00  0.00    -0.346 N 
HETATM    4  C2  UNL     1      -5.711 -40.019   4.273  1.00  0.00     0.083 C 
HETATM    5  C6  UNL     1      -5.619 -39.580   1.853  1.00  0.00     0.126 C 
HETATM    6  C1  UNL     1      -4.854 -39.438   5.374  1.00  0.00     0.032 C 
HETATM    7  C3  UNL     1      -5.076 -41.310   3.822  1.00  0.00     0.025 C 
HETATM    8  C4  UNL     1      -5.699 -41.894   2.599  1.00  0.00     0.004 C 
HETATM    9  C5  UNL     1      -6.447 -40.869   1.775  1.00  0.00     0.020 C 
HETATM   10  O1  UNL     1      -6.139 -37.303   4.626  1.00  0.00    -0.270 OA
ENDBRANCH   1   2
BRANCH   1  11
HETATM   11  N2  UNL     1      -4.967 -35.897   2.122  1.00  0.00    -0.048 N 
ATOM     12  H22 UNL     1      -5.185 -34.901   2.078  1.00  0.00     0.279 HD
ATOM     13  H21 UNL     1      -4.389 -35.888   2.962  1.00  0.00     0.279 HD
BRANCH  11  14
HETATM   14  C9  UNL     1      -4.232 -36.334   0.973  1.00  0.00     0.298 C 
BRANCH  14  15
HETATM   15  C10 UNL     1      -2.781 -36.452   1.269  1.00  0.00     0.078 A 
HETATM   16  C11 UNL     1      -2.255 -37.178   2.319  1.00  0.00     0.036 A 
HETATM   17  C12 UNL     1      -0.882 -37.053   2.275  1.00  0.00     0.027 A 
HETATM   18  C13 UNL     1      -0.622 -36.247   1.190  1.00  0.00     0.142 A 
HETATM   19  O2  UNL     1      -1.762 -35.929   0.644  1.00  0.00    -0.325 OA
ENDBRANCH  14  15
ENDBRANCH  11  14
ENDBRANCH   1  11
BRANCH   1  20
HETATM   20  C14 UNL     1      -7.279 -35.732   2.485  1.00  0.00     0.258 C 
HETATM   21  O3  UNL     1      -8.376 -36.032   1.893  1.00  0.00    -0.271 OA
HETATM   22  N3  UNL     1      -7.201 -34.539   3.241  1.00  0.00    -0.354 N 
ATOM     23  H3  UNL     1      -6.338 -34.275   3.717  1.00  0.00     0.162 HD
BRANCH  22  24
HETATM   24  C15 UNL     1      -8.383 -33.701   3.320  1.00  0.00     0.084 C 
HETATM   25  C16 UNL     1      -8.011 -32.234   3.049  1.00  0.00     0.025 C 
HETATM   26  C17 UNL     1      -9.375 -31.553   2.873  1.00  0.00     0.002 C 
HETATM   27  C18 UNL     1     -10.122 -31.553   4.165  1.00  0.00     0.000 C 
HETATM   28  C19 UNL     1     -10.030 -32.773   4.989  1.00  0.00     0.002 C 
HETATM   29  C20 UNL     1      -8.972 -33.751   4.683  1.00  0.00     0.025 C 
ENDBRANCH  22  24
ENDBRANCH   1  20
TORSDOF 6
ENDMDL
MODEL 4
REMARK VINA RESULT: -6.182153395      3.577      6.929
REMARK  6 active torsions:
REMARK  status: ('A' for Active; 'I' for Inactive)
REMARK       I    between atoms: N1_7  and  C7_8 
REMARK    1  A    between atoms: C7_8  and  C8_10 
REMARK    2  A    between atoms: C8_10  and  N2_11 
REMARK    3  A    between atoms: C8_10  and  C14_20 
REMARK    4  A    between atoms: N2_11  and  C9_14 
REMARK    5  A    between atoms: C9_14  and  C10_15 
REMARK       I    between atoms: C14_20  and  N3_22 
REMARK    6  A    between atoms: N3_22  and  C15_24 
ROOT
HETATM    1  C8  UNL     1      -3.458 -40.047   2.260  1.00  0.00     0.368 C 
ENDROOT
BRANCH   1   2
HETATM    2  C7  UNL     1      -3.315 -40.785   3.531  1.00  0.00     0.260 C 
HETATM    3  N1  UNL     1      -2.064 -40.972   4.168  1.00  0.00    -0.346 N 
HETATM    4  C2  UNL     1      -1.914 -41.722   5.400  1.00  0.00     0.083 C 
HETATM    5  C6  UNL     1      -0.859 -40.388   3.622  1.00  0.00     0.126 C 
HETATM    6  C1  UNL     1      -3.011 -41.323   6.361  1.00  0.00     0.032 C 
HETATM    7  C3  UNL     1      -0.590 -41.444   6.066  1.00  0.00     0.025 C 
HETATM    8  C4  UNL     1       0.585 -41.598   5.160  1.00  0.00     0.004 C 
HETATM    9  C5  UNL     1       0.218 -41.477   3.697  1.00  0.00     0.020 C 
HETATM   10  O1  UNL     1      -4.335 -41.291   4.121  1.00  0.00    -0.270 OA
ENDBRANCH   1   2
BRANCH   1  11
HETATM   11  N2  UNL     1      -4.148 -38.765   2.430  1.00  0.00    -0.048 N 
ATOM     12  H22 UNL     1      -4.539 -38.424   1.552  1.00  0.00     0.279 HD
ATOM     13  H21 UNL     1      -5.018 -38.868   2.952  1.00  0.00     0.279 HD
BRANCH  11  14
HETATM   14  C9  UNL     1      -3.273 -37.807   3.035  1.00  0.00     0.298 C 
BRANCH  14  15
HETATM   15  C10 UNL     1      -2.454 -37.101   2.016  1.00  0.00     0.078 A 
HETATM   16  C11 UNL     1      -1.074 -37.061   2.014  1.00  0.00     0.036 A 
HETATM   17  C12 UNL     1      -0.673 -36.319   0.923  1.00  0.00     0.027 A 
HETATM   18  C13 UNL     1      -1.836 -35.930   0.297  1.00  0.00     0.142 A 
HETATM   19  O2  UNL     1      -2.837 -36.413   0.975  1.00  0.00    -0.325 OA
ENDBRANCH  14  15
ENDBRANCH  11  14
ENDBRANCH   1  11
BRANCH   1  20
HETATM   20  C14 UNL     1      -4.252 -40.780   1.231  1.00  0.00     0.258 C 
HETATM   21  O3  UNL     1      -5.345 -40.208   0.882  1.00  0.00    -0.271 OA
HETATM   22  N3  UNL     1      -3.896 -42.015   0.643  1.00  0.00    -0.354 N 
ATOM     23  H3  UNL     1      -3.034 -42.493   0.908  1.00  0.00     0.162 HD
BRANCH  22  24
HETATM   24  C15 UNL     1      -4.790 -42.584  -0.347  1.00  0.00     0.084 C 
HETATM   25  C16 UNL     1      -5.431 -43.872   0.195  1.00  0.00     0.025 C 
HETATM   26  C17 UNL     1      -6.542 -44.167  -0.821  1.00  0.00     0.002 C 
HETATM   27  C18 UNL     1      -5.949 -44.530  -2.142  1.00  0.00     0.000 C 
HETATM   28  C19 UNL     1      -4.765 -43.765  -2.576  1.00  0.00     0.002 C 
HETATM   29  C20 UNL     1      -4.043 -42.959  -1.576  1.00  0.00     0.025 C 
ENDBRANCH  22  24
ENDBRANCH   1  20
TORSDOF 6
ENDMDL
MODEL 5
REMARK VINA RESULT: -6.149279537      1.805      6.652
REMARK  6 active torsions:
REMARK  status: ('A' for Active; 'I' for Inactive)
REMARK       I    between atoms: N1_7  and  C7_8 
REMARK    1  A    between atoms: C7_8  and  C8_10 
REMARK    2  A    between atoms: C8_10  and  N2_11 
REMARK    3  A    between atoms: C8_10  and  C14_20 
REMARK    4  A    between atoms: N2_11  and  C9_14 
REMARK    5  A    between atoms: C9_14  and  C10_15 
REMARK       I    between atoms: C14_20  and  N3_22 
REMARK    6  A    between atoms: N3_22  and  C15_24 
ROOT
HETATM    1  C8  UNL     1      -4.853 -39.585   1.921  1.00  0.00     0.368 C 
ENDROOT
BRANCH   1   2
HETATM    2  C7  UNL     1      -3.460 -39.709   2.398  1.00  0.00     0.260 C 
HETATM    3  N1  UNL     1      -2.559 -38.618   2.415  1.00  0.00    -0.346 N 
HETATM    4  C2  UNL     1      -1.182 -38.742   2.853  1.00  0.00     0.083 C 
HETATM    5  C6  UNL     1      -2.988 -37.296   2.013  1.00  0.00     0.126 C 
HETATM    6  C1  UNL     1      -1.138 -39.562   4.122  1.00  0.00     0.032 C 
HETATM    7  C3  UNL     1      -0.566 -37.397   3.148  1.00  0.00     0.025 C 
HETATM    8  C4  UNL     1      -0.724 -36.406   2.044  1.00  0.00     0.004 C 
HETATM    9  C5  UNL     1      -1.874 -36.738   1.118  1.00  0.00     0.020 C 
HETATM   10  O1  UNL     1      -3.006 -40.829   2.828  1.00  0.00    -0.270 OA
ENDBRANCH   1   2
BRANCH   1  11
HETATM   11  N2  UNL     1      -5.825 -39.604   3.018  1.00  0.00    -0.048 N 
ATOM     12  H22 UNL     1      -6.758 -39.862   2.695  1.00  0.00     0.279 HD
ATOM     13  H21 UNL     1      -5.665 -40.384   3.655  1.00  0.00     0.279 HD
BRANCH  11  14
HETATM   14  C9  UNL     1      -5.825 -38.346   3.703  1.00  0.00     0.298 C 
BRANCH  14  15
HETATM   15  C10 UNL     1      -6.642 -37.336   2.982  1.00  0.00     0.078 A 
HETATM   16  C11 UNL     1      -8.020 -37.348   2.917  1.00  0.00     0.036 A 
HETATM   17  C12 UNL     1      -8.419 -36.262   2.167  1.00  0.00     0.027 A 
HETATM   18  C13 UNL     1      -7.256 -35.624   1.799  1.00  0.00     0.142 A 
HETATM   19  O2  UNL     1      -6.256 -36.292   2.300  1.00  0.00    -0.325 OA
ENDBRANCH  14  15
ENDBRANCH  11  14
ENDBRANCH   1  11
BRANCH   1  20
HETATM   20  C14 UNL     1      -5.273 -40.691   1.013  1.00  0.00     0.258 C 
HETATM   21  O3  UNL     1      -6.541 -40.834   0.885  1.00  0.00    -0.271 OA
HETATM   22  N3  UNL     1      -4.402 -41.559   0.316  1.00  0.00    -0.354 N 
ATOM     23  H3  UNL     1      -3.389 -41.469   0.406  1.00  0.00     0.162 HD
BRANCH  22  24
HETATM   24  C15 UNL     1      -4.987 -42.582  -0.530  1.00  0.00     0.084 C 
HETATM   25  C16 UNL     1      -5.090 -43.910   0.238  1.00  0.00     0.025 C 
HETATM   26  C17 UNL     1      -5.981 -44.771  -0.667  1.00  0.00     0.002 C 
HETATM   27  C18 UNL     1      -5.269 -45.088  -1.941  1.00  0.00     0.000 C 
HETATM   28  C19 UNL     1      -4.466 -44.008  -2.543  1.00  0.00     0.002 C 
HETATM   29  C20 UNL     1      -4.131 -42.835  -1.717  1.00  0.00     0.025 C 
ENDBRANCH  22  24
ENDBRANCH   1  20
TORSDOF 6
ENDMDL
