MODEL 1
REMARK VINA RESULT: -6.704594229      0.000      0.000
REMARK  3 active torsions:
REMARK  status: ('A' for Active; 'I' for Inactive)
REMARK    1  A    between atoms: C1_2  and  C2_4 
REMARK    2  A    between atoms: C2_4  and  C3_5 
REMARK    3  A    between atoms: C3_5  and  C4_6 
ROOT
HETATM    1  C4  UNL     1      26.182  11.631  18.988  1.00  0.00     0.010 C 
HETATM    2  C5  UNL     1      25.256  10.439  19.447  1.00  0.00     0.007 C 
HETATM    3  C6  UNL     1      23.886  10.777  19.437  1.00  0.00     0.000 C 
HETATM    4  C7  UNL     1      22.549  10.675  19.903  1.00  0.00     0.000 C 
HETATM    5  C8  UNL     1      21.824  11.989  19.434  1.00  0.00     0.000 C 
HETATM    6  C9  UNL     1      22.169  13.210  20.159  1.00  0.00     0.005 C 
HETATM    7  C10 UNL     1      22.605  14.469  19.388  1.00  0.00     0.066 C 
HETATM    8  C11 UNL     1      24.001  14.564  19.046  1.00  0.00     0.306 C 
HETATM    9  F1  UNL     1      24.305  14.465  20.418  1.00  0.00    -0.220 F 
HETATM   10  O3  UNL     1      25.254  14.150  18.810  1.00  0.00    -0.356 OA
HETATM   11  C12 UNL     1      25.591  12.900  19.147  1.00  0.00     0.176 C 
ENDROOT
BRANCH   1  12
HETATM   12  C3  UNL     1      27.459  11.541  19.836  1.00  0.00     0.017 C 
BRANCH  12  13
HETATM   13  C2  UNL     1      28.047  10.160  19.716  1.00  0.00     0.113 C 
BRANCH  13  14
HETATM   14  C1  UNL     1      28.761   9.835  20.977  1.00  0.00     0.172 C 
HETATM   15  O1  UNL     1      28.376   8.910  21.735  1.00  0.00    -0.648 OA
HETATM   16  O2  UNL     1      29.891  10.549  21.366  1.00  0.00    -0.648 OA
ENDBRANCH  13  14
ENDBRANCH  12  13
ENDBRANCH   1  12
TORSDOF 3
ENDMDL
MODEL 2
REMARK VINA RESULT: -6.540611277      1.224      1.421
REMARK  3 active torsions:
REMARK  status: ('A' for Active; 'I' for Inactive)
REMARK    1  A    between atoms: C1_2  and  C2_4 
REMARK    2  A    between atoms: C2_4  and  C3_5 
REMARK    3  A    between atoms: C3_5  and  C4_6 
ROOT
HETATM    1  C4  UNL     1      24.990  11.199  18.700  1.00  0.00     0.010 C 
HETATM    2  C5  UNL     1      24.622  10.433  20.031  1.00  0.00     0.007 C 
HETATM    3  C6  UNL     1      23.441  10.917  20.630  1.00  0.00     0.000 C 
HETATM    4  C7  UNL     1      22.600  11.195  21.741  1.00  0.00     0.000 C 
HETATM    5  C8  UNL     1      21.581  12.287  21.252  1.00  0.00     0.000 C 
HETATM    6  C9  UNL     1      22.110  13.640  21.093  1.00  0.00     0.005 C 
HETATM    7  C10 UNL     1      21.894  14.404  19.774  1.00  0.00     0.066 C 
HETATM    8  C11 UNL     1      22.851  14.163  18.725  1.00  0.00     0.306 C 
HETATM    9  F1  UNL     1      23.865  14.593  19.604  1.00  0.00    -0.220 F 
HETATM   10  O3  UNL     1      23.811  13.525  18.040  1.00  0.00    -0.356 OA
HETATM   11  C12 UNL     1      24.430  12.489  18.617  1.00  0.00     0.176 C 
ENDROOT
BRANCH   1  12
HETATM   12  C3  UNL     1      26.522  11.292  18.662  1.00  0.00     0.017 C 
BRANCH  12  13
HETATM   13  C2  UNL     1      27.053  11.440  20.063  1.00  0.00     0.113 C 
BRANCH  13  14
HETATM   14  C1  UNL     1      28.351  10.724  20.158  1.00  0.00     0.172 C 
HETATM   15  O1  UNL     1      28.465   9.516  19.834  1.00  0.00    -0.648 OA
HETATM   16  O2  UNL     1      29.496  11.373  20.613  1.00  0.00    -0.648 OA
ENDBRANCH  13  14
ENDBRANCH  12  13
ENDBRANCH   1  12
TORSDOF 3
ENDMDL
MODEL 3
REMARK VINA RESULT: -6.517830366      3.390      5.520
REMARK  3 active torsions:
REMARK  status: ('A' for Active; 'I' for Inactive)
REMARK    1  A    between atoms: C1_2  and  C2_4 
REMARK    2  A    between atoms: C2_4  and  C3_5 
REMARK    3  A    between atoms: C3_5  and  C4_6 
ROOT
HETATM    1  C4  UNL     1      21.519  12.104  21.458  1.00  0.00     0.010 C 
HETATM    2  C5  UNL     1      21.834  13.618  21.137  1.00  0.00     0.007 C 
HETATM    3  C6  UNL     1      22.671  13.775  20.013  1.00  0.00     0.000 C 
HETATM    4  C7  UNL     1      23.662  14.448  19.251  1.00  0.00     0.000 C 
HETATM    5  C8  UNL     1      24.238  13.382  18.249  1.00  0.00     0.000 C 
HETATM    6  C9  UNL     1      25.119  12.367  18.822  1.00  0.00     0.005 C 
HETATM    7  C10 UNL     1      24.851  10.874  18.560  1.00  0.00     0.066 C 
HETATM    8  C11 UNL     1      23.919  10.221  19.443  1.00  0.00     0.306 C 
HETATM    9  F1  UNL     1      24.747  10.585  20.524  1.00  0.00    -0.220 F 
HETATM   10  O3  UNL     1      22.925  10.104  20.336  1.00  0.00    -0.356 OA
HETATM   11  C12 UNL     1      22.477  11.207  20.945  1.00  0.00     0.176 C 
ENDROOT
BRANCH   1  12
HETATM   12  C3  UNL     1      21.460  11.987  22.987  1.00  0.00     0.017 C 
BRANCH  12  13
HETATM   13  C2  UNL     1      21.728  13.332  23.607  1.00  0.00     0.113 C 
BRANCH  13  14
HETATM   14  C1  UNL     1      22.786  13.178  24.639  1.00  0.00     0.172 C 
HETATM   15  O1  UNL     1      23.081  14.110  25.427  1.00  0.00    -0.648 OA
HETATM   16  O2  UNL     1      23.491  11.985  24.770  1.00  0.00    -0.648 OA
ENDBRANCH  13  14
ENDBRANCH  12  13
ENDBRANCH   1  12
TORSDOF 3
ENDMDL
MODEL 4
REMARK VINA RESULT: -6.459028893      3.580      5.614
REMARK  3 active torsions:
REMARK  status: ('A' for Active; 'I' for Inactive)
REMARK    1  A    between atoms: C1_2  and  C2_4 
REMARK    2  A    between atoms: C2_4  and  C3_5 
REMARK    3  A    between atoms: C3_5  and  C4_6 
ROOT
HETATM    1  C4  UNL     1      21.542  12.265  21.351  1.00  0.00     0.010 C 
HETATM    2  C5  UNL     1      21.938  13.748  20.983  1.00  0.00     0.007 C 
HETATM    3  C6  UNL     1      22.813  13.822  19.880  1.00  0.00     0.000 C 
HETATM    4  C7  UNL     1      23.857  14.417  19.122  1.00  0.00     0.000 C 
HETATM    5  C8  UNL     1      24.409  13.287  18.180  1.00  0.00     0.000 C 
HETATM    6  C9  UNL     1      25.224  12.255  18.818  1.00  0.00     0.005 C 
HETATM    7  C10 UNL     1      24.893  10.767  18.605  1.00  0.00     0.066 C 
HETATM    8  C11 UNL     1      23.906  10.194  19.484  1.00  0.00     0.306 C 
HETATM    9  F1  UNL     1      24.720  10.562  20.574  1.00  0.00    -0.220 F 
HETATM   10  O3  UNL     1      22.883  10.158  20.350  1.00  0.00    -0.356 OA
HETATM   11  C12 UNL     1      22.470  11.305  20.903  1.00  0.00     0.176 C 
ENDROOT
BRANCH   1  12
HETATM   12  C3  UNL     1      21.434  12.211  22.882  1.00  0.00     0.017 C 
BRANCH  12  13
HETATM   13  C2  UNL     1      20.705  10.959  23.292  1.00  0.00     0.113 C 
BRANCH  13  14
HETATM   14  C1  UNL     1      21.453  10.315  24.402  1.00  0.00     0.172 C 
HETATM   15  O1  UNL     1      20.978  10.237  25.562  1.00  0.00    -0.648 OA
HETATM   16  O2  UNL     1      22.717   9.769  24.192  1.00  0.00    -0.648 OA
ENDBRANCH  13  14
ENDBRANCH  12  13
ENDBRANCH   1  12
TORSDOF 3
ENDMDL
MODEL 5
REMARK VINA RESULT: -6.436145471      1.999      2.966
REMARK  3 active torsions:
REMARK  status: ('A' for Active; 'I' for Inactive)
REMARK    1  A    between atoms: C1_2  and  C2_4 
REMARK    2  A    between atoms: C2_4  and  C3_5 
REMARK    3  A    between atoms: C3_5  and  C4_6 
ROOT
HETATM    1  C4  UNL     1      26.452  11.401  20.579  1.00  0.00     0.010 C 
HETATM    2  C5  UNL     1      26.419  12.799  19.847  1.00  0.00     0.007 C 
HETATM    3  C6  UNL     1      25.118  13.336  19.755  1.00  0.00     0.000 C 
HETATM    4  C7  UNL     1      24.105  14.114  19.134  1.00  0.00     0.000 C 
HETATM    5  C8  UNL     1      22.740  13.589  19.711  1.00  0.00     0.000 C 
HETATM    6  C9  UNL     1      22.288  12.289  19.220  1.00  0.00     0.005 C 
HETATM    7  C10 UNL     1      21.888  11.183  20.213  1.00  0.00     0.066 C 
HETATM    8  C11 UNL     1      22.952  10.355  20.719  1.00  0.00     0.306 C 
HETATM    9  F1  UNL     1      23.255   9.999  19.389  1.00  0.00    -0.220 F 
HETATM   10  O3  UNL     1      24.205   9.991  21.028  1.00  0.00    -0.356 OA
HETATM   11  C12 UNL     1      25.221  10.717  20.547  1.00  0.00     0.176 C 
ENDROOT
BRANCH   1  12
HETATM   12  C3  UNL     1      27.531  10.566  19.874  1.00  0.00     0.017 C 
BRANCH  12  13
HETATM   13  C2  UNL     1      28.323   9.797  20.898  1.00  0.00     0.113 C 
BRANCH  13  14
HETATM   14  C1  UNL     1      29.256  10.731  21.578  1.00  0.00     0.172 C 
HETATM   15  O1  UNL     1      29.958  11.550  20.934  1.00  0.00    -0.648 OA
HETATM   16  O2  UNL     1      29.385  10.732  22.964  1.00  0.00    -0.648 OA
ENDBRANCH  13  14
ENDBRANCH  12  13
ENDBRANCH   1  12
TORSDOF 3
ENDMDL
