MODEL 1
REMARK VINA RESULT: -6.521033878      0.000      0.000
REMARK  9 active torsions:
REMARK  status: ('A' for Active; 'I' for Inactive)
REMARK    1  A    between atoms: C2_2  and  C3_3 
REMARK    2  A    between atoms: C3_3  and  C4_4 
REMARK    3  A    between atoms: C4_4  and  C5_5 
REMARK    4  A    between atoms: C5_5  and  C6_6 
REMARK    5  A    between atoms: C6_6  and  C7_7 
REMARK    6  A    between atoms: C7_7  and  C8_8 
REMARK    7  A    between atoms: C8_8  and  C9_9 
REMARK    8  A    between atoms: C9_9  and  N1_10 
REMARK    9  A    between atoms: N1_10  and  C10_12 
REMARK       I    between atoms: N3_16  and  C12_18 
ROOT
HETATM    1  C10 UNL     1      88.278  70.334  28.562  1.00  0.00     0.698 A 
HETATM    2  N2  UNL     1      88.199  71.583  29.045  1.00  0.00    -0.022 N 
ATOM      3  H2  UNL     1      87.315  71.900  29.443  1.00  0.00     0.203 HD
HETATM    4  C11 UNL     1      89.245  72.435  29.026  1.00  0.00     0.703 A 
HETATM    5  N3  UNL     1      89.200  73.641  29.486  1.00  0.00    -0.163 N 
ATOM      6  H3  UNL     1      90.012  74.257  29.454  1.00  0.00     0.187 HD
HETATM    7  C12 UNL     1      87.949  74.074  30.043  1.00  0.00     0.200 C 
HETATM    8  N4  UNL     1      87.728  73.740  31.281  1.00  0.00    -0.373 N 
ATOM      9  H41 UNL     1      86.840  74.047  31.677  1.00  0.00     0.158 HD
ATOM     10  H42 UNL     1      88.400  73.203  31.829  1.00  0.00     0.158 HD
HETATM   11  N5  UNL     1      87.019  74.817  29.285  1.00  0.00    -0.063 NA
HETATM   12  N6  UNL     1      90.395  71.940  28.480  1.00  0.00    -0.140 N 
ATOM     13  H6  UNL     1      91.218  72.542  28.441  1.00  0.00     0.189 HD
HETATM   14  C13 UNL     1      90.486  70.691  27.992  1.00  0.00     0.354 A 
HETATM   15  O1  UNL     1      91.556  70.257  27.493  1.00  0.00    -0.245 OA
HETATM   16  N7  UNL     1      89.418  69.870  28.029  1.00  0.00    -0.136 N 
HETATM   17  C14 UNL     1      89.528  68.518  27.496  1.00  0.00     0.180 C 
ENDROOT
BRANCH   1  18
HETATM   18  N1  UNL     1      87.265  69.546  28.594  1.00  0.00    -0.225 N 
ATOM     19  H1  UNL     1      87.375  68.643  29.055  1.00  0.00     0.177 HD
BRANCH  18  20
HETATM   20  C9  UNL     1      85.966  69.863  28.012  1.00  0.00     0.138 C 
BRANCH  20  21
HETATM   21  C8  UNL     1      84.955  69.720  29.099  1.00  0.00     0.020 C 
BRANCH  21  22
HETATM   22  C7  UNL     1      84.232  71.014  29.326  1.00  0.00     0.002 C 
BRANCH  22  23
HETATM   23  C6  UNL     1      84.841  71.748  30.486  1.00  0.00     0.000 C 
BRANCH  23  24
HETATM   24  C5  UNL     1      84.152  73.077  30.760  1.00  0.00     0.000 C 
BRANCH  24  25
HETATM   25  C4  UNL     1      83.315  73.008  31.994  1.00  0.00     0.004 C 
BRANCH  25  26
HETATM   26  C3  UNL     1      81.921  72.521  31.631  1.00  0.00     0.026 C 
BRANCH  26  27
HETATM   27  C2  UNL     1      81.293  71.831  32.770  1.00  0.00    -0.037 C 
HETATM   28  C1  UNL     1      79.972  71.716  32.819  1.00  0.00     0.007 C 
ENDBRANCH  26  27
ENDBRANCH  25  26
ENDBRANCH  24  25
ENDBRANCH  23  24
ENDBRANCH  22  23
ENDBRANCH  21  22
ENDBRANCH  20  21
ENDBRANCH  18  20
ENDBRANCH   1  18
TORSDOF 9
ENDMDL
MODEL 2
REMARK VINA RESULT: -6.477107838      3.766      5.998
REMARK  9 active torsions:
REMARK  status: ('A' for Active; 'I' for Inactive)
REMARK    1  A    between atoms: C2_2  and  C3_3 
REMARK    2  A    between atoms: C3_3  and  C4_4 
REMARK    3  A    between atoms: C4_4  and  C5_5 
REMARK    4  A    between atoms: C5_5  and  C6_6 
REMARK    5  A    between atoms: C6_6  and  C7_7 
REMARK    6  A    between atoms: C7_7  and  C8_8 
REMARK    7  A    between atoms: C8_8  and  C9_9 
REMARK    8  A    between atoms: C9_9  and  N1_10 
REMARK    9  A    between atoms: N1_10  and  C10_12 
REMARK       I    between atoms: N3_16  and  C12_18 
ROOT
HETATM    1  C10 UNL     1      86.786  73.091  30.485  1.00  0.00     0.698 A 
HETATM    2  N2  UNL     1      88.084  73.402  30.618  1.00  0.00    -0.022 N 
ATOM      3  H2  UNL     1      88.758  72.648  30.751  1.00  0.00     0.203 HD
HETATM    4  C11 UNL     1      88.532  74.675  30.582  1.00  0.00     0.703 A 
HETATM    5  N3  UNL     1      89.774  75.005  30.705  1.00  0.00    -0.163 N 
ATOM      6  H3  UNL     1      90.074  75.979  30.673  1.00  0.00     0.187 HD
HETATM    7  C12 UNL     1      90.712  73.933  30.890  1.00  0.00     0.200 C 
HETATM    8  N4  UNL     1      91.120  73.336  29.808  1.00  0.00    -0.373 N 
ATOM      9  H41 UNL     1      91.786  72.575  29.939  1.00  0.00     0.158 HD
ATOM     10  H42 UNL     1      90.796  73.608  28.880  1.00  0.00     0.158 HD
HETATM   11  N5  UNL     1      91.161  73.556  32.174  1.00  0.00    -0.063 NA
HETATM   12  N6  UNL     1      87.571  75.629  30.401  1.00  0.00    -0.140 N 
ATOM     13  H6  UNL     1      87.854  76.609  30.366  1.00  0.00     0.189 HD
HETATM   14  C13 UNL     1      86.268  75.329  30.268  1.00  0.00     0.354 A 
HETATM   15  O1  UNL     1      85.401  76.225  30.102  1.00  0.00    -0.245 OA
HETATM   16  N7  UNL     1      85.861  74.045  30.309  1.00  0.00    -0.136 N 
HETATM   17  C14 UNL     1      84.445  73.732  30.164  1.00  0.00     0.180 C 
ENDROOT
BRANCH   1  18
HETATM   18  N1  UNL     1      86.391  71.869  30.524  1.00  0.00    -0.225 N 
ATOM     19  H1  UNL     1      85.619  71.635  31.148  1.00  0.00     0.177 HD
BRANCH  18  20
HETATM   20  C9  UNL     1      86.978  70.796  29.729  1.00  0.00     0.138 C 
BRANCH  20  21
HETATM   21  C8  UNL     1      87.524  69.794  30.688  1.00  0.00     0.020 C 
BRANCH  21  22
HETATM   22  C7  UNL     1      89.023  69.846  30.715  1.00  0.00     0.002 C 
BRANCH  22  23
HETATM   23  C6  UNL     1      89.500  70.226  32.088  1.00  0.00     0.000 C 
BRANCH  23  24
HETATM   24  C5  UNL     1      90.848  69.608  32.426  1.00  0.00     0.000 C 
BRANCH  24  25
HETATM   25  C4  UNL     1      90.713  68.158  32.751  1.00  0.00     0.004 C 
BRANCH  25  26
HETATM   26  C3  UNL     1      89.706  67.986  33.877  1.00  0.00     0.026 C 
BRANCH  26  27
HETATM   27  C2  UNL     1      88.866  66.797  33.653  1.00  0.00    -0.037 C 
HETATM   28  C1  UNL     1      87.567  66.947  33.422  1.00  0.00     0.007 C 
ENDBRANCH  26  27
ENDBRANCH  25  26
ENDBRANCH  24  25
ENDBRANCH  23  24
ENDBRANCH  22  23
ENDBRANCH  21  22
ENDBRANCH  20  21
ENDBRANCH  18  20
ENDBRANCH   1  18
TORSDOF 9
ENDMDL
MODEL 3
REMARK VINA RESULT: -6.445088561      2.734      4.025
REMARK  9 active torsions:
REMARK  status: ('A' for Active; 'I' for Inactive)
REMARK    1  A    between atoms: C2_2  and  C3_3 
REMARK    2  A    between atoms: C3_3  and  C4_4 
REMARK    3  A    between atoms: C4_4  and  C5_5 
REMARK    4  A    between atoms: C5_5  and  C6_6 
REMARK    5  A    between atoms: C6_6  and  C7_7 
REMARK    6  A    between atoms: C7_7  and  C8_8 
REMARK    7  A    between atoms: C8_8  and  C9_9 
REMARK    8  A    between atoms: C9_9  and  N1_10 
REMARK    9  A    between atoms: N1_10  and  C10_12 
REMARK       I    between atoms: N3_16  and  C12_18 
ROOT
HETATM    1  C10 UNL     1      87.208  73.074  30.430  1.00  0.00     0.698 A 
HETATM    2  N2  UNL     1      88.530  73.271  30.546  1.00  0.00    -0.022 N 
ATOM      3  H2  UNL     1      89.142  72.459  30.625  1.00  0.00     0.203 HD
HETATM    4  C11 UNL     1      89.081  74.503  30.561  1.00  0.00     0.703 A 
HETATM    5  N3  UNL     1      90.348  74.725  30.669  1.00  0.00    -0.163 N 
ATOM      6  H3  UNL     1      90.727  75.671  30.677  1.00  0.00     0.187 HD
HETATM    7  C12 UNL     1      91.198  73.572  30.779  1.00  0.00     0.200 C 
HETATM    8  N4  UNL     1      91.533  72.999  29.660  1.00  0.00    -0.373 N 
ATOM      9  H41 UNL     1      92.136  72.180  29.738  1.00  0.00     0.158 HD
ATOM     10  H42 UNL     1      91.214  73.342  28.755  1.00  0.00     0.158 HD
HETATM   11  N5  UNL     1      91.640  73.096  32.032  1.00  0.00    -0.063 NA
HETATM   12  N6  UNL     1      88.198  75.541  30.449  1.00  0.00    -0.140 N 
ATOM     13  H6  UNL     1      88.561  76.494  30.455  1.00  0.00     0.189 HD
HETATM   14  C13 UNL     1      86.872  75.355  30.333  1.00  0.00     0.354 A 
HETATM   15  O1  UNL     1      86.080  76.327  30.232  1.00  0.00    -0.245 OA
HETATM   16  N7  UNL     1      86.362  74.109  30.322  1.00  0.00    -0.136 N 
HETATM   17  C14 UNL     1      84.922  73.919  30.197  1.00  0.00     0.180 C 
ENDROOT
BRANCH   1  18
HETATM   18  N1  UNL     1      86.714  71.888  30.418  1.00  0.00    -0.225 N 
ATOM     19  H1  UNL     1      85.832  71.733  30.907  1.00  0.00     0.177 HD
BRANCH  18  20
HETATM   20  C9  UNL     1      87.336  70.752  29.749  1.00  0.00     0.138 C 
BRANCH  20  21
HETATM   21  C8  UNL     1      86.242  69.988  29.083  1.00  0.00     0.020 C 
BRANCH  21  22
HETATM   22  C7  UNL     1      85.401  69.271  30.095  1.00  0.00     0.002 C 
BRANCH  22  23
HETATM   23  C6  UNL     1      83.958  69.296  29.677  1.00  0.00     0.000 C 
BRANCH  23  24
HETATM   24  C5  UNL     1      83.321  70.665  29.870  1.00  0.00     0.000 C 
BRANCH  24  25
HETATM   25  C4  UNL     1      83.141  70.979  31.317  1.00  0.00     0.004 C 
BRANCH  25  26
HETATM   26  C3  UNL     1      82.060  72.036  31.473  1.00  0.00     0.026 C 
BRANCH  26  27
HETATM   27  C2  UNL     1      81.338  71.866  32.744  1.00  0.00    -0.037 C 
HETATM   28  C1  UNL     1      80.019  71.717  32.734  1.00  0.00     0.007 C 
ENDBRANCH  26  27
ENDBRANCH  25  26
ENDBRANCH  24  25
ENDBRANCH  23  24
ENDBRANCH  22  23
ENDBRANCH  21  22
ENDBRANCH  20  21
ENDBRANCH  18  20
ENDBRANCH   1  18
TORSDOF 9
ENDMDL
MODEL 4
REMARK VINA RESULT: -6.426235799      3.795      5.926
REMARK  9 active torsions:
REMARK  status: ('A' for Active; 'I' for Inactive)
REMARK    1  A    between atoms: C2_2  and  C3_3 
REMARK    2  A    between atoms: C3_3  and  C4_4 
REMARK    3  A    between atoms: C4_4  and  C5_5 
REMARK    4  A    between atoms: C5_5  and  C6_6 
REMARK    5  A    between atoms: C6_6  and  C7_7 
REMARK    6  A    between atoms: C7_7  and  C8_8 
REMARK    7  A    between atoms: C8_8  and  C9_9 
REMARK    8  A    between atoms: C9_9  and  N1_10 
REMARK    9  A    between atoms: N1_10  and  C10_12 
REMARK       I    between atoms: N3_16  and  C12_18 
ROOT
HETATM    1  C10 UNL     1      86.823  73.069  30.504  1.00  0.00     0.698 A 
HETATM    2  N2  UNL     1      88.115  73.406  30.628  1.00  0.00    -0.022 N 
ATOM      3  H2  UNL     1      88.804  72.667  30.767  1.00  0.00     0.203 HD
HETATM    4  C11 UNL     1      88.538  74.687  30.577  1.00  0.00     0.703 A 
HETATM    5  N3  UNL     1      89.774  75.042  30.692  1.00  0.00    -0.163 N 
ATOM      6  H3  UNL     1      90.056  76.021  30.648  1.00  0.00     0.187 HD
HETATM    7  C12 UNL     1      90.733  73.990  30.885  1.00  0.00     0.200 C 
HETATM    8  N4  UNL     1      91.148  73.389  29.808  1.00  0.00    -0.373 N 
ATOM      9  H41 UNL     1      91.829  72.642  29.945  1.00  0.00     0.158 HD
ATOM     10  H42 UNL     1      90.816  73.645  28.879  1.00  0.00     0.158 HD
HETATM   11  N5  UNL     1      91.194  73.636  32.171  1.00  0.00    -0.063 NA
HETATM   12  N6  UNL     1      87.559  75.621  30.389  1.00  0.00    -0.140 N 
ATOM     13  H6  UNL     1      87.823  76.605  30.342  1.00  0.00     0.189 HD
HETATM   14  C13 UNL     1      86.261  75.294  30.263  1.00  0.00     0.354 A 
HETATM   15  O1  UNL     1      85.377  76.172  30.091  1.00  0.00    -0.245 OA
HETATM   16  N7  UNL     1      85.879  74.004  30.320  1.00  0.00    -0.136 N 
HETATM   17  C14 UNL     1      84.469  73.662  30.184  1.00  0.00     0.180 C 
ENDROOT
BRANCH   1  18
HETATM   18  N1  UNL     1      86.451  71.841  30.557  1.00  0.00    -0.225 N 
ATOM     19  H1  UNL     1      85.582  71.624  31.047  1.00  0.00     0.177 HD
BRANCH  18  20
HETATM   20  C9  UNL     1      87.194  70.737  29.961  1.00  0.00     0.138 C 
BRANCH  20  21
HETATM   21  C8  UNL     1      87.612  69.841  31.076  1.00  0.00     0.020 C 
BRANCH  21  22
HETATM   22  C7  UNL     1      87.367  68.404  30.726  1.00  0.00     0.002 C 
BRANCH  22  23
HETATM   23  C6  UNL     1      86.011  67.979  31.212  1.00  0.00     0.000 C 
BRANCH  23  24
HETATM   24  C5  UNL     1      86.082  67.172  32.500  1.00  0.00     0.000 C 
BRANCH  24  25
HETATM   25  C4  UNL     1      87.340  66.373  32.569  1.00  0.00     0.004 C 
BRANCH  25  26
HETATM   26  C3  UNL     1      87.940  66.497  33.961  1.00  0.00     0.026 C 
BRANCH  26  27
HETATM   27  C2  UNL     1      89.187  67.280  33.927  1.00  0.00    -0.037 C 
HETATM   28  C1  UNL     1      90.035  67.118  32.919  1.00  0.00     0.007 C 
ENDBRANCH  26  27
ENDBRANCH  25  26
ENDBRANCH  24  25
ENDBRANCH  23  24
ENDBRANCH  22  23
ENDBRANCH  21  22
ENDBRANCH  20  21
ENDBRANCH  18  20
ENDBRANCH   1  18
TORSDOF 9
ENDMDL
MODEL 5
REMARK VINA RESULT: -6.397740511      3.131      6.745
REMARK  9 active torsions:
REMARK  status: ('A' for Active; 'I' for Inactive)
REMARK    1  A    between atoms: C2_2  and  C3_3 
REMARK    2  A    between atoms: C3_3  and  C4_4 
REMARK    3  A    between atoms: C4_4  and  C5_5 
REMARK    4  A    between atoms: C5_5  and  C6_6 
REMARK    5  A    between atoms: C6_6  and  C7_7 
REMARK    6  A    between atoms: C7_7  and  C8_8 
REMARK    7  A    between atoms: C8_8  and  C9_9 
REMARK    8  A    between atoms: C9_9  and  N1_10 
REMARK    9  A    between atoms: N1_10  and  C10_12 
REMARK       I    between atoms: N3_16  and  C12_18 
ROOT
HETATM    1  C10 UNL     1      86.763  73.081  30.496  1.00  0.00     0.698 A 
HETATM    2  N2  UNL     1      88.063  73.390  30.608  1.00  0.00    -0.022 N 
ATOM      3  H2  UNL     1      88.738  72.635  30.729  1.00  0.00     0.203 HD
HETATM    4  C11 UNL     1      88.512  74.662  30.565  1.00  0.00     0.703 A 
HETATM    5  N3  UNL     1      89.756  74.991  30.668  1.00  0.00    -0.163 N 
ATOM      6  H3  UNL     1      90.058  75.964  30.632  1.00  0.00     0.187 HD
HETATM    7  C12 UNL     1      90.696  73.917  30.837  1.00  0.00     0.200 C 
HETATM    8  N4  UNL     1      91.085  73.321  29.749  1.00  0.00    -0.373 N 
ATOM      9  H41 UNL     1      91.752  72.558  29.868  1.00  0.00     0.158 HD
ATOM     10  H42 UNL     1      90.747  73.593  28.826  1.00  0.00     0.158 HD
HETATM   11  N5  UNL     1      91.165  73.539  32.114  1.00  0.00    -0.063 NA
HETATM   12  N6  UNL     1      87.550  75.618  30.400  1.00  0.00    -0.140 N 
ATOM     13  H6  UNL     1      87.834  76.597  30.360  1.00  0.00     0.189 HD
HETATM   14  C13 UNL     1      86.244  75.320  30.287  1.00  0.00     0.354 A 
HETATM   15  O1  UNL     1      85.376  76.218  30.136  1.00  0.00    -0.245 OA
HETATM   16  N7  UNL     1      85.836  74.037  30.335  1.00  0.00    -0.136 N 
HETATM   17  C14 UNL     1      84.418  73.725  30.213  1.00  0.00     0.180 C 
ENDROOT
BRANCH   1  18
HETATM   18  N1  UNL     1      86.367  71.860  30.540  1.00  0.00    -0.225 N 
ATOM     19  H1  UNL     1      85.506  71.654  31.048  1.00  0.00     0.177 HD
BRANCH  18  20
HETATM   20  C9  UNL     1      87.071  70.750  29.908  1.00  0.00     0.138 C 
BRANCH  20  21
HETATM   21  C8  UNL     1      86.177  70.221  28.837  1.00  0.00     0.020 C 
BRANCH  21  22
HETATM   22  C7  UNL     1      86.968  69.857  27.616  1.00  0.00     0.002 C 
BRANCH  22  23
HETATM   23  C6  UNL     1      88.436  69.857  27.934  1.00  0.00     0.000 C 
BRANCH  23  24
HETATM   24  C5  UNL     1      89.261  69.152  26.867  1.00  0.00     0.000 C 
BRANCH  24  25
HETATM   25  C4  UNL     1      88.464  68.928  25.626  1.00  0.00     0.004 C 
BRANCH  25  26
HETATM   26  C3  UNL     1      89.185  69.554  24.444  1.00  0.00     0.026 C 
BRANCH  26  27
HETATM   27  C2  UNL     1      90.555  69.947  24.812  1.00  0.00    -0.037 C 
HETATM   28  C1  UNL     1      91.566  69.625  24.015  1.00  0.00     0.007 C 
ENDBRANCH  26  27
ENDBRANCH  25  26
ENDBRANCH  24  25
ENDBRANCH  23  24
ENDBRANCH  22  23
ENDBRANCH  21  22
ENDBRANCH  20  21
ENDBRANCH  18  20
ENDBRANCH   1  18
TORSDOF 9
ENDMDL
