MODEL 1
REMARK VINA RESULT: -7.048009853      0.000      0.000
REMARK  9 active torsions:
REMARK  status: ('A' for Active; 'I' for Inactive)
REMARK    1  A    between atoms: C2_2  and  C3_3 
REMARK    2  A    between atoms: C3_3  and  C4_4 
REMARK    3  A    between atoms: C5_5  and  C6_6 
REMARK    4  A    between atoms: C6_6  and  C7_7 
REMARK    5  A    between atoms: C9_9  and  O1_10 
REMARK    6  A    between atoms: O1_10  and  C10_11 
REMARK    7  A    between atoms: C10_11  and  C11_12 
REMARK    8  A    between atoms: C13_17  and  C14_18 
REMARK    9  A    between atoms: C15_19  and  N2_20 
ROOT
HETATM    1  O1  UNL     1      86.755  72.523  30.944  1.00  0.00    -0.379 OA
ENDROOT
BRANCH   1   2
HETATM    2  C9  UNL     1      87.617  72.964  29.932  1.00  0.00     0.167 C 
HETATM    3  C8  UNL     1      88.806  72.087  29.727  1.00  0.00     0.049 C 
HETATM    4  C7  UNL     1      89.608  73.076  30.514  1.00  0.00     0.040 C 
HETATM    5  C16 UNL     1      88.524  74.064  30.355  1.00  0.00     0.013 C 
HETATM    6  N4  UNL     1      88.450  75.331  30.525  1.00  0.00    -0.403 N 
ATOM      7  H42 UNL     1      89.072  76.085  30.815  1.00  0.00     0.155 HD
ATOM      8  H41 UNL     1      87.700  76.015  30.415  1.00  0.00     0.155 HD
BRANCH   4   9
HETATM    9  C6  UNL     1      89.801  72.594  31.944  1.00  0.00     0.037 C 
BRANCH   9  10
HETATM   10  C5  UNL     1      91.177  72.881  32.420  1.00  0.00    -0.030 C 
HETATM   11  C4  UNL     1      92.183  72.121  32.114  1.00  0.00    -0.027 C 
BRANCH  11  12
HETATM   12  C3  UNL     1      92.224  70.899  31.297  1.00  0.00     0.053 C 
BRANCH  12  13
HETATM   13  C2  UNL     1      92.775  71.205  29.952  1.00  0.00    -0.033 C 
HETATM   14  C1  UNL     1      93.733  72.093  29.821  1.00  0.00     0.007 C 
ENDBRANCH  12  13
ENDBRANCH  11  12
ENDBRANCH   9  10
ENDBRANCH   4   9
ENDBRANCH   1   2
BRANCH   1  15
HETATM   15  C10 UNL     1      85.449  72.779  30.610  1.00  0.00     0.185 C 
BRANCH  15  16
HETATM   16  C11 UNL     1      84.888  73.973  31.299  1.00  0.00     0.128 C 
HETATM   17  C12 UNL     1      84.825  75.233  30.554  1.00  0.00     0.226 C 
HETATM   18  O2  UNL     1      85.442  75.919  29.707  1.00  0.00    -0.273 OA
HETATM   19  N1  UNL     1      83.579  75.494  31.239  1.00  0.00    -0.352 N 
HETATM   20  C13 UNL     1      83.359  74.047  31.178  1.00  0.00     0.124 C 
ATOM     21  H1  UNL     1      83.083  76.310  31.598  1.00  0.00     0.163 HD
BRANCH  20  22
HETATM   22  C14 UNL     1      82.675  73.479  32.340  1.00  0.00     0.018 C 
HETATM   23  C15 UNL     1      81.821  72.494  32.165  1.00  0.00     0.104 C 
BRANCH  23  24
HETATM   24  N2  UNL     1      81.142  71.918  33.247  1.00  0.00    -0.319 N 
HETATM   25  N3  UNL     1      79.867  71.824  33.178  1.00  0.00    -0.345 N 
ATOM     26  H32 UNL     1      79.375  72.164  32.352  1.00  0.00     0.176 HD
ATOM     27  H31 UNL     1      79.373  71.405  33.965  1.00  0.00     0.176 HD
ATOM     28  H2  UNL     1      81.649  71.583  34.067  1.00  0.00     0.185 HD
ENDBRANCH  23  24
ENDBRANCH  20  22
ENDBRANCH  15  16
ENDBRANCH   1  15
TORSDOF 9
ENDMDL
MODEL 2
REMARK VINA RESULT: -6.874965496      1.069      1.648
REMARK  9 active torsions:
REMARK  status: ('A' for Active; 'I' for Inactive)
REMARK    1  A    between atoms: C2_2  and  C3_3 
REMARK    2  A    between atoms: C3_3  and  C4_4 
REMARK    3  A    between atoms: C5_5  and  C6_6 
REMARK    4  A    between atoms: C6_6  and  C7_7 
REMARK    5  A    between atoms: C9_9  and  O1_10 
REMARK    6  A    between atoms: O1_10  and  C10_11 
REMARK    7  A    between atoms: C10_11  and  C11_12 
REMARK    8  A    between atoms: C13_17  and  C14_18 
REMARK    9  A    between atoms: C15_19  and  N2_20 
ROOT
HETATM    1  O1  UNL     1      86.710  72.572  30.976  1.00  0.00    -0.379 OA
ENDROOT
BRANCH   1   2
HETATM    2  C9  UNL     1      87.578  72.998  29.961  1.00  0.00     0.167 C 
HETATM    3  C8  UNL     1      88.773  72.126  29.783  1.00  0.00     0.049 C 
HETATM    4  C7  UNL     1      89.563  73.136  30.556  1.00  0.00     0.040 C 
HETATM    5  C16 UNL     1      88.475  74.113  30.369  1.00  0.00     0.013 C 
HETATM    6  N4  UNL     1      88.391  75.382  30.513  1.00  0.00    -0.403 N 
ATOM      7  H42 UNL     1      89.006  76.146  30.792  1.00  0.00     0.155 HD
ATOM      8  H41 UNL     1      87.638  76.059  30.383  1.00  0.00     0.155 HD
BRANCH   4   9
HETATM    9  C6  UNL     1      89.748  72.683  31.997  1.00  0.00     0.037 C 
BRANCH   9  10
HETATM   10  C5  UNL     1      91.173  72.378  32.279  1.00  0.00    -0.030 C 
HETATM   11  C4  UNL     1      91.673  71.196  32.092  1.00  0.00    -0.027 C 
BRANCH  11  12
HETATM   12  C3  UNL     1      91.029  69.969  31.601  1.00  0.00     0.053 C 
BRANCH  12  13
HETATM   13  C2  UNL     1      90.572  69.141  32.747  1.00  0.00    -0.033 C 
HETATM   14  C1  UNL     1      89.307  69.150  33.099  1.00  0.00     0.007 C 
ENDBRANCH  12  13
ENDBRANCH  11  12
ENDBRANCH   9  10
ENDBRANCH   4   9
ENDBRANCH   1   2
BRANCH   1  15
HETATM   15  C10 UNL     1      85.406  72.820  30.629  1.00  0.00     0.185 C 
BRANCH  15  16
HETATM   16  C11 UNL     1      84.830  74.008  31.318  1.00  0.00     0.128 C 
HETATM   17  C12 UNL     1      84.766  75.270  30.578  1.00  0.00     0.226 C 
HETATM   18  O2  UNL     1      85.386  75.964  29.740  1.00  0.00    -0.273 OA
HETATM   19  N1  UNL     1      83.512  75.520  31.252  1.00  0.00    -0.352 N 
HETATM   20  C13 UNL     1      83.302  74.072  31.183  1.00  0.00     0.124 C 
ATOM     21  H1  UNL     1      83.006  76.330  31.610  1.00  0.00     0.163 HD
BRANCH  20  22
HETATM   22  C14 UNL     1      82.610  73.493  32.334  1.00  0.00     0.018 C 
HETATM   23  C15 UNL     1      81.808  72.467  32.154  1.00  0.00     0.104 C 
BRANCH  23  24
HETATM   24  N2  UNL     1      81.124  71.880  33.227  1.00  0.00    -0.319 N 
HETATM   25  N3  UNL     1      79.845  71.856  33.186  1.00  0.00    -0.345 N 
ATOM     26  H32 UNL     1      79.352  72.256  32.387  1.00  0.00     0.176 HD
ATOM     27  H31 UNL     1      79.347  71.429  33.967  1.00  0.00     0.176 HD
ATOM     28  H2  UNL     1      81.631  71.484  34.019  1.00  0.00     0.185 HD
ENDBRANCH  23  24
ENDBRANCH  20  22
ENDBRANCH  15  16
ENDBRANCH   1  15
TORSDOF 9
ENDMDL
MODEL 3
REMARK VINA RESULT: -6.814678648      1.650      2.129
REMARK  9 active torsions:
REMARK  status: ('A' for Active; 'I' for Inactive)
REMARK    1  A    between atoms: C2_2  and  C3_3 
REMARK    2  A    between atoms: C3_3  and  C4_4 
REMARK    3  A    between atoms: C5_5  and  C6_6 
REMARK    4  A    between atoms: C6_6  and  C7_7 
REMARK    5  A    between atoms: C9_9  and  O1_10 
REMARK    6  A    between atoms: O1_10  and  C10_11 
REMARK    7  A    between atoms: C10_11  and  C11_12 
REMARK    8  A    between atoms: C13_17  and  C14_18 
REMARK    9  A    between atoms: C15_19  and  N2_20 
ROOT
HETATM    1  O1  UNL     1      87.789  72.884  31.261  1.00  0.00    -0.379 OA
ENDROOT
BRANCH   1   2
HETATM    2  C9  UNL     1      88.231  71.574  31.035  1.00  0.00     0.167 C 
HETATM    3  C8  UNL     1      89.628  71.321  31.493  1.00  0.00     0.049 C 
HETATM    4  C7  UNL     1      90.067  71.461  30.069  1.00  0.00     0.040 C 
HETATM    5  C16 UNL     1      88.665  71.320  29.634  1.00  0.00     0.013 C 
HETATM    6  N4  UNL     1      88.107  71.080  28.507  1.00  0.00    -0.403 N 
ATOM      7  H42 UNL     1      88.404  70.906  27.547  1.00  0.00     0.155 HD
ATOM      8  H41 UNL     1      87.137  70.982  28.206  1.00  0.00     0.155 HD
BRANCH   4   9
HETATM    9  C6  UNL     1      90.655  72.843  29.823  1.00  0.00     0.037 C 
BRANCH   9  10
HETATM   10  C5  UNL     1      91.835  72.765  28.925  1.00  0.00    -0.030 C 
HETATM   11  C4  UNL     1      93.040  72.627  29.383  1.00  0.00    -0.027 C 
BRANCH  11  12
HETATM   12  C3  UNL     1      93.512  72.520  30.772  1.00  0.00     0.053 C 
BRANCH  12  13
HETATM   13  C2  UNL     1      94.517  71.432  30.884  1.00  0.00    -0.033 C 
HETATM   14  C1  UNL     1      94.924  70.800  29.808  1.00  0.00     0.007 C 
ENDBRANCH  12  13
ENDBRANCH  11  12
ENDBRANCH   9  10
ENDBRANCH   4   9
ENDBRANCH   1   2
BRANCH   1  15
HETATM   15  C10 UNL     1      86.451  72.996  30.977  1.00  0.00     0.185 C 
BRANCH  15  16
HETATM   16  C11 UNL     1      85.898  74.347  31.270  1.00  0.00     0.128 C 
HETATM   17  C12 UNL     1      86.109  75.408  30.283  1.00  0.00     0.226 C 
HETATM   18  O2  UNL     1      86.944  75.848  29.459  1.00  0.00    -0.273 OA
HETATM   19  N1  UNL     1      84.791  75.892  30.625  1.00  0.00    -0.352 N 
HETATM   20  C13 UNL     1      84.436  74.485  30.823  1.00  0.00     0.124 C 
ATOM     21  H1  UNL     1      84.324  76.796  30.696  1.00  0.00     0.163 HD
BRANCH  20  22
HETATM   22  C14 UNL     1      83.489  74.235  31.909  1.00  0.00     0.018 C 
HETATM   23  C15 UNL     1      82.716  73.173  31.856  1.00  0.00     0.104 C 
BRANCH  23  24
HETATM   24  N2  UNL     1      81.793  72.892  32.873  1.00  0.00    -0.319 N 
HETATM   25  N3  UNL     1      82.032  71.900  33.647  1.00  0.00    -0.345 N 
ATOM     26  H32 UNL     1      82.874  71.340  33.514  1.00  0.00     0.176 HD
ATOM     27  H31 UNL     1      81.360  71.696  34.387  1.00  0.00     0.176 HD
ATOM     28  H2  UNL     1      80.955  73.461  32.993  1.00  0.00     0.185 HD
ENDBRANCH  23  24
ENDBRANCH  20  22
ENDBRANCH  15  16
ENDBRANCH   1  15
TORSDOF 9
ENDMDL
MODEL 4
REMARK VINA RESULT: -6.809968540      2.291      4.480
REMARK  9 active torsions:
REMARK  status: ('A' for Active; 'I' for Inactive)
REMARK    1  A    between atoms: C2_2  and  C3_3 
REMARK    2  A    between atoms: C3_3  and  C4_4 
REMARK    3  A    between atoms: C5_5  and  C6_6 
REMARK    4  A    between atoms: C6_6  and  C7_7 
REMARK    5  A    between atoms: C9_9  and  O1_10 
REMARK    6  A    between atoms: O1_10  and  C10_11 
REMARK    7  A    between atoms: C10_11  and  C11_12 
REMARK    8  A    between atoms: C13_17  and  C14_18 
REMARK    9  A    between atoms: C15_19  and  N2_20 
ROOT
HETATM    1  O1  UNL     1      85.482  71.782  29.416  1.00  0.00    -0.379 OA
ENDROOT
BRANCH   1   2
HETATM    2  C9  UNL     1      86.236  70.608  29.550  1.00  0.00     0.167 C 
HETATM    3  C8  UNL     1      87.328  70.703  30.561  1.00  0.00     0.049 C 
HETATM    4  C7  UNL     1      88.287  70.908  29.431  1.00  0.00     0.040 C 
HETATM    5  C16 UNL     1      87.261  70.429  28.487  1.00  0.00     0.013 C 
HETATM    6  N4  UNL     1      87.293  70.036  27.269  1.00  0.00    -0.403 N 
ATOM      7  H42 UNL     1      87.996  69.914  26.540  1.00  0.00     0.155 HD
ATOM      8  H41 UNL     1      86.583  69.705  26.615  1.00  0.00     0.155 HD
BRANCH   4   9
HETATM    9  C6  UNL     1      88.629  72.383  29.278  1.00  0.00     0.037 C 
BRANCH   9  10
HETATM   10  C5  UNL     1      90.092  72.575  29.114  1.00  0.00    -0.030 C 
HETATM   11  C4  UNL     1      90.809  73.186  30.005  1.00  0.00    -0.027 C 
BRANCH  11  12
HETATM   12  C3  UNL     1      90.408  73.789  31.285  1.00  0.00     0.053 C 
BRANCH  12  13
HETATM   13  C2  UNL     1      90.822  72.914  32.411  1.00  0.00    -0.033 C 
HETATM   14  C1  UNL     1      90.056  71.915  32.782  1.00  0.00     0.007 C 
ENDBRANCH  12  13
ENDBRANCH  11  12
ENDBRANCH   9  10
ENDBRANCH   4   9
ENDBRANCH   1   2
BRANCH   1  15
HETATM   15  C10 UNL     1      84.804  72.053  30.578  1.00  0.00     0.185 C 
BRANCH  15  16
HETATM   16  C11 UNL     1      84.141  73.386  30.576  1.00  0.00     0.128 C 
HETATM   17  C12 UNL     1      83.254  73.717  31.693  1.00  0.00     0.226 C 
HETATM   18  O2  UNL     1      82.414  73.219  32.478  1.00  0.00    -0.273 OA
HETATM   19  N1  UNL     1      83.743  75.073  31.588  1.00  0.00    -0.352 N 
HETATM   20  C13 UNL     1      85.023  74.473  31.203  1.00  0.00     0.124 C 
ATOM     21  H1  UNL     1      83.369  76.012  31.720  1.00  0.00     0.163 HD
BRANCH  20  22
HETATM   22  C14 UNL     1      85.782  75.228  30.206  1.00  0.00     0.018 C 
HETATM   23  C15 UNL     1      87.071  75.414  30.385  1.00  0.00     0.104 C 
BRANCH  23  24
HETATM   24  N2  UNL     1      87.840  76.130  29.457  1.00  0.00    -0.319 N 
HETATM   25  N3  UNL     1      88.612  77.051  29.897  1.00  0.00    -0.345 N 
ATOM     26  H32 UNL     1      88.656  77.246  30.897  1.00  0.00     0.176 HD
ATOM     27  H31 UNL     1      89.171  77.572  29.221  1.00  0.00     0.176 HD
ATOM     28  H2  UNL     1      87.784  75.924  28.459  1.00  0.00     0.185 HD
ENDBRANCH  23  24
ENDBRANCH  20  22
ENDBRANCH  15  16
ENDBRANCH   1  15
TORSDOF 9
ENDMDL
MODEL 5
REMARK VINA RESULT: -6.764716740      2.085      2.624
REMARK  9 active torsions:
REMARK  status: ('A' for Active; 'I' for Inactive)
REMARK    1  A    between atoms: C2_2  and  C3_3 
REMARK    2  A    between atoms: C3_3  and  C4_4 
REMARK    3  A    between atoms: C5_5  and  C6_6 
REMARK    4  A    between atoms: C6_6  and  C7_7 
REMARK    5  A    between atoms: C9_9  and  O1_10 
REMARK    6  A    between atoms: O1_10  and  C10_11 
REMARK    7  A    between atoms: C10_11  and  C11_12 
REMARK    8  A    between atoms: C13_17  and  C14_18 
REMARK    9  A    between atoms: C15_19  and  N2_20 
ROOT
HETATM    1  O1  UNL     1      87.055  73.174  31.462  1.00  0.00    -0.379 OA
ENDROOT
BRANCH   1   2
HETATM    2  C9  UNL     1      87.957  73.217  30.391  1.00  0.00     0.167 C 
HETATM    3  C8  UNL     1      88.555  71.893  30.053  1.00  0.00     0.049 C 
HETATM    4  C7  UNL     1      89.784  72.316  30.796  1.00  0.00     0.040 C 
HETATM    5  C16 UNL     1      89.310  73.711  30.766  1.00  0.00     0.013 C 
HETATM    6  N4  UNL     1      89.870  74.842  30.982  1.00  0.00    -0.403 N 
ATOM      7  H42 UNL     1      90.797  75.180  31.239  1.00  0.00     0.155 HD
ATOM      8  H41 UNL     1      89.542  75.808  30.961  1.00  0.00     0.155 HD
BRANCH   4   9
HETATM    9  C6  UNL     1      89.808  71.699  32.187  1.00  0.00     0.037 C 
BRANCH   9  10
HETATM   10  C5  UNL     1      90.832  70.628  32.276  1.00  0.00    -0.030 C 
HETATM   11  C4  UNL     1      90.532  69.418  32.634  1.00  0.00    -0.027 C 
BRANCH  11  12
HETATM   12  C3  UNL     1      89.231  68.843  33.008  1.00  0.00     0.053 C 
BRANCH  12  13
HETATM   13  C2  UNL     1      89.433  67.624  33.833  1.00  0.00    -0.033 C 
HETATM   14  C1  UNL     1      88.451  66.767  33.988  1.00  0.00     0.007 C 
ENDBRANCH  12  13
ENDBRANCH  11  12
ENDBRANCH   9  10
ENDBRANCH   4   9
ENDBRANCH   1   2
BRANCH   1  15
HETATM   15  C10 UNL     1      85.762  73.163  31.001  1.00  0.00     0.185 C 
BRANCH  15  16
HETATM   16  C11 UNL     1      84.950  74.309  31.497  1.00  0.00     0.128 C 
HETATM   17  C12 UNL     1      84.805  75.478  30.627  1.00  0.00     0.226 C 
HETATM   18  O2  UNL     1      85.422  76.180  29.793  1.00  0.00    -0.273 OA
HETATM   19  N1  UNL     1      83.457  75.599  31.133  1.00  0.00    -0.352 N 
HETATM   20  C13 UNL     1      83.456  74.135  31.192  1.00  0.00     0.124 C 
ATOM     21  H1  UNL     1      82.806  76.354  31.348  1.00  0.00     0.163 HD
BRANCH  20  22
HETATM   22  C14 UNL     1      82.715  73.564  32.317  1.00  0.00     0.018 C 
HETATM   23  C15 UNL     1      81.970  72.498  32.122  1.00  0.00     0.104 C 
BRANCH  23  24
HETATM   24  N2  UNL     1      81.242  71.917  33.169  1.00  0.00    -0.319 N 
HETATM   25  N3  UNL     1      79.968  71.866  33.061  1.00  0.00    -0.345 N 
ATOM     26  H32 UNL     1      79.510  72.243  32.231  1.00  0.00     0.176 HD
ATOM     27  H31 UNL     1      79.438  71.443  33.823  1.00  0.00     0.176 HD
ATOM     28  H2  UNL     1      81.715  71.545  33.993  1.00  0.00     0.185 HD
ENDBRANCH  23  24
ENDBRANCH  20  22
ENDBRANCH  15  16
ENDBRANCH   1  15
TORSDOF 9
ENDMDL
