MODEL 1
REMARK VINA RESULT: -7.092766777      0.000      0.000
REMARK  2 active torsions:
REMARK  status: ('A' for Active; 'I' for Inactive)
REMARK    1  A    between atoms: N1_11  and  N2_13 
REMARK       I    between atoms: N2_13  and  C10_15 
REMARK    2  A    between atoms: C10_15  and  C11_17 
ROOT
HETATM    1  O1  UNL     1      39.568 -13.296 -11.572  1.00  0.00    -0.291 OA
HETATM    2  C1  UNL     1      39.748 -12.574 -12.578  1.00  0.00     0.173 C 
HETATM    3  C2  UNL     1      40.837 -12.949 -13.514  1.00  0.00     0.085 C 
HETATM    4  C3  UNL     1      40.502 -14.306 -14.059  1.00  0.00     0.008 C 
HETATM    5  C4  UNL     1      39.951 -14.353 -15.423  1.00  0.00     0.000 C 
HETATM    6  C5  UNL     1      39.271 -13.107 -15.920  1.00  0.00     0.000 C 
HETATM    7  C6  UNL     1      37.971 -12.928 -15.209  1.00  0.00     0.000 C 
HETATM    8  C7  UNL     1      37.671 -11.470 -14.944  1.00  0.00     0.006 C 
HETATM    9  C8  UNL     1      38.670 -10.786 -14.070  1.00  0.00     0.062 C 
HETATM   10  C9  UNL     1      38.875 -11.422 -12.751  1.00  0.00     0.071 C 
HETATM   11  N1  UNL     1      38.238 -10.906 -11.738  1.00  0.00    -0.299 N 
ATOM     12  H1  UNL     1      37.638 -10.100 -11.913  1.00  0.00     0.186 HD
ENDROOT
BRANCH  11  13
HETATM   13  N2  UNL     1      38.324 -11.384 -10.433  1.00  0.00    -0.266 N 
HETATM   14  C10 UNL     1      38.254 -10.470  -9.361  1.00  0.00     0.290 C 
HETATM   15  O2  UNL     1      38.115  -9.254  -9.595  1.00  0.00    -0.267 OA
ATOM     16  H2  UNL     1      38.436 -12.381 -10.254  1.00  0.00     0.190 HD
BRANCH  14  17
HETATM   17  C11 UNL     1      38.344 -10.948  -7.965  1.00  0.00     0.271 C 
HETATM   18 CL1  UNL     1      38.168  -9.593  -6.827  1.00  0.00    -0.073 Cl
HETATM   19 CL2  UNL     1      39.870 -11.800  -7.647  1.00  0.00    -0.073 Cl
HETATM   20 CL3  UNL     1      36.988 -12.070  -7.628  1.00  0.00    -0.073 Cl
ENDBRANCH  14  17
ENDBRANCH  11  13
TORSDOF 2
ENDMDL
MODEL 2
REMARK VINA RESULT: -6.595684417      5.192      9.121
REMARK  2 active torsions:
REMARK  status: ('A' for Active; 'I' for Inactive)
REMARK    1  A    between atoms: N1_11  and  N2_13 
REMARK       I    between atoms: N2_13  and  C10_15 
REMARK    2  A    between atoms: C10_15  and  C11_17 
ROOT
HETATM    1  O1  UNL     1      41.067 -12.048  -5.059  1.00  0.00    -0.291 OA
HETATM    2  C1  UNL     1      40.706 -11.403  -4.048  1.00  0.00     0.173 C 
HETATM    3  C2  UNL     1      40.642 -12.124  -2.753  1.00  0.00     0.085 C 
HETATM    4  C3  UNL     1      42.032 -12.596  -2.442  1.00  0.00     0.008 C 
HETATM    5  C4  UNL     1      42.783 -11.823  -1.439  1.00  0.00     0.000 C 
HETATM    6  C5  UNL     1      42.366 -10.392  -1.237  1.00  0.00     0.000 C 
HETATM    7  C6  UNL     1      42.767  -9.581  -2.424  1.00  0.00     0.000 C 
HETATM    8  C7  UNL     1      41.745  -8.514  -2.746  1.00  0.00     0.006 C 
HETATM    9  C8  UNL     1      40.393  -9.041  -3.096  1.00  0.00     0.062 C 
HETATM   10  C9  UNL     1      40.376  -9.997  -4.225  1.00  0.00     0.071 C 
HETATM   11  N1  UNL     1      40.050  -9.526  -5.395  1.00  0.00    -0.299 N 
ATOM     12  H1  UNL     1      39.828  -8.533  -5.465  1.00  0.00     0.186 HD
ENDROOT
BRANCH  11  13
HETATM   13  N2  UNL     1      39.984 -10.292  -6.557  1.00  0.00    -0.266 N 
HETATM   14  C10 UNL     1      39.127  -9.885  -7.600  1.00  0.00     0.290 C 
HETATM   15  O2  UNL     1      38.444  -8.851  -7.469  1.00  0.00    -0.267 OA
ATOM     16  H2  UNL     1      40.549 -11.136  -6.651  1.00  0.00     0.190 HD
BRANCH  14  17
HETATM   17  C11 UNL     1      39.035 -10.680  -8.843  1.00  0.00     0.271 C 
HETATM   18 CL1  UNL     1      39.542 -12.359  -8.551  1.00  0.00    -0.073 Cl
HETATM   19 CL2  UNL     1      40.006  -9.982 -10.156  1.00  0.00    -0.073 Cl
HETATM   20 CL3  UNL     1      37.326 -10.754  -9.380  1.00  0.00    -0.073 Cl
ENDBRANCH  14  17
ENDBRANCH  11  13
TORSDOF 2
ENDMDL
MODEL 3
REMARK VINA RESULT: -6.225500460      4.834      8.863
REMARK  2 active torsions:
REMARK  status: ('A' for Active; 'I' for Inactive)
REMARK    1  A    between atoms: N1_11  and  N2_13 
REMARK       I    between atoms: N2_13  and  C10_15 
REMARK    2  A    between atoms: C10_15  and  C11_17 
ROOT
HETATM    1  O1  UNL     1      36.597 -12.513  -5.600  1.00  0.00    -0.291 OA
HETATM    2  C1  UNL     1      36.778 -12.107  -4.429  1.00  0.00     0.173 C 
HETATM    3  C2  UNL     1      35.815 -12.543  -3.388  1.00  0.00     0.085 C 
HETATM    4  C3  UNL     1      35.904 -14.038  -3.303  1.00  0.00     0.008 C 
HETATM    5  C4  UNL     1      36.662 -14.592  -2.169  1.00  0.00     0.000 C 
HETATM    6  C5  UNL     1      37.700 -13.699  -1.549  1.00  0.00     0.000 C 
HETATM    7  C6  UNL     1      38.857 -13.552  -2.480  1.00  0.00     0.000 C 
HETATM    8  C7  UNL     1      39.447 -12.161  -2.429  1.00  0.00     0.006 C 
HETATM    9  C8  UNL     1      38.504 -11.077  -2.834  1.00  0.00     0.062 C 
HETATM   10  C9  UNL     1      37.920 -11.238  -4.183  1.00  0.00     0.071 C 
HETATM   11  N1  UNL     1      38.472 -10.565  -5.152  1.00  0.00    -0.299 N 
ATOM     12  H1  UNL     1      39.270  -9.971  -4.927  1.00  0.00     0.186 HD
ENDROOT
BRANCH  11  13
HETATM   13  N2  UNL     1      38.042 -10.604  -6.477  1.00  0.00    -0.266 N 
HETATM   14  C10 UNL     1      38.951 -10.991  -7.483  1.00  0.00     0.290 C 
HETATM   15  O2  UNL     1      40.120 -11.292  -7.174  1.00  0.00    -0.267 OA
ATOM     16  H2  UNL     1      37.082 -10.356  -6.715  1.00  0.00     0.190 HD
BRANCH  14  17
HETATM   17  C11 UNL     1      38.523 -11.039  -8.897  1.00  0.00     0.271 C 
HETATM   18 CL1  UNL     1      36.798 -11.455  -9.015  1.00  0.00    -0.073 Cl
HETATM   19 CL2  UNL     1      39.482 -12.193  -9.847  1.00  0.00    -0.073 Cl
HETATM   20 CL3  UNL     1      38.702  -9.413  -9.631  1.00  0.00    -0.073 Cl
ENDBRANCH  14  17
ENDBRANCH  11  13
TORSDOF 2
ENDMDL
MODEL 4
REMARK VINA RESULT: -6.153915400      4.886      8.991
REMARK  2 active torsions:
REMARK  status: ('A' for Active; 'I' for Inactive)
REMARK    1  A    between atoms: N1_11  and  N2_13 
REMARK       I    between atoms: N2_13  and  C10_15 
REMARK    2  A    between atoms: C10_15  and  C11_17 
ROOT
HETATM    1  O1  UNL     1      37.962 -12.125  -5.457  1.00  0.00    -0.291 OA
HETATM    2  C1  UNL     1      38.084 -11.307  -4.517  1.00  0.00     0.173 C 
HETATM    3  C2  UNL     1      36.896 -11.045  -3.668  1.00  0.00     0.085 C 
HETATM    4  C3  UNL     1      36.527 -12.343  -3.013  1.00  0.00     0.008 C 
HETATM    5  C4  UNL     1      36.916 -12.506  -1.602  1.00  0.00     0.000 C 
HETATM    6  C5  UNL     1      38.070 -11.672  -1.119  1.00  0.00     0.000 C 
HETATM    7  C6  UNL     1      39.341 -12.182  -1.714  1.00  0.00     0.000 C 
HETATM    8  C7  UNL     1      40.300 -11.060  -2.037  1.00  0.00     0.006 C 
HETATM    9  C8  UNL     1      39.787 -10.081  -3.040  1.00  0.00     0.062 C 
HETATM   10  C9  UNL     1      39.383 -10.676  -4.333  1.00  0.00     0.071 C 
HETATM   11  N1  UNL     1      40.242 -10.612  -5.309  1.00  0.00    -0.299 N 
ATOM     12  H1  UNL     1      41.139 -10.160  -5.128  1.00  0.00     0.186 HD
ENDROOT
BRANCH  11  13
HETATM   13  N2  UNL     1      40.016 -11.121  -6.586  1.00  0.00    -0.266 N 
HETATM   14  C10 UNL     1      39.503 -10.268  -7.585  1.00  0.00     0.290 C 
HETATM   15  O2  UNL     1      39.261  -9.076  -7.313  1.00  0.00    -0.267 OA
ATOM     16  H2  UNL     1      40.219 -12.098  -6.796  1.00  0.00     0.190 HD
BRANCH  14  17
HETATM   17  C11 UNL     1      39.251 -10.781  -8.948  1.00  0.00     0.271 C 
HETATM   18 CL1  UNL     1      39.401 -12.553  -8.987  1.00  0.00    -0.073 Cl
HETATM   19 CL2  UNL     1      40.347 -10.063 -10.147  1.00  0.00    -0.073 Cl
HETATM   20 CL3  UNL     1      37.565 -10.406  -9.426  1.00  0.00    -0.073 Cl
ENDBRANCH  14  17
ENDBRANCH  11  13
TORSDOF 2
ENDMDL
MODEL 5
REMARK VINA RESULT: -6.122892501      4.884      9.307
REMARK  2 active torsions:
REMARK  status: ('A' for Active; 'I' for Inactive)
REMARK    1  A    between atoms: N1_11  and  N2_13 
REMARK       I    between atoms: N2_13  and  C10_15 
REMARK    2  A    between atoms: C10_15  and  C11_17 
ROOT
HETATM    1  O1  UNL     1      38.813 -10.617  -4.335  1.00  0.00    -0.291 OA
HETATM    2  C1  UNL     1      38.172 -11.463  -3.670  1.00  0.00     0.173 C 
HETATM    3  C2  UNL     1      38.605 -11.720  -2.275  1.00  0.00     0.085 C 
HETATM    4  C3  UNL     1      38.453 -10.431  -1.522  1.00  0.00     0.008 C 
HETATM    5  C4  UNL     1      37.279 -10.316  -0.640  1.00  0.00     0.000 C 
HETATM    6  C5  UNL     1      36.100 -11.189  -0.967  1.00  0.00     0.000 C 
HETATM    7  C6  UNL     1      35.438 -10.693  -2.209  1.00  0.00     0.000 C 
HETATM    8  C7  UNL     1      34.914 -11.829  -3.059  1.00  0.00     0.006 C 
HETATM    9  C8  UNL     1      35.966 -12.768  -3.548  1.00  0.00     0.062 C 
HETATM   10  C9  UNL     1      37.053 -12.129  -4.321  1.00  0.00     0.071 C 
HETATM   11  N1  UNL     1      36.970 -12.186  -5.620  1.00  0.00    -0.299 N 
ATOM     12  H1  UNL     1      36.166 -12.664  -6.026  1.00  0.00     0.186 HD
ENDROOT
BRANCH  11  13
HETATM   13  N2  UNL     1      37.910 -11.638  -6.490  1.00  0.00    -0.266 N 
HETATM   14  C10 UNL     1      37.698 -11.736  -7.880  1.00  0.00     0.290 C 
HETATM   15  O2  UNL     1      36.678 -12.310  -8.309  1.00  0.00    -0.267 OA
ATOM     16  H2  UNL     1      38.740 -11.171  -6.126  1.00  0.00     0.190 HD
BRANCH  14  17
HETATM   17  C11 UNL     1      38.679 -11.166  -8.827  1.00  0.00     0.271 C 
HETATM   18 CL1  UNL     1      37.911  -9.939  -9.860  1.00  0.00    -0.073 Cl
HETATM   19 CL2  UNL     1      39.434 -12.413  -9.842  1.00  0.00    -0.073 Cl
HETATM   20 CL3  UNL     1      39.970 -10.321  -7.914  1.00  0.00    -0.073 Cl
ENDBRANCH  14  17
ENDBRANCH  11  13
TORSDOF 2
ENDMDL
