MODEL 1
REMARK VINA RESULT: -5.376973583      0.000      0.000
REMARK  3 active torsions:
REMARK  status: ('A' for Active; 'I' for Inactive)
REMARK    1  A    between atoms: C2_2  and  O1_3 
REMARK    2  A    between atoms: C2_2  and  C3_6 
REMARK    3  A    between atoms: C4_7  and  N1_8 
ROOT
HETATM    1  C3  UNL     1      22.351  11.851  22.943  1.00  0.00     0.226 C 
HETATM    2  C4  UNL     1      22.846  12.217  21.663  1.00  0.00     0.216 C 
HETATM    3  C8  UNL     1      22.141  13.528  21.244  1.00  0.00     0.055 C 
HETATM    4  C9  UNL     1      21.626  14.354  22.349  1.00  0.00     0.134 C 
HETATM    5  N2  UNL     1      22.706  14.641  23.276  1.00  0.00    -0.319 N 
ATOM      6  H2  UNL     1      23.204  15.521  23.413  1.00  0.00     0.172 HD
HETATM    7  S1  UNL     1      22.943  13.162  24.077  1.00  0.00     0.238 S 
HETATM    8  O2  UNL     1      22.058  13.071  25.283  1.00  0.00    -0.205 OA
HETATM    9  O3  UNL     1      24.373  12.896  24.423  1.00  0.00    -0.205 OA
ENDROOT
BRANCH   1  10
HETATM   10  C2  UNL     1      22.595  10.641  23.719  1.00  0.00     0.220 C 
HETATM   11  C1  UNL     1      21.480   9.989  24.458  1.00  0.00     0.086 C 
HETATM   12  F1  UNL     1      23.364   9.675  23.026  1.00  0.00    -0.211 F 
BRANCH  10  13
HETATM   13  O1  UNL     1      23.539  10.940  24.758  1.00  0.00    -0.361 OA
ATOM     14  H1  UNL     1      23.445  10.203  25.350  1.00  0.00     0.213 HD
ENDBRANCH  10  13
ENDBRANCH   1  10
BRANCH   2  15
HETATM   15  N1  UNL     1      22.809  11.479  20.460  1.00  0.00    -0.073 N 
HETATM   16  C5  UNL     1      23.967  10.783  20.037  1.00  0.00     0.272 C 
HETATM   17  C6  UNL     1      21.645  10.632  20.275  1.00  0.00     0.272 C 
HETATM   18  C7  UNL     1      22.602  12.518  19.407  1.00  0.00     0.272 C 
ENDBRANCH   2  15
TORSDOF 3
ENDMDL
MODEL 2
REMARK VINA RESULT: -5.348563856      3.883      5.351
REMARK  3 active torsions:
REMARK  status: ('A' for Active; 'I' for Inactive)
REMARK    1  A    between atoms: C2_2  and  O1_3 
REMARK    2  A    between atoms: C2_2  and  C3_6 
REMARK    3  A    between atoms: C4_7  and  N1_8 
ROOT
HETATM    1  C3  UNL     1      24.068  12.497  19.102  1.00  0.00     0.226 C 
HETATM    2  C4  UNL     1      23.528  13.061  20.289  1.00  0.00     0.216 C 
HETATM    3  C8  UNL     1      22.139  12.422  20.524  1.00  0.00     0.055 C 
HETATM    4  C9  UNL     1      21.934  11.101  19.906  1.00  0.00     0.134 C 
HETATM    5  N2  UNL     1      22.981  10.198  20.350  1.00  0.00    -0.319 N 
ATOM      6  H2  UNL     1      22.911   9.427  21.014  1.00  0.00     0.172 HD
HETATM    7  S1  UNL     1      24.350  10.730  19.497  1.00  0.00     0.238 S 
HETATM    8  O2  UNL     1      24.445  10.039  18.171  1.00  0.00    -0.205 OA
HETATM    9  O3  UNL     1      25.621  10.604  20.275  1.00  0.00    -0.205 OA
ENDROOT
BRANCH   1  10
HETATM   10  C2  UNL     1      25.284  12.848  18.380  1.00  0.00     0.220 C 
HETATM   11  C1  UNL     1      26.440  13.440  19.106  1.00  0.00     0.086 C 
HETATM   12  F1  UNL     1      25.721  11.839  17.489  1.00  0.00    -0.211 F 
BRANCH  10  13
HETATM   13  O1  UNL     1      24.969  13.853  17.403  1.00  0.00    -0.361 OA
ATOM     14  H1  UNL     1      24.052  13.688  17.217  1.00  0.00     0.213 HD
ENDBRANCH  10  13
ENDBRANCH   1  10
BRANCH   2  15
HETATM   15  N1  UNL     1      23.270  14.417  20.583  1.00  0.00    -0.073 N 
HETATM   16  C5  UNL     1      24.272  15.194  21.211  1.00  0.00     0.272 C 
HETATM   17  C6  UNL     1      22.662  15.188  19.514  1.00  0.00     0.272 C 
HETATM   18  C7  UNL     1      22.166  14.364  21.587  1.00  0.00     0.272 C 
ENDBRANCH   2  15
TORSDOF 3
ENDMDL
MODEL 3
REMARK VINA RESULT: -5.310852225      5.139      6.682
REMARK  3 active torsions:
REMARK  status: ('A' for Active; 'I' for Inactive)
REMARK    1  A    between atoms: C2_2  and  O1_3 
REMARK    2  A    between atoms: C2_2  and  C3_6 
REMARK    3  A    between atoms: C4_7  and  N1_8 
ROOT
HETATM    1  C3  UNL     1      28.376  12.424  20.525  1.00  0.00     0.226 C 
HETATM    2  C4  UNL     1      26.990  12.122  20.455  1.00  0.00     0.216 C 
HETATM    3  C8  UNL     1      26.845  10.724  19.808  1.00  0.00     0.055 C 
HETATM    4  C9  UNL     1      28.018   9.842  19.933  1.00  0.00     0.134 C 
HETATM    5  N2  UNL     1      28.370   9.710  21.335  1.00  0.00    -0.319 N 
ATOM      6  H2  UNL     1      28.231   8.907  21.949  1.00  0.00     0.172 HD
HETATM    7  S1  UNL     1      29.070  11.212  21.710  1.00  0.00     0.238 S 
HETATM    8  O2  UNL     1      30.543  11.188  21.434  1.00  0.00    -0.205 OA
HETATM    9  O3  UNL     1      28.778  11.672  23.103  1.00  0.00    -0.205 OA
ENDROOT
BRANCH   1  10
HETATM   10  C2  UNL     1      29.035  13.660  20.928  1.00  0.00     0.220 C 
HETATM   11  C1  UNL     1      29.479  14.641  19.902  1.00  0.00     0.086 C 
HETATM   12  F1  UNL     1      28.383  14.321  21.998  1.00  0.00    -0.211 F 
BRANCH  10  13
HETATM   13  O1  UNL     1      30.255  13.333  21.610  1.00  0.00    -0.361 OA
ATOM     14  H1  UNL     1      30.720  12.802  20.974  1.00  0.00     0.213 HD
ENDBRANCH  10  13
ENDBRANCH   1  10
BRANCH   2  15
HETATM   15  N1  UNL     1      25.962  12.841  19.807  1.00  0.00    -0.073 N 
HETATM   16  C5  UNL     1      25.383  13.958  20.454  1.00  0.00     0.272 C 
HETATM   17  C6  UNL     1      26.202  13.163  18.412  1.00  0.00     0.272 C 
HETATM   18  C7  UNL     1      24.843  11.857  19.705  1.00  0.00     0.272 C 
ENDBRANCH   2  15
TORSDOF 3
ENDMDL
MODEL 4
REMARK VINA RESULT: -5.296604821      3.510      4.678
REMARK  3 active torsions:
REMARK  status: ('A' for Active; 'I' for Inactive)
REMARK    1  A    between atoms: C2_2  and  O1_3 
REMARK    2  A    between atoms: C2_2  and  C3_6 
REMARK    3  A    between atoms: C4_7  and  N1_8 
ROOT
HETATM    1  C3  UNL     1      23.878  12.034  20.296  1.00  0.00     0.226 C 
HETATM    2  C4  UNL     1      24.497  12.932  19.386  1.00  0.00     0.216 C 
HETATM    3  C8  UNL     1      25.998  13.012  19.751  1.00  0.00     0.055 C 
HETATM    4  C9  UNL     1      26.539  11.848  20.472  1.00  0.00     0.134 C 
HETATM    5  N2  UNL     1      26.275  10.644  19.705  1.00  0.00    -0.319 N 
ATOM      6  H2  UNL     1      26.932  10.082  19.165  1.00  0.00     0.172 HD
HETATM    7  S1  UNL     1      24.608  10.396  19.921  1.00  0.00     0.238 S 
HETATM    8  O2  UNL     1      24.355   9.562  21.140  1.00  0.00    -0.205 OA
HETATM    9  O3  UNL     1      23.931   9.827  18.715  1.00  0.00    -0.205 OA
ENDROOT
BRANCH   1  10
HETATM   10  C2  UNL     1      22.467  11.710  20.462  1.00  0.00     0.220 C 
HETATM   11  C1  UNL     1      21.654  12.416  21.489  1.00  0.00     0.086 C 
HETATM   12  F1  UNL     1      21.760  11.630  19.238  1.00  0.00    -0.211 F 
BRANCH  10  13
HETATM   13  O1  UNL     1      22.350  10.332  20.849  1.00  0.00    -0.361 OA
ATOM     14  H1  UNL     1      22.769   9.873  20.131  1.00  0.00     0.213 HD
ENDBRANCH  10  13
ENDBRANCH   1  10
BRANCH   2  15
HETATM   15  N1  UNL     1      24.192  14.289  19.142  1.00  0.00    -0.073 N 
HETATM   16  C5  UNL     1      23.139  14.615  18.255  1.00  0.00     0.272 C 
HETATM   17  C6  UNL     1      24.112  15.137  20.317  1.00  0.00     0.272 C 
HETATM   18  C7  UNL     1      25.415  14.816  18.466  1.00  0.00     0.272 C 
ENDBRANCH   2  15
TORSDOF 3
ENDMDL
MODEL 5
REMARK VINA RESULT: -5.287701025      4.592      5.548
REMARK  3 active torsions:
REMARK  status: ('A' for Active; 'I' for Inactive)
REMARK    1  A    between atoms: C2_2  and  O1_3 
REMARK    2  A    between atoms: C2_2  and  C3_6 
REMARK    3  A    between atoms: C4_7  and  N1_8 
ROOT
HETATM    1  C3  UNL     1      20.282  14.231  27.342  1.00  0.00     0.226 C 
HETATM    2  C4  UNL     1      20.179  13.656  26.047  1.00  0.00     0.216 C 
HETATM    3  C8  UNL     1      19.177  14.507  25.233  1.00  0.00     0.055 C 
HETATM    4  C9  UNL     1      19.012  15.899  25.684  1.00  0.00     0.134 C 
HETATM    5  N2  UNL     1      20.310  16.549  25.714  1.00  0.00    -0.319 N 
ATOM      6  H2  UNL     1      20.682  17.247  25.071  1.00  0.00     0.172 HD
HETATM    7  S1  UNL     1      21.061  15.868  27.077  1.00  0.00     0.238 S 
HETATM    8  O2  UNL     1      20.739  16.662  28.306  1.00  0.00    -0.205 OA
HETATM    9  O3  UNL     1      22.536  15.682  26.913  1.00  0.00    -0.205 OA
ENDROOT
BRANCH   1  10
HETATM   10  C2  UNL     1      20.989  13.741  28.519  1.00  0.00     0.220 C 
HETATM   11  C1  UNL     1      20.263  12.958  29.555  1.00  0.00     0.086 C 
HETATM   12  F1  UNL     1      22.231  13.134  28.216  1.00  0.00    -0.211 F 
BRANCH  10  13
HETATM   13  O1  UNL     1      21.491  14.865  29.258  1.00  0.00    -0.361 OA
ATOM     14  H1  UNL     1      22.428  14.815  29.111  1.00  0.00     0.213 HD
ENDBRANCH  10  13
ENDBRANCH   1  10
BRANCH   2  15
HETATM   15  N1  UNL     1      19.791  12.345  25.693  1.00  0.00    -0.073 N 
HETATM   16  C5  UNL     1      20.751  11.306  25.721  1.00  0.00     0.272 C 
HETATM   17  C6  UNL     1      18.554  11.873  26.287  1.00  0.00     0.272 C 
HETATM   18  C7  UNL     1      19.416  12.458  24.252  1.00  0.00     0.272 C 
ENDBRANCH   2  15
TORSDOF 3
ENDMDL
