MODEL 1
REMARK VINA RESULT: -5.827306724      0.000      0.000
REMARK  2 active torsions:
REMARK  status: ('A' for Active; 'I' for Inactive)
REMARK    1  A    between atoms: C2_2  and  C5_5 
REMARK    2  A    between atoms: C9_12  and  C11_15 
ROOT
HETATM    1  C5  UNL     1      17.032 -37.287 -27.574  1.00  0.00     0.028 C 
HETATM    2  C6  UNL     1      17.544 -36.448 -26.420  1.00  0.00     0.013 C 
HETATM    3  C7  UNL     1      19.049 -36.442 -26.499  1.00  0.00     0.054 C 
HETATM    4  C8  UNL     1      19.352 -37.220 -27.726  1.00  0.00     0.010 C 
HETATM    5  N1  UNL     1      20.434 -37.820 -28.003  1.00  0.00    -0.404 N 
ATOM      6  H11 UNL     1      20.642 -38.355 -28.847  1.00  0.00     0.155 HD
ATOM      7  H12 UNL     1      21.284 -37.880 -27.442  1.00  0.00     0.155 HD
HETATM    8  C9  UNL     1      18.118 -37.132 -28.541  1.00  0.00     0.141 C 
HETATM    9  C10 UNL     1      18.117 -38.013 -29.682  1.00  0.00     0.083 C 
HETATM   10  N2  UNL     1      18.125 -38.693 -30.593  1.00  0.00    -0.196 NA
ENDROOT
BRANCH   8  11
HETATM   11  C11 UNL     1      18.057 -35.701 -29.020  1.00  0.00     0.098 A 
HETATM   12  N3  UNL     1      16.993 -35.095 -29.520  1.00  0.00    -0.294 N 
HETATM   13  N4  UNL     1      17.068 -33.881 -29.887  1.00  0.00    -0.279 N 
ATOM     14  H3  UNL     1      16.113 -35.602 -29.612  1.00  0.00     0.187 HD
HETATM   15  C12 UNL     1      18.236 -33.244 -29.756  1.00  0.00     0.158 A 
ATOM     16  H4  UNL     1      16.254 -33.403 -30.275  1.00  0.00     0.189 HD
HETATM   17  N5  UNL     1      18.517 -32.002 -30.073  1.00  0.00    -0.379 N 
HETATM   18  S1  UNL     1      19.225 -34.462 -29.081  1.00  0.00    -0.036 SA
ATOM     19  H52 UNL     1      17.926 -31.274 -30.475  1.00  0.00     0.158 HD
ATOM     20  H51 UNL     1      19.408 -31.515 -29.973  1.00  0.00     0.158 HD
ENDBRANCH   8  11
BRANCH   1  21
HETATM   21  C2  UNL     1      16.650 -38.621 -27.076  1.00  0.00    -0.045 C 
HETATM   22  C1  UNL     1      17.751 -39.639 -27.049  1.00  0.00     0.015 C 
HETATM   23  C3  UNL     1      16.237 -38.418 -25.607  1.00  0.00     0.015 C 
HETATM   24  C4  UNL     1      15.469 -39.254 -27.751  1.00  0.00     0.015 C 
ENDBRANCH   1  21
TORSDOF 2
ENDMDL
MODEL 2
REMARK VINA RESULT: -5.689511466      3.086      4.519
REMARK  2 active torsions:
REMARK  status: ('A' for Active; 'I' for Inactive)
REMARK    1  A    between atoms: C2_2  and  C5_5 
REMARK    2  A    between atoms: C9_12  and  C11_15 
ROOT
HETATM    1  C5  UNL     1      16.524 -38.900 -28.511  1.00  0.00     0.028 C 
HETATM    2  C6  UNL     1      17.089 -40.102 -27.781  1.00  0.00     0.013 C 
HETATM    3  C7  UNL     1      18.463 -39.726 -27.288  1.00  0.00     0.054 C 
HETATM    4  C8  UNL     1      18.618 -38.306 -27.691  1.00  0.00     0.010 C 
HETATM    5  N1  UNL     1      19.704 -37.674 -27.859  1.00  0.00    -0.404 N 
ATOM      6  H11 UNL     1      19.811 -36.697 -28.136  1.00  0.00     0.155 HD
ATOM      7  H12 UNL     1      20.658 -38.018 -27.751  1.00  0.00     0.155 HD
HETATM    8  C9  UNL     1      17.233 -37.806 -27.847  1.00  0.00     0.141 C 
HETATM    9  C10 UNL     1      17.156 -36.503 -28.457  1.00  0.00     0.083 C 
HETATM   10  N2  UNL     1      17.096 -35.466 -28.919  1.00  0.00    -0.196 NA
ENDROOT
BRANCH   8  11
HETATM   11  C11 UNL     1      16.676 -37.731 -26.444  1.00  0.00     0.098 A 
HETATM   12  N3  UNL     1      15.599 -38.359 -26.003  1.00  0.00    -0.294 N 
HETATM   13  N4  UNL     1      15.231 -38.216 -24.795  1.00  0.00    -0.279 N 
ATOM     14  H3  UNL     1      15.063 -38.957 -26.631  1.00  0.00     0.187 HD
HETATM   15  C12 UNL     1      15.954 -37.424 -23.996  1.00  0.00     0.158 A 
ATOM     16  H4  UNL     1      14.402 -38.695 -24.443  1.00  0.00     0.189 HD
HETATM   17  N5  UNL     1      15.744 -37.148 -22.730  1.00  0.00    -0.379 N 
HETATM   18  S1  UNL     1      17.187 -36.892 -25.052  1.00  0.00    -0.036 SA
ATOM     19  H52 UNL     1      15.008 -37.467 -22.099  1.00  0.00     0.158 HD
ATOM     20  H51 UNL     1      16.294 -36.544 -22.120  1.00  0.00     0.158 HD
ENDBRANCH   8  11
BRANCH   1  21
HETATM   21  C2  UNL     1      16.650 -39.106 -29.965  1.00  0.00    -0.045 C 
HETATM   22  C1  UNL     1      17.953 -38.676 -30.567  1.00  0.00     0.015 C 
HETATM   23  C3  UNL     1      16.576 -40.629 -30.179  1.00  0.00     0.015 C 
HETATM   24  C4  UNL     1      15.552 -38.520 -30.803  1.00  0.00     0.015 C 
ENDBRANCH   1  21
TORSDOF 2
ENDMDL
MODEL 3
REMARK VINA RESULT: -5.586420189      0.311      1.008
REMARK  2 active torsions:
REMARK  status: ('A' for Active; 'I' for Inactive)
REMARK    1  A    between atoms: C2_2  and  C5_5 
REMARK    2  A    between atoms: C9_12  and  C11_15 
ROOT
HETATM    1  C5  UNL     1      16.992 -37.338 -27.537  1.00  0.00     0.028 C 
HETATM    2  C6  UNL     1      17.463 -36.364 -26.476  1.00  0.00     0.013 C 
HETATM    3  C7  UNL     1      18.963 -36.261 -26.592  1.00  0.00     0.054 C 
HETATM    4  C8  UNL     1      19.298 -37.124 -27.752  1.00  0.00     0.010 C 
HETATM    5  N1  UNL     1      20.414 -37.671 -28.000  1.00  0.00    -0.404 N 
ATOM      6  H11 UNL     1      20.645 -38.265 -28.797  1.00  0.00     0.155 HD
ATOM      7  H12 UNL     1      21.276 -37.621 -27.457  1.00  0.00     0.155 HD
HETATM    8  C9  UNL     1      18.046 -37.197 -28.541  1.00  0.00     0.141 C 
HETATM    9  C10 UNL     1      18.087 -38.176 -29.597  1.00  0.00     0.083 C 
HETATM   10  N2  UNL     1      18.127 -38.933 -30.444  1.00  0.00    -0.196 NA
ENDROOT
BRANCH   8  11
HETATM   11  C11 UNL     1      17.875 -35.822 -29.144  1.00  0.00     0.098 A 
HETATM   12  N3  UNL     1      16.787 -35.368 -29.743  1.00  0.00    -0.294 N 
HETATM   13  N4  UNL     1      16.765 -34.187 -30.211  1.00  0.00    -0.279 N 
ATOM     14  H3  UNL     1      15.965 -35.966 -29.830  1.00  0.00     0.187 HD
HETATM   15  C12 UNL     1      17.859 -33.428 -30.082  1.00  0.00     0.158 A 
ATOM     16  H4  UNL     1      15.932 -33.826 -30.675  1.00  0.00     0.189 HD
HETATM   17  N5  UNL     1      18.037 -32.195 -30.492  1.00  0.00    -0.379 N 
HETATM   18  S1  UNL     1      18.922 -34.483 -29.259  1.00  0.00    -0.036 SA
ATOM     19  H52 UNL     1      17.402 -31.565 -30.983  1.00  0.00     0.158 HD
ATOM     20  H51 UNL     1      18.871 -31.616 -30.394  1.00  0.00     0.158 HD
ENDBRANCH   8  11
BRANCH   1  21
HETATM   21  C2  UNL     1      16.714 -38.644 -26.913  1.00  0.00    -0.045 C 
HETATM   22  C1  UNL     1      16.376 -38.603 -25.453  1.00  0.00     0.015 C 
HETATM   23  C3  UNL     1      15.456 -39.185 -27.616  1.00  0.00     0.015 C 
HETATM   24  C4  UNL     1      17.771 -39.693 -27.100  1.00  0.00     0.015 C 
ENDBRANCH   1  21
TORSDOF 2
ENDMDL
MODEL 4
REMARK VINA RESULT: -5.376319331      1.213      1.308
REMARK  2 active torsions:
REMARK  status: ('A' for Active; 'I' for Inactive)
REMARK    1  A    between atoms: C2_2  and  C5_5 
REMARK    2  A    between atoms: C9_12  and  C11_15 
ROOT
HETATM    1  C5  UNL     1      17.333 -36.762 -27.209  1.00  0.00     0.028 C 
HETATM    2  C6  UNL     1      18.692 -36.428 -26.627  1.00  0.00     0.013 C 
HETATM    3  C7  UNL     1      19.730 -37.097 -27.492  1.00  0.00     0.054 C 
HETATM    4  C8  UNL     1      18.943 -37.737 -28.575  1.00  0.00     0.010 C 
HETATM    5  N1  UNL     1      19.295 -38.716 -29.300  1.00  0.00    -0.404 N 
ATOM      6  H11 UNL     1      18.754 -39.156 -30.045  1.00  0.00     0.155 HD
ATOM      7  H12 UNL     1      20.171 -39.238 -29.273  1.00  0.00     0.155 HD
HETATM    8  C9  UNL     1      17.671 -36.978 -28.615  1.00  0.00     0.141 C 
HETATM    9  C10 UNL     1      16.665 -37.583 -29.451  1.00  0.00     0.083 C 
HETATM   10  N2  UNL     1      15.879 -38.049 -30.127  1.00  0.00    -0.196 NA
ENDROOT
BRANCH   8  11
HETATM   11  C11 UNL     1      18.033 -35.623 -29.176  1.00  0.00     0.098 A 
HETATM   12  N3  UNL     1      17.562 -34.459 -28.759  1.00  0.00    -0.294 N 
HETATM   13  N4  UNL     1      17.946 -33.383 -29.312  1.00  0.00    -0.279 N 
ATOM     14  H3  UNL     1      16.890 -34.426 -27.992  1.00  0.00     0.187 HD
HETATM   15  C12 UNL     1      18.827 -33.459 -30.315  1.00  0.00     0.158 A 
ATOM     16  H4  UNL     1      17.590 -32.480 -28.999  1.00  0.00     0.189 HD
HETATM   17  N5  UNL     1      19.344 -32.474 -31.012  1.00  0.00    -0.379 N 
HETATM   18  S1  UNL     1      19.082 -35.144 -30.430  1.00  0.00    -0.036 SA
ATOM     19  H52 UNL     1      19.192 -31.467 -30.943  1.00  0.00     0.158 HD
ATOM     20  H51 UNL     1      20.016 -32.532 -31.777  1.00  0.00     0.158 HD
ENDBRANCH   8  11
BRANCH   1  21
HETATM   21  C2  UNL     1      16.709 -37.833 -26.410  1.00  0.00    -0.045 C 
HETATM   22  C1  UNL     1      17.373 -39.174 -26.499  1.00  0.00     0.015 C 
HETATM   23  C3  UNL     1      16.850 -37.396 -24.941  1.00  0.00     0.015 C 
HETATM   24  C4  UNL     1      15.240 -38.042 -26.636  1.00  0.00     0.015 C 
ENDBRANCH   1  21
TORSDOF 2
ENDMDL
MODEL 5
REMARK VINA RESULT: -5.370231249      2.877      5.485
REMARK  2 active torsions:
REMARK  status: ('A' for Active; 'I' for Inactive)
REMARK    1  A    between atoms: C2_2  and  C5_5 
REMARK    2  A    between atoms: C9_12  and  C11_15 
ROOT
HETATM    1  C5  UNL     1      18.188 -38.333 -27.386  1.00  0.00     0.028 C 
HETATM    2  C6  UNL     1      17.067 -39.058 -26.669  1.00  0.00     0.013 C 
HETATM    3  C7  UNL     1      15.937 -39.225 -27.652  1.00  0.00     0.054 C 
HETATM    4  C8  UNL     1      16.465 -38.653 -28.915  1.00  0.00     0.010 C 
HETATM    5  N1  UNL     1      15.792 -38.207 -29.892  1.00  0.00    -0.404 N 
ATOM      6  H11 UNL     1      16.155 -37.813 -30.760  1.00  0.00     0.155 HD
ATOM      7  H12 UNL     1      14.778 -38.158 -29.990  1.00  0.00     0.155 HD
HETATM    8  C9  UNL     1      17.938 -38.725 -28.773  1.00  0.00     0.141 C 
HETATM    9  C10 UNL     1      18.651 -38.008 -29.800  1.00  0.00     0.083 C 
HETATM   10  N2  UNL     1      19.214 -37.461 -30.622  1.00  0.00    -0.196 NA
ENDROOT
BRANCH   8  11
HETATM   11  C11 UNL     1      18.277 -40.194 -28.866  1.00  0.00     0.098 A 
HETATM   12  N3  UNL     1      19.236 -40.813 -28.197  1.00  0.00    -0.294 N 
HETATM   13  N4  UNL     1      19.421 -42.058 -28.361  1.00  0.00    -0.279 N 
ATOM     14  H3  UNL     1      19.826 -40.290 -27.550  1.00  0.00     0.187 HD
HETATM   15  C12 UNL     1      18.632 -42.716 -29.216  1.00  0.00     0.158 A 
ATOM     16  H4  UNL     1      20.158 -42.547 -27.851  1.00  0.00     0.189 HD
HETATM   17  N5  UNL     1      18.661 -43.992 -29.523  1.00  0.00    -0.379 N 
HETATM   18  S1  UNL     1      17.608 -41.469 -29.777  1.00  0.00    -0.036 SA
ATOM     19  H52 UNL     1      19.272 -44.737 -29.188  1.00  0.00     0.158 HD
ATOM     20  H51 UNL     1      18.059 -44.493 -30.176  1.00  0.00     0.158 HD
ENDBRANCH   8  11
BRANCH   1  21
HETATM   21  C2  UNL     1      18.185 -36.913 -26.990  1.00  0.00    -0.045 C 
HETATM   22  C1  UNL     1      17.383 -36.001 -27.870  1.00  0.00     0.015 C 
HETATM   23  C3  UNL     1      17.504 -36.865 -25.611  1.00  0.00     0.015 C 
HETATM   24  C4  UNL     1      19.535 -36.286 -26.804  1.00  0.00     0.015 C 
ENDBRANCH   1  21
TORSDOF 2
ENDMDL
