MODEL 1
REMARK VINA RESULT: -7.484751831      0.000      0.000
REMARK  4 active torsions:
REMARK  status: ('A' for Active; 'I' for Inactive)
REMARK    1  A    between atoms: N1_9  and  N2_11 
REMARK    2  A    between atoms: N2_11  and  C9_13 
REMARK    3  A    between atoms: C10_16  and  O1_17 
REMARK    4  A    between atoms: C11_19  and  C12_20 
ROOT
HETATM    1  C9  UNL     1      15.693 -35.554 -23.690  1.00  0.00     0.166 A 
HETATM    2  N3  UNL     1      15.192 -34.454 -23.131  1.00  0.00    -0.315 N 
ATOM      3  H3  UNL     1      15.007 -33.625 -23.697  1.00  0.00     0.170 HD
HETATM    4  C10 UNL     1      14.943 -34.450 -21.854  1.00  0.00     0.161 A 
HETATM    5  C11 UNL     1      15.213 -35.592 -21.149  1.00  0.00     0.074 A 
HETATM    6  S1  UNL     1      15.817 -36.625 -22.365  1.00  0.00    -0.047 SA
ENDROOT
BRANCH   1   7
HETATM    7  N2  UNL     1      16.006 -35.747 -24.957  1.00  0.00    -0.280 N 
ATOM      8  H2  UNL     1      16.302 -34.980 -25.562  1.00  0.00     0.189 HD
BRANCH   7   9
HETATM    9  N1  UNL     1      15.912 -37.041 -25.417  1.00  0.00    -0.306 N 
HETATM   10  C8  UNL     1      16.803 -37.623 -26.163  1.00  0.00     0.011 C 
HETATM   11  C2  UNL     1      16.535 -39.013 -26.561  1.00  0.00     0.029 C 
HETATM   12  C6  UNL     1      17.988 -36.839 -26.535  1.00  0.00     0.029 C 
HETATM   13  C1  UNL     1      15.467 -39.115 -27.628  1.00  0.00     0.016 C 
HETATM   14  C3  UNL     1      17.807 -39.699 -27.011  1.00  0.00     0.010 C 
HETATM   15  C4  UNL     1      18.501 -38.766 -27.979  1.00  0.00     0.001 C 
HETATM   16  C5  UNL     1      19.101 -37.650 -27.117  1.00  0.00     0.010 C 
HETATM   17  C7  UNL     1      17.657 -35.743 -27.553  1.00  0.00     0.016 C 
ATOM     18  H1  UNL     1      15.087 -37.580 -25.155  1.00  0.00     0.186 HD
ENDBRANCH   7   9
ENDBRANCH   1   7
BRANCH   4  19
HETATM   19  O1  UNL     1      14.409 -33.331 -21.154  1.00  0.00    -0.345 OA
ATOM     20  H1  UNL     1      14.894 -32.829 -20.510  1.00  0.00     0.219 HD
ENDBRANCH   4  19
BRANCH   5  21
HETATM   21  C12 UNL     1      15.033 -35.866 -19.716  1.00  0.00     0.104 C 
HETATM   22  N4  UNL     1      15.065 -34.888 -18.881  1.00  0.00    -0.407 N 
ATOM     23  H42 UNL     1      15.215 -33.940 -19.225  1.00  0.00     0.155 HD
ATOM     24  H41 UNL     1      14.940 -35.079 -17.886  1.00  0.00     0.155 HD
ENDBRANCH   5  21
TORSDOF 4
ENDMDL
MODEL 2
REMARK VINA RESULT: -6.911383214      1.010      2.263
REMARK  4 active torsions:
REMARK  status: ('A' for Active; 'I' for Inactive)
REMARK    1  A    between atoms: N1_9  and  N2_11 
REMARK    2  A    between atoms: N2_11  and  C9_13 
REMARK    3  A    between atoms: C10_16  and  O1_17 
REMARK    4  A    between atoms: C11_19  and  C12_20 
ROOT
HETATM    1  C9  UNL     1      15.735 -36.120 -23.369  1.00  0.00     0.166 A 
HETATM    2  N3  UNL     1      15.439 -34.834 -23.185  1.00  0.00    -0.315 N 
ATOM      3  H3  UNL     1      15.373 -34.200 -23.982  1.00  0.00     0.170 HD
HETATM    4  C10 UNL     1      15.238 -34.397 -21.977  1.00  0.00     0.161 A 
HETATM    5  C11 UNL     1      15.342 -35.296 -20.949  1.00  0.00     0.074 A 
HETATM    6  S1  UNL     1      15.728 -36.737 -21.777  1.00  0.00    -0.047 SA
ENDROOT
BRANCH   1   7
HETATM    7  N2  UNL     1      15.970 -36.741 -24.509  1.00  0.00    -0.280 N 
ATOM      8  H2  UNL     1      15.506 -37.617 -24.751  1.00  0.00     0.189 HD
BRANCH   7   9
HETATM    9  N1  UNL     1      16.878 -36.141 -25.353  1.00  0.00    -0.306 N 
HETATM   10  C8  UNL     1      17.148 -36.554 -26.555  1.00  0.00     0.011 C 
HETATM   11  C2  UNL     1      18.148 -35.788 -27.314  1.00  0.00     0.029 C 
HETATM   12  C6  UNL     1      16.432 -37.742 -27.038  1.00  0.00     0.029 C 
HETATM   13  C1  UNL     1      19.559 -36.038 -26.830  1.00  0.00     0.016 C 
HETATM   14  C3  UNL     1      18.032 -36.073 -28.796  1.00  0.00     0.010 C 
HETATM   15  C4  UNL     1      17.962 -37.576 -28.959  1.00  0.00     0.001 C 
HETATM   16  C5  UNL     1      16.551 -37.973 -28.509  1.00  0.00     0.010 C 
HETATM   17  C7  UNL     1      16.909 -39.023 -26.346  1.00  0.00     0.016 C 
ATOM     18  H1  UNL     1      17.372 -35.317 -25.011  1.00  0.00     0.186 HD
ENDBRANCH   7   9
ENDBRANCH   1   7
BRANCH   4  19
HETATM   19  O1  UNL     1      14.917 -33.046 -21.665  1.00  0.00    -0.345 OA
ATOM     20  H1  UNL     1      15.270 -32.577 -20.918  1.00  0.00     0.219 HD
ENDBRANCH   4  19
BRANCH   5  21
HETATM   21  C12 UNL     1      15.167 -35.083 -19.504  1.00  0.00     0.104 C 
HETATM   22  N4  UNL     1      14.388 -34.145 -19.097  1.00  0.00    -0.407 N 
ATOM     23  H42 UNL     1      13.904 -33.564 -19.782  1.00  0.00     0.155 HD
ATOM     24  H41 UNL     1      14.267 -33.998 -18.095  1.00  0.00     0.155 HD
ENDBRANCH   5  21
TORSDOF 4
ENDMDL
MODEL 3
REMARK VINA RESULT: -6.544284194      1.976      2.865
REMARK  4 active torsions:
REMARK  status: ('A' for Active; 'I' for Inactive)
REMARK    1  A    between atoms: N1_9  and  N2_11 
REMARK    2  A    between atoms: N2_11  and  C9_13 
REMARK    3  A    between atoms: C10_16  and  O1_17 
REMARK    4  A    between atoms: C11_19  and  C12_20 
ROOT
HETATM    1  C9  UNL     1      15.969 -37.249 -24.292  1.00  0.00     0.166 A 
HETATM    2  N3  UNL     1      15.919 -37.486 -22.982  1.00  0.00    -0.315 N 
ATOM      3  H3  UNL     1      16.077 -38.427 -22.620  1.00  0.00     0.170 HD
HETATM    4  C10 UNL     1      15.667 -36.501 -22.170  1.00  0.00     0.161 A 
HETATM    5  C11 UNL     1      15.465 -35.262 -22.715  1.00  0.00     0.074 A 
HETATM    6  S1  UNL     1      15.648 -35.574 -24.383  1.00  0.00    -0.047 SA
ENDROOT
BRANCH   1   7
HETATM    7  N2  UNL     1      16.209 -38.111 -25.261  1.00  0.00    -0.280 N 
ATOM      8  H2  UNL     1      16.476 -39.077 -25.069  1.00  0.00     0.189 HD
BRANCH   7   9
HETATM    9  N1  UNL     1      16.079 -37.634 -26.546  1.00  0.00    -0.306 N 
HETATM   10  C8  UNL     1      16.305 -38.334 -27.617  1.00  0.00     0.011 C 
HETATM   11  C2  UNL     1      16.115 -37.658 -28.909  1.00  0.00     0.029 C 
HETATM   12  C6  UNL     1      16.728 -39.729 -27.435  1.00  0.00     0.029 C 
HETATM   13  C1  UNL     1      17.228 -36.682 -29.221  1.00  0.00     0.016 C 
HETATM   14  C3  UNL     1      15.958 -38.666 -30.027  1.00  0.00     0.010 C 
HETATM   15  C4  UNL     1      17.069 -39.682 -29.872  1.00  0.00     0.001 C 
HETATM   16  C5  UNL     1      16.666 -40.555 -28.679  1.00  0.00     0.010 C 
HETATM   17  C7  UNL     1      18.160 -39.832 -26.903  1.00  0.00     0.016 C 
ATOM     18  H1  UNL     1      15.786 -36.664 -26.665  1.00  0.00     0.186 HD
ENDBRANCH   7   9
ENDBRANCH   1   7
BRANCH   4  19
HETATM   19  O1  UNL     1      15.591 -36.640 -20.755  1.00  0.00    -0.345 OA
ATOM     20  H1  UNL     1      14.831 -36.395 -20.240  1.00  0.00     0.219 HD
ENDBRANCH   4  19
BRANCH   5  21
HETATM   21  C12 UNL     1      15.166 -33.987 -22.046  1.00  0.00     0.104 C 
HETATM   22  N4  UNL     1      14.320 -33.969 -21.078  1.00  0.00    -0.407 N 
ATOM     23  H42 UNL     1      13.870 -34.839 -20.790  1.00  0.00     0.155 HD
ATOM     24  H41 UNL     1      14.113 -33.085 -20.613  1.00  0.00     0.155 HD
ENDBRANCH   5  21
TORSDOF 4
ENDMDL
MODEL 4
REMARK VINA RESULT: -6.478830233      1.881      2.680
REMARK  4 active torsions:
REMARK  status: ('A' for Active; 'I' for Inactive)
REMARK    1  A    between atoms: N1_9  and  N2_11 
REMARK    2  A    between atoms: N2_11  and  C9_13 
REMARK    3  A    between atoms: C10_16  and  O1_17 
REMARK    4  A    between atoms: C11_19  and  C12_20 
ROOT
HETATM    1  C9  UNL     1      15.717 -37.384 -24.116  1.00  0.00     0.166 A 
HETATM    2  N3  UNL     1      15.694 -37.533 -22.792  1.00  0.00    -0.315 N 
ATOM      3  H3  UNL     1      15.729 -38.464 -22.376  1.00  0.00     0.170 HD
HETATM    4  C10 UNL     1      15.627 -36.476 -22.037  1.00  0.00     0.161 A 
HETATM    5  C11 UNL     1      15.583 -35.254 -22.654  1.00  0.00     0.074 A 
HETATM    6  S1  UNL     1      15.640 -35.688 -24.304  1.00  0.00    -0.047 SA
ENDROOT
BRANCH   1   7
HETATM    7  N2  UNL     1      15.783 -38.328 -25.035  1.00  0.00    -0.280 N 
ATOM      8  H2  UNL     1      14.962 -38.864 -25.316  1.00  0.00     0.189 HD
BRANCH   7   9
HETATM    9  N1  UNL     1      17.021 -38.548 -25.594  1.00  0.00    -0.306 N 
HETATM   10  C8  UNL     1      17.278 -38.476 -26.866  1.00  0.00     0.011 C 
HETATM   11  C2  UNL     1      18.663 -38.743 -27.284  1.00  0.00     0.029 C 
HETATM   12  C6  UNL     1      16.164 -38.136 -27.760  1.00  0.00     0.029 C 
HETATM   13  C1  UNL     1      19.013 -40.214 -27.219  1.00  0.00     0.016 C 
HETATM   14  C3  UNL     1      18.923 -38.191 -28.668  1.00  0.00     0.010 C 
HETATM   15  C4  UNL     1      17.778 -38.637 -29.551  1.00  0.00     0.001 C 
HETATM   16  C5  UNL     1      16.583 -37.766 -29.146  1.00  0.00     0.010 C 
HETATM   17  C7  UNL     1      15.159 -39.284 -27.891  1.00  0.00     0.016 C 
ATOM     18  H1  UNL     1      17.791 -38.784 -24.966  1.00  0.00     0.186 HD
ENDBRANCH   7   9
ENDBRANCH   1   7
BRANCH   4  19
HETATM   19  O1  UNL     1      15.598 -36.518 -20.615  1.00  0.00    -0.345 OA
ATOM     20  H1  UNL     1      15.147 -35.878 -20.076  1.00  0.00     0.219 HD
ENDBRANCH   4  19
BRANCH   5  21
HETATM   21  C12 UNL     1      15.506 -33.912 -22.058  1.00  0.00     0.104 C 
HETATM   22  N4  UNL     1      14.630 -33.679 -21.147  1.00  0.00    -0.407 N 
ATOM     23  H42 UNL     1      14.002 -34.428 -20.852  1.00  0.00     0.155 HD
ATOM     24  H41 UNL     1      14.577 -32.748 -20.733  1.00  0.00     0.155 HD
ENDBRANCH   5  21
TORSDOF 4
ENDMDL
MODEL 5
REMARK VINA RESULT: -6.455123658      1.593      2.664
REMARK  4 active torsions:
REMARK  status: ('A' for Active; 'I' for Inactive)
REMARK    1  A    between atoms: N1_9  and  N2_11 
REMARK    2  A    between atoms: N2_11  and  C9_13 
REMARK    3  A    between atoms: C10_16  and  O1_17 
REMARK    4  A    between atoms: C11_19  and  C12_20 
ROOT
HETATM    1  C9  UNL     1      15.900 -36.429 -23.508  1.00  0.00     0.166 A 
HETATM    2  N3  UNL     1      15.923 -36.814 -22.233  1.00  0.00    -0.315 N 
ATOM      3  H3  UNL     1      16.219 -37.758 -21.984  1.00  0.00     0.170 HD
HETATM    4  C10 UNL     1      15.562 -35.971 -21.311  1.00  0.00     0.161 A 
HETATM    5  C11 UNL     1      15.175 -34.720 -21.708  1.00  0.00     0.074 A 
HETATM    6  S1  UNL     1      15.350 -34.816 -23.403  1.00  0.00    -0.047 SA
ENDROOT
BRANCH   1   7
HETATM    7  N2  UNL     1      16.228 -37.136 -24.573  1.00  0.00    -0.280 N 
ATOM      8  H2  UNL     1      16.014 -38.131 -24.646  1.00  0.00     0.189 HD
BRANCH   7   9
HETATM    9  N1  UNL     1      16.874 -36.455 -25.580  1.00  0.00    -0.306 N 
HETATM   10  C8  UNL     1      16.967 -36.871 -26.808  1.00  0.00     0.011 C 
HETATM   11  C2  UNL     1      17.697 -36.011 -27.751  1.00  0.00     0.029 C 
HETATM   12  C6  UNL     1      16.335 -38.156 -27.134  1.00  0.00     0.029 C 
HETATM   13  C1  UNL     1      19.195 -36.063 -27.541  1.00  0.00     0.016 C 
HETATM   14  C3  UNL     1      17.345 -36.360 -29.181  1.00  0.00     0.010 C 
HETATM   15  C4  UNL     1      17.443 -37.864 -29.312  1.00  0.00     0.001 C 
HETATM   16  C5  UNL     1      16.206 -38.421 -28.599  1.00  0.00     0.010 C 
HETATM   17  C7  UNL     1      17.097 -39.342 -26.533  1.00  0.00     0.016 C 
ATOM     18  H1  UNL     1      17.311 -35.563 -25.347  1.00  0.00     0.186 HD
ENDBRANCH   7   9
ENDBRANCH   1   7
BRANCH   4  19
HETATM   19  O1  UNL     1      15.548 -36.276 -19.920  1.00  0.00    -0.345 OA
ATOM     20  H1  UNL     1      15.739 -35.643 -19.238  1.00  0.00     0.219 HD
ENDBRANCH   4  19
BRANCH   5  21
HETATM   21  C12 UNL     1      14.724 -33.582 -20.893  1.00  0.00     0.104 C 
HETATM   22  N4  UNL     1      15.384 -33.267 -19.835  1.00  0.00    -0.407 N 
ATOM     23  H42 UNL     1      16.208 -33.811 -19.578  1.00  0.00     0.155 HD
ATOM     24  H41 UNL     1      15.071 -32.477 -19.269  1.00  0.00     0.155 HD
ENDBRANCH   5  21
TORSDOF 4
ENDMDL
