MODEL 1
REMARK VINA RESULT: -6.557583371      0.000      0.000
REMARK  1 active torsions:
REMARK  status: ('A' for Active; 'I' for Inactive)
REMARK    1  A    between atoms: C5_9  and  C6_10 
ROOT
HETATM    1  C1  UNL     1      18.639 -40.192 -27.070  1.00  0.00     0.039 C 
HETATM    2  C2  UNL     1      17.571 -39.500 -27.877  1.00  0.00     0.046 C 
HETATM    3  C3  UNL     1      17.519 -39.957 -29.306  1.00  0.00     0.039 C 
HETATM    4  N1  UNL     1      16.273 -39.540 -27.228  1.00  0.00    -0.364 N 
ATOM      5  H1  UNL     1      15.507 -40.173 -27.459  1.00  0.00     0.162 HD
HETATM    6  C4  UNL     1      16.256 -38.527 -26.203  1.00  0.00     0.128 A 
HETATM    7  N2  UNL     1      15.721 -38.099 -25.056  1.00  0.00    -0.326 N 
ATOM      8  H2  UNL     1      14.984 -38.582 -24.543  1.00  0.00     0.169 HD
HETATM    9  C5  UNL     1      16.287 -36.944 -24.673  1.00  0.00     0.126 A 
HETATM   10  N4  UNL     1      17.188 -36.660 -25.606  1.00  0.00    -0.340 N 
ATOM     11  H4  UNL     1      17.787 -35.835 -25.595  1.00  0.00     0.167 HD
HETATM   12  C10 UNL     1      17.207 -37.607 -26.573  1.00  0.00     0.075 A 
HETATM   13  C11 UNL     1      17.862 -38.019 -27.865  1.00  0.00     0.173 C 
HETATM   14  C12 UNL     1      19.287 -37.744 -27.729  1.00  0.00     0.072 C 
HETATM   15  N5  UNL     1      20.420 -37.534 -27.603  1.00  0.00    -0.196 NA
ENDROOT
BRANCH   9  16
HETATM   16  C6  UNL     1      15.893 -36.233 -23.438  1.00  0.00     0.073 A 
HETATM   17  S1  UNL     1      16.274 -36.641 -21.815  1.00  0.00    -0.096 SA
HETATM   18  C7  UNL     1      15.476 -35.368 -21.016  1.00  0.00     0.052 A 
HETATM   19  C8  UNL     1      14.926 -34.647 -22.044  1.00  0.00     0.035 A 
HETATM   20  C9  UNL     1      15.149 -35.106 -23.296  1.00  0.00     0.067 A 
HETATM   21  N3  UNL     1      14.594 -34.391 -24.442  1.00  0.00    -0.101 NA
ENDBRANCH   9  16
TORSDOF 1
ENDMDL
MODEL 2
REMARK VINA RESULT: -6.156390536      1.879      2.536
REMARK  1 active torsions:
REMARK  status: ('A' for Active; 'I' for Inactive)
REMARK    1  A    between atoms: C5_9  and  C6_10 
ROOT
HETATM    1  C1  UNL     1      18.367 -38.063 -26.253  1.00  0.00     0.039 C 
HETATM    2  C2  UNL     1      16.907 -38.406 -26.396  1.00  0.00     0.046 C 
HETATM    3  C3  UNL     1      16.632 -39.360 -27.523  1.00  0.00     0.039 C 
HETATM    4  N1  UNL     1      16.311 -38.832 -25.144  1.00  0.00    -0.364 N 
ATOM      5  H1  UNL     1      16.123 -39.795 -24.866  1.00  0.00     0.162 HD
HETATM    6  C4  UNL     1      16.031 -37.654 -24.360  1.00  0.00     0.128 A 
HETATM    7  N2  UNL     1      15.828 -37.135 -23.147  1.00  0.00    -0.326 N 
ATOM      8  H2  UNL     1      15.840 -37.668 -22.277  1.00  0.00     0.169 HD
HETATM    9  C5  UNL     1      15.604 -35.815 -23.230  1.00  0.00     0.126 A 
HETATM   10  N4  UNL     1      15.671 -35.520 -24.522  1.00  0.00    -0.340 N 
ATOM     11  H4  UNL     1      15.543 -34.584 -24.907  1.00  0.00     0.167 HD
HETATM   12  C10 UNL     1      15.933 -36.622 -25.263  1.00  0.00     0.075 A 
HETATM   13  C11 UNL     1      16.150 -37.128 -26.664  1.00  0.00     0.173 C 
HETATM   14  C12 UNL     1      16.974 -36.141 -27.353  1.00  0.00     0.072 C 
HETATM   15  N5  UNL     1      17.640 -35.355 -27.884  1.00  0.00    -0.196 NA
ENDROOT
BRANCH   9  16
HETATM   16  C6  UNL     1      15.346 -34.973 -22.042  1.00  0.00     0.073 A 
HETATM   17  S1  UNL     1      15.869 -33.365 -21.750  1.00  0.00    -0.096 SA
HETATM   18  C7  UNL     1      15.178 -33.124 -20.214  1.00  0.00     0.052 A 
HETATM   19  C8  UNL     1      14.548 -34.315 -19.962  1.00  0.00     0.035 A 
HETATM   20  C9  UNL     1      14.642 -35.266 -20.918  1.00  0.00     0.067 A 
HETATM   21  N3  UNL     1      13.996 -36.561 -20.720  1.00  0.00    -0.101 NA
ENDBRANCH   9  16
TORSDOF 1
ENDMDL
MODEL 3
REMARK VINA RESULT: -5.770081096      0.950      2.286
REMARK  1 active torsions:
REMARK  status: ('A' for Active; 'I' for Inactive)
REMARK    1  A    between atoms: C5_9  and  C6_10 
ROOT
HETATM    1  C1  UNL     1      17.226 -37.544 -29.010  1.00  0.00     0.039 C 
HETATM    2  C2  UNL     1      18.250 -38.235 -28.146  1.00  0.00     0.046 C 
HETATM    3  C3  UNL     1      19.229 -39.059 -28.933  1.00  0.00     0.039 C 
HETATM    4  N1  UNL     1      18.900 -37.325 -27.222  1.00  0.00    -0.364 N 
ATOM      5  H1  UNL     1      19.827 -36.914 -27.337  1.00  0.00     0.162 HD
HETATM    6  C4  UNL     1      18.007 -37.105 -26.111  1.00  0.00     0.128 A 
HETATM    7  N2  UNL     1      17.642 -36.306 -25.105  1.00  0.00    -0.326 N 
ATOM      8  H2  UNL     1      18.089 -35.417 -24.878  1.00  0.00     0.169 HD
HETATM    9  C5  UNL     1      16.608 -36.834 -24.434  1.00  0.00     0.126 A 
HETATM   10  N4  UNL     1      16.334 -37.982 -25.043  1.00  0.00    -0.340 N 
ATOM     11  H4  UNL     1      15.590 -38.620 -24.761  1.00  0.00     0.167 HD
HETATM   12  C10 UNL     1      17.171 -38.195 -26.085  1.00  0.00     0.075 A 
HETATM   13  C11 UNL     1      17.519 -39.150 -27.196  1.00  0.00     0.173 C 
HETATM   14  C12 UNL     1      16.261 -39.630 -27.758  1.00  0.00     0.072 C 
HETATM   15  N5  UNL     1      15.255 -39.992 -28.205  1.00  0.00    -0.196 NA
ENDROOT
BRANCH   9  16
HETATM   16  C6  UNL     1      15.991 -36.169 -23.267  1.00  0.00     0.073 A 
HETATM   17  S1  UNL     1      16.179 -36.559 -21.605  1.00  0.00    -0.096 SA
HETATM   18  C7  UNL     1      15.176 -35.363 -20.926  1.00  0.00     0.052 A 
HETATM   19  C8  UNL     1      14.715 -34.680 -22.022  1.00  0.00     0.035 A 
HETATM   20  C9  UNL     1      15.145 -35.108 -23.230  1.00  0.00     0.067 A 
HETATM   21  N3  UNL     1      14.695 -34.430 -24.443  1.00  0.00    -0.101 NA
ENDBRANCH   9  16
TORSDOF 1
ENDMDL
MODEL 4
REMARK VINA RESULT: -5.187978498      5.043      7.240
REMARK  1 active torsions:
REMARK  status: ('A' for Active; 'I' for Inactive)
REMARK    1  A    between atoms: C5_9  and  C6_10 
ROOT
HETATM    1  C1  UNL     1      15.619 -38.906 -27.174  1.00  0.00     0.039 C 
HETATM    2  C2  UNL     1      16.795 -39.208 -28.068  1.00  0.00     0.046 C 
HETATM    3  C3  UNL     1      17.862 -40.018 -27.389  1.00  0.00     0.039 C 
HETATM    4  N1  UNL     1      16.391 -39.770 -29.344  1.00  0.00    -0.364 N 
ATOM      5  H1  UNL     1      16.423 -40.756 -29.601  1.00  0.00     0.162 HD
HETATM    6  C4  UNL     1      15.939 -38.689 -30.184  1.00  0.00     0.128 A 
HETATM    7  N2  UNL     1      15.194 -38.314 -31.227  1.00  0.00    -0.326 N 
ATOM      8  H2  UNL     1      14.631 -38.946 -31.796  1.00  0.00     0.169 HD
HETATM    9  C5  UNL     1      15.288 -36.990 -31.422  1.00  0.00     0.126 A 
HETATM   10  N4  UNL     1      16.108 -36.545 -30.478  1.00  0.00    -0.340 N 
ATOM     11  H4  UNL     1      16.380 -35.569 -30.364  1.00  0.00     0.167 HD
HETATM   12  C10 UNL     1      16.538 -37.556 -29.687  1.00  0.00     0.075 A 
HETATM   13  C11 UNL     1      17.402 -37.896 -28.501  1.00  0.00     0.173 C 
HETATM   14  C12 UNL     1      17.199 -36.847 -27.509  1.00  0.00     0.072 C 
HETATM   15  N5  UNL     1      17.018 -36.013 -26.724  1.00  0.00    -0.196 NA
ENDROOT
BRANCH   9  16
HETATM   16  C6  UNL     1      14.570 -36.291 -32.509  1.00  0.00     0.073 A 
HETATM   17  S1  UNL     1      13.592 -34.885 -32.399  1.00  0.00    -0.096 SA
HETATM   18  C7  UNL     1      13.150 -34.727 -34.035  1.00  0.00     0.052 A 
HETATM   19  C8  UNL     1      13.783 -35.784 -34.635  1.00  0.00     0.035 A 
HETATM   20  C9  UNL     1      14.516 -36.589 -33.833  1.00  0.00     0.067 A 
HETATM   21  N3  UNL     1      15.219 -37.736 -34.402  1.00  0.00    -0.101 NA
ENDBRANCH   9  16
TORSDOF 1
ENDMDL
MODEL 5
REMARK VINA RESULT: -5.152190517      4.452      5.875
REMARK  1 active torsions:
REMARK  status: ('A' for Active; 'I' for Inactive)
REMARK    1  A    between atoms: C5_9  and  C6_10 
ROOT
HETATM    1  C1  UNL     1      15.907 -38.638 -27.250  1.00  0.00     0.039 C 
HETATM    2  C2  UNL     1      17.372 -38.768 -27.582  1.00  0.00     0.046 C 
HETATM    3  C3  UNL     1      17.976 -40.056 -27.098  1.00  0.00     0.039 C 
HETATM    4  N1  UNL     1      17.647 -38.513 -28.984  1.00  0.00    -0.364 N 
ATOM      5  H1  UNL     1      17.807 -39.220 -29.702  1.00  0.00     0.162 HD
HETATM    6  C4  UNL     1      17.656 -37.086 -29.184  1.00  0.00     0.128 A 
HETATM    7  N2  UNL     1      17.514 -36.071 -30.040  1.00  0.00    -0.326 N 
ATOM      8  H2  UNL     1      17.306 -36.174 -31.034  1.00  0.00     0.169 HD
HETATM    9  C5  UNL     1      17.683 -34.897 -29.413  1.00  0.00     0.126 A 
HETATM   10  N4  UNL     1      17.934 -35.200 -28.146  1.00  0.00    -0.340 N 
ATOM     11  H4  UNL     1      18.109 -34.513 -27.413  1.00  0.00     0.167 HD
HETATM   12  C10 UNL     1      17.929 -36.540 -27.953  1.00  0.00     0.075 A 
HETATM   13  C11 UNL     1      18.105 -37.625 -26.924  1.00  0.00     0.173 C 
HETATM   14  C12 UNL     1      17.436 -37.176 -25.709  1.00  0.00     0.072 C 
HETATM   15  N5  UNL     1      16.889 -36.813 -24.753  1.00  0.00    -0.196 NA
ENDROOT
BRANCH   9  16
HETATM   16  C6  UNL     1      17.584 -33.598 -30.112  1.00  0.00     0.073 A 
HETATM   17  S1  UNL     1      18.710 -32.302 -30.103  1.00  0.00    -0.096 SA
HETATM   18  C7  UNL     1      17.886 -31.212 -31.118  1.00  0.00     0.052 A 
HETATM   19  C8  UNL     1      16.741 -31.891 -31.444  1.00  0.00     0.035 A 
HETATM   20  C9  UNL     1      16.596 -33.128 -30.916  1.00  0.00     0.067 A 
HETATM   21  N3  UNL     1      15.401 -33.911 -31.219  1.00  0.00    -0.101 NA
ENDBRANCH   9  16
TORSDOF 1
ENDMDL
