MODEL 1
REMARK VINA RESULT: -6.478114855      0.000      0.000
REMARK  3 active torsions:
REMARK  status: ('A' for Active; 'I' for Inactive)
REMARK    1  A    between atoms: O1_1  and  N1_3 
REMARK    2  A    between atoms: N1_3  and  C1_4 
REMARK    3  A    between atoms: C14_20  and  O2_21 
ROOT
HETATM    1  C1  UNL     1      17.570 -37.469 -29.382  1.00  0.00     0.180 C 
HETATM    2  C2  UNL     1      17.220 -37.080 -27.980  1.00  0.00     0.107 A 
HETATM    3  N2  UNL     1      17.412 -36.156 -27.005  1.00  0.00    -0.346 N 
ATOM      4  H2  UNL     1      18.002 -35.329 -27.097  1.00  0.00     0.167 HD
HETATM    5  C3  UNL     1      16.716 -36.483 -25.901  1.00  0.00     0.040 A 
HETATM    6  C4  UNL     1      16.070 -37.650 -26.206  1.00  0.00     0.036 A 
HETATM    7  N3  UNL     1      16.386 -37.986 -27.452  1.00  0.00    -0.332 N 
HETATM    8  C5  UNL     1      16.105 -39.046 -28.437  1.00  0.00     0.097 C 
HETATM    9  C6  UNL     1      16.961 -40.207 -28.082  1.00  0.00     0.026 C 
HETATM   10  C7  UNL     1      16.871 -41.223 -29.189  1.00  0.00     0.002 C 
HETATM   11  C8  UNL     1      17.458 -40.604 -30.422  1.00  0.00     0.001 C 
HETATM   12  C9  UNL     1      16.778 -39.339 -30.847  1.00  0.00     0.009 C 
HETATM   13  C10 UNL     1      16.437 -38.403 -29.744  1.00  0.00     0.038 C 
HETATM   14  C11 UNL     1      15.212 -38.252 -25.149  1.00  0.00     0.060 C 
HETATM   15  C12 UNL     1      15.822 -38.089 -23.777  1.00  0.00     0.014 C 
HETATM   16  C13 UNL     1      16.226 -36.690 -23.472  1.00  0.00     0.028 A 
HETATM   17  C14 UNL     1      15.271 -35.614 -23.956  1.00  0.00     0.133 A 
HETATM   18  C15 UNL     1      16.587 -35.820 -24.583  1.00  0.00     0.073 A 
ENDROOT
BRANCH   1  19
HETATM   19  N1  UNL     1      17.538 -36.255 -30.176  1.00  0.00    -0.091 NA
BRANCH  19  20
HETATM   20  O1  UNL     1      16.654 -35.387 -29.630  1.00  0.00    -0.295 OA
ATOM     21  H1  UNL     1      16.249 -34.876 -30.320  1.00  0.00     0.238 HD
ENDBRANCH  19  20
ENDBRANCH   1  19
BRANCH  17  22
HETATM   22  O2  UNL     1      15.043 -34.584 -23.065  1.00  0.00    -0.394 OA
ATOM     23  H2  UNL     1      14.406 -33.938 -23.345  1.00  0.00     0.210 HD
ENDBRANCH  17  22
TORSDOF 3
ENDMDL
MODEL 2
REMARK VINA RESULT: -6.292922451      1.339      1.391
REMARK  3 active torsions:
REMARK  status: ('A' for Active; 'I' for Inactive)
REMARK    1  A    between atoms: O1_1  and  N1_3 
REMARK    2  A    between atoms: N1_3  and  C1_4 
REMARK    3  A    between atoms: C14_20  and  O2_21 
ROOT
HETATM    1  C1  UNL     1      19.353 -38.021 -28.743  1.00  0.00     0.180 C 
HETATM    2  C2  UNL     1      18.576 -37.585 -27.541  1.00  0.00     0.107 A 
HETATM    3  N2  UNL     1      18.560 -36.744 -26.476  1.00  0.00    -0.346 N 
ATOM      4  H2  UNL     1      19.294 -36.070 -26.258  1.00  0.00     0.167 HD
HETATM    5  C3  UNL     1      17.442 -36.923 -25.750  1.00  0.00     0.040 A 
HETATM    6  C4  UNL     1      16.742 -37.910 -26.389  1.00  0.00     0.036 A 
HETATM    7  N3  UNL     1      17.439 -38.289 -27.455  1.00  0.00    -0.332 N 
HETATM    8  C5  UNL     1      17.352 -39.242 -28.575  1.00  0.00     0.097 C 
HETATM    9  C6  UNL     1      17.751 -40.572 -28.046  1.00  0.00     0.026 C 
HETATM   10  C7  UNL     1      17.891 -41.525 -29.203  1.00  0.00     0.002 C 
HETATM   11  C8  UNL     1      19.020 -41.034 -30.059  1.00  0.00     0.001 C 
HETATM   12  C9  UNL     1      18.827 -39.642 -30.578  1.00  0.00     0.009 C 
HETATM   13  C10 UNL     1      18.284 -38.670 -29.593  1.00  0.00     0.038 C 
HETATM   14  C11 UNL     1      15.441 -38.319 -25.794  1.00  0.00     0.060 C 
HETATM   15  C12 UNL     1      15.495 -38.319 -24.284  1.00  0.00     0.014 C 
HETATM   16  C13 UNL     1      16.024 -37.052 -23.712  1.00  0.00     0.028 A 
HETATM   17  C14 UNL     1      15.567 -35.781 -24.405  1.00  0.00     0.133 A 
HETATM   18  C15 UNL     1      16.952 -36.269 -24.515  1.00  0.00     0.073 A 
ENDROOT
BRANCH   1  19
HETATM   19  N1  UNL     1      19.875 -36.819 -29.366  1.00  0.00    -0.091 NA
BRANCH  19  20
HETATM   20  O1  UNL     1      18.916 -35.863 -29.365  1.00  0.00    -0.295 OA
ATOM     21  H1  UNL     1      19.123 -35.212 -30.024  1.00  0.00     0.238 HD
ENDBRANCH  19  20
ENDBRANCH   1  19
BRANCH  17  22
HETATM   22  O2  UNL     1      15.227 -34.740 -23.564  1.00  0.00    -0.394 OA
ATOM     23  H2  UNL     1      15.836 -34.576 -22.854  1.00  0.00     0.210 HD
ENDBRANCH  17  22
TORSDOF 3
ENDMDL
MODEL 3
REMARK VINA RESULT: -6.205491447      3.197      5.690
REMARK  3 active torsions:
REMARK  status: ('A' for Active; 'I' for Inactive)
REMARK    1  A    between atoms: O1_1  and  N1_3 
REMARK    2  A    between atoms: N1_3  and  C1_4 
REMARK    3  A    between atoms: C14_20  and  O2_21 
ROOT
HETATM    1  C1  UNL     1      17.348 -39.319 -26.890  1.00  0.00     0.180 C 
HETATM    2  C2  UNL     1      18.570 -38.591 -27.358  1.00  0.00     0.107 A 
HETATM    3  N2  UNL     1      19.785 -38.730 -27.945  1.00  0.00    -0.346 N 
ATOM      4  H2  UNL     1      20.182 -39.616 -28.257  1.00  0.00     0.167 HD
HETATM    5  C3  UNL     1      20.393 -37.535 -28.059  1.00  0.00     0.040 A 
HETATM    6  C4  UNL     1      19.521 -36.627 -27.523  1.00  0.00     0.036 A 
HETATM    7  N3  UNL     1      18.441 -37.281 -27.112  1.00  0.00    -0.332 N 
HETATM    8  C5  UNL     1      17.141 -37.015 -26.469  1.00  0.00     0.097 C 
HETATM    9  C6  UNL     1      17.399 -36.861 -25.014  1.00  0.00     0.026 C 
HETATM   10  C7  UNL     1      16.077 -36.812 -24.296  1.00  0.00     0.002 C 
HETATM   11  C8  UNL     1      15.409 -38.140 -24.487  1.00  0.00     0.001 C 
HETATM   12  C9  UNL     1      15.186 -38.507 -25.922  1.00  0.00     0.009 C 
HETATM   13  C10 UNL     1      16.322 -38.209 -26.834  1.00  0.00     0.038 C 
HETATM   14  C11 UNL     1      19.942 -35.199 -27.516  1.00  0.00     0.060 C 
HETATM   15  C12 UNL     1      21.418 -35.055 -27.228  1.00  0.00     0.014 C 
HETATM   16  C13 UNL     1      22.274 -35.910 -28.095  1.00  0.00     0.028 A 
HETATM   17  C14 UNL     1      21.840 -36.012 -29.546  1.00  0.00     0.133 A 
HETATM   18  C15 UNL     1      21.709 -37.146 -28.616  1.00  0.00     0.073 A 
ENDROOT
BRANCH   1  19
HETATM   19  N1  UNL     1      17.024 -40.298 -27.910  1.00  0.00    -0.091 NA
BRANCH  19  20
HETATM   20  O1  UNL     1      17.121 -39.720 -29.130  1.00  0.00    -0.295 OA
ATOM     21  H1  UNL     1      17.966 -39.294 -29.209  1.00  0.00     0.238 HD
ENDBRANCH  19  20
ENDBRANCH   1  19
BRANCH  17  22
HETATM   22  O2  UNL     1      22.862 -35.945 -30.473  1.00  0.00    -0.394 OA
ATOM     23  H2  UNL     1      22.870 -35.163 -31.012  1.00  0.00     0.210 HD
ENDBRANCH  17  22
TORSDOF 3
ENDMDL
MODEL 4
REMARK VINA RESULT: -5.967852969      1.842      5.807
REMARK  3 active torsions:
REMARK  status: ('A' for Active; 'I' for Inactive)
REMARK    1  A    between atoms: O1_1  and  N1_3 
REMARK    2  A    between atoms: N1_3  and  C1_4 
REMARK    3  A    between atoms: C14_20  and  O2_21 
ROOT
HETATM    1  C1  UNL     1      17.137 -36.196 -27.322  1.00  0.00     0.180 C 
HETATM    2  C2  UNL     1      17.240 -37.248 -28.381  1.00  0.00     0.107 A 
HETATM    3  N2  UNL     1      17.279 -37.474 -29.719  1.00  0.00    -0.346 N 
ATOM      4  H2  UNL     1      17.229 -36.747 -30.432  1.00  0.00     0.167 HD
HETATM    5  C3  UNL     1      17.391 -38.790 -29.972  1.00  0.00     0.040 A 
HETATM    6  C4  UNL     1      17.424 -39.398 -28.746  1.00  0.00     0.036 A 
HETATM    7  N3  UNL     1      17.333 -38.457 -27.814  1.00  0.00    -0.332 N 
HETATM    8  C5  UNL     1      17.303 -38.328 -26.346  1.00  0.00     0.097 C 
HETATM    9  C6  UNL     1      15.923 -38.663 -25.908  1.00  0.00     0.026 C 
HETATM   10  C7  UNL     1      15.790 -38.328 -24.447  1.00  0.00     0.002 C 
HETATM   11  C8  UNL     1      15.947 -36.843 -24.307  1.00  0.00     0.001 C 
HETATM   12  C9  UNL     1      17.252 -36.321 -24.823  1.00  0.00     0.009 C 
HETATM   13  C10 UNL     1      17.703 -36.908 -26.113  1.00  0.00     0.038 C 
HETATM   14  C11 UNL     1      17.546 -40.882 -28.724  1.00  0.00     0.060 C 
HETATM   15  C12 UNL     1      16.754 -41.523 -29.839  1.00  0.00     0.014 C 
HETATM   16  C13 UNL     1      17.036 -40.936 -31.177  1.00  0.00     0.028 A 
HETATM   17  C14 UNL     1      18.490 -40.592 -31.447  1.00  0.00     0.133 A 
HETATM   18  C15 UNL     1      17.472 -39.548 -31.242  1.00  0.00     0.073 A 
ENDROOT
BRANCH   1  19
HETATM   19  N1  UNL     1      17.982 -35.093 -27.739  1.00  0.00    -0.091 NA
BRANCH  19  20
HETATM   20  O1  UNL     1      17.358 -34.397 -28.717  1.00  0.00    -0.295 OA
ATOM     21  H1  UNL     1      16.867 -33.683 -28.329  1.00  0.00     0.238 HD
ENDBRANCH  19  20
ENDBRANCH   1  19
BRANCH  17  22
HETATM   22  O2  UNL     1      18.950 -40.922 -32.706  1.00  0.00    -0.394 OA
ATOM     23  H2  UNL     1      19.131 -40.186 -33.278  1.00  0.00     0.210 HD
ENDBRANCH  17  22
TORSDOF 3
ENDMDL
MODEL 5
REMARK VINA RESULT: -5.837680013      3.429      4.317
REMARK  3 active torsions:
REMARK  status: ('A' for Active; 'I' for Inactive)
REMARK    1  A    between atoms: O1_1  and  N1_3 
REMARK    2  A    between atoms: N1_3  and  C1_4 
REMARK    3  A    between atoms: C14_20  and  O2_21 
ROOT
HETATM    1  C1  UNL     1      19.717 -40.489 -28.656  1.00  0.00     0.180 C 
HETATM    2  C2  UNL     1      18.653 -39.847 -27.822  1.00  0.00     0.107 A 
HETATM    3  N2  UNL     1      17.400 -39.990 -27.323  1.00  0.00    -0.346 N 
ATOM      4  H2  UNL     1      16.800 -40.800 -27.481  1.00  0.00     0.167 HD
HETATM    5  C3  UNL     1      17.058 -38.915 -26.590  1.00  0.00     0.040 A 
HETATM    6  C4  UNL     1      18.141 -38.079 -26.638  1.00  0.00     0.036 A 
HETATM    7  N3  UNL     1      19.079 -38.657 -27.379  1.00  0.00    -0.332 N 
HETATM    8  C5  UNL     1      20.446 -38.399 -27.866  1.00  0.00     0.097 C 
HETATM    9  C6  UNL     1      20.327 -37.481 -29.028  1.00  0.00     0.026 C 
HETATM   10  C7  UNL     1      21.674 -37.371 -29.690  1.00  0.00     0.002 C 
HETATM   11  C8  UNL     1      22.025 -38.724 -30.232  1.00  0.00     0.001 C 
HETATM   12  C9  UNL     1      22.065 -39.801 -29.192  1.00  0.00     0.009 C 
HETATM   13  C10 UNL     1      20.961 -39.761 -28.197  1.00  0.00     0.038 C 
HETATM   14  C11 UNL     1      18.040 -36.789 -25.901  1.00  0.00     0.060 C 
HETATM   15  C12 UNL     1      16.653 -36.198 -25.999  1.00  0.00     0.014 C 
HETATM   16  C13 UNL     1      15.576 -37.160 -25.640  1.00  0.00     0.028 A 
HETATM   17  C14 UNL     1      15.877 -38.071 -24.464  1.00  0.00     0.133 A 
HETATM   18  C15 UNL     1      15.823 -38.580 -25.844  1.00  0.00     0.073 A 
ENDROOT
BRANCH   1  19
HETATM   19  N1  UNL     1      19.751 -41.892 -28.289  1.00  0.00    -0.091 NA
BRANCH  19  20
HETATM   20  O1  UNL     1      19.983 -42.000 -26.959  1.00  0.00    -0.295 OA
ATOM     21  H1  UNL     1      20.084 -41.132 -26.588  1.00  0.00     0.238 HD
ENDBRANCH  19  20
ENDBRANCH   1  19
BRANCH  17  22
HETATM   22  O2  UNL     1      14.834 -38.256 -23.578  1.00  0.00    -0.394 OA
ATOM     23  H2  UNL     1      14.690 -37.545 -22.965  1.00  0.00     0.210 HD
ENDBRANCH  17  22
TORSDOF 3
ENDMDL
