MODEL 1
REMARK VINA RESULT: -9.011874029      0.000      0.000
REMARK  9 active torsions:
REMARK  status: ('A' for Active; 'I' for Inactive)
REMARK    1  A    between atoms: C8_8  and  O1_9 
REMARK    2  A    between atoms: C9_11  and  C10_12 
REMARK    3  A    between atoms: C10_12  and  O2_13 
REMARK    4  A    between atoms: C10_12  and  C15_31 
REMARK    5  A    between atoms: O2_13  and  C11_14 
REMARK    6  A    between atoms: C11_14  and  C12_16 
REMARK    7  A    between atoms: C12_16  and  C13_21 
REMARK    8  A    between atoms: N1_17  and  O4_19 
REMARK    9  A    between atoms: C14_25  and  N3_26 
ROOT
HETATM    1  C10 UNL     1      15.102   0.296   4.161  1.00  0.00     0.257 C 
ENDROOT
BRANCH   1   2
HETATM    2  C9  UNL     1      15.790  -0.651   3.274  1.00  0.00     0.016 A 
HETATM    3  C8  UNL     1      17.174  -0.662   3.112  1.00  0.00     0.082 A 
HETATM    4  C6  UNL     1      17.844  -1.562   2.247  1.00  0.00    -0.015 A 
HETATM    5  C5  UNL     1      17.068  -2.456   1.548  1.00  0.00     0.013 A 
HETATM    6  C7  UNL     1      19.291  -1.540   2.125  1.00  0.00     0.052 C 
HETATM    7  C3  UNL     1      17.661  -3.366   0.684  1.00  0.00    -0.036 A 
HETATM    8  C17 UNL     1      15.675  -2.464   1.696  1.00  0.00     0.091 A 
HETATM    9  C2  UNL     1      16.775  -4.238   0.018  1.00  0.00     0.020 A 
HETATM   10  C4  UNL     1      19.077  -3.420   0.465  1.00  0.00     0.050 C 
HETATM   11  C1  UNL     1      17.387  -5.213  -0.899  1.00  0.00     0.055 C 
HETATM   12  C18 UNL     1      15.441  -4.188   0.210  1.00  0.00     0.294 A 
HETATM   13  O7  UNL     1      14.941  -3.316   1.030  1.00  0.00    -0.274 OA
HETATM   14  O8  UNL     1      14.690  -5.004  -0.421  1.00  0.00    -0.259 OA
HETATM   15  C16 UNL     1      15.078  -1.559   2.555  1.00  0.00     0.051 A 
BRANCH   3  16
HETATM   16  O1  UNL     1      17.904   0.222   3.802  1.00  0.00    -0.359 OA
ATOM     17  H1  UNL     1      17.575   1.108   3.892  1.00  0.00     0.217 HD
ENDBRANCH   3  16
ENDBRANCH   1   2
BRANCH   1  18
HETATM   18  O2  UNL     1      15.587   1.643   3.957  1.00  0.00    -0.297 OA
BRANCH  18  19
HETATM   19  C11 UNL     1      14.704   2.627   3.507  1.00  0.00     0.317 C 
HETATM   20  O3  UNL     1      14.719   2.861   2.272  1.00  0.00    -0.257 OA
BRANCH  19  21
HETATM   21  C12 UNL     1      13.811   3.356   4.364  1.00  0.00     0.175 C 
HETATM   22  N1  UNL     1      14.157   3.806   5.534  1.00  0.00    -0.260 N 
ATOM     23  H1  UNL     1      13.489   4.320   6.108  1.00  0.00     0.194 HD
BRANCH  22  24
HETATM   24  O4  UNL     1      15.421   3.581   5.979  1.00  0.00    -0.289 OA
ATOM     25  H4  UNL     1      15.564   3.444   6.908  1.00  0.00     0.244 HD
ENDBRANCH  22  24
BRANCH  21  26
HETATM   26  C13 UNL     1      12.420   3.660   3.992  1.00  0.00     0.164 A 
HETATM   27  N2  UNL     1      11.312   3.239   4.664  1.00  0.00    -0.239 N 
HETATM   28  O5  UNL     1      10.236   3.651   4.121  1.00  0.00    -0.199 OA
ATOM     29  H2  UNL     1      11.340   2.661   5.505  1.00  0.00     0.196 HD
HETATM   30  C14 UNL     1      10.566   4.355   3.078  1.00  0.00     0.242 A 
HETATM   31  N4  UNL     1      11.933   4.378   2.972  1.00  0.00    -0.303 N 
ATOM     32  H4  UNL     1      12.477   4.853   2.252  1.00  0.00     0.171 HD
BRANCH  30  33
HETATM   33  N3  UNL     1       9.755   4.931   2.282  1.00  0.00    -0.364 N 
ATOM     34  H32 UNL     1       9.992   5.297   1.360  1.00  0.00     0.159 HD
ATOM     35  H31 UNL     1       8.766   5.103   2.460  1.00  0.00     0.159 HD
ENDBRANCH  30  33
ENDBRANCH  21  26
ENDBRANCH  19  21
ENDBRANCH  18  19
ENDBRANCH   1  18
BRANCH   1  36
HETATM   36  C15 UNL     1      15.311   0.037   5.603  1.00  0.00     0.265 C 
HETATM   37  N5  UNL     1      16.162  -0.949   6.160  1.00  0.00    -0.059 NA
HETATM   38  O6  UNL     1      14.665   0.766   6.444  1.00  0.00    -0.274 OA
ENDBRANCH   1  36
TORSDOF 9
ENDMDL
MODEL 2
REMARK VINA RESULT: -8.913438447      1.438      2.245
REMARK  9 active torsions:
REMARK  status: ('A' for Active; 'I' for Inactive)
REMARK    1  A    between atoms: C8_8  and  O1_9 
REMARK    2  A    between atoms: C9_11  and  C10_12 
REMARK    3  A    between atoms: C10_12  and  O2_13 
REMARK    4  A    between atoms: C10_12  and  C15_31 
REMARK    5  A    between atoms: O2_13  and  C11_14 
REMARK    6  A    between atoms: C11_14  and  C12_16 
REMARK    7  A    between atoms: C12_16  and  C13_21 
REMARK    8  A    between atoms: N1_17  and  O4_19 
REMARK    9  A    between atoms: C14_25  and  N3_26 
ROOT
HETATM    1  C10 UNL     1      15.358   1.047   4.369  1.00  0.00     0.257 C 
ENDROOT
BRANCH   1   2
HETATM    2  C9  UNL     1      15.953  -0.034   3.573  1.00  0.00     0.016 A 
HETATM    3  C8  UNL     1      17.329  -0.183   3.415  1.00  0.00     0.082 A 
HETATM    4  C6  UNL     1      17.910  -1.214   2.637  1.00  0.00    -0.015 A 
HETATM    5  C5  UNL     1      17.054  -2.095   2.021  1.00  0.00     0.013 A 
HETATM    6  C7  UNL     1      19.353  -1.333   2.515  1.00  0.00     0.052 C 
HETATM    7  C3  UNL     1      17.557  -3.129   1.244  1.00  0.00    -0.036 A 
HETATM    8  C17 UNL     1      15.666  -1.965   2.167  1.00  0.00     0.091 A 
HETATM    9  C2  UNL     1      16.593  -3.976   0.659  1.00  0.00     0.020 A 
HETATM   10  C4  UNL     1      18.962  -3.329   1.034  1.00  0.00     0.050 C 
HETATM   11  C1  UNL     1      17.110  -5.081  -0.165  1.00  0.00     0.055 C 
HETATM   12  C18 UNL     1      15.270  -3.790   0.843  1.00  0.00     0.294 A 
HETATM   13  O7  UNL     1      14.855  -2.806   1.579  1.00  0.00    -0.274 OA
HETATM   14  O8  UNL     1      14.446  -4.589   0.287  1.00  0.00    -0.259 OA
HETATM   15  C16 UNL     1      15.158  -0.937   2.938  1.00  0.00     0.051 A 
BRANCH   3  16
HETATM   16  O1  UNL     1      18.139   0.691   4.023  1.00  0.00    -0.359 OA
ATOM     17  H1  UNL     1      18.482   0.469   4.880  1.00  0.00     0.217 HD
ENDBRANCH   3  16
ENDBRANCH   1   2
BRANCH   1  18
HETATM   18  O2  UNL     1      13.989   0.739   4.721  1.00  0.00    -0.297 OA
BRANCH  18  19
HETATM   19  C11 UNL     1      13.364   1.467   5.736  1.00  0.00     0.317 C 
HETATM   20  O3  UNL     1      14.028   1.631   6.791  1.00  0.00    -0.257 OA
BRANCH  19  21
HETATM   21  C12 UNL     1      12.042   2.018   5.629  1.00  0.00     0.175 C 
HETATM   22  N1  UNL     1      11.044   1.620   6.362  1.00  0.00    -0.260 N 
ATOM     23  H1  UNL     1      10.121   2.041   6.253  1.00  0.00     0.194 HD
BRANCH  22  24
HETATM   24  O4  UNL     1      11.249   0.635   7.276  1.00  0.00    -0.289 OA
ATOM     25  H4  UNL     1      11.098  -0.268   7.020  1.00  0.00     0.244 HD
ENDBRANCH  22  24
BRANCH  21  26
HETATM   26  C13 UNL     1      11.697   3.086   4.678  1.00  0.00     0.164 A 
HETATM   27  N2  UNL     1      12.561   4.020   4.190  1.00  0.00    -0.239 N 
HETATM   28  O5  UNL     1      11.992   4.824   3.382  1.00  0.00    -0.199 OA
ATOM     29  H2  UNL     1      13.548   4.071   4.443  1.00  0.00     0.196 HD
HETATM   30  C14 UNL     1      10.742   4.473   3.292  1.00  0.00     0.242 A 
HETATM   31  N4  UNL     1      10.528   3.383   4.095  1.00  0.00    -0.303 N 
ATOM     32  H4  UNL     1       9.645   2.891   4.225  1.00  0.00     0.171 HD
BRANCH  30  33
HETATM   33  N3  UNL     1       9.859   5.045   2.574  1.00  0.00    -0.364 N 
ATOM     34  H32 UNL     1       9.977   5.320   1.599  1.00  0.00     0.159 HD
ATOM     35  H31 UNL     1       8.921   5.305   2.878  1.00  0.00     0.159 HD
ENDBRANCH  30  33
ENDBRANCH  21  26
ENDBRANCH  19  21
ENDBRANCH  18  19
ENDBRANCH   1  18
BRANCH   1  36
HETATM   36  C15 UNL     1      15.279   2.346   3.664  1.00  0.00     0.265 C 
HETATM   37  N5  UNL     1      15.804   3.578   4.123  1.00  0.00    -0.059 NA
HETATM   38  O6  UNL     1      14.676   2.378   2.528  1.00  0.00    -0.274 OA
ENDBRANCH   1  36
TORSDOF 9
ENDMDL
MODEL 3
REMARK VINA RESULT: -8.894500185      2.676      4.549
REMARK  9 active torsions:
REMARK  status: ('A' for Active; 'I' for Inactive)
REMARK    1  A    between atoms: C8_8  and  O1_9 
REMARK    2  A    between atoms: C9_11  and  C10_12 
REMARK    3  A    between atoms: C10_12  and  O2_13 
REMARK    4  A    between atoms: C10_12  and  C15_31 
REMARK    5  A    between atoms: O2_13  and  C11_14 
REMARK    6  A    between atoms: C11_14  and  C12_16 
REMARK    7  A    between atoms: C12_16  and  C13_21 
REMARK    8  A    between atoms: N1_17  and  O4_19 
REMARK    9  A    between atoms: C14_25  and  N3_26 
ROOT
HETATM    1  C10 UNL     1      15.548  -2.618   2.859  1.00  0.00     0.257 C 
ENDROOT
BRANCH   1   2
HETATM    2  C9  UNL     1      16.328  -3.157   1.737  1.00  0.00     0.016 A 
HETATM    3  C8  UNL     1      15.768  -3.967   0.751  1.00  0.00     0.082 A 
HETATM    4  C6  UNL     1      16.516  -4.502  -0.326  1.00  0.00    -0.015 A 
HETATM    5  C5  UNL     1      17.854  -4.191  -0.377  1.00  0.00     0.013 A 
HETATM    6  C7  UNL     1      15.880  -5.331  -1.336  1.00  0.00     0.052 C 
HETATM    7  C3  UNL     1      18.645  -4.682  -1.407  1.00  0.00    -0.036 A 
HETATM    8  C17 UNL     1      18.438  -3.377   0.602  1.00  0.00     0.091 A 
HETATM    9  C2  UNL     1      20.002  -4.302  -1.365  1.00  0.00     0.020 A 
HETATM   10  C4  UNL     1      18.131  -5.530  -2.444  1.00  0.00     0.050 C 
HETATM   11  C1  UNL     1      20.855  -4.811  -2.452  1.00  0.00     0.055 C 
HETATM   12  C18 UNL     1      20.496  -3.515  -0.389  1.00  0.00     0.294 A 
HETATM   13  O7  UNL     1      19.711  -3.084   0.550  1.00  0.00    -0.274 OA
HETATM   14  O8  UNL     1      21.733  -3.205  -0.405  1.00  0.00    -0.259 OA
HETATM   15  C16 UNL     1      17.656  -2.885   1.631  1.00  0.00     0.051 A 
BRANCH   3  16
HETATM   16  O1  UNL     1      14.464  -4.256   0.828  1.00  0.00    -0.359 OA
ATOM     17  H1  UNL     1      14.033  -4.180   1.671  1.00  0.00     0.217 HD
ENDBRANCH   3  16
ENDBRANCH   1   2
BRANCH   1  18
HETATM   18  O2  UNL     1      16.189  -1.450   3.422  1.00  0.00    -0.297 OA
BRANCH  18  19
HETATM   19  C11 UNL     1      15.504  -0.232   3.430  1.00  0.00     0.317 C 
HETATM   20  O3  UNL     1      14.713  -0.036   2.473  1.00  0.00    -0.257 OA
BRANCH  19  21
HETATM   21  C12 UNL     1      15.661   0.769   4.448  1.00  0.00     0.175 C 
HETATM   22  N1  UNL     1      15.492   0.528   5.715  1.00  0.00    -0.260 N 
ATOM     23  H1  UNL     1      15.615   1.270   6.403  1.00  0.00     0.194 HD
BRANCH  22  24
HETATM   24  O4  UNL     1      15.149  -0.727   6.107  1.00  0.00    -0.289 OA
ATOM     25  H4  UNL     1      14.645  -0.838   6.904  1.00  0.00     0.244 HD
ENDBRANCH  22  24
BRANCH  21  26
HETATM   26  C13 UNL     1      16.029   2.162   4.147  1.00  0.00     0.164 A 
HETATM   27  N2  UNL     1      15.400   2.969   3.249  1.00  0.00    -0.239 N 
HETATM   28  O5  UNL     1      15.929   4.127   3.192  1.00  0.00    -0.199 OA
ATOM     29  H2  UNL     1      14.599   2.681   2.686  1.00  0.00     0.196 HD
HETATM   30  C14 UNL     1      16.920   4.149   4.035  1.00  0.00     0.242 A 
HETATM   31  N4  UNL     1      17.006   2.927   4.650  1.00  0.00    -0.303 N 
ATOM     32  H4  UNL     1      17.687   2.653   5.358  1.00  0.00     0.171 HD
BRANCH  30  33
HETATM   33  N3  UNL     1      17.686   5.142   4.256  1.00  0.00    -0.364 N 
ATOM     34  H32 UNL     1      17.455   6.119   4.075  1.00  0.00     0.159 HD
ATOM     35  H31 UNL     1      18.630   5.093   4.640  1.00  0.00     0.159 HD
ENDBRANCH  30  33
ENDBRANCH  21  26
ENDBRANCH  19  21
ENDBRANCH  18  19
ENDBRANCH   1  18
BRANCH   1  36
HETATM   36  C15 UNL     1      15.403  -3.551   3.999  1.00  0.00     0.265 C 
HETATM   37  N5  UNL     1      14.666  -4.760   4.000  1.00  0.00    -0.059 NA
HETATM   38  O6  UNL     1      15.992  -3.248   5.102  1.00  0.00    -0.274 OA
ENDBRANCH   1  36
TORSDOF 9
ENDMDL
MODEL 4
REMARK VINA RESULT: -8.846178150      3.558      5.571
REMARK  9 active torsions:
REMARK  status: ('A' for Active; 'I' for Inactive)
REMARK    1  A    between atoms: C8_8  and  O1_9 
REMARK    2  A    between atoms: C9_11  and  C10_12 
REMARK    3  A    between atoms: C10_12  and  O2_13 
REMARK    4  A    between atoms: C10_12  and  C15_31 
REMARK    5  A    between atoms: O2_13  and  C11_14 
REMARK    6  A    between atoms: C11_14  and  C12_16 
REMARK    7  A    between atoms: C12_16  and  C13_21 
REMARK    8  A    between atoms: N1_17  and  O4_19 
REMARK    9  A    between atoms: C14_25  and  N3_26 
ROOT
HETATM    1  C10 UNL     1      15.731  -2.464   3.063  1.00  0.00     0.257 C 
ENDROOT
BRANCH   1   2
HETATM    2  C9  UNL     1      16.383  -3.055   1.887  1.00  0.00     0.016 A 
HETATM    3  C8  UNL     1      15.701  -3.849   0.967  1.00  0.00     0.082 A 
HETATM    4  C6  UNL     1      16.326  -4.434  -0.161  1.00  0.00    -0.015 A 
HETATM    5  C5  UNL     1      17.668  -4.190  -0.333  1.00  0.00     0.013 A 
HETATM    6  C7  UNL     1      15.567  -5.243  -1.098  1.00  0.00     0.052 C 
HETATM    7  C3  UNL     1      18.342  -4.733  -1.418  1.00  0.00    -0.036 A 
HETATM    8  C17 UNL     1      18.374  -3.394   0.579  1.00  0.00     0.091 A 
HETATM    9  C2  UNL     1      19.714  -4.420  -1.501  1.00  0.00     0.020 A 
HETATM   10  C4  UNL     1      17.700  -5.567  -2.393  1.00  0.00     0.050 C 
HETATM   11  C1  UNL     1      20.444  -4.984  -2.648  1.00  0.00     0.055 C 
HETATM   12  C18 UNL     1      20.329  -3.645  -0.584  1.00  0.00     0.294 A 
HETATM   13  O7  UNL     1      19.650  -3.164   0.412  1.00  0.00    -0.274 OA
HETATM   14  O8  UNL     1      21.574  -3.397  -0.712  1.00  0.00    -0.259 OA
HETATM   15  C16 UNL     1      17.709  -2.851   1.663  1.00  0.00     0.051 A 
BRANCH   3  16
HETATM   16  O1  UNL     1      14.397  -4.072   1.161  1.00  0.00    -0.359 OA
ATOM     17  H1  UNL     1      14.109  -4.353   2.021  1.00  0.00     0.217 HD
ENDBRANCH   3  16
ENDBRANCH   1   2
BRANCH   1  18
HETATM   18  O2  UNL     1      14.791  -3.390   3.654  1.00  0.00    -0.297 OA
BRANCH  18  19
HETATM   19  C11 UNL     1      15.098  -3.987   4.879  1.00  0.00     0.317 C 
HETATM   20  O3  UNL     1      15.056  -5.243   4.910  1.00  0.00    -0.257 OA
BRANCH  19  21
HETATM   21  C12 UNL     1      15.448  -3.252   6.063  1.00  0.00     0.175 C 
HETATM   22  N1  UNL     1      16.513  -3.502   6.767  1.00  0.00    -0.260 N 
ATOM     23  H1  UNL     1      16.723  -2.953   7.601  1.00  0.00     0.194 HD
BRANCH  22  24
HETATM   24  O4  UNL     1      17.342  -4.505   6.374  1.00  0.00    -0.289 OA
ATOM     25  H4  UNL     1      18.254  -4.476   6.636  1.00  0.00     0.244 HD
ENDBRANCH  22  24
BRANCH  21  26
HETATM   26  C13 UNL     1      14.630  -2.147   6.587  1.00  0.00     0.164 A 
HETATM   27  N2  UNL     1      15.013  -0.841   6.652  1.00  0.00    -0.239 N 
HETATM   28  O5  UNL     1      14.105  -0.099   7.150  1.00  0.00    -0.199 OA
ATOM     29  H2  UNL     1      15.921  -0.498   6.339  1.00  0.00     0.196 HD
HETATM   30  C14 UNL     1      13.089  -0.859   7.437  1.00  0.00     0.242 A 
HETATM   31  N4  UNL     1      13.390  -2.151   7.093  1.00  0.00    -0.303 N 
ATOM     32  H4  UNL     1      12.784  -2.964   7.203  1.00  0.00     0.171 HD
BRANCH  30  33
HETATM   33  N3  UNL     1      11.991  -0.469   7.953  1.00  0.00    -0.364 N 
ATOM     34  H32 UNL     1      11.849   0.414   8.442  1.00  0.00     0.159 HD
ATOM     35  H31 UNL     1      11.113  -0.988   7.946  1.00  0.00     0.159 HD
ENDBRANCH  30  33
ENDBRANCH  21  26
ENDBRANCH  19  21
ENDBRANCH  18  19
ENDBRANCH   1  18
BRANCH   1  36
HETATM   36  C15 UNL     1      14.929  -1.255   2.769  1.00  0.00     0.265 C 
HETATM   37  N5  UNL     1      14.810  -0.111   3.595  1.00  0.00    -0.059 NA
HETATM   38  O6  UNL     1      14.271  -1.225   1.664  1.00  0.00    -0.274 OA
ENDBRANCH   1  36
TORSDOF 9
ENDMDL
MODEL 5
REMARK VINA RESULT: -8.838891534      3.912      8.101
REMARK  9 active torsions:
REMARK  status: ('A' for Active; 'I' for Inactive)
REMARK    1  A    between atoms: C8_8  and  O1_9 
REMARK    2  A    between atoms: C9_11  and  C10_12 
REMARK    3  A    between atoms: C10_12  and  O2_13 
REMARK    4  A    between atoms: C10_12  and  C15_31 
REMARK    5  A    between atoms: O2_13  and  C11_14 
REMARK    6  A    between atoms: C11_14  and  C12_16 
REMARK    7  A    between atoms: C12_16  and  C13_21 
REMARK    8  A    between atoms: N1_17  and  O4_19 
REMARK    9  A    between atoms: C14_25  and  N3_26 
ROOT
HETATM    1  C10 UNL     1      16.506  -1.431   4.145  1.00  0.00     0.257 C 
ENDROOT
BRANCH   1   2
HETATM    2  C9  UNL     1      16.031  -0.106   4.565  1.00  0.00     0.016 A 
HETATM    3  C8  UNL     1      16.849   1.023   4.562  1.00  0.00     0.082 A 
HETATM    4  C6  UNL     1      16.403   2.300   4.979  1.00  0.00    -0.015 A 
HETATM    5  C5  UNL     1      15.099   2.404   5.400  1.00  0.00     0.013 A 
HETATM    6  C7  UNL     1      17.293   3.448   4.945  1.00  0.00     0.052 C 
HETATM    7  C3  UNL     1      14.598   3.628   5.822  1.00  0.00    -0.036 A 
HETATM    8  C17 UNL     1      14.259   1.284   5.410  1.00  0.00     0.091 A 
HETATM    9  C2  UNL     1      13.249   3.624   6.232  1.00  0.00     0.020 A 
HETATM   10  C4  UNL     1      15.392   4.823   5.854  1.00  0.00     0.050 C 
HETATM   11  C1  UNL     1      12.700   4.915   6.678  1.00  0.00     0.055 C 
HETATM   12  C18 UNL     1      12.498   2.505   6.215  1.00  0.00     0.294 A 
HETATM   13  O7  UNL     1      13.018   1.387   5.812  1.00  0.00    -0.274 OA
HETATM   14  O8  UNL     1      11.283   2.564   6.599  1.00  0.00    -0.259 OA
HETATM   15  C16 UNL     1      14.751   0.061   4.992  1.00  0.00     0.051 A 
BRANCH   3  16
HETATM   16  O1  UNL     1      18.115   0.891   4.151  1.00  0.00    -0.359 OA
ATOM     17  H1  UNL     1      18.813   1.082   4.766  1.00  0.00     0.217 HD
ENDBRANCH   3  16
ENDBRANCH   1   2
BRANCH   1  18
HETATM   18  O2  UNL     1      15.412  -2.243   3.658  1.00  0.00    -0.297 OA
BRANCH  18  19
HETATM   19  C11 UNL     1      15.462  -2.748   2.357  1.00  0.00     0.317 C 
HETATM   20  O3  UNL     1      14.732  -2.173   1.511  1.00  0.00    -0.257 OA
BRANCH  19  21
HETATM   21  C12 UNL     1      16.284  -3.857   1.959  1.00  0.00     0.175 C 
HETATM   22  N1  UNL     1      16.286  -5.001   2.578  1.00  0.00    -0.260 N 
ATOM     23  H1  UNL     1      16.886  -5.761   2.259  1.00  0.00     0.194 HD
BRANCH  22  24
HETATM   24  O4  UNL     1      15.475  -5.167   3.656  1.00  0.00    -0.289 OA
ATOM     25  H4  UNL     1      15.276  -6.048   3.950  1.00  0.00     0.244 HD
ENDBRANCH  22  24
BRANCH  21  26
HETATM   26  C13 UNL     1      17.202  -3.797   0.810  1.00  0.00     0.164 A 
HETATM   27  N2  UNL     1      18.124  -2.820   0.584  1.00  0.00    -0.239 N 
HETATM   28  O5  UNL     1      18.784  -3.021  -0.488  1.00  0.00    -0.199 OA
ATOM     29  H2  UNL     1      18.269  -2.020   1.200  1.00  0.00     0.196 HD
HETATM   30  C14 UNL     1      18.342  -4.123  -1.021  1.00  0.00     0.242 A 
HETATM   31  N4  UNL     1      17.348  -4.633  -0.226  1.00  0.00    -0.303 N 
ATOM     32  H4  UNL     1      16.818  -5.488  -0.393  1.00  0.00     0.171 HD
BRANCH  30  33
HETATM   33  N3  UNL     1      18.763  -4.647  -2.103  1.00  0.00    -0.364 N 
ATOM     34  H32 UNL     1      19.270  -4.155  -2.839  1.00  0.00     0.159 HD
ATOM     35  H31 UNL     1      18.648  -5.622  -2.377  1.00  0.00     0.159 HD
ENDBRANCH  30  33
ENDBRANCH  21  26
ENDBRANCH  19  21
ENDBRANCH  18  19
ENDBRANCH   1  18
BRANCH   1  36
HETATM   36  C15 UNL     1      17.111  -2.232   5.233  1.00  0.00     0.265 C 
HETATM   37  N5  UNL     1      18.191  -1.837   6.058  1.00  0.00    -0.059 NA
HETATM   38  O6  UNL     1      16.623  -3.399   5.462  1.00  0.00    -0.274 OA
ENDBRANCH   1  36
TORSDOF 9
ENDMDL
