MODEL 1
REMARK VINA RESULT: -7.071329113      0.000      0.000
REMARK  6 active torsions:
REMARK  status: ('A' for Active; 'I' for Inactive)
REMARK    1  A    between atoms: C5_5  and  N1_6 
REMARK       I    between atoms: N1_6  and  C6_8 
REMARK    2  A    between atoms: C6_8  and  C7_10 
REMARK    3  A    between atoms: C7_10  and  N2_11 
REMARK    4  A    between atoms: N2_11  and  C8_13 
REMARK    5  A    between atoms: C8_13  and  N3_15 
REMARK    6  A    between atoms: N3_15  and  N4_17 
ROOT
HETATM    1  N1  UNL     1       6.345   9.202  22.822  1.00  0.00    -0.353 N 
ATOM      2  H1  UNL     1       5.327   9.145  22.813  1.00  0.00     0.163 HD
HETATM    3  C6  UNL     1       6.991   9.889  23.872  1.00  0.00     0.235 C 
HETATM    4  O1  UNL     1       8.253   9.982  23.918  1.00  0.00    -0.272 OA
ENDROOT
BRANCH   3   5
HETATM    5  C7  UNL     1       6.162  10.514  24.943  1.00  0.00     0.224 C 
BRANCH   5   6
HETATM    6  N2  UNL     1       5.145   9.565  25.315  1.00  0.00    -0.357 N 
ATOM      7  H2  UNL     1       4.204   9.642  24.929  1.00  0.00     0.162 HD
BRANCH   6   8
HETATM    8  C8  UNL     1       5.460   8.523  26.218  1.00  0.00     0.182 C 
HETATM    9  S1  UNL     1       5.600   6.969  25.719  1.00  0.00    -0.040 SA
BRANCH   8  10
HETATM   10  N3  UNL     1       5.655   8.852  27.582  1.00  0.00    -0.295 N 
ATOM     11  H3  UNL     1       4.866   9.109  28.176  1.00  0.00     0.183 HD
BRANCH  10  12
HETATM   12  N4  UNL     1       6.954   8.813  28.093  1.00  0.00    -0.225 NA
HETATM   13  C9  UNL     1       7.940   8.447  27.112  1.00  0.00     0.140 C 
HETATM   14  C10 UNL     1       9.087   7.770  27.864  1.00  0.00     0.183 C 
HETATM   15  O2  UNL     1       9.243   8.312  29.118  1.00  0.00    -0.389 OA
HETATM   16  C11 UNL     1       8.200   8.072  29.982  1.00  0.00     0.183 C 
HETATM   17  C12 UNL     1       6.952   7.789  29.144  1.00  0.00     0.140 C 
ENDBRANCH  10  12
ENDBRANCH   8  10
ENDBRANCH   6   8
ENDBRANCH   5   6
ENDBRANCH   3   5
BRANCH   1  18
HETATM   18  C5  UNL     1       7.095   8.581  21.766  1.00  0.00     0.103 C 
HETATM   19  C4  UNL     1       7.019   7.119  21.904  1.00  0.00     0.046 C 
HETATM   20  C2  UNL     1       7.294   6.410  20.650  1.00  0.00     0.003 C 
HETATM   21  C1  UNL     1       8.740   5.928  20.624  1.00  0.00     0.026 C 
HETATM   22  C3  UNL     1       6.356   5.224  20.420  1.00  0.00     0.026 C 
HETATM   23  S2  UNL     1       6.964   7.609  19.354  1.00  0.00    -0.148 SA
HETATM   24  C13 UNL     1       6.678   9.037  20.423  1.00  0.00     0.022 C 
HETATM   25  C14 UNL     1       5.254   9.522  20.344  1.00  0.00     0.029 C 
HETATM   26  C15 UNL     1       7.552  10.177  19.890  1.00  0.00     0.029 C 
ENDBRANCH   1  18
TORSDOF 6
ENDMDL
MODEL 2
REMARK VINA RESULT: -6.782277354      3.022      4.522
REMARK  6 active torsions:
REMARK  status: ('A' for Active; 'I' for Inactive)
REMARK    1  A    between atoms: C5_5  and  N1_6 
REMARK       I    between atoms: N1_6  and  C6_8 
REMARK    2  A    between atoms: C6_8  and  C7_10 
REMARK    3  A    between atoms: C7_10  and  N2_11 
REMARK    4  A    between atoms: N2_11  and  C8_13 
REMARK    5  A    between atoms: C8_13  and  N3_15 
REMARK    6  A    between atoms: N3_15  and  N4_17 
ROOT
HETATM    1  N1  UNL     1       6.921  11.725  21.991  1.00  0.00    -0.353 N 
ATOM      2  H1  UNL     1       7.516  10.988  21.613  1.00  0.00     0.163 HD
HETATM    3  C6  UNL     1       6.387  11.584  23.291  1.00  0.00     0.235 C 
HETATM    4  O1  UNL     1       5.644  12.476  23.795  1.00  0.00    -0.272 OA
ENDROOT
BRANCH   3   5
HETATM    5  C7  UNL     1       6.710  10.357  24.074  1.00  0.00     0.224 C 
BRANCH   5   6
HETATM    6  N2  UNL     1       5.683  10.195  25.071  1.00  0.00    -0.357 N 
ATOM      7  H2  UNL     1       5.084  10.982  25.323  1.00  0.00     0.162 HD
BRANCH   6   8
HETATM    8  C8  UNL     1       5.510   8.940  25.698  1.00  0.00     0.182 C 
HETATM    9  S1  UNL     1       5.238   7.578  24.828  1.00  0.00    -0.040 SA
BRANCH   8  10
HETATM   10  N3  UNL     1       5.577   8.878  27.111  1.00  0.00    -0.295 N 
ATOM     11  H3  UNL     1       4.727   8.863  27.675  1.00  0.00     0.183 HD
BRANCH  10  12
HETATM   12  N4  UNL     1       6.836   8.838  27.713  1.00  0.00    -0.225 NA
HETATM   13  C9  UNL     1       7.883   8.426  26.816  1.00  0.00     0.140 C 
HETATM   14  C10 UNL     1       8.963   7.758  27.667  1.00  0.00     0.183 C 
HETATM   15  O2  UNL     1       9.040   8.339  28.912  1.00  0.00    -0.389 OA
HETATM   16  C11 UNL     1       7.935   8.141  29.707  1.00  0.00     0.183 C 
HETATM   17  C12 UNL     1       6.745   7.849  28.794  1.00  0.00     0.140 C 
ENDBRANCH  10  12
ENDBRANCH   8  10
ENDBRANCH   6   8
ENDBRANCH   5   6
ENDBRANCH   3   5
BRANCH   1  18
HETATM   18  C5  UNL     1       6.642  12.886  21.193  1.00  0.00     0.103 C 
HETATM   19  C4  UNL     1       7.505  13.996  21.623  1.00  0.00     0.046 C 
HETATM   20  C2  UNL     1       7.674  15.024  20.591  1.00  0.00     0.003 C 
HETATM   21  C1  UNL     1       6.728  16.192  20.852  1.00  0.00     0.026 C 
HETATM   22  C3  UNL     1       9.110  15.541  20.496  1.00  0.00     0.026 C 
HETATM   23  S2  UNL     1       7.302  14.195  19.042  1.00  0.00    -0.148 SA
HETATM   24  C13 UNL     1       6.750  12.623  19.743  1.00  0.00     0.022 C 
HETATM   25  C14 UNL     1       7.677  11.492  19.382  1.00  0.00     0.029 C 
HETATM   26  C15 UNL     1       5.399  12.297  19.100  1.00  0.00     0.029 C 
ENDBRANCH   1  18
TORSDOF 6
ENDMDL
MODEL 3
REMARK VINA RESULT: -6.747939099      2.141      2.865
REMARK  6 active torsions:
REMARK  status: ('A' for Active; 'I' for Inactive)
REMARK    1  A    between atoms: C5_5  and  N1_6 
REMARK       I    between atoms: N1_6  and  C6_8 
REMARK    2  A    between atoms: C6_8  and  C7_10 
REMARK    3  A    between atoms: C7_10  and  N2_11 
REMARK    4  A    between atoms: N2_11  and  C8_13 
REMARK    5  A    between atoms: C8_13  and  N3_15 
REMARK    6  A    between atoms: N3_15  and  N4_17 
ROOT
HETATM    1  N1  UNL     1       5.361  10.464  22.623  1.00  0.00    -0.353 N 
ATOM      2  H1  UNL     1       4.824  11.250  22.991  1.00  0.00     0.163 HD
HETATM    3  C6  UNL     1       6.207   9.739  23.490  1.00  0.00     0.235 C 
HETATM    4  O1  UNL     1       6.890   8.758  23.072  1.00  0.00    -0.272 OA
ENDROOT
BRANCH   3   5
HETATM    5  C7  UNL     1       6.293  10.145  24.922  1.00  0.00     0.224 C 
BRANCH   5   6
HETATM    6  N2  UNL     1       5.233   9.473  25.628  1.00  0.00    -0.357 N 
ATOM      7  H2  UNL     1       4.273   9.809  25.555  1.00  0.00     0.162 HD
BRANCH   6   8
HETATM    8  C8  UNL     1       5.532   8.342  26.423  1.00  0.00     0.182 C 
HETATM    9  S1  UNL     1       5.642   6.842  25.772  1.00  0.00    -0.040 SA
BRANCH   8  10
HETATM   10  N3  UNL     1       5.737   8.531  27.812  1.00  0.00    -0.295 N 
ATOM     11  H3  UNL     1       4.946   8.598  28.453  1.00  0.00     0.183 HD
BRANCH  10  12
HETATM   12  N4  UNL     1       7.049   8.622  28.281  1.00  0.00    -0.225 NA
HETATM   13  C9  UNL     1       8.035   8.352  27.268  1.00  0.00     0.140 C 
HETATM   14  C10 UNL     1       9.266   7.794  27.982  1.00  0.00     0.183 C 
HETATM   15  O2  UNL     1       9.408   8.351  29.231  1.00  0.00    -0.389 OA
HETATM   16  C11 UNL     1       8.422   8.010  30.128  1.00  0.00     0.183 C 
HETATM   17  C12 UNL     1       7.182   7.604  29.330  1.00  0.00     0.140 C 
ENDBRANCH  10  12
ENDBRANCH   8  10
ENDBRANCH   6   8
ENDBRANCH   5   6
ENDBRANCH   3   5
BRANCH   1  18
HETATM   18  C5  UNL     1       5.241  10.116  21.235  1.00  0.00     0.103 C 
HETATM   19  C4  UNL     1       3.823  10.134  20.846  1.00  0.00     0.046 C 
HETATM   20  C2  UNL     1       3.627  10.300  19.402  1.00  0.00     0.003 C 
HETATM   21  C1  UNL     1       3.372   8.946  18.747  1.00  0.00     0.026 C 
HETATM   22  C3  UNL     1       2.481  11.255  19.063  1.00  0.00     0.026 C 
HETATM   23  S2  UNL     1       5.144  11.056  18.809  1.00  0.00    -0.148 SA
HETATM   24  C13 UNL     1       6.071  10.967  20.358  1.00  0.00     0.022 C 
HETATM   25  C14 UNL     1       6.367  12.335  20.914  1.00  0.00     0.029 C 
HETATM   26  C15 UNL     1       7.426  10.331  20.031  1.00  0.00     0.029 C 
ENDBRANCH   1  18
TORSDOF 6
ENDMDL
MODEL 4
REMARK VINA RESULT: -6.721228451      4.764      8.151
REMARK  6 active torsions:
REMARK  status: ('A' for Active; 'I' for Inactive)
REMARK    1  A    between atoms: C5_5  and  N1_6 
REMARK       I    between atoms: N1_6  and  C6_8 
REMARK    2  A    between atoms: C6_8  and  C7_10 
REMARK    3  A    between atoms: C7_10  and  N2_11 
REMARK    4  A    between atoms: N2_11  and  C8_13 
REMARK    5  A    between atoms: C8_13  and  N3_15 
REMARK    6  A    between atoms: N3_15  and  N4_17 
ROOT
HETATM    1  N1  UNL     1       5.892  10.414  24.707  1.00  0.00    -0.353 N 
ATOM      2  H1  UNL     1       4.987  10.633  25.126  1.00  0.00     0.163 HD
HETATM    3  C6  UNL     1       6.383  11.222  23.660  1.00  0.00     0.235 C 
HETATM    4  O1  UNL     1       7.501  10.983  23.115  1.00  0.00    -0.272 OA
ENDROOT
BRANCH   3   5
HETATM    5  C7  UNL     1       5.563  12.378  23.194  1.00  0.00     0.224 C 
BRANCH   5   6
HETATM    6  N2  UNL     1       6.402  13.548  23.228  1.00  0.00    -0.357 N 
ATOM      7  H2  UNL     1       6.791  13.875  24.112  1.00  0.00     0.162 HD
BRANCH   6   8
HETATM    8  C8  UNL     1       6.683  14.240  22.027  1.00  0.00     0.182 C 
HETATM    9  S1  UNL     1       7.290  13.468  20.715  1.00  0.00    -0.040 SA
BRANCH   8  10
HETATM   10  N3  UNL     1       6.428  15.632  21.978  1.00  0.00    -0.295 N 
ATOM     11  H3  UNL     1       5.848  16.083  22.686  1.00  0.00     0.183 HD
BRANCH  10  12
HETATM   12  N4  UNL     1       6.991  16.372  20.936  1.00  0.00    -0.225 NA
HETATM   13  C9  UNL     1       7.895  17.396  21.389  1.00  0.00     0.140 C 
HETATM   14  C10 UNL     1       7.868  18.510  20.342  1.00  0.00     0.183 C 
HETATM   15  O2  UNL     1       7.668  17.997  19.081  1.00  0.00    -0.389 OA
HETATM   16  C11 UNL     1       6.429  17.433  18.880  1.00  0.00     0.183 C 
HETATM   17  C12 UNL     1       5.873  17.024  20.243  1.00  0.00     0.140 C 
ENDBRANCH  10  12
ENDBRANCH   8  10
ENDBRANCH   6   8
ENDBRANCH   5   6
ENDBRANCH   3   5
BRANCH   1  18
HETATM   18  C5  UNL     1       6.640   9.289  25.195  1.00  0.00     0.103 C 
HETATM   19  C4  UNL     1       6.735   9.361  26.661  1.00  0.00     0.046 C 
HETATM   20  C2  UNL     1       7.010   8.061  27.282  1.00  0.00     0.003 C 
HETATM   21  C1  UNL     1       8.497   7.933  27.596  1.00  0.00     0.026 C 
HETATM   22  C3  UNL     1       6.197   7.827  28.556  1.00  0.00     0.026 C 
HETATM   23  S2  UNL     1       6.472   6.845  26.075  1.00  0.00    -0.148 SA
HETATM   24  C13 UNL     1       6.095   7.995  24.733  1.00  0.00     0.022 C 
HETATM   25  C14 UNL     1       4.624   8.018  24.410  1.00  0.00     0.029 C 
HETATM   26  C15 UNL     1       6.804   7.470  23.482  1.00  0.00     0.029 C 
ENDBRANCH   1  18
TORSDOF 6
ENDMDL
MODEL 5
REMARK VINA RESULT: -6.564998019      2.349      3.232
REMARK  6 active torsions:
REMARK  status: ('A' for Active; 'I' for Inactive)
REMARK    1  A    between atoms: C5_5  and  N1_6 
REMARK       I    between atoms: N1_6  and  C6_8 
REMARK    2  A    between atoms: C6_8  and  C7_10 
REMARK    3  A    between atoms: C7_10  and  N2_11 
REMARK    4  A    between atoms: N2_11  and  C8_13 
REMARK    5  A    between atoms: C8_13  and  N3_15 
REMARK    6  A    between atoms: N3_15  and  N4_17 
ROOT
HETATM    1  N1  UNL     1       4.856   9.672  23.135  1.00  0.00    -0.353 N 
ATOM      2  H1  UNL     1       4.565  10.573  23.514  1.00  0.00     0.163 HD
HETATM    3  C6  UNL     1       5.076   8.590  24.015  1.00  0.00     0.235 C 
HETATM    4  O1  UNL     1       5.439   7.456  23.583  1.00  0.00    -0.272 OA
ENDROOT
BRANCH   3   5
HETATM    5  C7  UNL     1       4.876   8.797  25.478  1.00  0.00     0.224 C 
BRANCH   5   6
HETATM    6  N2  UNL     1       6.031   9.495  25.980  1.00  0.00    -0.357 N 
ATOM      7  H2  UNL     1       6.179  10.478  25.749  1.00  0.00     0.162 HD
BRANCH   6   8
HETATM    8  C8  UNL     1       6.961   8.809  26.796  1.00  0.00     0.182 C 
HETATM    9  S1  UNL     1       8.302   8.110  26.165  1.00  0.00    -0.040 SA
BRANCH   8  10
HETATM   10  N3  UNL     1       6.708   8.735  28.188  1.00  0.00    -0.295 N 
ATOM     11  H3  UNL     1       5.989   9.315  28.621  1.00  0.00     0.183 HD
BRANCH  10  12
HETATM   12  N4  UNL     1       7.470   7.849  28.952  1.00  0.00    -0.225 NA
HETATM   13  C9  UNL     1       6.672   6.907  29.693  1.00  0.00     0.140 C 
HETATM   14  C10 UNL     1       7.474   6.526  30.938  1.00  0.00     0.183 C 
HETATM   15  O2  UNL     1       8.824   6.533  30.677  1.00  0.00    -0.389 OA
HETATM   16  C11 UNL     1       9.352   7.774  30.409  1.00  0.00     0.183 C 
HETATM   17  C12 UNL     1       8.217   8.670  29.913  1.00  0.00     0.140 C 
ENDBRANCH  10  12
ENDBRANCH   8  10
ENDBRANCH   6   8
ENDBRANCH   5   6
ENDBRANCH   3   5
BRANCH   1  18
HETATM   18  C5  UNL     1       5.035   9.528  21.717  1.00  0.00     0.103 C 
HETATM   19  C4  UNL     1       3.756   9.774  21.034  1.00  0.00     0.046 C 
HETATM   20  C2  UNL     1       3.921  10.152  19.627  1.00  0.00     0.003 C 
HETATM   21  C1  UNL     1       3.705   8.939  18.728  1.00  0.00     0.026 C 
HETATM   22  C3  UNL     1       2.980  11.279  19.199  1.00  0.00     0.026 C 
HETATM   23  S2  UNL     1       5.598  10.784  19.507  1.00  0.00    -0.148 SA
HETATM   24  C13 UNL     1       6.123  10.376  21.188  1.00  0.00     0.022 C 
HETATM   25  C14 UNL     1       6.404  11.611  22.004  1.00  0.00     0.029 C 
HETATM   26  C15 UNL     1       7.453   9.624  21.071  1.00  0.00     0.029 C 
ENDBRANCH   1  18
TORSDOF 6
ENDMDL
