MODEL 1
REMARK VINA RESULT: -6.139769231      0.000      0.000
REMARK  7 active torsions:
REMARK  status: ('A' for Active; 'I' for Inactive)
REMARK    1  A    between atoms: O1_2  and  C2_3 
REMARK    2  A    between atoms: C2_3  and  C5_6 
REMARK    3  A    between atoms: C5_6  and  C6_7 
REMARK    4  A    between atoms: C11_12  and  O2_13 
REMARK    5  A    between atoms: C13_17  and  O3_18 
REMARK    6  A    between atoms: C18_24  and  O4_25 
REMARK    7  A    between atoms: C18_24  and  O5_27 
ROOT
HETATM    1  C6  UNL     1       6.044   7.721  22.461  1.00  0.00     0.036 C 
HETATM    2  C7  UNL     1       6.835   7.902  23.772  1.00  0.00     0.238 C 
HETATM    3  C8  UNL     1       6.542   9.042  24.652  1.00  0.00     0.037 C 
HETATM    4  C9  UNL     1       5.690   8.649  25.874  1.00  0.00     0.007 C 
HETATM    5  C10 UNL     1       6.411   7.440  26.459  1.00  0.00     0.064 C 
HETATM    6  C11 UNL     1       6.142   6.316  25.495  1.00  0.00     0.357 C 
HETATM    7  N1  UNL     1       6.431   6.637  24.184  1.00  0.00     0.130 N 
HETATM    8  C12 UNL     1       5.375   6.622  23.192  1.00  0.00     0.266 C 
HETATM    9  C13 UNL     1       5.291   5.263  22.640  1.00  0.00     0.152 C 
HETATM   10  C14 UNL     1       6.584   4.478  22.565  1.00  0.00     0.034 C 
HETATM   11  C15 UNL     1       7.385   4.861  21.306  1.00  0.00     0.013 C 
HETATM   12  C16 UNL     1       7.865   6.242  21.664  1.00  0.00     0.058 A 
HETATM   13  C17 UNL     1       6.761   7.161  21.315  1.00  0.00     0.070 A 
HETATM   14  C18 UNL     1       8.082   7.371  20.807  1.00  0.00     0.170 A 
ENDROOT
BRANCH   1  15
HETATM   15  C5  UNL     1       5.241   8.970  22.301  1.00  0.00     0.051 C 
BRANCH  15  16
HETATM   16  C2  UNL     1       4.688   9.420  21.035  1.00  0.00     0.054 C 
HETATM   17  C3  UNL     1       5.721  10.079  20.103  1.00  0.00     0.045 C 
HETATM   18  C4  UNL     1       3.463  10.284  21.071  1.00  0.00     0.045 C 
BRANCH  16  19
HETATM   19  O1  UNL     1       4.346   8.277  20.317  1.00  0.00    -0.386 OA
HETATM   20  C1  UNL     1       4.085   8.417  18.996  1.00  0.00     0.202 C 
ENDBRANCH  16  19
ENDBRANCH  15  16
ENDBRANCH   1  15
BRANCH   9  21
HETATM   21  O3  UNL     1       4.616   5.030  21.484  1.00  0.00    -0.393 OA
ATOM     22  H3  UNL     1       5.058   5.099  20.646  1.00  0.00     0.210 HD
ENDBRANCH   9  21
BRANCH  14  23
HETATM   23  O4  UNL     1       8.884   8.418  21.259  1.00  0.00    -0.365 OA
ATOM     24  H4  UNL     1       8.830   9.261  20.823  1.00  0.00     0.213 HD
ENDBRANCH  14  23
BRANCH  14  25
HETATM   25  O5  UNL     1       8.376   7.062  19.462  1.00  0.00    -0.359 OA
HETATM   26  C19 UNL     1       9.782   7.078  19.385  1.00  0.00     0.205 C 
ENDBRANCH  14  25
BRANCH   6  27
HETATM   27  O2  UNL     1       4.843   5.807  25.643  1.00  0.00    -0.368 OA
ATOM     28  H2  UNL     1       4.187   6.434  25.361  1.00  0.00     0.212 HD
ENDBRANCH   6  27
TORSDOF 7
ENDMDL
MODEL 2
REMARK VINA RESULT: -6.134496213      0.867      1.329
REMARK  7 active torsions:
REMARK  status: ('A' for Active; 'I' for Inactive)
REMARK    1  A    between atoms: O1_2  and  C2_3 
REMARK    2  A    between atoms: C2_3  and  C5_6 
REMARK    3  A    between atoms: C5_6  and  C6_7 
REMARK    4  A    between atoms: C11_12  and  O2_13 
REMARK    5  A    between atoms: C13_17  and  O3_18 
REMARK    6  A    between atoms: C18_24  and  O4_25 
REMARK    7  A    between atoms: C18_24  and  O5_27 
ROOT
HETATM    1  C6  UNL     1       5.802   7.742  22.383  1.00  0.00     0.036 C 
HETATM    2  C7  UNL     1       6.632   8.043  23.647  1.00  0.00     0.238 C 
HETATM    3  C8  UNL     1       6.252   9.161  24.521  1.00  0.00     0.037 C 
HETATM    4  C9  UNL     1       5.515   8.701  25.793  1.00  0.00     0.007 C 
HETATM    5  C10 UNL     1       6.400   7.598  26.360  1.00  0.00     0.064 C 
HETATM    6  C11 UNL     1       6.217   6.428  25.431  1.00  0.00     0.357 C 
HETATM    7  N1  UNL     1       6.400   6.750  24.101  1.00  0.00     0.130 N 
HETATM    8  C12 UNL     1       5.304   6.590  23.166  1.00  0.00     0.266 C 
HETATM    9  C13 UNL     1       5.352   5.217  22.643  1.00  0.00     0.152 C 
HETATM   10  C14 UNL     1       6.723   4.586  22.514  1.00  0.00     0.034 C 
HETATM   11  C15 UNL     1       7.409   5.031  21.208  1.00  0.00     0.013 C 
HETATM   12  C16 UNL     1       7.742   6.466  21.516  1.00  0.00     0.058 A 
HETATM   13  C17 UNL     1       6.521   7.242  21.211  1.00  0.00     0.070 A 
HETATM   14  C18 UNL     1       7.781   7.592  20.630  1.00  0.00     0.170 A 
ENDROOT
BRANCH   1  15
HETATM   15  C5  UNL     1       4.852   8.884  22.244  1.00  0.00     0.051 C 
BRANCH  15  16
HETATM   16  C2  UNL     1       4.583   9.567  20.989  1.00  0.00     0.054 C 
HETATM   17  C3  UNL     1       3.464  10.621  21.081  1.00  0.00     0.045 C 
HETATM   18  C4  UNL     1       4.346   8.728  19.770  1.00  0.00     0.045 C 
BRANCH  16  19
HETATM   19  O1  UNL     1       5.696  10.358  20.716  1.00  0.00    -0.386 OA
HETATM   20  C1  UNL     1       5.943  11.404  21.538  1.00  0.00     0.202 C 
ENDBRANCH  16  19
ENDBRANCH  15  16
ENDBRANCH   1  15
BRANCH   9  21
HETATM   21  O3  UNL     1       4.652   4.881  21.529  1.00  0.00    -0.393 OA
ATOM     22  H3  UNL     1       3.764   4.552  21.600  1.00  0.00     0.210 HD
ENDBRANCH   9  21
BRANCH  14  23
HETATM   23  O4  UNL     1       8.476   8.736  21.020  1.00  0.00    -0.365 OA
ATOM     24  H4  UNL     1       9.011   9.191  20.381  1.00  0.00     0.213 HD
ENDBRANCH  14  23
BRANCH  14  25
HETATM   25  O5  UNL     1       8.041   7.288  19.277  1.00  0.00    -0.359 OA
HETATM   26  C19 UNL     1       7.913   8.516  18.599  1.00  0.00     0.205 C 
ENDBRANCH  14  25
BRANCH   6  27
HETATM   27  O2  UNL     1       4.995   5.775  25.656  1.00  0.00    -0.368 OA
ATOM     28  H2  UNL     1       5.041   5.197  26.409  1.00  0.00     0.212 HD
ENDBRANCH   6  27
TORSDOF 7
ENDMDL
MODEL 3
REMARK VINA RESULT: -6.074772244      1.921      4.622
REMARK  7 active torsions:
REMARK  status: ('A' for Active; 'I' for Inactive)
REMARK    1  A    between atoms: O1_2  and  C2_3 
REMARK    2  A    between atoms: C2_3  and  C5_6 
REMARK    3  A    between atoms: C5_6  and  C6_7 
REMARK    4  A    between atoms: C11_12  and  O2_13 
REMARK    5  A    between atoms: C13_17  and  O3_18 
REMARK    6  A    between atoms: C18_24  and  O4_25 
REMARK    7  A    between atoms: C18_24  and  O5_27 
ROOT
HETATM    1  C6  UNL     1       6.727   6.349  22.951  1.00  0.00     0.036 C 
HETATM    2  C7  UNL     1       5.543   6.834  23.811  1.00  0.00     0.238 C 
HETATM    3  C8  UNL     1       5.377   6.325  25.179  1.00  0.00     0.037 C 
HETATM    4  C9  UNL     1       5.843   7.329  26.250  1.00  0.00     0.007 C 
HETATM    5  C10 UNL     1       5.154   8.633  25.867  1.00  0.00     0.064 C 
HETATM    6  C11 UNL     1       5.872   9.110  24.633  1.00  0.00     0.357 C 
HETATM    7  N1  UNL     1       5.972   8.147  23.649  1.00  0.00     0.130 N 
HETATM    8  C12 UNL     1       7.279   7.696  23.216  1.00  0.00     0.266 C 
HETATM    9  C13 UNL     1       7.726   8.578  22.130  1.00  0.00     0.152 C 
HETATM   10  C14 UNL     1       6.650   9.154  21.234  1.00  0.00     0.034 C 
HETATM   11  C15 UNL     1       6.243   8.142  20.146  1.00  0.00     0.013 C 
HETATM   12  C16 UNL     1       5.483   7.123  20.952  1.00  0.00     0.058 A 
HETATM   13  C17 UNL     1       6.498   6.206  21.513  1.00  0.00     0.070 A 
HETATM   14  C18 UNL     1       5.391   5.706  20.756  1.00  0.00     0.170 A 
ENDROOT
BRANCH   1  15
HETATM   15  C5  UNL     1       7.352   5.234  23.721  1.00  0.00     0.051 C 
BRANCH  15  16
HETATM   16  C2  UNL     1       7.355   3.848  23.282  1.00  0.00     0.054 C 
HETATM   17  C3  UNL     1       7.939   2.868  24.316  1.00  0.00     0.045 C 
HETATM   18  C4  UNL     1       7.953   3.536  21.943  1.00  0.00     0.045 C 
BRANCH  16  19
HETATM   19  O1  UNL     1       6.025   3.441  23.227  1.00  0.00    -0.386 OA
HETATM   20  C1  UNL     1       5.769   2.112  23.250  1.00  0.00     0.202 C 
ENDBRANCH  16  19
ENDBRANCH  15  16
ENDBRANCH   1  15
BRANCH   9  21
HETATM   21  O3  UNL     1       8.759   8.212  21.327  1.00  0.00    -0.393 OA
ATOM     22  H3  UNL     1       8.821   7.324  20.997  1.00  0.00     0.210 HD
ENDBRANCH   9  21
BRANCH  14  23
HETATM   23  O4  UNL     1       4.347   5.007  21.360  1.00  0.00    -0.365 OA
ATOM     24  H4  UNL     1       3.786   5.459  21.979  1.00  0.00     0.213 HD
ENDBRANCH  14  23
BRANCH  14  25
HETATM   25  O5  UNL     1       5.587   5.265  19.431  1.00  0.00    -0.359 OA
HETATM   26  C19 UNL     1       4.292   5.007  18.939  1.00  0.00     0.205 C 
ENDBRANCH  14  25
BRANCH   6  27
HETATM   27  O2  UNL     1       7.116   9.680  24.946  1.00  0.00    -0.368 OA
ATOM     28  H2  UNL     1       7.029  10.591  25.201  1.00  0.00     0.212 HD
ENDBRANCH   6  27
TORSDOF 7
ENDMDL
MODEL 4
REMARK VINA RESULT: -5.987662094      0.713      1.029
REMARK  7 active torsions:
REMARK  status: ('A' for Active; 'I' for Inactive)
REMARK    1  A    between atoms: O1_2  and  C2_3 
REMARK    2  A    between atoms: C2_3  and  C5_6 
REMARK    3  A    between atoms: C5_6  and  C6_7 
REMARK    4  A    between atoms: C11_12  and  O2_13 
REMARK    5  A    between atoms: C13_17  and  O3_18 
REMARK    6  A    between atoms: C18_24  and  O4_25 
REMARK    7  A    between atoms: C18_24  and  O5_27 
ROOT
HETATM    1  C6  UNL     1       6.076   7.685  22.473  1.00  0.00     0.036 C 
HETATM    2  C7  UNL     1       6.882   7.844  23.777  1.00  0.00     0.238 C 
HETATM    3  C8  UNL     1       6.607   8.975  24.673  1.00  0.00     0.037 C 
HETATM    4  C9  UNL     1       5.765   8.574  25.900  1.00  0.00     0.007 C 
HETATM    5  C10 UNL     1       6.482   7.353  26.463  1.00  0.00     0.064 C 
HETATM    6  C11 UNL     1       6.195   6.242  25.488  1.00  0.00     0.357 C 
HETATM    7  N1  UNL     1       6.472   6.577  24.178  1.00  0.00     0.130 N 
HETATM    8  C12 UNL     1       5.406   6.582  23.197  1.00  0.00     0.266 C 
HETATM    9  C13 UNL     1       5.305   5.230  22.629  1.00  0.00     0.152 C 
HETATM   10  C14 UNL     1       6.591   4.436  22.532  1.00  0.00     0.034 C 
HETATM   11  C15 UNL     1       7.383   4.829  21.269  1.00  0.00     0.013 C 
HETATM   12  C16 UNL     1       7.877   6.201  21.638  1.00  0.00     0.058 A 
HETATM   13  C17 UNL     1       6.776   7.133  21.313  1.00  0.00     0.070 A 
HETATM   14  C18 UNL     1       8.094   7.339  20.793  1.00  0.00     0.170 A 
ENDROOT
BRANCH   1  15
HETATM   15  C5  UNL     1       5.282   8.941  22.336  1.00  0.00     0.051 C 
BRANCH  15  16
HETATM   16  C2  UNL     1       5.134   9.675  21.090  1.00  0.00     0.054 C 
HETATM   17  C3  UNL     1       4.783   8.786  19.882  1.00  0.00     0.045 C 
HETATM   18  C4  UNL     1       6.238  10.606  20.688  1.00  0.00     0.045 C 
BRANCH  16  19
HETATM   19  O1  UNL     1       3.985  10.451  21.214  1.00  0.00    -0.386 OA
HETATM   20  C1  UNL     1       3.030  10.321  20.264  1.00  0.00     0.202 C 
ENDBRANCH  16  19
ENDBRANCH  15  16
ENDBRANCH   1  15
BRANCH   9  21
HETATM   21  O3  UNL     1       4.617   5.016  21.478  1.00  0.00    -0.393 OA
ATOM     22  H3  UNL     1       4.034   5.683  21.135  1.00  0.00     0.210 HD
ENDBRANCH   9  21
BRANCH  14  23
HETATM   23  O4  UNL     1       8.909   8.374  21.249  1.00  0.00    -0.365 OA
ATOM     24  H4  UNL     1       8.527   9.059  21.785  1.00  0.00     0.213 HD
ENDBRANCH  14  23
BRANCH  14  25
HETATM   25  O5  UNL     1       8.371   7.044  19.442  1.00  0.00    -0.359 OA
HETATM   26  C19 UNL     1       8.464   8.298  18.808  1.00  0.00     0.205 C 
ENDBRANCH  14  25
BRANCH   6  27
HETATM   27  O2  UNL     1       4.892   5.742  25.643  1.00  0.00    -0.368 OA
ATOM     28  H2  UNL     1       4.777   5.324  26.489  1.00  0.00     0.212 HD
ENDBRANCH   6  27
TORSDOF 7
ENDMDL
MODEL 5
REMARK VINA RESULT: -5.918416755      1.512      4.180
REMARK  7 active torsions:
REMARK  status: ('A' for Active; 'I' for Inactive)
REMARK    1  A    between atoms: O1_2  and  C2_3 
REMARK    2  A    between atoms: C2_3  and  C5_6 
REMARK    3  A    between atoms: C5_6  and  C6_7 
REMARK    4  A    between atoms: C11_12  and  O2_13 
REMARK    5  A    between atoms: C13_17  and  O3_18 
REMARK    6  A    between atoms: C18_24  and  O4_25 
REMARK    7  A    between atoms: C18_24  and  O5_27 
ROOT
HETATM    1  C6  UNL     1       6.659   7.865  22.338  1.00  0.00     0.036 C 
HETATM    2  C7  UNL     1       5.607   7.001  23.063  1.00  0.00     0.238 C 
HETATM    3  C8  UNL     1       5.677   5.537  22.973  1.00  0.00     0.037 C 
HETATM    4  C9  UNL     1       6.267   4.888  24.239  1.00  0.00     0.007 C 
HETATM    5  C10 UNL     1       5.478   5.513  25.383  1.00  0.00     0.064 C 
HETATM    6  C11 UNL     1       5.975   6.931  25.476  1.00  0.00     0.357 C 
HETATM    7  N1  UNL     1       5.955   7.599  24.269  1.00  0.00     0.130 N 
HETATM    8  C12 UNL     1       7.194   8.089  23.699  1.00  0.00     0.266 C 
HETATM    9  C13 UNL     1       7.432   9.440  24.226  1.00  0.00     0.152 C 
HETATM   10  C14 UNL     1       6.207  10.278  24.528  1.00  0.00     0.034 C 
HETATM   11  C15 UNL     1       5.674  10.949  23.248  1.00  0.00     0.013 C 
HETATM   12  C16 UNL     1       5.089   9.774  22.513  1.00  0.00     0.058 A 
HETATM   13  C17 UNL     1       6.213   9.145  21.787  1.00  0.00     0.070 A 
HETATM   14  C18 UNL     1       5.020   9.537  21.101  1.00  0.00     0.170 A 
ENDROOT
BRANCH   1  15
HETATM   15  C5  UNL     1       7.439   6.918  21.488  1.00  0.00     0.051 C 
BRANCH  15  16
HETATM   16  C2  UNL     1       8.388   7.338  20.470  1.00  0.00     0.054 C 
HETATM   17  C3  UNL     1       9.464   6.284  20.150  1.00  0.00     0.045 C 
HETATM   18  C4  UNL     1       9.062   8.666  20.643  1.00  0.00     0.045 C 
BRANCH  16  19
HETATM   19  O1  UNL     1       7.688   7.402  19.269  1.00  0.00    -0.386 OA
HETATM   20  C1  UNL     1       6.768   6.440  19.023  1.00  0.00     0.202 C 
ENDBRANCH  16  19
ENDBRANCH  15  16
ENDBRANCH   1  15
BRANCH   9  21
HETATM   21  O3  UNL     1       8.340  10.260  23.633  1.00  0.00    -0.393 OA
ATOM     22  H3  UNL     1       8.150  11.183  23.517  1.00  0.00     0.210 HD
ENDBRANCH   9  21
BRANCH  14  23
HETATM   23  O4  UNL     1       4.111   8.598  20.615  1.00  0.00    -0.365 OA
ATOM     24  H4  UNL     1       3.369   8.897  20.104  1.00  0.00     0.213 HD
ENDBRANCH  14  23
BRANCH  14  25
HETATM   25  O5  UNL     1       5.022  10.694  20.293  1.00  0.00    -0.359 OA
HETATM   26  C19 UNL     1       5.977  10.434  19.290  1.00  0.00     0.205 C 
ENDBRANCH  14  25
BRANCH   6  27
HETATM   27  O2  UNL     1       7.230   6.999  26.100  1.00  0.00    -0.368 OA
ATOM     28  H2  UNL     1       7.364   7.838  26.526  1.00  0.00     0.212 HD
ENDBRANCH   6  27
TORSDOF 7
ENDMDL
