MODEL 1
REMARK VINA RESULT: -7.932331321      0.000      0.000
REMARK  11 active torsions:
REMARK  status: ('A' for Active; 'I' for Inactive)
REMARK    1  A    between atoms: C2_2  and  C3_3 
REMARK    2  A    between atoms: C6_8  and  C7_9 
REMARK    3  A    between atoms: C7_9  and  C8_10 
REMARK    4  A    between atoms: C9_13  and  C10_14 
REMARK    5  A    between atoms: C10_14  and  C11_15 
REMARK    6  A    between atoms: C11_15  and  C12_16 
REMARK       I    between atoms: C12_16  and  N3_18 
REMARK    7  A    between atoms: N3_18  and  C13_19 
REMARK    8  A    between atoms: N3_18  and  C15_21 
REMARK    9  A    between atoms: C17_23  and  C18_24 
REMARK   10  A    between atoms: N4_29  and  C22_30 
REMARK   11  A    between atoms: C22_30  and  C23_31 
ROOT
HETATM    1  C3  UNL     1      23.400  27.534  23.319  1.00  0.00     0.084 A 
HETATM    2  N1  UNL     1      24.010  27.351  22.110  1.00  0.00    -0.347 N 
ATOM      3  H1  UNL     1      24.837  26.774  21.950  1.00  0.00     0.167 HD
HETATM    4  C4  UNL     1      23.366  28.036  21.178  1.00  0.00     0.033 A 
HETATM    5  C5  UNL     1      23.748  28.117  19.726  1.00  0.00     0.070 C 
HETATM    6  C6  UNL     1      22.288  28.699  21.773  1.00  0.00     0.060 A 
HETATM    7  N4  UNL     1      22.354  28.355  23.098  1.00  0.00    -0.331 N 
ENDROOT
BRANCH   6   8
HETATM    8  C7  UNL     1      21.359  29.591  21.131  1.00  0.00     0.061 C 
BRANCH   8   9
HETATM    9  C8  UNL     1      21.530  30.885  20.860  1.00  0.00     0.041 A 
HETATM   10  N2  UNL     1      22.288  31.723  21.612  1.00  0.00    -0.355 N 
HETATM   11  C9  UNL     1      22.274  32.980  21.123  1.00  0.00     0.043 A 
ATOM     12  H2  UNL     1      22.804  31.437  22.444  1.00  0.00     0.166 HD
HETATM   13  C17 UNL     1      21.481  32.973  20.011  1.00  0.00     0.044 A 
HETATM   14  C20 UNL     1      21.017  31.653  19.854  1.00  0.00    -0.019 A 
HETATM   15  C21 UNL     1      20.103  31.254  18.749  1.00  0.00     0.052 C 
BRANCH  11  16
HETATM   16  C10 UNL     1      22.931  33.985  21.678  1.00  0.00     0.013 C 
BRANCH  16  17
HETATM   17  C11 UNL     1      24.374  34.179  21.651  1.00  0.00     0.132 C 
BRANCH  17  18
HETATM   18  C12 UNL     1      25.036  33.444  22.776  1.00  0.00     0.223 C 
HETATM   19  O1  UNL     1      25.013  33.985  23.911  1.00  0.00    -0.273 OA
HETATM   20  N3  UNL     1      25.675  32.194  22.635  1.00  0.00    -0.353 N 
BRANCH  20  21
HETATM   21  C13 UNL     1      25.771  31.468  21.381  1.00  0.00     0.121 C 
HETATM   22  C14 UNL     1      27.014  31.783  20.613  1.00  0.00     0.026 C 
ENDBRANCH  20  21
BRANCH  20  23
HETATM   23  C15 UNL     1      26.274  31.604  23.846  1.00  0.00     0.121 C 
HETATM   24  C16 UNL     1      25.931  30.162  24.012  1.00  0.00     0.026 C 
ENDBRANCH  20  23
ENDBRANCH  17  18
ENDBRANCH  16  17
ENDBRANCH  11  16
BRANCH  13  25
HETATM   25  C18 UNL     1      21.119  34.052  19.077  1.00  0.00     0.158 C 
HETATM   26  C19 UNL     1      19.818  34.723  19.034  1.00  0.00     0.097 C 
HETATM   27  O2  UNL     1      21.995  34.427  18.246  1.00  0.00    -0.293 OA
ENDBRANCH  13  25
ENDBRANCH   8   9
ENDBRANCH   6   8
BRANCH   7  28
HETATM   28  C22 UNL     1      21.448  28.796  24.121  1.00  0.00     0.169 C 
BRANCH  28  29
HETATM   29  C23 UNL     1      20.194  28.036  24.300  1.00  0.00    -0.035 A 
HETATM   30  C24 UNL     1      19.791  26.976  23.524  1.00  0.00     0.026 A 
HETATM   31  C25 UNL     1      18.596  26.288  23.787  1.00  0.00     0.090 A 
HETATM   32  N5  UNL     1      17.827  26.669  24.818  1.00  0.00    -0.353 N 
HETATM   33  C26 UNL     1      18.167  27.686  25.601  1.00  0.00     0.099 A 
ATOM     34  H5  UNL     1      16.959  26.166  25.005  1.00  0.00     0.166 HD
HETATM   35  N6  UNL     1      17.367  27.997  26.582  1.00  0.00    -0.385 N 
HETATM   36  C27 UNL     1      19.324  28.358  25.352  1.00  0.00     0.056 A 
ATOM     37  H62 UNL     1      16.500  27.493  26.769  1.00  0.00     0.157 HD
ATOM     38  H61 UNL     1      17.628  28.778  27.184  1.00  0.00     0.157 HD
ENDBRANCH  28  29
ENDBRANCH   7  28
BRANCH   1  39
HETATM   39  C2  UNL     1      23.908  26.941  24.599  1.00  0.00     0.072 C 
HETATM   40  C1  UNL     1      25.217  26.198  24.280  1.00  0.00     0.013 C 
ENDBRANCH   1  39
TORSDOF 11
ENDMDL
MODEL 2
REMARK VINA RESULT: -7.754523257      2.107      5.705
REMARK  11 active torsions:
REMARK  status: ('A' for Active; 'I' for Inactive)
REMARK    1  A    between atoms: C2_2  and  C3_3 
REMARK    2  A    between atoms: C6_8  and  C7_9 
REMARK    3  A    between atoms: C7_9  and  C8_10 
REMARK    4  A    between atoms: C9_13  and  C10_14 
REMARK    5  A    between atoms: C10_14  and  C11_15 
REMARK    6  A    between atoms: C11_15  and  C12_16 
REMARK       I    between atoms: C12_16  and  N3_18 
REMARK    7  A    between atoms: N3_18  and  C13_19 
REMARK    8  A    between atoms: N3_18  and  C15_21 
REMARK    9  A    between atoms: C17_23  and  C18_24 
REMARK   10  A    between atoms: N4_29  and  C22_30 
REMARK   11  A    between atoms: C22_30  and  C23_31 
ROOT
HETATM    1  C3  UNL     1      21.016  27.575  24.012  1.00  0.00     0.084 A 
HETATM    2  N1  UNL     1      21.968  27.399  24.975  1.00  0.00    -0.347 N 
ATOM      3  H1  UNL     1      21.828  26.905  25.857  1.00  0.00     0.167 HD
HETATM    4  C4  UNL     1      23.101  27.965  24.590  1.00  0.00     0.033 A 
HETATM    5  C5  UNL     1      24.374  28.015  25.389  1.00  0.00     0.070 C 
HETATM    6  C6  UNL     1      22.911  28.539  23.329  1.00  0.00     0.060 A 
HETATM    7  N4  UNL     1      21.604  28.270  23.017  1.00  0.00    -0.331 N 
ENDROOT
BRANCH   6   8
HETATM    8  C7  UNL     1      23.869  29.296  22.568  1.00  0.00     0.061 C 
BRANCH   8   9
HETATM    9  C8  UNL     1      23.958  30.622  22.462  1.00  0.00     0.041 A 
HETATM   10  N2  UNL     1      23.080  31.387  21.763  1.00  0.00    -0.355 N 
HETATM   11  C9  UNL     1      23.415  32.692  21.807  1.00  0.00     0.043 A 
ATOM     12  H2  UNL     1      22.269  31.019  21.267  1.00  0.00     0.166 HD
HETATM   13  C17 UNL     1      24.551  32.795  22.558  1.00  0.00     0.044 A 
HETATM   14  C20 UNL     1      24.885  31.489  22.964  1.00  0.00    -0.019 A 
HETATM   15  C21 UNL     1      26.086  31.193  23.794  1.00  0.00     0.052 C 
BRANCH  11  16
HETATM   16  C10 UNL     1      22.723  33.642  21.201  1.00  0.00     0.013 C 
BRANCH  16  17
HETATM   17  C11 UNL     1      21.274  33.788  21.226  1.00  0.00     0.132 C 
BRANCH  17  18
HETATM   18  C12 UNL     1      20.628  32.910  20.198  1.00  0.00     0.223 C 
HETATM   19  O1  UNL     1      20.647  31.669  20.406  1.00  0.00    -0.273 OA
HETATM   20  N3  UNL     1      20.005  33.389  19.027  1.00  0.00    -0.353 N 
BRANCH  20  21
HETATM   21  C13 UNL     1      19.916  34.796  18.673  1.00  0.00     0.121 C 
HETATM   22  C14 UNL     1      18.529  35.228  18.323  1.00  0.00     0.026 C 
ENDBRANCH  20  21
BRANCH  20  23
HETATM   23  C15 UNL     1      19.413  32.389  18.121  1.00  0.00     0.121 C 
HETATM   24  C16 UNL     1      20.183  32.237  16.852  1.00  0.00     0.026 C 
ENDBRANCH  20  23
ENDBRANCH  17  18
ENDBRANCH  16  17
ENDBRANCH  11  16
BRANCH  13  25
HETATM   25  C18 UNL     1      25.349  33.970  22.946  1.00  0.00     0.158 C 
HETATM   26  C19 UNL     1      26.298  34.665  22.075  1.00  0.00     0.097 C 
HETATM   27  O2  UNL     1      25.207  34.411  24.123  1.00  0.00    -0.293 OA
ENDBRANCH  13  25
ENDBRANCH   8   9
ENDBRANCH   6   8
BRANCH   7  28
HETATM   28  C22 UNL     1      20.936  28.663  21.807  1.00  0.00     0.169 C 
BRANCH  28  29
HETATM   29  C23 UNL     1      21.079  27.782  20.630  1.00  0.00    -0.035 A 
HETATM   30  C24 UNL     1      20.404  26.602  20.434  1.00  0.00     0.026 A 
HETATM   31  C25 UNL     1      20.577  25.843  19.266  1.00  0.00     0.090 A 
HETATM   32  N5  UNL     1      21.419  26.276  18.315  1.00  0.00    -0.353 N 
HETATM   33  C26 UNL     1      22.098  27.409  18.451  1.00  0.00     0.099 A 
ATOM     34  H5  UNL     1      21.541  25.721  17.468  1.00  0.00     0.166 HD
HETATM   35  N6  UNL     1      22.898  27.762  17.484  1.00  0.00    -0.385 N 
HETATM   36  C27 UNL     1      21.936  28.149  19.581  1.00  0.00     0.056 A 
ATOM     37  H62 UNL     1      23.019  27.206  16.637  1.00  0.00     0.157 HD
ATOM     38  H61 UNL     1      23.419  28.632  17.588  1.00  0.00     0.157 HD
ENDBRANCH  28  29
ENDBRANCH   7  28
BRANCH   1  39
HETATM   39  C2  UNL     1      19.600  27.103  24.153  1.00  0.00     0.072 C 
HETATM   40  C1  UNL     1      18.985  27.830  25.362  1.00  0.00     0.013 C 
ENDBRANCH   1  39
TORSDOF 11
ENDMDL
MODEL 3
REMARK VINA RESULT: -7.566488615      3.325      8.521
REMARK  11 active torsions:
REMARK  status: ('A' for Active; 'I' for Inactive)
REMARK    1  A    between atoms: C2_2  and  C3_3 
REMARK    2  A    between atoms: C6_8  and  C7_9 
REMARK    3  A    between atoms: C7_9  and  C8_10 
REMARK    4  A    between atoms: C9_13  and  C10_14 
REMARK    5  A    between atoms: C10_14  and  C11_15 
REMARK    6  A    between atoms: C11_15  and  C12_16 
REMARK       I    between atoms: C12_16  and  N3_18 
REMARK    7  A    between atoms: N3_18  and  C13_19 
REMARK    8  A    between atoms: N3_18  and  C15_21 
REMARK    9  A    between atoms: C17_23  and  C18_24 
REMARK   10  A    between atoms: N4_29  and  C22_30 
REMARK   11  A    between atoms: C22_30  and  C23_31 
ROOT
HETATM    1  C3  UNL     1      20.053  33.345  19.024  1.00  0.00     0.084 A 
HETATM    2  N1  UNL     1      20.606  34.166  19.965  1.00  0.00    -0.347 N 
ATOM      3  H1  UNL     1      20.269  35.100  20.201  1.00  0.00     0.167 HD
HETATM    4  C4  UNL     1      21.645  33.566  20.523  1.00  0.00     0.033 A 
HETATM    5  C5  UNL     1      22.538  34.157  21.579  1.00  0.00     0.070 C 
HETATM    6  C6  UNL     1      21.798  32.302  19.945  1.00  0.00     0.060 A 
HETATM    7  N4  UNL     1      20.787  32.215  19.023  1.00  0.00    -0.331 N 
ENDROOT
BRANCH   6   8
HETATM    8  C7  UNL     1      22.832  31.341  20.224  1.00  0.00     0.061 C 
BRANCH   8   9
HETATM    9  C8  UNL     1      22.810  30.365  21.132  1.00  0.00     0.041 A 
HETATM   10  N2  UNL     1      21.677  29.748  21.555  1.00  0.00    -0.355 N 
HETATM   11  C9  UNL     1      21.940  28.811  22.488  1.00  0.00     0.043 A 
ATOM     12  H2  UNL     1      20.743  29.966  21.208  1.00  0.00     0.166 HD
HETATM   13  C17 UNL     1      23.291  28.808  22.691  1.00  0.00     0.044 A 
HETATM   14  C20 UNL     1      23.829  29.788  21.836  1.00  0.00    -0.019 A 
HETATM   15  C21 UNL     1      25.286  30.091  21.785  1.00  0.00     0.052 C 
BRANCH  11  16
HETATM   16  C10 UNL     1      21.005  28.072  23.062  1.00  0.00     0.013 C 
BRANCH  16  17
HETATM   17  C11 UNL     1      20.586  28.158  24.454  1.00  0.00     0.132 C 
BRANCH  17  18
HETATM   18  C12 UNL     1      19.261  27.489  24.659  1.00  0.00     0.223 C 
HETATM   19  O1  UNL     1      18.915  26.625  23.813  1.00  0.00    -0.273 OA
HETATM   20  N3  UNL     1      18.392  27.768  25.734  1.00  0.00    -0.353 N 
BRANCH  20  21
HETATM   21  C13 UNL     1      18.675  28.742  26.774  1.00  0.00     0.121 C 
HETATM   22  C14 UNL     1      17.483  29.559  27.155  1.00  0.00     0.026 C 
ENDBRANCH  20  21
BRANCH  20  23
HETATM   23  C15 UNL     1      17.126  27.016  25.790  1.00  0.00     0.121 C 
HETATM   24  C16 UNL     1      15.981  27.773  25.204  1.00  0.00     0.026 C 
ENDBRANCH  20  23
ENDBRANCH  17  18
ENDBRANCH  16  17
ENDBRANCH  11  16
BRANCH  13  25
HETATM   25  C18 UNL     1      24.132  27.990  23.580  1.00  0.00     0.158 C 
HETATM   26  C19 UNL     1      24.307  28.220  25.015  1.00  0.00     0.097 C 
HETATM   27  O2  UNL     1      24.753  27.016  23.065  1.00  0.00    -0.293 OA
ENDBRANCH  13  25
ENDBRANCH   8   9
ENDBRANCH   6   8
BRANCH   7  28
HETATM   28  C22 UNL     1      20.531  31.089  18.169  1.00  0.00     0.169 C 
BRANCH  28  29
HETATM   29  C23 UNL     1      21.390  30.924  16.979  1.00  0.00    -0.035 A 
HETATM   30  C24 UNL     1      22.276  29.894  16.775  1.00  0.00     0.026 A 
HETATM   31  C25 UNL     1      23.030  29.797  15.595  1.00  0.00     0.090 A 
HETATM   32  N5  UNL     1      22.886  30.729  14.640  1.00  0.00    -0.353 N 
HETATM   33  C26 UNL     1      22.044  31.746  14.783  1.00  0.00     0.099 A 
ATOM     34  H5  UNL     1      23.436  30.655  13.785  1.00  0.00     0.166 HD
HETATM   35  N6  UNL     1      21.961  32.612  13.811  1.00  0.00    -0.385 N 
HETATM   36  C27 UNL     1      21.311  31.847  15.925  1.00  0.00     0.056 A 
ATOM     37  H62 UNL     1      22.511  32.536  12.956  1.00  0.00     0.157 HD
ATOM     38  H61 UNL     1      21.314  33.393  13.921  1.00  0.00     0.157 HD
ENDBRANCH  28  29
ENDBRANCH   7  28
BRANCH   1  39
HETATM   39  C2  UNL     1      18.889  33.739  18.164  1.00  0.00     0.072 C 
HETATM   40  C1  UNL     1      18.727  35.266  18.272  1.00  0.00     0.013 C 
ENDBRANCH   1  39
TORSDOF 11
ENDMDL
MODEL 4
REMARK VINA RESULT: -7.558622554      1.571      2.460
REMARK  11 active torsions:
REMARK  status: ('A' for Active; 'I' for Inactive)
REMARK    1  A    between atoms: C2_2  and  C3_3 
REMARK    2  A    between atoms: C6_8  and  C7_9 
REMARK    3  A    between atoms: C7_9  and  C8_10 
REMARK    4  A    between atoms: C9_13  and  C10_14 
REMARK    5  A    between atoms: C10_14  and  C11_15 
REMARK    6  A    between atoms: C11_15  and  C12_16 
REMARK       I    between atoms: C12_16  and  N3_18 
REMARK    7  A    between atoms: N3_18  and  C13_19 
REMARK    8  A    between atoms: N3_18  and  C15_21 
REMARK    9  A    between atoms: C17_23  and  C18_24 
REMARK   10  A    between atoms: N4_29  and  C22_30 
REMARK   11  A    between atoms: C22_30  and  C23_31 
ROOT
HETATM    1  C3  UNL     1      23.374  27.665  23.293  1.00  0.00     0.084 A 
HETATM    2  N1  UNL     1      23.981  27.500  22.080  1.00  0.00    -0.347 N 
ATOM      3  H1  UNL     1      24.819  26.943  21.913  1.00  0.00     0.167 HD
HETATM    4  C4  UNL     1      23.316  28.175  21.155  1.00  0.00     0.033 A 
HETATM    5  C5  UNL     1      23.688  28.272  19.701  1.00  0.00     0.070 C 
HETATM    6  C6  UNL     1      22.227  28.812  21.759  1.00  0.00     0.060 A 
HETATM    7  N4  UNL     1      22.309  28.463  23.082  1.00  0.00    -0.331 N 
ENDROOT
BRANCH   6   8
HETATM    8  C7  UNL     1      21.276  29.686  21.126  1.00  0.00     0.061 C 
BRANCH   8   9
HETATM    9  C8  UNL     1      21.431  30.975  20.825  1.00  0.00     0.041 A 
HETATM   10  N2  UNL     1      22.190  31.837  21.551  1.00  0.00    -0.355 N 
HETATM   11  C9  UNL     1      22.159  33.082  21.034  1.00  0.00     0.043 A 
ATOM     12  H2  UNL     1      22.717  31.574  22.383  1.00  0.00     0.166 HD
HETATM   13  C17 UNL     1      21.354  33.044  19.931  1.00  0.00     0.044 A 
HETATM   14  C20 UNL     1      20.901  31.717  19.808  1.00  0.00    -0.019 A 
HETATM   15  C21 UNL     1      19.979  31.285  18.722  1.00  0.00     0.052 C 
BRANCH  11  16
HETATM   16  C10 UNL     1      22.811  34.105  21.559  1.00  0.00     0.013 C 
BRANCH  16  17
HETATM   17  C11 UNL     1      24.062  34.028  22.302  1.00  0.00     0.132 C 
BRANCH  17  18
HETATM   18  C12 UNL     1      25.167  34.725  21.569  1.00  0.00     0.223 C 
HETATM   19  O1  UNL     1      25.700  34.110  20.610  1.00  0.00    -0.273 OA
HETATM   20  N3  UNL     1      25.636  36.016  21.889  1.00  0.00    -0.353 N 
BRANCH  20  21
HETATM   21  C13 UNL     1      25.105  36.827  22.971  1.00  0.00     0.121 C 
HETATM   22  C14 UNL     1      25.992  36.856  24.173  1.00  0.00     0.026 C 
ENDBRANCH  20  21
BRANCH  20  23
HETATM   23  C15 UNL     1      26.730  36.559  21.063  1.00  0.00     0.121 C 
HETATM   24  C16 UNL     1      26.488  37.971  20.647  1.00  0.00     0.026 C 
ENDBRANCH  20  23
ENDBRANCH  17  18
ENDBRANCH  16  17
ENDBRANCH  11  16
BRANCH  13  25
HETATM   25  C18 UNL     1      20.972  34.099  18.978  1.00  0.00     0.158 C 
HETATM   26  C19 UNL     1      19.655  34.735  18.915  1.00  0.00     0.097 C 
HETATM   27  O2  UNL     1      21.845  34.482  18.148  1.00  0.00    -0.293 OA
ENDBRANCH  13  25
ENDBRANCH   8   9
ENDBRANCH   6   8
BRANCH   7  28
HETATM   28  C22 UNL     1      21.399  28.880  24.112  1.00  0.00     0.169 C 
BRANCH  28  29
HETATM   29  C23 UNL     1      20.162  28.092  24.293  1.00  0.00    -0.035 A 
HETATM   30  C24 UNL     1      19.782  27.022  23.520  1.00  0.00     0.026 A 
HETATM   31  C25 UNL     1      18.603  26.308  23.785  1.00  0.00     0.090 A 
HETATM   32  N5  UNL     1      17.826  26.674  24.817  1.00  0.00    -0.353 N 
HETATM   33  C26 UNL     1      18.145  27.699  25.597  1.00  0.00     0.099 A 
ATOM     34  H5  UNL     1      16.971  26.151  25.005  1.00  0.00     0.166 HD
HETATM   35  N6  UNL     1      17.339  27.994  26.579  1.00  0.00    -0.385 N 
HETATM   36  C27 UNL     1      19.286  28.397  25.346  1.00  0.00     0.056 A 
ATOM     37  H62 UNL     1      16.484  27.471  26.767  1.00  0.00     0.157 HD
ATOM     38  H61 UNL     1      17.583  28.782  27.178  1.00  0.00     0.157 HD
ENDBRANCH  28  29
ENDBRANCH   7  28
BRANCH   1  39
HETATM   39  C2  UNL     1      23.901  27.077  24.567  1.00  0.00     0.072 C 
HETATM   40  C1  UNL     1      24.788  28.142  25.238  1.00  0.00     0.013 C 
ENDBRANCH   1  39
TORSDOF 11
ENDMDL
MODEL 5
REMARK VINA RESULT: -7.478563011      3.781      8.569
REMARK  11 active torsions:
REMARK  status: ('A' for Active; 'I' for Inactive)
REMARK    1  A    between atoms: C2_2  and  C3_3 
REMARK    2  A    between atoms: C6_8  and  C7_9 
REMARK    3  A    between atoms: C7_9  and  C8_10 
REMARK    4  A    between atoms: C9_13  and  C10_14 
REMARK    5  A    between atoms: C10_14  and  C11_15 
REMARK    6  A    between atoms: C11_15  and  C12_16 
REMARK       I    between atoms: C12_16  and  N3_18 
REMARK    7  A    between atoms: N3_18  and  C13_19 
REMARK    8  A    between atoms: N3_18  and  C15_21 
REMARK    9  A    between atoms: C17_23  and  C18_24 
REMARK   10  A    between atoms: N4_29  and  C22_30 
REMARK   11  A    between atoms: C22_30  and  C23_31 
ROOT
HETATM    1  C3  UNL     1      20.285  33.792  18.470  1.00  0.00     0.084 A 
HETATM    2  N1  UNL     1      20.790  34.336  19.617  1.00  0.00    -0.347 N 
ATOM      3  H1  UNL     1      20.613  35.286  19.945  1.00  0.00     0.167 HD
HETATM    4  C4  UNL     1      21.543  33.442  20.239  1.00  0.00     0.033 A 
HETATM    5  C5  UNL     1      22.300  33.670  21.518  1.00  0.00     0.070 C 
HETATM    6  C6  UNL     1      21.546  32.260  19.493  1.00  0.00     0.060 A 
HETATM    7  N4  UNL     1      20.753  32.530  18.408  1.00  0.00    -0.331 N 
ENDROOT
BRANCH   6   8
HETATM    8  C7  UNL     1      22.276  31.055  19.783  1.00  0.00     0.061 C 
BRANCH   8   9
HETATM    9  C8  UNL     1      21.812  29.805  19.791  1.00  0.00     0.041 A 
HETATM   10  N2  UNL     1      20.753  29.395  20.534  1.00  0.00    -0.355 N 
HETATM   11  C9  UNL     1      20.508  28.079  20.367  1.00  0.00     0.043 A 
ATOM     12  H2  UNL     1      20.210  30.006  21.144  1.00  0.00     0.166 HD
HETATM   13  C17 UNL     1      21.435  27.603  19.484  1.00  0.00     0.044 A 
HETATM   14  C20 UNL     1      22.250  28.694  19.128  1.00  0.00    -0.019 A 
HETATM   15  C21 UNL     1      23.396  28.562  18.187  1.00  0.00     0.052 C 
BRANCH  11  16
HETATM   16  C10 UNL     1      19.531  27.436  20.984  1.00  0.00     0.013 C 
BRANCH  16  17
HETATM   17  C11 UNL     1      19.697  26.441  22.035  1.00  0.00     0.132 C 
BRANCH  17  18
HETATM   18  C12 UNL     1      18.814  26.745  23.207  1.00  0.00     0.223 C 
HETATM   19  O1  UNL     1      17.680  26.201  23.231  1.00  0.00    -0.273 OA
HETATM   20  N3  UNL     1      19.178  27.595  24.271  1.00  0.00    -0.353 N 
BRANCH  20  21
HETATM   21  C13 UNL     1      20.455  28.282  24.361  1.00  0.00     0.121 C 
HETATM   22  C14 UNL     1      21.611  27.353  24.546  1.00  0.00     0.026 C 
ENDBRANCH  20  21
BRANCH  20  23
HETATM   23  C15 UNL     1      18.191  27.784  25.350  1.00  0.00     0.121 C 
HETATM   24  C16 UNL     1      18.691  28.679  26.435  1.00  0.00     0.026 C 
ENDBRANCH  20  23
ENDBRANCH  17  18
ENDBRANCH  16  17
ENDBRANCH  11  16
BRANCH  13  25
HETATM   25  C18 UNL     1      21.637  26.255  18.930  1.00  0.00     0.158 C 
HETATM   26  C19 UNL     1      22.927  25.569  18.840  1.00  0.00     0.097 C 
HETATM   27  O2  UNL     1      20.620  25.643  18.494  1.00  0.00    -0.293 OA
ENDBRANCH  13  25
ENDBRANCH   8   9
ENDBRANCH   6   8
BRANCH   7  28
HETATM   28  C22 UNL     1      20.451  31.611  17.346  1.00  0.00     0.169 C 
BRANCH  28  29
HETATM   29  C23 UNL     1      21.401  31.533  16.218  1.00  0.00    -0.035 A 
HETATM   30  C24 UNL     1      22.022  30.388  15.780  1.00  0.00     0.026 A 
HETATM   31  C25 UNL     1      22.888  30.400  14.675  1.00  0.00     0.090 A 
HETATM   32  N5  UNL     1      23.117  31.553  14.027  1.00  0.00    -0.353 N 
HETATM   33  C26 UNL     1      22.545  32.689  14.407  1.00  0.00     0.099 A 
ATOM     34  H5  UNL     1      23.747  31.556  13.225  1.00  0.00     0.166 HD
HETATM   35  N6  UNL     1      22.819  33.768  13.728  1.00  0.00    -0.385 N 
HETATM   36  C27 UNL     1      21.705  32.686  15.477  1.00  0.00     0.056 A 
ATOM     37  H62 UNL     1      23.449  33.771  12.926  1.00  0.00     0.157 HD
ATOM     38  H61 UNL     1      22.379  34.641  14.019  1.00  0.00     0.157 HD
ENDBRANCH  28  29
ENDBRANCH   7  28
BRANCH   1  39
HETATM   39  C2  UNL     1      19.433  34.554  17.500  1.00  0.00     0.072 C 
HETATM   40  C1  UNL     1      18.365  35.309  18.311  1.00  0.00     0.013 C 
ENDBRANCH   1  39
TORSDOF 11
ENDMDL
