MODEL 1
REMARK VINA RESULT: -7.053347402      0.000      0.000
REMARK  17 active torsions:
REMARK  status: ('A' for Active; 'I' for Inactive)
REMARK    1  A    between atoms: C2_2  and  C3_3 
REMARK    2  A    between atoms: C3_3  and  C4_4 
REMARK    3  A    between atoms: C4_4  and  C5_5 
REMARK    4  A    between atoms: C5_5  and  C6_6 
REMARK    5  A    between atoms: C6_6  and  C7_7 
REMARK    6  A    between atoms: C9_12  and  C10_13 
REMARK    7  A    between atoms: C10_13  and  C11_14 
REMARK    8  A    between atoms: C11_14  and  C12_15 
REMARK    9  A    between atoms: C14_19  and  C15_20 
REMARK   10  A    between atoms: C15_20  and  C16_21 
REMARK   11  A    between atoms: C18_25  and  N3_26 
REMARK   12  A    between atoms: N3_26  and  N4_27 
REMARK   13  A    between atoms: C19_30  and  C20_31 
REMARK   14  A    between atoms: C20_31  and  C21_32 
REMARK   15  A    between atoms: C21_32  and  C22_33 
REMARK   16  A    between atoms: C22_33  and  C23_34 
REMARK   17  A    between atoms: C23_34  and  N5_35 
ROOT
HETATM    1  C7  UNL     1       9.267  26.639   1.981  1.00  0.00     0.176 C 
HETATM    2  N1  UNL     1       8.368  27.769   1.915  1.00  0.00    -0.346 N 
ATOM      3  H1  UNL     1       7.545  27.723   1.313  1.00  0.00     0.163 HD
HETATM    4  C8  UNL     1       8.616  28.941   2.678  1.00  0.00     0.240 C 
HETATM    5  O1  UNL     1       7.964  29.982   2.370  1.00  0.00    -0.271 OA
HETATM    6  C9  UNL     1       9.568  29.037   3.794  1.00  0.00     0.169 C 
HETATM    7  N2  UNL     1       9.174  28.301   4.912  1.00  0.00    -0.404 N 
ATOM      8  H2  UNL     1       9.868  27.864   5.518  1.00  0.00     0.154 HD
HETATM    9  C14 UNL     1       7.788  28.171   5.187  1.00  0.00     0.093 C 
HETATM   10  C17 UNL     1       7.633  26.808   5.878  1.00  0.00     0.097 C 
HETATM   11  C18 UNL     1       7.563  25.697   4.918  1.00  0.00     0.110 C 
HETATM   12  C19 UNL     1       8.711  24.878   4.500  1.00  0.00     0.147 C 
HETATM   13  N6  UNL     1       8.562  24.447   3.110  1.00  0.00    -0.348 N 
ATOM     14  H6  UNL     1       8.544  23.450   2.894  1.00  0.00     0.163 HD
HETATM   15  C24 UNL     1       8.440  25.397   2.048  1.00  0.00     0.241 C 
HETATM   16  O4  UNL     1       7.607  25.216   1.106  1.00  0.00    -0.271 OA
ENDROOT
BRANCH  12  17
HETATM   17  C20 UNL     1       8.977  23.702   5.404  1.00  0.00     0.032 C 
BRANCH  17  18
HETATM   18  C21 UNL     1       7.922  22.650   5.338  1.00  0.00     0.004 C 
BRANCH  18  19
HETATM   19  C22 UNL     1       6.964  22.716   6.496  1.00  0.00     0.027 C 
BRANCH  19  20
HETATM   20  C23 UNL     1       5.533  22.532   6.049  1.00  0.00     0.229 C 
BRANCH  20  21
HETATM   21  N5  UNL     1       4.830  21.590   6.902  1.00  0.00    -0.079 N 
ATOM     22  H53 UNL     1       5.285  20.677   6.906  1.00  0.00     0.274 HD
ATOM     23  H52 UNL     1       4.940  21.825   7.888  1.00  0.00     0.274 HD
ATOM     24  H51 UNL     1       3.846  21.517   6.642  1.00  0.00     0.274 HD
ENDBRANCH  20  21
ENDBRANCH  19  20
ENDBRANCH  18  19
ENDBRANCH  17  18
ENDBRANCH  12  17
BRANCH  11  25
HETATM   25  N3  UNL     1       6.448  25.427   4.415  1.00  0.00    -0.340 NA
BRANCH  25  26
HETATM   26  N4  UNL     1       5.325  25.133   3.961  1.00  0.00    -0.280 N 
ATOM     27  H42 UNL     1       5.895  24.319   4.191  1.00  0.00     0.191 HD
ATOM     28  H41 UNL     1       4.397  24.936   3.586  1.00  0.00     0.191 HD
ENDBRANCH  25  26
ENDBRANCH  11  25
BRANCH   9  29
HETATM   29  C15 UNL     1       7.291  29.203   6.156  1.00  0.00     0.138 C 
BRANCH  29  30
HETATM   30  C16 UNL     1       7.609  28.929   7.564  1.00  0.00     0.174 C 
HETATM   31  O2  UNL     1       6.604  28.809   8.341  1.00  0.00    -0.648 OA
HETATM   32  O3  UNL     1       8.842  28.788   8.129  1.00  0.00    -0.648 OA
ENDBRANCH  29  30
ENDBRANCH   9  29
BRANCH   1  33
HETATM   33  C6  UNL     1      10.287  26.636   0.897  1.00  0.00     0.035 C 
BRANCH  33  34
HETATM   34  C5  UNL     1      11.029  27.919   0.712  1.00  0.00     0.002 C 
BRANCH  34  35
HETATM   35  C4  UNL     1      12.032  27.784  -0.433  1.00  0.00     0.000 C 
BRANCH  35  36
HETATM   36  C3  UNL     1      12.917  26.569  -0.254  1.00  0.00    -0.000 C 
BRANCH  36  37
HETATM   37  C2  UNL     1      14.168  26.648  -1.063  1.00  0.00    -0.005 C 
HETATM   38  C1  UNL     1      15.403  26.248  -0.292  1.00  0.00     0.005 C 
ENDBRANCH  36  37
ENDBRANCH  35  36
ENDBRANCH  34  35
ENDBRANCH  33  34
ENDBRANCH   1  33
BRANCH   6  39
HETATM   39  C10 UNL     1       9.891  30.500   4.087  1.00  0.00     0.034 C 
BRANCH  39  40
HETATM   40  C11 UNL     1      11.086  30.933   3.291  1.00  0.00     0.002 C 
BRANCH  40  41
HETATM   41  C12 UNL     1      10.681  32.083   2.394  1.00  0.00    -0.004 C 
HETATM   42  C13 UNL     1      10.789  31.658   0.948  1.00  0.00     0.005 C 
ENDBRANCH  40  41
ENDBRANCH  39  40
ENDBRANCH   6  39
TORSDOF 17
ENDMDL
MODEL 2
REMARK VINA RESULT: -7.025393069      3.123      8.328
REMARK  17 active torsions:
REMARK  status: ('A' for Active; 'I' for Inactive)
REMARK    1  A    between atoms: C2_2  and  C3_3 
REMARK    2  A    between atoms: C3_3  and  C4_4 
REMARK    3  A    between atoms: C4_4  and  C5_5 
REMARK    4  A    between atoms: C5_5  and  C6_6 
REMARK    5  A    between atoms: C6_6  and  C7_7 
REMARK    6  A    between atoms: C9_12  and  C10_13 
REMARK    7  A    between atoms: C10_13  and  C11_14 
REMARK    8  A    between atoms: C11_14  and  C12_15 
REMARK    9  A    between atoms: C14_19  and  C15_20 
REMARK   10  A    between atoms: C15_20  and  C16_21 
REMARK   11  A    between atoms: C18_25  and  N3_26 
REMARK   12  A    between atoms: N3_26  and  N4_27 
REMARK   13  A    between atoms: C19_30  and  C20_31 
REMARK   14  A    between atoms: C20_31  and  C21_32 
REMARK   15  A    between atoms: C21_32  and  C22_33 
REMARK   16  A    between atoms: C22_33  and  C23_34 
REMARK   17  A    between atoms: C23_34  and  N5_35 
ROOT
HETATM    1  C7  UNL     1       9.070  28.712   1.519  1.00  0.00     0.176 C 
HETATM    2  N1  UNL     1       8.082  27.717   1.168  1.00  0.00    -0.346 N 
ATOM      3  H1  UNL     1       7.266  27.989   0.620  1.00  0.00     0.163 HD
HETATM    4  C8  UNL     1       8.234  26.364   1.576  1.00  0.00     0.240 C 
HETATM    5  O1  UNL     1       7.218  25.614   1.485  1.00  0.00    -0.271 OA
HETATM    6  C9  UNL     1       9.477  25.773   2.095  1.00  0.00     0.169 C 
HETATM    7  N2  UNL     1      10.478  25.674   1.129  1.00  0.00    -0.404 N 
ATOM      8  H2  UNL     1      11.460  25.771   1.386  1.00  0.00     0.154 HD
HETATM    9  C14 UNL     1      10.102  25.436  -0.219  1.00  0.00     0.093 C 
HETATM   10  C17 UNL     1      11.180  26.120  -1.072  1.00  0.00     0.097 C 
HETATM   11  C18 UNL     1      10.934  27.559  -1.240  1.00  0.00     0.110 C 
HETATM   12  C19 UNL     1      11.529  28.614  -0.405  1.00  0.00     0.147 C 
HETATM   13  N6  UNL     1      10.607  29.740  -0.257  1.00  0.00    -0.348 N 
ATOM     14  H6  UNL     1      10.895  30.667  -0.571  1.00  0.00     0.163 HD
HETATM   15  C24 UNL     1       9.309  29.566   0.318  1.00  0.00     0.241 C 
HETATM   16  O4  UNL     1       8.294  30.142  -0.182  1.00  0.00    -0.271 OA
ENDROOT
BRANCH  12  17
HETATM   17  C20 UNL     1      12.878  29.080  -0.888  1.00  0.00     0.032 C 
BRANCH  17  18
HETATM   18  C21 UNL     1      13.503  28.161  -1.883  1.00  0.00     0.004 C 
BRANCH  18  19
HETATM   19  C22 UNL     1      14.920  27.802  -1.527  1.00  0.00     0.027 C 
BRANCH  19  20
HETATM   20  C23 UNL     1      14.989  26.515  -0.738  1.00  0.00     0.229 C 
BRANCH  20  21
HETATM   21  N5  UNL     1      16.225  26.425   0.019  1.00  0.00    -0.079 N 
ATOM     22  H53 UNL     1      16.758  25.593  -0.233  1.00  0.00     0.274 HD
ATOM     23  H52 UNL     1      16.895  27.136  -0.273  1.00  0.00     0.274 HD
ATOM     24  H51 UNL     1      16.049  26.466   1.023  1.00  0.00     0.274 HD
ENDBRANCH  20  21
ENDBRANCH  19  20
ENDBRANCH  18  19
ENDBRANCH  17  18
ENDBRANCH  12  17
BRANCH  11  25
HETATM   25  N3  UNL     1      10.160  27.918  -2.158  1.00  0.00    -0.340 NA
BRANCH  25  26
HETATM   26  N4  UNL     1       9.350  28.271  -3.037  1.00  0.00    -0.280 N 
ATOM     27  H42 UNL     1      10.238  28.771  -3.080  1.00  0.00     0.191 HD
ATOM     28  H41 UNL     1       8.658  28.530  -3.740  1.00  0.00     0.191 HD
ENDBRANCH  25  26
ENDBRANCH  11  25
BRANCH   9  29
HETATM   29  C15 UNL     1      10.128  23.980  -0.580  1.00  0.00     0.138 C 
BRANCH  29  30
HETATM   30  C16 UNL     1      10.076  23.702  -2.022  1.00  0.00     0.174 C 
HETATM   31  O2  UNL     1      10.896  22.818  -2.440  1.00  0.00    -0.648 OA
HETATM   32  O3  UNL     1       9.261  24.274  -2.953  1.00  0.00    -0.648 OA
ENDBRANCH  29  30
ENDBRANCH   9  29
BRANCH   1  33
HETATM   33  C6  UNL     1       8.726  29.472   2.752  1.00  0.00     0.035 C 
BRANCH  33  34
HETATM   34  C5  UNL     1       9.528  29.125   3.963  1.00  0.00     0.002 C 
BRANCH  34  35
HETATM   35  C4  UNL     1       8.756  28.139   4.839  1.00  0.00     0.000 C 
BRANCH  35  36
HETATM   36  C3  UNL     1       7.693  28.840   5.658  1.00  0.00    -0.000 C 
BRANCH  36  37
HETATM   37  C2  UNL     1       7.781  28.511   7.110  1.00  0.00    -0.005 C 
HETATM   38  C1  UNL     1       6.882  29.367   7.971  1.00  0.00     0.005 C 
ENDBRANCH  36  37
ENDBRANCH  35  36
ENDBRANCH  34  35
ENDBRANCH  33  34
ENDBRANCH   1  33
BRANCH   6  39
HETATM   39  C10 UNL     1       9.174  24.466   2.823  1.00  0.00     0.034 C 
BRANCH  39  40
HETATM   40  C11 UNL     1       9.294  24.662   4.305  1.00  0.00     0.002 C 
BRANCH  40  41
HETATM   41  C12 UNL     1       8.125  23.981   4.982  1.00  0.00    -0.004 C 
HETATM   42  C13 UNL     1       6.996  24.969   5.154  1.00  0.00     0.005 C 
ENDBRANCH  40  41
ENDBRANCH  39  40
ENDBRANCH   6  39
TORSDOF 17
ENDMDL
MODEL 3
REMARK VINA RESULT: -6.742058323      3.122      8.368
REMARK  17 active torsions:
REMARK  status: ('A' for Active; 'I' for Inactive)
REMARK    1  A    between atoms: C2_2  and  C3_3 
REMARK    2  A    between atoms: C3_3  and  C4_4 
REMARK    3  A    between atoms: C4_4  and  C5_5 
REMARK    4  A    between atoms: C5_5  and  C6_6 
REMARK    5  A    between atoms: C6_6  and  C7_7 
REMARK    6  A    between atoms: C9_12  and  C10_13 
REMARK    7  A    between atoms: C10_13  and  C11_14 
REMARK    8  A    between atoms: C11_14  and  C12_15 
REMARK    9  A    between atoms: C14_19  and  C15_20 
REMARK   10  A    between atoms: C15_20  and  C16_21 
REMARK   11  A    between atoms: C18_25  and  N3_26 
REMARK   12  A    between atoms: N3_26  and  N4_27 
REMARK   13  A    between atoms: C19_30  and  C20_31 
REMARK   14  A    between atoms: C20_31  and  C21_32 
REMARK   15  A    between atoms: C21_32  and  C22_33 
REMARK   16  A    between atoms: C22_33  and  C23_34 
REMARK   17  A    between atoms: C23_34  and  N5_35 
ROOT
HETATM    1  C7  UNL     1       8.926  28.694   1.541  1.00  0.00     0.176 C 
HETATM    2  N1  UNL     1       7.972  27.664   1.200  1.00  0.00    -0.346 N 
ATOM      3  H1  UNL     1       7.144  27.905   0.655  1.00  0.00     0.163 HD
HETATM    4  C8  UNL     1       8.173  26.320   1.614  1.00  0.00     0.240 C 
HETATM    5  O1  UNL     1       7.184  25.534   1.532  1.00  0.00    -0.271 OA
HETATM    6  C9  UNL     1       9.438  25.775   2.130  1.00  0.00     0.169 C 
HETATM    7  N2  UNL     1      10.437  25.706   1.159  1.00  0.00    -0.404 N 
ATOM      8  H2  UNL     1      11.416  25.838   1.410  1.00  0.00     0.154 HD
HETATM    9  C14 UNL     1      10.063  25.448  -0.186  1.00  0.00     0.093 C 
HETATM   10  C17 UNL     1      11.113  26.165  -1.048  1.00  0.00     0.097 C 
HETATM   11  C18 UNL     1      10.815  27.593  -1.222  1.00  0.00     0.110 C 
HETATM   12  C19 UNL     1      11.377  28.672  -0.395  1.00  0.00     0.147 C 
HETATM   13  N6  UNL     1      10.417  29.767  -0.248  1.00  0.00    -0.348 N 
ATOM     14  H6  UNL     1      10.671  30.701  -0.568  1.00  0.00     0.163 HD
HETATM   15  C24 UNL     1       9.129  29.550   0.334  1.00  0.00     0.241 C 
HETATM   16  O4  UNL     1       8.092  30.088  -0.163  1.00  0.00    -0.271 OA
ENDROOT
BRANCH  12  17
HETATM   17  C20 UNL     1      12.706  29.182  -0.888  1.00  0.00     0.032 C 
BRANCH  17  18
HETATM   18  C21 UNL     1      13.655  28.098  -1.273  1.00  0.00     0.004 C 
BRANCH  18  19
HETATM   19  C22 UNL     1      14.342  28.368  -2.584  1.00  0.00     0.027 C 
BRANCH  19  20
HETATM   20  C23 UNL     1      13.351  28.680  -3.680  1.00  0.00     0.229 C 
BRANCH  20  21
HETATM   21  N5  UNL     1      12.690  27.477  -4.153  1.00  0.00    -0.079 N 
ATOM     22  H53 UNL     1      13.332  26.877  -4.672  1.00  0.00     0.274 HD
ATOM     23  H52 UNL     1      12.470  26.845  -3.385  1.00  0.00     0.274 HD
ATOM     24  H51 UNL     1      11.860  27.702  -4.703  1.00  0.00     0.274 HD
ENDBRANCH  20  21
ENDBRANCH  19  20
ENDBRANCH  18  19
ENDBRANCH  17  18
ENDBRANCH  12  17
BRANCH  11  25
HETATM   25  N3  UNL     1      10.025  27.920  -2.137  1.00  0.00    -0.340 NA
BRANCH  25  26
HETATM   26  N4  UNL     1       9.247  28.197  -3.071  1.00  0.00    -0.280 N 
ATOM     27  H42 UNL     1      10.175  27.915  -3.386  1.00  0.00     0.191 HD
ATOM     28  H41 UNL     1       8.580  28.433  -3.805  1.00  0.00     0.191 HD
ENDBRANCH  25  26
ENDBRANCH  11  25
BRANCH   9  29
HETATM   29  C15 UNL     1      10.138  23.991  -0.539  1.00  0.00     0.138 C 
BRANCH  29  30
HETATM   30  C16 UNL     1      10.183  23.710  -1.981  1.00  0.00     0.174 C 
HETATM   31  O2  UNL     1       9.257  24.249  -2.674  1.00  0.00    -0.648 OA
HETATM   32  O3  UNL     1      11.091  22.948  -2.654  1.00  0.00    -0.648 OA
ENDBRANCH  29  30
ENDBRANCH   9  29
BRANCH   1  33
HETATM   33  C6  UNL     1       8.562  29.448   2.772  1.00  0.00     0.035 C 
BRANCH  33  34
HETATM   34  C5  UNL     1       9.561  29.388   3.880  1.00  0.00     0.002 C 
BRANCH  34  35
HETATM   35  C4  UNL     1       9.303  28.160   4.752  1.00  0.00     0.000 C 
BRANCH  35  36
HETATM   36  C3  UNL     1       7.869  28.115   5.235  1.00  0.00    -0.000 C 
BRANCH  36  37
HETATM   37  C2  UNL     1       7.762  28.218   6.720  1.00  0.00    -0.005 C 
HETATM   38  C1  UNL     1       7.140  29.514   7.183  1.00  0.00     0.005 C 
ENDBRANCH  36  37
ENDBRANCH  35  36
ENDBRANCH  34  35
ENDBRANCH  33  34
ENDBRANCH   1  33
BRANCH   6  39
HETATM   39  C10 UNL     1       9.185  24.462   2.866  1.00  0.00     0.034 C 
BRANCH  39  40
HETATM   40  C11 UNL     1       9.234  24.685   4.348  1.00  0.00     0.002 C 
BRANCH  40  41
HETATM   41  C12 UNL     1       8.169  23.832   5.004  1.00  0.00    -0.004 C 
HETATM   42  C13 UNL     1       6.849  24.564   4.975  1.00  0.00     0.005 C 
ENDBRANCH  40  41
ENDBRANCH  39  40
ENDBRANCH   6  39
TORSDOF 17
ENDMDL
MODEL 4
REMARK VINA RESULT: -6.612887324      3.165      8.237
REMARK  17 active torsions:
REMARK  status: ('A' for Active; 'I' for Inactive)
REMARK    1  A    between atoms: C2_2  and  C3_3 
REMARK    2  A    between atoms: C3_3  and  C4_4 
REMARK    3  A    between atoms: C4_4  and  C5_5 
REMARK    4  A    between atoms: C5_5  and  C6_6 
REMARK    5  A    between atoms: C6_6  and  C7_7 
REMARK    6  A    between atoms: C9_12  and  C10_13 
REMARK    7  A    between atoms: C10_13  and  C11_14 
REMARK    8  A    between atoms: C11_14  and  C12_15 
REMARK    9  A    between atoms: C14_19  and  C15_20 
REMARK   10  A    between atoms: C15_20  and  C16_21 
REMARK   11  A    between atoms: C18_25  and  N3_26 
REMARK   12  A    between atoms: N3_26  and  N4_27 
REMARK   13  A    between atoms: C19_30  and  C20_31 
REMARK   14  A    between atoms: C20_31  and  C21_32 
REMARK   15  A    between atoms: C21_32  and  C22_33 
REMARK   16  A    between atoms: C22_33  and  C23_34 
REMARK   17  A    between atoms: C23_34  and  N5_35 
ROOT
HETATM    1  C7  UNL     1       8.478  29.169   2.133  1.00  0.00     0.176 C 
HETATM    2  N1  UNL     1       7.833  28.032   1.515  1.00  0.00    -0.346 N 
ATOM      3  H1  UNL     1       7.013  28.178   0.926  1.00  0.00     0.163 HD
HETATM    4  C8  UNL     1       8.326  26.716   1.721  1.00  0.00     0.240 C 
HETATM    5  O1  UNL     1       7.568  25.756   1.394  1.00  0.00    -0.271 OA
HETATM    6  C9  UNL     1       9.644  26.385   2.282  1.00  0.00     0.169 C 
HETATM    7  N2  UNL     1      10.698  26.731   1.437  1.00  0.00    -0.404 N 
ATOM      8  H2  UNL     1      11.594  27.032   1.819  1.00  0.00     0.154 HD
HETATM    9  C14 UNL     1      10.499  26.654   0.033  1.00  0.00     0.093 C 
HETATM   10  C17 UNL     1      11.401  27.741  -0.569  1.00  0.00     0.097 C 
HETATM   11  C18 UNL     1      10.776  29.071  -0.536  1.00  0.00     0.110 C 
HETATM   12  C19 UNL     1      10.995  30.073   0.519  1.00  0.00     0.147 C 
HETATM   13  N6  UNL     1       9.788  30.872   0.733  1.00  0.00    -0.348 N 
ATOM     14  H6  UNL     1       9.828  31.883   0.605  1.00  0.00     0.163 HD
HETATM   15  C24 UNL     1       8.553  30.262   1.117  1.00  0.00     0.241 C 
HETATM   16  O4  UNL     1       7.455  30.634   0.599  1.00  0.00    -0.271 OA
ENDROOT
BRANCH  12  17
HETATM   17  C20 UNL     1      12.191  30.956   0.277  1.00  0.00     0.032 C 
BRANCH  17  18
HETATM   18  C21 UNL     1      12.103  32.279   0.959  1.00  0.00     0.004 C 
BRANCH  18  19
HETATM   19  C22 UNL     1      13.228  32.505   1.931  1.00  0.00     0.027 C 
BRANCH  19  20
HETATM   20  C23 UNL     1      12.765  32.368   3.363  1.00  0.00     0.229 C 
BRANCH  20  21
HETATM   21  N5  UNL     1      13.632  33.097   4.271  1.00  0.00    -0.079 N 
ATOM     22  H53 UNL     1      13.657  34.092   4.046  1.00  0.00     0.274 HD
ATOM     23  H52 UNL     1      13.229  33.157   5.206  1.00  0.00     0.274 HD
ATOM     24  H51 UNL     1      14.570  32.695   4.292  1.00  0.00     0.274 HD
ENDBRANCH  20  21
ENDBRANCH  19  20
ENDBRANCH  18  19
ENDBRANCH  17  18
ENDBRANCH  12  17
BRANCH  11  25
HETATM   25  N3  UNL     1      10.000  29.377  -1.470  1.00  0.00    -0.340 NA
BRANCH  25  26
HETATM   26  N4  UNL     1       9.241  29.636  -2.424  1.00  0.00    -0.280 N 
ATOM     27  H42 UNL     1       9.912  28.896  -2.629  1.00  0.00     0.191 HD
ATOM     28  H41 UNL     1       8.601  29.879  -3.181  1.00  0.00     0.191 HD
ENDBRANCH  25  26
ENDBRANCH  11  25
BRANCH   9  29
HETATM   29  C15 UNL     1      10.954  25.347  -0.546  1.00  0.00     0.138 C 
BRANCH  29  30
HETATM   30  C16 UNL     1       9.868  24.443  -0.952  1.00  0.00     0.174 C 
HETATM   31  O2  UNL     1       9.720  23.403  -0.227  1.00  0.00    -0.648 OA
HETATM   32  O3  UNL     1       9.010  24.588  -2.002  1.00  0.00    -0.648 OA
ENDBRANCH  29  30
ENDBRANCH   9  29
BRANCH   1  33
HETATM   33  C6  UNL     1       7.850  29.573   3.421  1.00  0.00     0.035 C 
BRANCH  33  34
HETATM   34  C5  UNL     1       8.735  29.484   4.620  1.00  0.00     0.002 C 
BRANCH  34  35
HETATM   35  C4  UNL     1       8.562  28.126   5.300  1.00  0.00     0.000 C 
BRANCH  35  36
HETATM   36  C3  UNL     1       7.529  28.187   6.405  1.00  0.00    -0.000 C 
BRANCH  36  37
HETATM   37  C2  UNL     1       7.903  29.146   7.485  1.00  0.00    -0.005 C 
HETATM   38  C1  UNL     1       7.488  28.684   8.862  1.00  0.00     0.005 C 
ENDBRANCH  36  37
ENDBRANCH  35  36
ENDBRANCH  34  35
ENDBRANCH  33  34
ENDBRANCH   1  33
BRANCH   6  39
HETATM   39  C10 UNL     1       9.666  24.934   2.755  1.00  0.00     0.034 C 
BRANCH  39  40
HETATM   40  C11 UNL     1       9.380  24.867   4.225  1.00  0.00     0.002 C 
BRANCH  40  41
HETATM   41  C12 UNL     1       8.204  23.941   4.449  1.00  0.00    -0.004 C 
HETATM   42  C13 UNL     1       6.973  24.756   4.767  1.00  0.00     0.005 C 
ENDBRANCH  40  41
ENDBRANCH  39  40
ENDBRANCH   6  39
TORSDOF 17
ENDMDL
MODEL 5
REMARK VINA RESULT: -6.611368325      3.178      8.453
REMARK  17 active torsions:
REMARK  status: ('A' for Active; 'I' for Inactive)
REMARK    1  A    between atoms: C2_2  and  C3_3 
REMARK    2  A    between atoms: C3_3  and  C4_4 
REMARK    3  A    between atoms: C4_4  and  C5_5 
REMARK    4  A    between atoms: C5_5  and  C6_6 
REMARK    5  A    between atoms: C6_6  and  C7_7 
REMARK    6  A    between atoms: C9_12  and  C10_13 
REMARK    7  A    between atoms: C10_13  and  C11_14 
REMARK    8  A    between atoms: C11_14  and  C12_15 
REMARK    9  A    between atoms: C14_19  and  C15_20 
REMARK   10  A    between atoms: C15_20  and  C16_21 
REMARK   11  A    between atoms: C18_25  and  N3_26 
REMARK   12  A    between atoms: N3_26  and  N4_27 
REMARK   13  A    between atoms: C19_30  and  C20_31 
REMARK   14  A    between atoms: C20_31  and  C21_32 
REMARK   15  A    between atoms: C21_32  and  C22_33 
REMARK   16  A    between atoms: C22_33  and  C23_34 
REMARK   17  A    between atoms: C23_34  and  N5_35 
ROOT
HETATM    1  C7  UNL     1       8.821  28.740   1.640  1.00  0.00     0.176 C 
HETATM    2  N1  UNL     1       7.901  27.686   1.276  1.00  0.00    -0.346 N 
ATOM      3  H1  UNL     1       7.065  27.912   0.737  1.00  0.00     0.163 HD
HETATM    4  C8  UNL     1       8.146  26.341   1.662  1.00  0.00     0.240 C 
HETATM    5  O1  UNL     1       7.183  25.525   1.563  1.00  0.00    -0.271 OA
HETATM    6  C9  UNL     1       9.429  25.827   2.166  1.00  0.00     0.169 C 
HETATM    7  N2  UNL     1      10.429  25.812   1.195  1.00  0.00    -0.404 N 
ATOM      8  H2  UNL     1      11.404  25.971   1.449  1.00  0.00     0.154 HD
HETATM    9  C14 UNL     1      10.064  25.570  -0.155  1.00  0.00     0.093 C 
HETATM   10  C17 UNL     1      11.089  26.340  -1.002  1.00  0.00     0.097 C 
HETATM   11  C18 UNL     1      10.744  27.761  -1.145  1.00  0.00     0.110 C 
HETATM   12  C19 UNL     1      11.271  28.840  -0.295  1.00  0.00     0.147 C 
HETATM   13  N6  UNL     1      10.275  29.899  -0.126  1.00  0.00    -0.348 N 
ATOM     14  H6  UNL     1      10.498  30.848  -0.425  1.00  0.00     0.163 HD
HETATM   15  C24 UNL     1       8.995  29.628   0.452  1.00  0.00     0.241 C 
HETATM   16  O4  UNL     1       7.940  30.142  -0.034  1.00  0.00    -0.271 OA
ENDROOT
BRANCH  12  17
HETATM   17  C20 UNL     1      12.582  29.404  -0.776  1.00  0.00     0.032 C 
BRANCH  17  18
HETATM   18  C21 UNL     1      12.524  30.861  -1.091  1.00  0.00     0.004 C 
BRANCH  18  19
HETATM   19  C22 UNL     1      13.532  31.662  -0.312  1.00  0.00     0.027 C 
BRANCH  19  20
HETATM   20  C23 UNL     1      12.962  32.157   0.996  1.00  0.00     0.229 C 
BRANCH  20  21
HETATM   21  N5  UNL     1      14.011  32.621   1.887  1.00  0.00    -0.079 N 
ATOM     22  H53 UNL     1      14.929  32.293   1.587  1.00  0.00     0.274 HD
ATOM     23  H52 UNL     1      14.164  33.625   1.792  1.00  0.00     0.274 HD
ATOM     24  H51 UNL     1      13.818  32.361   2.855  1.00  0.00     0.274 HD
ENDBRANCH  20  21
ENDBRANCH  19  20
ENDBRANCH  18  19
ENDBRANCH  17  18
ENDBRANCH  12  17
BRANCH  11  25
HETATM   25  N3  UNL     1       9.944  28.081  -2.053  1.00  0.00    -0.340 NA
BRANCH  25  26
HETATM   26  N4  UNL     1       9.163  28.356  -2.985  1.00  0.00    -0.280 N 
ATOM     27  H42 UNL     1      10.146  28.428  -3.246  1.00  0.00     0.191 HD
ATOM     28  H41 UNL     1       8.490  28.574  -3.720  1.00  0.00     0.191 HD
ENDBRANCH  25  26
ENDBRANCH  11  25
BRANCH   9  29
HETATM   29  C15 UNL     1      10.186  24.125  -0.539  1.00  0.00     0.138 C 
BRANCH  29  30
HETATM   30  C16 UNL     1      10.083  23.861  -1.982  1.00  0.00     0.174 C 
HETATM   31  O2  UNL     1      10.932  23.032  -2.450  1.00  0.00    -0.648 OA
HETATM   32  O3  UNL     1       9.192  24.394  -2.866  1.00  0.00    -0.648 OA
ENDBRANCH  29  30
ENDBRANCH   9  29
BRANCH   1  33
HETATM   33  C6  UNL     1       8.432  29.456   2.886  1.00  0.00     0.035 C 
BRANCH  33  34
HETATM   34  C5  UNL     1       9.352  29.266   4.047  1.00  0.00     0.002 C 
BRANCH  34  35
HETATM   35  C4  UNL     1       8.819  28.165   4.964  1.00  0.00     0.000 C 
BRANCH  35  36
HETATM   36  C3  UNL     1       7.560  28.602   5.682  1.00  0.00    -0.000 C 
BRANCH  36  37
HETATM   37  C2  UNL     1       7.704  28.558   7.166  1.00  0.00    -0.005 C 
HETATM   38  C1  UNL     1       6.823  29.555   7.880  1.00  0.00     0.005 C 
ENDBRANCH  36  37
ENDBRANCH  35  36
ENDBRANCH  34  35
ENDBRANCH  33  34
ENDBRANCH   1  33
BRANCH   6  39
HETATM   39  C10 UNL     1       9.219  24.492   2.875  1.00  0.00     0.034 C 
BRANCH  39  40
HETATM   40  C11 UNL     1       9.284  24.680   4.360  1.00  0.00     0.002 C 
BRANCH  40  41
HETATM   41  C12 UNL     1       8.107  23.968   4.993  1.00  0.00    -0.004 C 
HETATM   42  C13 UNL     1       6.964  24.939   5.167  1.00  0.00     0.005 C 
ENDBRANCH  40  41
ENDBRANCH  39  40
ENDBRANCH   6  39
TORSDOF 17
ENDMDL
