MODEL 1
REMARK VINA RESULT: -6.739629367      0.000      0.000
REMARK  10 active torsions:
REMARK  status: ('A' for Active; 'I' for Inactive)
REMARK    1  A    between atoms: C3_3  and  N3_17 
REMARK    2  A    between atoms: C4_4  and  C5_5 
REMARK    3  A    between atoms: C6_6  and  C7_7 
REMARK       I    between atoms: C7_7  and  N1_9 
REMARK    4  A    between atoms: C8_11  and  N2_13 
REMARK    5  A    between atoms: N2_13  and  C10_15 
REMARK    6  A    between atoms: N3_17  and  C12_19 
REMARK    7  A    between atoms: C12_19  and  C15_25 
REMARK       I    between atoms: N4_20  and  C13_22 
REMARK    8  A    between atoms: C15_25  and  C16_26 
REMARK    9  A    between atoms: C15_25  and  N7_32 
REMARK   10  A    between atoms: C16_26  and  N5_27 
REMARK       I    between atoms: N7_32  and  C17_34 
ROOT
HETATM    1  C1  UNL     1      14.791  -9.187  14.300  1.00  0.00     0.019 C 
HETATM    2  C2  UNL     1      15.303  -8.125  14.061  1.00  0.00    -0.060 C 
HETATM    3  C3  UNL     1      15.946  -6.846  13.769  1.00  0.00     0.087 C 
HETATM    4  C4  UNL     1      16.152  -5.977  14.761  1.00  0.00     0.039 C 
ENDROOT
BRANCH   3   5
HETATM    5  N3  UNL     1      16.337  -6.532  12.451  1.00  0.00    -0.337 N 
ATOM      6  H3  UNL     1      15.770  -5.900  11.884  1.00  0.00     0.168 HD
BRANCH   5   7
HETATM    7  C12 UNL     1      17.537  -7.108  11.913  1.00  0.00     0.109 C 
HETATM    8  N4  UNL     1      17.748  -8.348  12.067  1.00  0.00    -0.315 N 
HETATM    9  C13 UNL     1      18.822  -9.124  11.643  1.00  0.00     0.219 C 
ATOM     10  H4  UNL     1      17.023  -8.851  12.578  1.00  0.00     0.170 HD
HETATM   11  C14 UNL     1      18.542 -10.380  10.889  1.00  0.00     0.117 C 
HETATM   12  O2  UNL     1      19.996  -8.802  11.872  1.00  0.00    -0.274 OA
BRANCH   7  13
HETATM   13  C15 UNL     1      18.465  -6.200  11.194  1.00  0.00     0.171 C 
BRANCH  13  14
HETATM   14  C16 UNL     1      19.440  -5.526  12.171  1.00  0.00     0.171 C 
BRANCH  14  15
HETATM   15  N5  UNL     1      20.783  -5.575  11.713  1.00  0.00    -0.341 N 
HETATM   16  N6  UNL     1      21.073  -6.236  10.703  1.00  0.00    -0.349 N 
ATOM     17  H62 UNL     1      20.333  -6.739  10.213  1.00  0.00     0.176 HD
ATOM     18  H61 UNL     1      22.037  -6.271  10.374  1.00  0.00     0.176 HD
ATOM     19  H5  UNL     1      21.511  -5.067  12.215  1.00  0.00     0.179 HD
ENDBRANCH  14  15
ENDBRANCH  13  14
BRANCH  13  20
HETATM   20  N7  UNL     1      17.649  -5.133  10.602  1.00  0.00    -0.348 N 
HETATM   21  C17 UNL     1      18.104  -4.492   9.422  1.00  0.00     0.214 C 
HETATM   22  C18 UNL     1      17.270  -3.412   8.832  1.00  0.00     0.117 C 
HETATM   23  O3  UNL     1      19.177  -4.797   8.859  1.00  0.00    -0.274 OA
ATOM     24  H7  UNL     1      16.767  -4.856  11.034  1.00  0.00     0.163 HD
ENDBRANCH  13  20
ENDBRANCH   7  13
ENDBRANCH   5   7
ENDBRANCH   3   5
BRANCH   4  25
HETATM   25  C5  UNL     1      16.779  -4.726  14.495  1.00  0.00     0.008 C 
HETATM   26  C6  UNL     1      16.422  -3.586  14.959  1.00  0.00     0.074 C 
BRANCH  26  27
HETATM   27  C7  UNL     1      15.321  -3.326  15.840  1.00  0.00     0.246 C 
HETATM   28  O1  UNL     1      14.103  -3.339  15.578  1.00  0.00    -0.268 OA
HETATM   29  N1  UNL     1      15.631  -3.003  17.209  1.00  0.00    -0.314 N 
HETATM   30  C8  UNL     1      14.837  -3.247  18.181  1.00  0.00     0.075 C 
ATOM     31  H1  UNL     1      16.526  -2.559  17.413  1.00  0.00     0.170 HD
HETATM   32  C9  UNL     1      15.312  -2.849  19.539  1.00  0.00     0.089 C 
BRANCH  30  33
HETATM   33  N2  UNL     1      13.593  -3.865  17.925  1.00  0.00    -0.380 N 
ATOM     34  H2  UNL     1      13.321  -3.996  16.951  1.00  0.00     0.160 HD
BRANCH  33  35
HETATM   35  C10 UNL     1      12.686  -4.320  18.939  1.00  0.00     0.116 C 
HETATM   36  C11 UNL     1      11.435  -3.514  19.067  1.00  0.00     0.026 C 
ENDBRANCH  33  35
ENDBRANCH  30  33
ENDBRANCH  26  27
ENDBRANCH   4  25
TORSDOF 10
ENDMDL
MODEL 2
REMARK VINA RESULT: -6.544029397      2.861      7.588
REMARK  10 active torsions:
REMARK  status: ('A' for Active; 'I' for Inactive)
REMARK    1  A    between atoms: C3_3  and  N3_17 
REMARK    2  A    between atoms: C4_4  and  C5_5 
REMARK    3  A    between atoms: C6_6  and  C7_7 
REMARK       I    between atoms: C7_7  and  N1_9 
REMARK    4  A    between atoms: C8_11  and  N2_13 
REMARK    5  A    between atoms: N2_13  and  C10_15 
REMARK    6  A    between atoms: N3_17  and  C12_19 
REMARK    7  A    between atoms: C12_19  and  C15_25 
REMARK       I    between atoms: N4_20  and  C13_22 
REMARK    8  A    between atoms: C15_25  and  C16_26 
REMARK    9  A    between atoms: C15_25  and  N7_32 
REMARK   10  A    between atoms: C16_26  and  N5_27 
REMARK       I    between atoms: N7_32  and  C17_34 
ROOT
HETATM    1  C1  UNL     1      14.711  -8.846  14.642  1.00  0.00     0.019 C 
HETATM    2  C2  UNL     1      15.523  -8.682  13.771  1.00  0.00    -0.060 C 
HETATM    3  C3  UNL     1      16.494  -8.489  12.696  1.00  0.00     0.087 C 
HETATM    4  C4  UNL     1      17.414  -9.429  12.470  1.00  0.00     0.039 C 
ENDROOT
BRANCH   3   5
HETATM    5  N3  UNL     1      16.461  -7.318  11.912  1.00  0.00    -0.337 N 
ATOM      6  H3  UNL     1      16.229  -7.370  10.919  1.00  0.00     0.168 HD
BRANCH   5   7
HETATM    7  C12 UNL     1      16.756  -6.050  12.519  1.00  0.00     0.109 C 
HETATM    8  N4  UNL     1      16.227  -5.764  13.635  1.00  0.00    -0.315 N 
HETATM    9  C13 UNL     1      16.358  -4.616  14.410  1.00  0.00     0.219 C 
ATOM     10  H4  UNL     1      15.615  -6.483  14.022  1.00  0.00     0.170 HD
HETATM   11  C14 UNL     1      16.707  -4.764  15.852  1.00  0.00     0.117 C 
HETATM   12  O2  UNL     1      16.194  -3.483  13.937  1.00  0.00    -0.274 OA
BRANCH   7  13
HETATM   13  C15 UNL     1      17.681  -5.145  11.793  1.00  0.00     0.171 C 
BRANCH  13  14
HETATM   14  C16 UNL     1      17.090  -4.729  10.437  1.00  0.00     0.171 C 
BRANCH  14  15
HETATM   15  N5  UNL     1      15.895  -3.976  10.579  1.00  0.00    -0.341 N 
HETATM   16  N6  UNL     1      15.943  -2.798  10.966  1.00  0.00    -0.349 N 
ATOM     17  H62 UNL     1      16.851  -2.386  11.179  1.00  0.00     0.176 HD
ATOM     18  H61 UNL     1      15.085  -2.258  11.067  1.00  0.00     0.176 HD
ATOM     19  H5  UNL     1      14.995  -4.404  10.362  1.00  0.00     0.179 HD
ENDBRANCH  14  15
ENDBRANCH  13  14
BRANCH  13  20
HETATM   20  N7  UNL     1      18.899  -5.913  11.509  1.00  0.00    -0.348 N 
HETATM   21  C17 UNL     1      19.797  -6.197  12.568  1.00  0.00     0.214 C 
HETATM   22  C18 UNL     1      21.028  -6.975  12.269  1.00  0.00     0.117 C 
HETATM   23  O3  UNL     1      19.597  -5.818  13.742  1.00  0.00    -0.274 OA
ATOM     24  H7  UNL     1      19.096  -6.240  10.563  1.00  0.00     0.163 HD
ENDBRANCH  13  20
ENDBRANCH   7  13
ENDBRANCH   5   7
ENDBRANCH   3   5
BRANCH   4  25
HETATM   25  C5  UNL     1      18.367  -9.258  11.425  1.00  0.00     0.008 C 
HETATM   26  C6  UNL     1      18.950 -10.193  10.770  1.00  0.00     0.074 C 
BRANCH  26  27
HETATM   27  C7  UNL     1      18.769 -11.604  10.948  1.00  0.00     0.246 C 
HETATM   28  O1  UNL     1      19.451 -12.390  11.633  1.00  0.00    -0.268 OA
HETATM   29  N1  UNL     1      17.666 -12.222  10.257  1.00  0.00    -0.314 N 
HETATM   30  C8  UNL     1      17.077 -13.274  10.682  1.00  0.00     0.075 C 
ATOM     31  H1  UNL     1      17.340 -11.800   9.387  1.00  0.00     0.170 HD
HETATM   32  C9  UNL     1      15.952 -13.785   9.845  1.00  0.00     0.089 C 
BRANCH  30  33
HETATM   33  N2  UNL     1      17.508 -13.875  11.885  1.00  0.00    -0.380 N 
ATOM     34  H2  UNL     1      18.418 -14.336  11.885  1.00  0.00     0.160 HD
BRANCH  33  35
HETATM   35  C10 UNL     1      16.756 -13.881  13.107  1.00  0.00     0.116 C 
HETATM   36  C11 UNL     1      16.018 -12.616  13.394  1.00  0.00     0.026 C 
ENDBRANCH  33  35
ENDBRANCH  30  33
ENDBRANCH  26  27
ENDBRANCH   4  25
TORSDOF 10
ENDMDL
MODEL 3
REMARK VINA RESULT: -6.535071265      3.050      8.431
REMARK  10 active torsions:
REMARK  status: ('A' for Active; 'I' for Inactive)
REMARK    1  A    between atoms: C3_3  and  N3_17 
REMARK    2  A    between atoms: C4_4  and  C5_5 
REMARK    3  A    between atoms: C6_6  and  C7_7 
REMARK       I    between atoms: C7_7  and  N1_9 
REMARK    4  A    between atoms: C8_11  and  N2_13 
REMARK    5  A    between atoms: N2_13  and  C10_15 
REMARK    6  A    between atoms: N3_17  and  C12_19 
REMARK    7  A    between atoms: C12_19  and  C15_25 
REMARK       I    between atoms: N4_20  and  C13_22 
REMARK    8  A    between atoms: C15_25  and  C16_26 
REMARK    9  A    between atoms: C15_25  and  N7_32 
REMARK   10  A    between atoms: C16_26  and  N5_27 
REMARK       I    between atoms: N7_32  and  C17_34 
ROOT
HETATM    1  C1  UNL     1      14.569  -9.130  14.654  1.00  0.00     0.019 C 
HETATM    2  C2  UNL     1      15.409  -8.967  13.809  1.00  0.00    -0.060 C 
HETATM    3  C3  UNL     1      16.412  -8.774  12.764  1.00  0.00     0.087 C 
HETATM    4  C4  UNL     1      17.328  -9.723  12.556  1.00  0.00     0.039 C 
ENDROOT
BRANCH   3   5
HETATM    5  N3  UNL     1      16.416  -7.595  11.992  1.00  0.00    -0.337 N 
ATOM      6  H3  UNL     1      16.197  -7.632  10.996  1.00  0.00     0.168 HD
BRANCH   5   7
HETATM    7  C12 UNL     1      16.730  -6.340  12.617  1.00  0.00     0.109 C 
HETATM    8  N4  UNL     1      16.161  -6.037  13.708  1.00  0.00    -0.315 N 
HETATM    9  C13 UNL     1      16.299  -4.895  14.492  1.00  0.00     0.219 C 
ATOM     10  H4  UNL     1      15.506  -6.732  14.065  1.00  0.00     0.170 HD
HETATM   11  C14 UNL     1      16.577  -5.058  15.948  1.00  0.00     0.117 C 
HETATM   12  O2  UNL     1      16.198  -3.756  14.016  1.00  0.00    -0.274 OA
BRANCH   7  13
HETATM   13  C15 UNL     1      17.720  -5.469  11.936  1.00  0.00     0.171 C 
BRANCH  13  14
HETATM   14  C16 UNL     1      17.159  -4.935  10.609  1.00  0.00     0.171 C 
BRANCH  14  15
HETATM   15  N5  UNL     1      15.973  -4.178  10.791  1.00  0.00    -0.341 N 
HETATM   16  N6  UNL     1      16.040  -2.970  11.070  1.00  0.00    -0.349 N 
ATOM     17  H62 UNL     1      16.958  -2.537  11.165  1.00  0.00     0.176 HD
ATOM     18  H61 UNL     1      15.187  -2.427  11.200  1.00  0.00     0.176 HD
ATOM     19  H5  UNL     1      15.062  -4.627  10.693  1.00  0.00     0.179 HD
ENDBRANCH  14  15
ENDBRANCH  13  14
BRANCH  13  20
HETATM   20  N7  UNL     1      18.875  -6.310  11.603  1.00  0.00    -0.348 N 
HETATM   21  C17 UNL     1      19.922  -6.449  12.548  1.00  0.00     0.214 C 
HETATM   22  C18 UNL     1      21.088  -7.303  12.200  1.00  0.00     0.117 C 
HETATM   23  O3  UNL     1      19.905  -5.882  13.661  1.00  0.00    -0.274 OA
ATOM     24  H7  UNL     1      18.924  -6.790  10.703  1.00  0.00     0.163 HD
ENDBRANCH  13  20
ENDBRANCH   7  13
ENDBRANCH   5   7
ENDBRANCH   3   5
BRANCH   4  25
HETATM   25  C5  UNL     1      18.313  -9.552  11.541  1.00  0.00     0.008 C 
HETATM   26  C6  UNL     1      18.657 -10.422  10.665  1.00  0.00     0.074 C 
BRANCH  26  27
HETATM   27  C7  UNL     1      18.126 -11.747  10.518  1.00  0.00     0.246 C 
HETATM   28  O1  UNL     1      16.959 -12.085  10.244  1.00  0.00    -0.268 OA
HETATM   29  N1  UNL     1      19.035 -12.848  10.707  1.00  0.00    -0.314 N 
HETATM   30  C8  UNL     1      18.885 -13.984  10.140  1.00  0.00     0.075 C 
ATOM     31  H1  UNL     1      19.838 -12.715  11.324  1.00  0.00     0.170 HD
HETATM   32  C9  UNL     1      19.918 -15.017  10.444  1.00  0.00     0.089 C 
BRANCH  30  33
HETATM   33  N2  UNL     1      17.785 -14.190   9.280  1.00  0.00    -0.380 N 
ATOM     34  H2  UNL     1      17.467 -13.401   8.717  1.00  0.00     0.160 HD
BRANCH  33  35
HETATM   35  C10 UNL     1      17.081 -15.433   9.142  1.00  0.00     0.116 C 
HETATM   36  C11 UNL     1      16.351 -15.598   7.850  1.00  0.00     0.026 C 
ENDBRANCH  33  35
ENDBRANCH  30  33
ENDBRANCH  26  27
ENDBRANCH   4  25
TORSDOF 10
ENDMDL
MODEL 4
REMARK VINA RESULT: -6.476272891      1.178      1.766
REMARK  10 active torsions:
REMARK  status: ('A' for Active; 'I' for Inactive)
REMARK    1  A    between atoms: C3_3  and  N3_17 
REMARK    2  A    between atoms: C4_4  and  C5_5 
REMARK    3  A    between atoms: C6_6  and  C7_7 
REMARK       I    between atoms: C7_7  and  N1_9 
REMARK    4  A    between atoms: C8_11  and  N2_13 
REMARK    5  A    between atoms: N2_13  and  C10_15 
REMARK    6  A    between atoms: N3_17  and  C12_19 
REMARK    7  A    between atoms: C12_19  and  C15_25 
REMARK       I    between atoms: N4_20  and  C13_22 
REMARK    8  A    between atoms: C15_25  and  C16_26 
REMARK    9  A    between atoms: C15_25  and  N7_32 
REMARK   10  A    between atoms: C16_26  and  N5_27 
REMARK       I    between atoms: N7_32  and  C17_34 
ROOT
HETATM    1  C1  UNL     1      15.112  -9.368  14.648  1.00  0.00     0.019 C 
HETATM    2  C2  UNL     1      15.463  -8.299  14.225  1.00  0.00    -0.060 C 
HETATM    3  C3  UNL     1      15.913  -7.007  13.712  1.00  0.00     0.087 C 
HETATM    4  C4  UNL     1      16.012  -5.971  14.547  1.00  0.00     0.039 C 
ENDROOT
BRANCH   3   5
HETATM    5  N3  UNL     1      16.231  -6.857  12.346  1.00  0.00    -0.337 N 
ATOM      6  H3  UNL     1      15.581  -6.386  11.716  1.00  0.00     0.168 HD
BRANCH   5   7
HETATM    7  C12 UNL     1      17.476  -7.373  11.849  1.00  0.00     0.109 C 
HETATM    8  N4  UNL     1      17.712  -8.614  11.949  1.00  0.00    -0.315 N 
HETATM    9  C13 UNL     1      18.830  -9.339  11.547  1.00  0.00     0.219 C 
ATOM     10  H4  UNL     1      16.974  -9.162  12.390  1.00  0.00     0.170 HD
HETATM   11  C14 UNL     1      18.627 -10.558  10.713  1.00  0.00     0.117 C 
HETATM   12  O2  UNL     1      19.979  -9.000  11.861  1.00  0.00    -0.274 OA
BRANCH   7  13
HETATM   13  C15 UNL     1      18.417  -6.404  11.234  1.00  0.00     0.171 C 
BRANCH  13  14
HETATM   14  C16 UNL     1      19.353  -5.801  12.292  1.00  0.00     0.171 C 
BRANCH  14  15
HETATM   15  N5  UNL     1      20.718  -5.881  11.913  1.00  0.00    -0.341 N 
HETATM   16  N6  UNL     1      21.027  -6.249  10.769  1.00  0.00    -0.349 N 
ATOM     17  H62 UNL     1      20.285  -6.492  10.112  1.00  0.00     0.176 HD
ATOM     18  H61 UNL     1      22.007  -6.307  10.496  1.00  0.00     0.176 HD
ATOM     19  H5  UNL     1      21.448  -5.635  12.582  1.00  0.00     0.179 HD
ENDBRANCH  14  15
ENDBRANCH  13  14
BRANCH  13  20
HETATM   20  N7  UNL     1      17.610  -5.300  10.701  1.00  0.00    -0.348 N 
HETATM   21  C17 UNL     1      18.085  -4.582   9.575  1.00  0.00     0.214 C 
HETATM   22  C18 UNL     1      17.259  -3.465   9.043  1.00  0.00     0.117 C 
HETATM   23  O3  UNL     1      19.167  -4.848   9.012  1.00  0.00    -0.274 OA
ATOM     24  H7  UNL     1      16.720  -5.054  11.134  1.00  0.00     0.163 HD
ENDBRANCH  13  20
ENDBRANCH   7  13
ENDBRANCH   5   7
ENDBRANCH   3   5
BRANCH   4  25
HETATM   25  C5  UNL     1      16.451  -4.704  14.065  1.00  0.00     0.008 C 
HETATM   26  C6  UNL     1      16.640  -3.650  14.767  1.00  0.00     0.074 C 
BRANCH  26  27
HETATM   27  C7  UNL     1      16.452  -3.518  16.183  1.00  0.00     0.246 C 
HETATM   28  O1  UNL     1      17.320  -3.448  17.074  1.00  0.00    -0.268 OA
HETATM   29  N1  UNL     1      15.097  -3.457  16.667  1.00  0.00    -0.314 N 
HETATM   30  C8  UNL     1      14.766  -2.853  17.745  1.00  0.00     0.075 C 
ATOM     31  H1  UNL     1      14.365  -3.917  16.125  1.00  0.00     0.170 HD
HETATM   32  C9  UNL     1      13.318  -2.885  18.104  1.00  0.00     0.089 C 
BRANCH  30  33
HETATM   33  N2  UNL     1      15.760  -2.206  18.511  1.00  0.00    -0.380 N 
ATOM     34  H2  UNL     1      16.554  -2.763  18.827  1.00  0.00     0.160 HD
BRANCH  33  35
HETATM   35  C10 UNL     1      15.732  -0.818  18.877  1.00  0.00     0.116 C 
HETATM   36  C11 UNL     1      15.907   0.132  17.738  1.00  0.00     0.026 C 
ENDBRANCH  33  35
ENDBRANCH  30  33
ENDBRANCH  26  27
ENDBRANCH   4  25
TORSDOF 10
ENDMDL
MODEL 5
REMARK VINA RESULT: -6.113516484      4.439      8.938
REMARK  10 active torsions:
REMARK  status: ('A' for Active; 'I' for Inactive)
REMARK    1  A    between atoms: C3_3  and  N3_17 
REMARK    2  A    between atoms: C4_4  and  C5_5 
REMARK    3  A    between atoms: C6_6  and  C7_7 
REMARK       I    between atoms: C7_7  and  N1_9 
REMARK    4  A    between atoms: C8_11  and  N2_13 
REMARK    5  A    between atoms: N2_13  and  C10_15 
REMARK    6  A    between atoms: N3_17  and  C12_19 
REMARK    7  A    between atoms: C12_19  and  C15_25 
REMARK       I    between atoms: N4_20  and  C13_22 
REMARK    8  A    between atoms: C15_25  and  C16_26 
REMARK    9  A    between atoms: C15_25  and  N7_32 
REMARK   10  A    between atoms: C16_26  and  N5_27 
REMARK       I    between atoms: N7_32  and  C17_34 
ROOT
HETATM    1  C1  UNL     1      16.491 -10.034  13.661  1.00  0.00     0.019 C 
HETATM    2  C2  UNL     1      17.332 -10.031  12.801  1.00  0.00    -0.060 C 
HETATM    3  C3  UNL     1      18.337 -10.028  11.740  1.00  0.00     0.087 C 
HETATM    4  C4  UNL     1      18.966 -11.164  11.434  1.00  0.00     0.039 C 
ENDROOT
BRANCH   3   5
HETATM    5  N3  UNL     1      18.641  -8.835  11.054  1.00  0.00    -0.337 N 
ATOM      6  H3  UNL     1      18.483  -8.766  10.048  1.00  0.00     0.168 HD
BRANCH   5   7
HETATM    7  C12 UNL     1      19.176  -7.717  11.780  1.00  0.00     0.109 C 
HETATM    8  N4  UNL     1      20.197  -7.890  12.511  1.00  0.00    -0.315 N 
HETATM    9  C13 UNL     1      20.889  -6.975  13.299  1.00  0.00     0.219 C 
ATOM     10  H4  UNL     1      20.567  -8.840  12.523  1.00  0.00     0.170 HD
HETATM   11  C14 UNL     1      22.368  -6.875  13.146  1.00  0.00     0.117 C 
HETATM   12  O2  UNL     1      20.311  -6.247  14.118  1.00  0.00    -0.274 OA
BRANCH   7  13
HETATM   13  C15 UNL     1      18.491  -6.410  11.622  1.00  0.00     0.171 C 
BRANCH  13  14
HETATM   14  C16 UNL     1      16.966  -6.575  11.715  1.00  0.00     0.171 C 
BRANCH  14  15
HETATM   15  N5  UNL     1      16.326  -5.403  12.195  1.00  0.00    -0.341 N 
HETATM   16  N6  UNL     1      15.682  -4.682  11.417  1.00  0.00    -0.349 N 
ATOM     17  H62 UNL     1      15.622  -4.947  10.434  1.00  0.00     0.176 HD
ATOM     18  H61 UNL     1      15.222  -3.840  11.762  1.00  0.00     0.176 HD
ATOM     19  H5  UNL     1      16.395  -5.153  13.181  1.00  0.00     0.179 HD
ENDBRANCH  14  15
ENDBRANCH  13  14
BRANCH  13  20
HETATM   20  N7  UNL     1      18.785  -5.933  10.266  1.00  0.00    -0.348 N 
HETATM   21  C17 UNL     1      18.870  -4.538  10.030  1.00  0.00     0.214 C 
HETATM   22  C18 UNL     1      19.168  -4.066   8.652  1.00  0.00     0.117 C 
HETATM   23  O3  UNL     1      18.704  -3.690  10.932  1.00  0.00    -0.274 OA
ATOM     24  H7  UNL     1      18.927  -6.596   9.503  1.00  0.00     0.163 HD
ENDBRANCH  13  20
ENDBRANCH   7  13
ENDBRANCH   5   7
ENDBRANCH   3   5
BRANCH   4  25
HETATM   25  C5  UNL     1      19.948 -11.180  10.401  1.00  0.00     0.008 C 
HETATM   26  C6  UNL     1      20.275 -12.189   9.682  1.00  0.00     0.074 C 
BRANCH  26  27
HETATM   27  C7  UNL     1      19.727 -13.512   9.762  1.00  0.00     0.246 C 
HETATM   28  O1  UNL     1      20.153 -14.487  10.409  1.00  0.00    -0.268 OA
HETATM   29  N1  UNL     1      18.529 -13.778   9.006  1.00  0.00    -0.314 N 
HETATM   30  C8  UNL     1      17.670 -14.662   9.347  1.00  0.00     0.075 C 
ATOM     31  H1  UNL     1      18.358 -13.236   8.159  1.00  0.00     0.170 HD
HETATM   32  C9  UNL     1      16.485 -14.811   8.452  1.00  0.00     0.089 C 
BRANCH  30  33
HETATM   33  N2  UNL     1      17.883 -15.423  10.517  1.00  0.00    -0.380 N 
ATOM     34  H2  UNL     1      18.105 -14.920  11.376  1.00  0.00     0.160 HD
BRANCH  33  35
HETATM   35  C10 UNL     1      17.809 -16.855  10.582  1.00  0.00     0.116 C 
HETATM   36  C11 UNL     1      18.749 -17.572   9.670  1.00  0.00     0.026 C 
ENDBRANCH  33  35
ENDBRANCH  30  33
ENDBRANCH  26  27
ENDBRANCH   4  25
TORSDOF 10
ENDMDL
