MODEL 1
REMARK VINA RESULT: -7.034813966      0.000      0.000
REMARK  10 active torsions:
REMARK  status: ('A' for Active; 'I' for Inactive)
REMARK    1  A    between atoms: C2_2  and  C3_3 
REMARK    2  A    between atoms: C3_3  and  C4_4 
REMARK    3  A    between atoms: N1_5  and  C5_6 
REMARK    4  A    between atoms: C5_6  and  C6_7 
REMARK    5  A    between atoms: C6_7  and  C7_8 
REMARK    6  A    between atoms: C7_8  and  C8_9 
REMARK    7  A    between atoms: C8_9  and  N2_10 
REMARK    8  A    between atoms: C13_15  and  C14_16 
REMARK    9  A    between atoms: C14_16  and  N4_20 
REMARK       I    between atoms: N5_25  and  C18_27 
REMARK   10  A    between atoms: N8_32  and  N9_33 
ROOT
HETATM    1  C4  UNL     1      16.405 -10.632  14.097  1.00  0.00     0.047 A 
HETATM    2  N1  UNL     1      16.877 -10.285  12.972  1.00  0.00    -0.184 N 
HETATM    3  C17 UNL     1      17.072 -11.543  12.221  1.00  0.00     0.707 A 
HETATM    4  N5  UNL     1      17.528 -11.604  11.045  1.00  0.00    -0.162 N 
ATOM      5  H5  UNL     1      17.770 -10.716  10.604  1.00  0.00     0.187 HD
HETATM    6  C18 UNL     1      17.739 -12.772  10.273  1.00  0.00     0.202 C 
HETATM    7  N6  UNL     1      18.933 -13.506  10.322  1.00  0.00    -0.063 NA
HETATM    8  N7  UNL     1      16.773 -13.159   9.489  1.00  0.00    -0.368 N 
ATOM      9  H7  UNL     1      15.898 -12.639   9.434  1.00  0.00     0.161 HD
HETATM   10  C19 UNL     1      16.987 -14.360   8.697  1.00  0.00     0.148 C 
HETATM   11  N8  UNL     1      16.669 -12.611  13.038  1.00  0.00    -0.102 N 
HETATM   12  C20 UNL     1      16.269 -12.136  14.148  1.00  0.00     0.160 A 
ENDROOT
BRANCH   2  13
HETATM   13  C5  UNL     1      17.188  -9.059  12.316  1.00  0.00     0.147 C 
BRANCH  13  14
HETATM   14  C6  UNL     1      16.213  -7.944  12.284  1.00  0.00     0.022 C 
BRANCH  14  15
HETATM   15  C7  UNL     1      16.564  -6.805  13.193  1.00  0.00     0.022 C 
BRANCH  15  16
HETATM   16  C8  UNL     1      16.280  -5.475  12.481  1.00  0.00     0.128 C 
BRANCH  16  17
HETATM   17  N2  UNL     1      17.473  -5.153  11.709  1.00  0.00    -0.365 N 
HETATM   18  C9  UNL     1      18.679  -5.467  12.216  1.00  0.00     0.097 A 
HETATM   19  C10 UNL     1      19.847  -5.164  11.515  1.00  0.00    -0.045 A 
HETATM   20  C11 UNL     1      21.176  -5.502  12.074  1.00  0.00     0.049 C 
HETATM   21  C12 UNL     1      19.707  -4.539  10.298  1.00  0.00     0.024 A 
HETATM   22  C13 UNL     1      18.469  -4.208   9.758  1.00  0.00     0.023 A 
HETATM   23  C16 UNL     1      17.361  -4.546  10.523  1.00  0.00     0.105 A 
BRANCH  22  24
HETATM   24  C14 UNL     1      18.328  -3.545   8.468  1.00  0.00     0.105 C 
HETATM   25  N3  UNL     1      17.188  -3.057   8.152  1.00  0.00    -0.385 N 
ATOM     26  H32 UNL     1      16.381  -3.123   8.773  1.00  0.00     0.157 HD
ATOM     27  H31 UNL     1      17.090  -2.593   7.249  1.00  0.00     0.157 HD
BRANCH  24  28
HETATM   28  N4  UNL     1      19.451  -3.453   7.603  1.00  0.00    -0.380 N 
HETATM   29  C15 UNL     1      19.458  -4.203   6.346  1.00  0.00     0.147 C 
ATOM     30  H4  UNL     1      20.247  -2.869   7.857  1.00  0.00     0.160 HD
ENDBRANCH  24  28
ENDBRANCH  22  24
ENDBRANCH  16  17
ENDBRANCH  15  16
ENDBRANCH  14  15
ENDBRANCH  13  14
ENDBRANCH   2  13
BRANCH   1  31
HETATM   31  C3  UNL     1      15.960  -9.808  15.246  1.00  0.00     0.059 C 
BRANCH  31  32
HETATM   32  C2  UNL     1      14.468  -9.464  15.079  1.00  0.00     0.002 C 
HETATM   33  C1  UNL     1      13.704 -10.320  16.059  1.00  0.00     0.005 C 
ENDBRANCH  31  32
ENDBRANCH   1  31
BRANCH  11  34
HETATM   34  N9  UNL     1      16.720 -13.975  12.641  1.00  0.00    -0.325 N 
ATOM     35  H92 UNL     1      17.196 -14.746  13.110  1.00  0.00     0.178 HD
ATOM     36  H91 UNL     1      16.265 -14.341  11.805  1.00  0.00     0.178 HD
ENDBRANCH  11  34
TORSDOF 10
ENDMDL
MODEL 2
REMARK VINA RESULT: -6.973058497      2.244      4.119
REMARK  10 active torsions:
REMARK  status: ('A' for Active; 'I' for Inactive)
REMARK    1  A    between atoms: C2_2  and  C3_3 
REMARK    2  A    between atoms: C3_3  and  C4_4 
REMARK    3  A    between atoms: N1_5  and  C5_6 
REMARK    4  A    between atoms: C5_6  and  C6_7 
REMARK    5  A    between atoms: C6_7  and  C7_8 
REMARK    6  A    between atoms: C7_8  and  C8_9 
REMARK    7  A    between atoms: C8_9  and  N2_10 
REMARK    8  A    between atoms: C13_15  and  C14_16 
REMARK    9  A    between atoms: C14_16  and  N4_20 
REMARK       I    between atoms: N5_25  and  C18_27 
REMARK   10  A    between atoms: N8_32  and  N9_33 
ROOT
HETATM    1  C4  UNL     1      16.799  -9.681  12.942  1.00  0.00     0.047 A 
HETATM    2  N1  UNL     1      15.988  -8.997  13.636  1.00  0.00    -0.184 N 
HETATM    3  C17 UNL     1      15.335  -9.962  14.546  1.00  0.00     0.707 A 
HETATM    4  N5  UNL     1      14.460  -9.651  15.400  1.00  0.00    -0.162 N 
ATOM      5  H5  UNL     1      14.201  -8.666  15.450  1.00  0.00     0.187 HD
HETATM    6  C18 UNL     1      13.798 -10.525  16.298  1.00  0.00     0.202 C 
HETATM    7  N6  UNL     1      12.620 -11.207  15.960  1.00  0.00    -0.063 NA
HETATM    8  N7  UNL     1      14.320 -10.681  17.481  1.00  0.00    -0.368 N 
ATOM      9  H7  UNL     1      15.173 -10.192  17.750  1.00  0.00     0.161 HD
HETATM   10  C19 UNL     1      13.643 -11.579  18.404  1.00  0.00     0.148 C 
HETATM   11  N8  UNL     1      15.859 -11.238  14.284  1.00  0.00    -0.102 N 
HETATM   12  C20 UNL     1      16.719 -11.132  13.353  1.00  0.00     0.160 A 
ENDROOT
BRANCH   2  13
HETATM   13  C5  UNL     1      15.634  -7.621  13.755  1.00  0.00     0.147 C 
BRANCH  13  14
HETATM   14  C6  UNL     1      16.379  -6.720  14.664  1.00  0.00     0.022 C 
BRANCH  14  15
HETATM   15  C7  UNL     1      16.949  -5.511  13.984  1.00  0.00     0.022 C 
BRANCH  15  16
HETATM   16  C8  UNL     1      16.363  -5.395  12.569  1.00  0.00     0.128 C 
BRANCH  16  17
HETATM   17  N2  UNL     1      17.489  -5.190  11.668  1.00  0.00    -0.365 N 
HETATM   18  C9  UNL     1      18.689  -5.703  12.000  1.00  0.00     0.097 A 
HETATM   19  C10 UNL     1      19.796  -5.517  11.172  1.00  0.00    -0.045 A 
HETATM   20  C11 UNL     1      21.119  -6.074  11.538  1.00  0.00     0.049 C 
HETATM   21  C12 UNL     1      19.605  -4.795  10.016  1.00  0.00     0.024 A 
HETATM   22  C13 UNL     1      18.373  -4.259   9.657  1.00  0.00     0.023 A 
HETATM   23  C16 UNL     1      17.328  -4.492  10.539  1.00  0.00     0.105 A 
BRANCH  22  24
HETATM   24  C14 UNL     1      18.179  -3.496   8.431  1.00  0.00     0.105 C 
HETATM   25  N3  UNL     1      17.037  -2.955   8.222  1.00  0.00    -0.385 N 
ATOM     26  H32 UNL     1      16.267  -3.047   8.884  1.00  0.00     0.157 HD
ATOM     27  H31 UNL     1      16.902  -2.420   7.364  1.00  0.00     0.157 HD
BRANCH  24  28
HETATM   28  N4  UNL     1      19.251  -3.367   7.509  1.00  0.00    -0.380 N 
HETATM   29  C15 UNL     1      19.214  -4.109   6.249  1.00  0.00     0.147 C 
ATOM     30  H4  UNL     1      20.043  -2.762   7.725  1.00  0.00     0.160 HD
ENDBRANCH  24  28
ENDBRANCH  22  24
ENDBRANCH  16  17
ENDBRANCH  15  16
ENDBRANCH  14  15
ENDBRANCH  13  14
ENDBRANCH   2  13
BRANCH   1  31
HETATM   31  C3  UNL     1      17.767  -9.257  11.903  1.00  0.00     0.059 C 
BRANCH  31  32
HETATM   32  C2  UNL     1      19.184  -9.697  12.317  1.00  0.00     0.002 C 
HETATM   33  C1  UNL     1      19.569  -8.874  13.522  1.00  0.00     0.005 C 
ENDBRANCH  31  32
ENDBRANCH   1  31
BRANCH  11  34
HETATM   34  N9  UNL     1      15.458 -12.416  14.972  1.00  0.00    -0.325 N 
ATOM     35  H92 UNL     1      15.565 -12.628  15.964  1.00  0.00     0.178 HD
ATOM     36  H91 UNL     1      15.000 -13.208  14.522  1.00  0.00     0.178 HD
ENDBRANCH  11  34
TORSDOF 10
ENDMDL
MODEL 3
REMARK VINA RESULT: -6.798590755      1.937      4.573
REMARK  10 active torsions:
REMARK  status: ('A' for Active; 'I' for Inactive)
REMARK    1  A    between atoms: C2_2  and  C3_3 
REMARK    2  A    between atoms: C3_3  and  C4_4 
REMARK    3  A    between atoms: N1_5  and  C5_6 
REMARK    4  A    between atoms: C5_6  and  C6_7 
REMARK    5  A    between atoms: C6_7  and  C7_8 
REMARK    6  A    between atoms: C7_8  and  C8_9 
REMARK    7  A    between atoms: C8_9  and  N2_10 
REMARK    8  A    between atoms: C13_15  and  C14_16 
REMARK    9  A    between atoms: C14_16  and  N4_20 
REMARK       I    between atoms: N5_25  and  C18_27 
REMARK   10  A    between atoms: N8_32  and  N9_33 
ROOT
HETATM    1  C4  UNL     1      17.243 -10.866  12.350  1.00  0.00     0.047 A 
HETATM    2  N1  UNL     1      16.759  -9.827  12.891  1.00  0.00    -0.184 N 
HETATM    3  C17 UNL     1      15.998 -10.309  14.063  1.00  0.00     0.707 A 
HETATM    4  N5  UNL     1      15.372  -9.557  14.860  1.00  0.00    -0.162 N 
ATOM      5  H5  UNL     1      15.406  -8.557  14.665  1.00  0.00     0.187 HD
HETATM    6  C18 UNL     1      14.626  -9.955  15.997  1.00  0.00     0.202 C 
HETATM    7  N6  UNL     1      13.270 -10.305  15.928  1.00  0.00    -0.063 NA
HETATM    8  N7  UNL     1      15.244  -9.983  17.144  1.00  0.00    -0.368 N 
ATOM      9  H7  UNL     1      16.229  -9.728  17.219  1.00  0.00     0.161 HD
HETATM   10  C19 UNL     1      14.481 -10.392  18.312  1.00  0.00     0.148 C 
HETATM   11  N8  UNL     1      16.105 -11.708  14.113  1.00  0.00    -0.102 N 
HETATM   12  C20 UNL     1      16.823 -12.088  13.134  1.00  0.00     0.160 A 
ENDROOT
BRANCH   2  13
HETATM   13  C5  UNL     1      16.821  -8.421  12.666  1.00  0.00     0.147 C 
BRANCH  13  14
HETATM   14  C6  UNL     1      18.120  -7.709  12.650  1.00  0.00     0.022 C 
BRANCH  14  15
HETATM   15  C7  UNL     1      18.595  -7.346  11.275  1.00  0.00     0.022 C 
BRANCH  15  16
HETATM   16  C8  UNL     1      19.341  -6.005  11.328  1.00  0.00     0.128 C 
BRANCH  16  17
HETATM   17  N2  UNL     1      18.644  -5.105  10.419  1.00  0.00    -0.365 N 
HETATM   18  C9  UNL     1      17.495  -4.533  10.825  1.00  0.00     0.097 A 
HETATM   19  C10 UNL     1      16.790  -3.676   9.980  1.00  0.00    -0.045 A 
HETATM   20  C11 UNL     1      15.522  -3.050  10.422  1.00  0.00     0.049 C 
HETATM   21  C12 UNL     1      17.318  -3.446   8.731  1.00  0.00     0.024 A 
HETATM   22  C13 UNL     1      18.504  -4.028   8.295  1.00  0.00     0.023 A 
HETATM   23  C16 UNL     1      19.139  -4.866   9.200  1.00  0.00     0.105 A 
BRANCH  22  24
HETATM   24  C14 UNL     1      19.057  -3.780   6.970  1.00  0.00     0.105 C 
HETATM   25  N3  UNL     1      18.338  -3.156   6.114  1.00  0.00    -0.385 N 
ATOM     26  H32 UNL     1      17.394  -2.835   6.333  1.00  0.00     0.157 HD
ATOM     27  H31 UNL     1      18.725  -2.983   5.186  1.00  0.00     0.157 HD
BRANCH  24  28
HETATM   28  N4  UNL     1      20.370  -4.227   6.665  1.00  0.00    -0.380 N 
HETATM   29  C15 UNL     1      20.608  -4.984   5.436  1.00  0.00     0.147 C 
ATOM     30  H4  UNL     1      21.142  -4.021   7.299  1.00  0.00     0.160 HD
ENDBRANCH  24  28
ENDBRANCH  22  24
ENDBRANCH  16  17
ENDBRANCH  15  16
ENDBRANCH  14  15
ENDBRANCH  13  14
ENDBRANCH   2  13
BRANCH   1  31
HETATM   31  C3  UNL     1      18.136 -11.010  11.176  1.00  0.00     0.059 C 
BRANCH  31  32
HETATM   32  C2  UNL     1      17.627 -12.160  10.287  1.00  0.00     0.002 C 
HETATM   33  C1  UNL     1      18.832 -12.970   9.877  1.00  0.00     0.005 C 
ENDBRANCH  31  32
ENDBRANCH   1  31
BRANCH  11  34
HETATM   34  N9  UNL     1      15.494 -12.514  15.111  1.00  0.00    -0.325 N 
ATOM     35  H92 UNL     1      15.424 -12.326  16.112  1.00  0.00     0.178 HD
ATOM     36  H91 UNL     1      15.040 -13.407  14.921  1.00  0.00     0.178 HD
ENDBRANCH  11  34
TORSDOF 10
ENDMDL
MODEL 4
REMARK VINA RESULT: -6.757850440      4.086      6.522
REMARK  10 active torsions:
REMARK  status: ('A' for Active; 'I' for Inactive)
REMARK    1  A    between atoms: C2_2  and  C3_3 
REMARK    2  A    between atoms: C3_3  and  C4_4 
REMARK    3  A    between atoms: N1_5  and  C5_6 
REMARK    4  A    between atoms: C5_6  and  C6_7 
REMARK    5  A    between atoms: C6_7  and  C7_8 
REMARK    6  A    between atoms: C7_8  and  C8_9 
REMARK    7  A    between atoms: C8_9  and  N2_10 
REMARK    8  A    between atoms: C13_15  and  C14_16 
REMARK    9  A    between atoms: C14_16  and  N4_20 
REMARK       I    between atoms: N5_25  and  C18_27 
REMARK   10  A    between atoms: N8_32  and  N9_33 
ROOT
HETATM    1  C4  UNL     1      15.005  -7.188  17.030  1.00  0.00     0.047 A 
HETATM    2  N1  UNL     1      15.615  -6.551  16.119  1.00  0.00    -0.184 N 
HETATM    3  C17 UNL     1      15.475  -5.123  16.475  1.00  0.00     0.707 A 
HETATM    4  N5  UNL     1      15.959  -4.173  15.799  1.00  0.00    -0.162 N 
ATOM      5  H5  UNL     1      16.477  -4.429  14.959  1.00  0.00     0.187 HD
HETATM    6  C18 UNL     1      15.860  -2.789  16.084  1.00  0.00     0.202 C 
HETATM    7  N6  UNL     1      14.789  -1.999  15.641  1.00  0.00    -0.063 NA
HETATM    8  N7  UNL     1      16.817  -2.247  16.783  1.00  0.00    -0.368 N 
ATOM      9  H7  UNL     1      17.608  -2.801  17.112  1.00  0.00     0.161 HD
HETATM   10  C19 UNL     1      16.718  -0.827  17.078  1.00  0.00     0.148 C 
HETATM   11  N8  UNL     1      14.729  -5.035  17.661  1.00  0.00    -0.102 N 
HETATM   12  C20 UNL     1      14.427  -6.214  18.031  1.00  0.00     0.160 A 
ENDROOT
BRANCH   2  13
HETATM   13  C5  UNL     1      16.376  -6.880  14.960  1.00  0.00     0.147 C 
BRANCH  13  14
HETATM   14  C6  UNL     1      15.736  -7.517  13.786  1.00  0.00     0.022 C 
BRANCH  14  15
HETATM   15  C7  UNL     1      16.323  -7.093  12.473  1.00  0.00     0.022 C 
BRANCH  15  16
HETATM   16  C8  UNL     1      16.373  -5.560  12.405  1.00  0.00     0.128 C 
BRANCH  16  17
HETATM   17  N2  UNL     1      17.557  -5.216  11.628  1.00  0.00    -0.365 N 
HETATM   18  C9  UNL     1      18.769  -5.535  12.118  1.00  0.00     0.097 A 
HETATM   19  C10 UNL     1      19.929  -5.210  11.413  1.00  0.00    -0.045 A 
HETATM   20  C11 UNL     1      21.265  -5.554  11.952  1.00  0.00     0.049 C 
HETATM   21  C12 UNL     1      19.775  -4.560  10.210  1.00  0.00     0.024 A 
HETATM   22  C13 UNL     1      18.529  -4.224   9.689  1.00  0.00     0.023 A 
HETATM   23  C16 UNL     1      17.431  -4.584  10.457  1.00  0.00     0.105 A 
BRANCH  22  24
HETATM   24  C14 UNL     1      18.374  -3.535   8.414  1.00  0.00     0.105 C 
HETATM   25  N3  UNL     1      17.241  -3.005   8.140  1.00  0.00    -0.385 N 
ATOM     26  H32 UNL     1      16.451  -3.057   8.783  1.00  0.00     0.157 HD
ATOM     27  H31 UNL     1      17.133  -2.523   7.248  1.00  0.00     0.157 HD
BRANCH  24  28
HETATM   28  N4  UNL     1      19.474  -3.463   7.519  1.00  0.00    -0.380 N 
HETATM   29  C15 UNL     1      19.419  -4.184   6.247  1.00  0.00     0.147 C 
ATOM     30  H4  UNL     1      20.298  -2.913   7.762  1.00  0.00     0.160 HD
ENDBRANCH  24  28
ENDBRANCH  22  24
ENDBRANCH  16  17
ENDBRANCH  15  16
ENDBRANCH  14  15
ENDBRANCH  13  14
ENDBRANCH   2  13
BRANCH   1  31
HETATM   31  C3  UNL     1      14.850  -8.647  17.242  1.00  0.00     0.059 C 
BRANCH  31  32
HETATM   32  C2  UNL     1      13.497  -9.104  16.665  1.00  0.00     0.002 C 
HETATM   33  C1  UNL     1      13.793 -10.156  15.624  1.00  0.00     0.005 C 
ENDBRANCH  31  32
ENDBRANCH   1  31
BRANCH  11  34
HETATM   34  N9  UNL     1      14.395  -3.809  18.298  1.00  0.00    -0.325 N 
ATOM     35  H92 UNL     1      14.968  -3.260  18.939  1.00  0.00     0.178 HD
ATOM     36  H91 UNL     1      13.504  -3.328  18.174  1.00  0.00     0.178 HD
ENDBRANCH  11  34
TORSDOF 10
ENDMDL
MODEL 5
REMARK VINA RESULT: -6.729239670      1.060      1.812
REMARK  10 active torsions:
REMARK  status: ('A' for Active; 'I' for Inactive)
REMARK    1  A    between atoms: C2_2  and  C3_3 
REMARK    2  A    between atoms: C3_3  and  C4_4 
REMARK    3  A    between atoms: N1_5  and  C5_6 
REMARK    4  A    between atoms: C5_6  and  C6_7 
REMARK    5  A    between atoms: C6_7  and  C7_8 
REMARK    6  A    between atoms: C7_8  and  C8_9 
REMARK    7  A    between atoms: C8_9  and  N2_10 
REMARK    8  A    between atoms: C13_15  and  C14_16 
REMARK    9  A    between atoms: C14_16  and  N4_20 
REMARK       I    between atoms: N5_25  and  C18_27 
REMARK   10  A    between atoms: N8_32  and  N9_33 
ROOT
HETATM    1  C4  UNL     1      16.945 -11.090  13.903  1.00  0.00     0.047 A 
HETATM    2  N1  UNL     1      17.162 -10.705  12.715  1.00  0.00    -0.184 N 
HETATM    3  C17 UNL     1      17.287 -11.941  11.915  1.00  0.00     0.707 A 
HETATM    4  N5  UNL     1      17.504 -11.964  10.672  1.00  0.00    -0.162 N 
ATOM      5  H5  UNL     1      17.595 -11.059  10.209  1.00  0.00     0.187 HD
HETATM    6  C18 UNL     1      17.634 -13.110   9.851  1.00  0.00     0.202 C 
HETATM    7  N6  UNL     1      18.860 -13.761   9.649  1.00  0.00    -0.063 NA
HETATM    8  N7  UNL     1      16.560 -13.557   9.264  1.00  0.00    -0.368 N 
ATOM      9  H7  UNL     1      15.659 -13.097   9.393  1.00  0.00     0.161 HD
HETATM   10  C19 UNL     1      16.691 -14.735   8.422  1.00  0.00     0.148 C 
HETATM   11  N8  UNL     1      17.124 -13.040  12.774  1.00  0.00    -0.102 N 
HETATM   12  C20 UNL     1      16.921 -12.600  13.950  1.00  0.00     0.160 A 
ENDROOT
BRANCH   2  13
HETATM   13  C5  UNL     1      17.256  -9.456  12.035  1.00  0.00     0.147 C 
BRANCH  13  14
HETATM   14  C6  UNL     1      18.562  -8.948  11.554  1.00  0.00     0.022 C 
BRANCH  14  15
HETATM   15  C7  UNL     1      19.316  -8.154  12.579  1.00  0.00     0.022 C 
BRANCH  15  16
HETATM   16  C8  UNL     1      20.053  -6.997  11.888  1.00  0.00     0.128 C 
BRANCH  16  17
HETATM   17  N2  UNL     1      19.069  -5.943  11.678  1.00  0.00    -0.365 N 
HETATM   18  C9  UNL     1      18.327  -5.530  12.723  1.00  0.00     0.097 A 
HETATM   19  C10 UNL     1      17.364  -4.534  12.562  1.00  0.00    -0.045 A 
HETATM   20  C11 UNL     1      16.541  -4.082  13.708  1.00  0.00     0.049 C 
HETATM   21  C12 UNL     1      17.213  -4.001  11.302  1.00  0.00     0.024 A 
HETATM   22  C13 UNL     1      17.971  -4.415  10.213  1.00  0.00     0.023 A 
HETATM   23  C16 UNL     1      18.905  -5.410  10.463  1.00  0.00     0.105 A 
BRANCH  22  24
HETATM   24  C14 UNL     1      17.805  -3.846   8.881  1.00  0.00     0.105 C 
HETATM   25  N3  UNL     1      16.624  -3.770   8.392  1.00  0.00    -0.385 N 
ATOM     26  H32 UNL     1      15.805  -4.099   8.904  1.00  0.00     0.157 HD
ATOM     27  H31 UNL     1      16.508  -3.372   7.460  1.00  0.00     0.157 HD
BRANCH  24  28
HETATM   28  N4  UNL     1      18.945  -3.388   8.168  1.00  0.00    -0.380 N 
HETATM   29  C15 UNL     1      19.228  -3.926   6.837  1.00  0.00     0.147 C 
ATOM     30  H4  UNL     1      19.562  -2.690   8.582  1.00  0.00     0.160 HD
ENDBRANCH  24  28
ENDBRANCH  22  24
ENDBRANCH  16  17
ENDBRANCH  15  16
ENDBRANCH  14  15
ENDBRANCH  13  14
ENDBRANCH   2  13
BRANCH   1  31
HETATM   31  C3  UNL     1      16.683 -10.306  15.134  1.00  0.00     0.059 C 
BRANCH  31  32
HETATM   32  C2  UNL     1      15.184 -10.380  15.475  1.00  0.00     0.002 C 
HETATM   33  C1  UNL     1      14.489  -9.327  14.648  1.00  0.00     0.005 C 
ENDBRANCH  31  32
ENDBRANCH   1  31
BRANCH  11  34
HETATM   34  N9  UNL     1      17.185 -14.395  12.348  1.00  0.00    -0.325 N 
ATOM     35  H92 UNL     1      17.028 -14.764  11.410  1.00  0.00     0.178 HD
ATOM     36  H91 UNL     1      17.402 -15.176  12.967  1.00  0.00     0.178 HD
ENDBRANCH  11  34
TORSDOF 10
ENDMDL
