MODEL 1
REMARK VINA RESULT: -8.098949546      0.000      0.000
REMARK  10 active torsions:
REMARK  status: ('A' for Active; 'I' for Inactive)
REMARK    1  A    between atoms: C3_3  and  O1_4 
REMARK    2  A    between atoms: C11_13  and  O2_14 
REMARK    3  A    between atoms: O2_14  and  S1_15 
REMARK    4  A    between atoms: C13_20  and  C14_21 
REMARK    5  A    between atoms: C14_21  and  C15_22 
REMARK    6  A    between atoms: C15_22  and  C16_23 
REMARK    7  A    between atoms: C16_23  and  C17_24 
REMARK    8  A    between atoms: C17_24  and  C18_25 
REMARK    9  A    between atoms: C18_25  and  O6_26 
REMARK   10  A    between atoms: C23_32  and  O7_33 
ROOT
HETATM    1  C1  UNL     1      70.711  77.875  48.279  1.00  0.00     0.013 C 
HETATM    2  C2  UNL     1      70.265  79.261  48.677  1.00  0.00     0.017 C 
HETATM    3  C3  UNL     1      69.517  79.986  47.584  1.00  0.00     0.122 C 
HETATM    4  C4  UNL     1      70.339  81.240  47.268  1.00  0.00     0.037 C 
HETATM    5  C5  UNL     1      71.718  80.765  47.623  1.00  0.00    -0.001 C 
HETATM    6  C6  UNL     1      72.750  81.848  47.724  1.00  0.00    -0.001 C 
HETATM    7  C7  UNL     1      74.066  81.151  47.875  1.00  0.00     0.033 C 
HETATM    8  C8  UNL     1      75.057  81.944  48.615  1.00  0.00    -0.023 C 
HETATM    9  C9  UNL     1      74.828  83.170  49.075  1.00  0.00    -0.072 C 
HETATM   10  C10 UNL     1      76.029  83.761  49.803  1.00  0.00     0.068 C 
HETATM   11  C11 UNL     1      75.781  85.243  50.021  1.00  0.00     0.149 C 
HETATM   12  C12 UNL     1      74.505  85.278  50.821  1.00  0.00     0.039 C 
HETATM   13  C13 UNL     1      73.303  84.849  50.004  1.00  0.00     0.001 C 
HETATM   14  C19 UNL     1      73.554  83.914  48.888  1.00  0.00    -0.013 C 
HETATM   15  C20 UNL     1      73.652  84.593  47.534  1.00  0.00     0.021 C 
HETATM   16  C21 UNL     1      72.437  82.882  48.737  1.00  0.00     0.005 C 
HETATM   17  C22 UNL     1      71.932  82.357  50.042  1.00  0.00     0.038 C 
HETATM   18  C23 UNL     1      71.203  81.071  50.012  1.00  0.00     0.123 C 
HETATM   19  C24 UNL     1      71.523  80.105  48.942  1.00  0.00     0.025 C 
ENDROOT
BRANCH  13  20
HETATM   20  C14 UNL     1      72.539  86.104  49.743  1.00  0.00     0.006 C 
BRANCH  20  21
HETATM   21  C15 UNL     1      73.237  87.401  49.837  1.00  0.00     0.000 C 
BRANCH  21  22
HETATM   22  C16 UNL     1      72.367  88.423  49.050  1.00  0.00     0.002 C 
BRANCH  22  23
HETATM   23  C17 UNL     1      73.242  89.370  48.291  1.00  0.00     0.026 C 
BRANCH  23  24
HETATM   24  C18 UNL     1      73.491  88.951  46.859  1.00  0.00     0.164 C 
BRANCH  24  25
HETATM   25  O6  UNL     1      74.615  88.126  46.809  1.00  0.00    -0.401 OA
ATOM     26  H6  UNL     1      74.768  87.858  45.910  1.00  0.00     0.209 HD
ENDBRANCH  24  25
ENDBRANCH  23  24
ENDBRANCH  22  23
ENDBRANCH  21  22
ENDBRANCH  20  21
ENDBRANCH  13  20
BRANCH  11  27
HETATM   27  O2  UNL     1      76.809  85.772  50.757  1.00  0.00    -0.251 OA
BRANCH  27  28
HETATM   28  S1  UNL     1      77.152  87.332  50.255  1.00  0.00     0.251 S 
HETATM   29  O3  UNL     1      76.815  88.356  51.312  1.00  0.00    -0.572 OA
HETATM   30  O4  UNL     1      76.391  87.711  49.024  1.00  0.00    -0.572 OA
HETATM   31  O5  UNL     1      78.799  87.405  49.839  1.00  0.00    -0.572 OA
ENDBRANCH  27  28
ENDBRANCH  11  27
BRANCH  18  32
HETATM   32  O7  UNL     1      71.439  80.411  51.247  1.00  0.00    -0.395 OA
ATOM     33  H7  UNL     1      71.441  79.476  51.079  1.00  0.00     0.210 HD
ENDBRANCH  18  32
BRANCH   3  34
HETATM   34  O1  UNL     1      68.216  80.294  47.928  1.00  0.00    -0.395 OA
ATOM     35  H1  UNL     1      68.099  81.206  48.168  1.00  0.00     0.210 HD
ENDBRANCH   3  34
TORSDOF 10
ENDMDL
MODEL 2
REMARK VINA RESULT: -7.467823772      3.206      7.678
REMARK  10 active torsions:
REMARK  status: ('A' for Active; 'I' for Inactive)
REMARK    1  A    between atoms: C3_3  and  O1_4 
REMARK    2  A    between atoms: C11_13  and  O2_14 
REMARK    3  A    between atoms: O2_14  and  S1_15 
REMARK    4  A    between atoms: C13_20  and  C14_21 
REMARK    5  A    between atoms: C14_21  and  C15_22 
REMARK    6  A    between atoms: C15_22  and  C16_23 
REMARK    7  A    between atoms: C16_23  and  C17_24 
REMARK    8  A    between atoms: C17_24  and  C18_25 
REMARK    9  A    between atoms: C18_25  and  O6_26 
REMARK   10  A    between atoms: C23_32  and  O7_33 
ROOT
HETATM    1  C1  UNL     1      79.972  87.258  52.635  1.00  0.00     0.013 C 
HETATM    2  C2  UNL     1      79.168  87.945  51.558  1.00  0.00     0.017 C 
HETATM    3  C3  UNL     1      78.347  89.103  52.071  1.00  0.00     0.122 C 
HETATM    4  C4  UNL     1      76.884  88.749  51.781  1.00  0.00     0.037 C 
HETATM    5  C5  UNL     1      76.948  87.250  51.830  1.00  0.00    -0.001 C 
HETATM    6  C6  UNL     1      75.738  86.552  51.285  1.00  0.00    -0.001 C 
HETATM    7  C7  UNL     1      75.914  85.103  51.616  1.00  0.00     0.033 C 
HETATM    8  C8  UNL     1      75.242  84.208  50.664  1.00  0.00    -0.023 C 
HETATM    9  C9  UNL     1      74.519  84.634  49.632  1.00  0.00    -0.072 C 
HETATM   10  C10 UNL     1      73.935  83.493  48.810  1.00  0.00     0.068 C 
HETATM   11  C11 UNL     1      72.901  84.065  47.856  1.00  0.00     0.149 C 
HETATM   12  C12 UNL     1      73.679  85.067  47.043  1.00  0.00     0.039 C 
HETATM   13  C13 UNL     1      74.091  86.274  47.862  1.00  0.00     0.001 C 
HETATM   14  C19 UNL     1      74.274  86.066  49.313  1.00  0.00    -0.013 C 
HETATM   15  C20 UNL     1      73.077  86.489  50.145  1.00  0.00     0.021 C 
HETATM   16  C21 UNL     1      75.450  86.869  49.868  1.00  0.00     0.005 C 
HETATM   17  C22 UNL     1      76.642  86.879  48.967  1.00  0.00     0.038 C 
HETATM   18  C23 UNL     1      77.943  87.223  49.578  1.00  0.00     0.123 C 
HETATM   19  C24 UNL     1      78.148  86.932  51.011  1.00  0.00     0.025 C 
ENDROOT
BRANCH  13  20
HETATM   20  C14 UNL     1      73.213  87.384  47.391  1.00  0.00     0.006 C 
BRANCH  20  21
HETATM   21  C15 UNL     1      73.832  88.641  46.926  1.00  0.00     0.000 C 
BRANCH  21  22
HETATM   22  C16 UNL     1      72.883  89.789  47.377  1.00  0.00     0.002 C 
BRANCH  22  23
HETATM   23  C17 UNL     1      73.007  90.955  46.449  1.00  0.00     0.026 C 
BRANCH  23  24
HETATM   24  C18 UNL     1      73.853  90.672  45.228  1.00  0.00     0.164 C 
BRANCH  24  25
HETATM   25  O6  UNL     1      73.126  90.990  44.080  1.00  0.00    -0.401 OA
ATOM     26  H6  UNL     1      73.603  91.640  43.577  1.00  0.00     0.209 HD
ENDBRANCH  24  25
ENDBRANCH  23  24
ENDBRANCH  22  23
ENDBRANCH  21  22
ENDBRANCH  20  21
ENDBRANCH  13  20
BRANCH  11  27
HETATM   27  O2  UNL     1      72.431  83.067  47.043  1.00  0.00    -0.251 OA
BRANCH  27  28
HETATM   28  S1  UNL     1      70.984  82.462  47.628  1.00  0.00     0.251 S 
HETATM   29  O3  UNL     1      70.096  83.549  48.185  1.00  0.00    -0.572 OA
HETATM   30  O4  UNL     1      71.188  81.463  48.723  1.00  0.00    -0.572 OA
HETATM   31  O5  UNL     1      70.208  81.631  46.363  1.00  0.00    -0.572 OA
ENDBRANCH  27  28
ENDBRANCH  11  27
BRANCH  18  32
HETATM   32  O7  UNL     1      78.953  86.523  48.867  1.00  0.00    -0.395 OA
ATOM     33  H7  UNL     1      79.773  86.648  49.331  1.00  0.00     0.210 HD
ENDBRANCH  18  32
BRANCH   3  34
HETATM   34  O1  UNL     1      78.706  90.313  51.511  1.00  0.00    -0.395 OA
ATOM     35  H1  UNL     1      79.304  90.814  52.053  1.00  0.00     0.210 HD
ENDBRANCH   3  34
TORSDOF 10
ENDMDL
MODEL 3
REMARK VINA RESULT: -7.409621689      2.790      6.682
REMARK  10 active torsions:
REMARK  status: ('A' for Active; 'I' for Inactive)
REMARK    1  A    between atoms: C3_3  and  O1_4 
REMARK    2  A    between atoms: C11_13  and  O2_14 
REMARK    3  A    between atoms: O2_14  and  S1_15 
REMARK    4  A    between atoms: C13_20  and  C14_21 
REMARK    5  A    between atoms: C14_21  and  C15_22 
REMARK    6  A    between atoms: C15_22  and  C16_23 
REMARK    7  A    between atoms: C16_23  and  C17_24 
REMARK    8  A    between atoms: C17_24  and  C18_25 
REMARK    9  A    between atoms: C18_25  and  O6_26 
REMARK   10  A    between atoms: C23_32  and  O7_33 
ROOT
HETATM    1  C1  UNL     1      73.278  90.973  47.119  1.00  0.00     0.013 C 
HETATM    2  C2  UNL     1      72.701  89.580  47.193  1.00  0.00     0.017 C 
HETATM    3  C3  UNL     1      71.611  89.440  48.227  1.00  0.00     0.122 C 
HETATM    4  C4  UNL     1      72.109  88.392  49.230  1.00  0.00     0.037 C 
HETATM    5  C5  UNL     1      73.593  88.584  49.116  1.00  0.00    -0.001 C 
HETATM    6  C6  UNL     1      74.417  87.500  49.743  1.00  0.00    -0.001 C 
HETATM    7  C7  UNL     1      75.833  87.983  49.703  1.00  0.00     0.033 C 
HETATM    8  C8  UNL     1      76.814  86.890  49.646  1.00  0.00    -0.023 C 
HETATM    9  C9  UNL     1      76.486  85.601  49.664  1.00  0.00    -0.072 C 
HETATM   10  C10 UNL     1      77.700  84.683  49.596  1.00  0.00     0.068 C 
HETATM   11  C11 UNL     1      77.255  83.268  49.922  1.00  0.00     0.149 C 
HETATM   12  C12 UNL     1      76.208  82.974  48.879  1.00  0.00     0.039 C 
HETATM   13  C13 UNL     1      74.945  83.785  49.089  1.00  0.00     0.001 C 
HETATM   14  C19 UNL     1      75.094  85.089  49.767  1.00  0.00    -0.013 C 
HETATM   15  C20 UNL     1      74.762  85.050  51.247  1.00  0.00     0.021 C 
HETATM   16  C21 UNL     1      74.168  86.154  49.178  1.00  0.00     0.005 C 
HETATM   17  C22 UNL     1      74.071  86.101  47.688  1.00  0.00     0.038 C 
HETATM   18  C23 UNL     1      73.590  87.319  47.003  1.00  0.00     0.123 C 
HETATM   19  C24 UNL     1      73.820  88.628  47.646  1.00  0.00     0.025 C 
ENDROOT
BRANCH  13  20
HETATM   20  C14 UNL     1      73.936  82.812  49.600  1.00  0.00     0.006 C 
BRANCH  20  21
HETATM   21  C15 UNL     1      73.846  81.477  48.975  1.00  0.00     0.000 C 
BRANCH  21  22
HETATM   22  C16 UNL     1      72.488  81.441  48.216  1.00  0.00     0.002 C 
BRANCH  22  23
HETATM   23  C17 UNL     1      71.683  82.659  48.542  1.00  0.00     0.026 C 
BRANCH  23  24
HETATM   24  C18 UNL     1      70.546  82.912  47.577  1.00  0.00     0.164 C 
BRANCH  24  25
HETATM   25  O6  UNL     1      70.574  84.247  47.173  1.00  0.00    -0.401 OA
ATOM     26  H6  UNL     1      69.977  84.366  46.443  1.00  0.00     0.209 HD
ENDBRANCH  24  25
ENDBRANCH  23  24
ENDBRANCH  22  23
ENDBRANCH  21  22
ENDBRANCH  20  21
ENDBRANCH  13  20
BRANCH  11  27
HETATM   27  O2  UNL     1      78.315  82.413  49.774  1.00  0.00    -0.251 OA
BRANCH  27  28
HETATM   28  S1  UNL     1      79.066  82.144  51.246  1.00  0.00     0.251 S 
HETATM   29  O3  UNL     1      79.436  80.693  51.439  1.00  0.00    -0.572 OA
HETATM   30  O4  UNL     1      78.199  82.530  52.403  1.00  0.00    -0.572 OA
HETATM   31  O5  UNL     1      80.442  83.140  51.328  1.00  0.00    -0.572 OA
ENDBRANCH  27  28
ENDBRANCH  11  27
BRANCH  18  32
HETATM   32  O7  UNL     1      74.211  87.372  45.727  1.00  0.00    -0.395 OA
ATOM     33  H7  UNL     1      73.532  87.523  45.080  1.00  0.00     0.210 HD
ENDBRANCH  18  32
BRANCH   3  34
HETATM   34  O1  UNL     1      70.388  89.095  47.686  1.00  0.00    -0.395 OA
ATOM     35  H1  UNL     1      70.105  88.221  47.928  1.00  0.00     0.210 HD
ENDBRANCH   3  34
TORSDOF 10
ENDMDL
MODEL 4
REMARK VINA RESULT: -6.984543620      2.669      6.966
REMARK  10 active torsions:
REMARK  status: ('A' for Active; 'I' for Inactive)
REMARK    1  A    between atoms: C3_3  and  O1_4 
REMARK    2  A    between atoms: C11_13  and  O2_14 
REMARK    3  A    between atoms: O2_14  and  S1_15 
REMARK    4  A    between atoms: C13_20  and  C14_21 
REMARK    5  A    between atoms: C14_21  and  C15_22 
REMARK    6  A    between atoms: C15_22  and  C16_23 
REMARK    7  A    between atoms: C16_23  and  C17_24 
REMARK    8  A    between atoms: C17_24  and  C18_25 
REMARK    9  A    between atoms: C18_25  and  O6_26 
REMARK   10  A    between atoms: C23_32  and  O7_33 
ROOT
HETATM    1  C1  UNL     1      73.293  90.947  47.150  1.00  0.00     0.013 C 
HETATM    2  C2  UNL     1      72.702  89.559  47.212  1.00  0.00     0.017 C 
HETATM    3  C3  UNL     1      71.609  89.420  48.244  1.00  0.00     0.122 C 
HETATM    4  C4  UNL     1      72.096  88.360  49.238  1.00  0.00     0.037 C 
HETATM    5  C5  UNL     1      73.582  88.539  49.128  1.00  0.00    -0.001 C 
HETATM    6  C6  UNL     1      74.395  87.442  49.748  1.00  0.00    -0.001 C 
HETATM    7  C7  UNL     1      75.816  87.912  49.713  1.00  0.00     0.033 C 
HETATM    8  C8  UNL     1      76.786  86.810  49.648  1.00  0.00    -0.023 C 
HETATM    9  C9  UNL     1      76.447  85.524  49.656  1.00  0.00    -0.072 C 
HETATM   10  C10 UNL     1      77.651  84.595  49.582  1.00  0.00     0.068 C 
HETATM   11  C11 UNL     1      77.193  83.182  49.895  1.00  0.00     0.149 C 
HETATM   12  C12 UNL     1      76.144  82.906  48.849  1.00  0.00     0.039 C 
HETATM   13  C13 UNL     1      74.888  83.727  49.064  1.00  0.00     0.001 C 
HETATM   14  C19 UNL     1      75.049  85.025  49.752  1.00  0.00    -0.013 C 
HETATM   15  C20 UNL     1      74.715  84.976  51.232  1.00  0.00     0.021 C 
HETATM   16  C21 UNL     1      74.134  86.103  49.171  1.00  0.00     0.005 C 
HETATM   17  C22 UNL     1      74.039  86.064  47.681  1.00  0.00     0.038 C 
HETATM   18  C23 UNL     1      73.570  87.291  47.005  1.00  0.00     0.123 C 
HETATM   19  C24 UNL     1      73.812  88.592  47.659  1.00  0.00     0.025 C 
ENDROOT
BRANCH  13  20
HETATM   20  C14 UNL     1      73.870  82.760  49.566  1.00  0.00     0.006 C 
BRANCH  20  21
HETATM   21  C15 UNL     1      72.970  82.100  48.599  1.00  0.00     0.000 C 
BRANCH  21  22
HETATM   22  C16 UNL     1      71.682  81.725  49.387  1.00  0.00     0.002 C 
BRANCH  22  23
HETATM   23  C17 UNL     1      71.983  80.655  50.388  1.00  0.00     0.026 C 
BRANCH  23  24
HETATM   24  C18 UNL     1      71.180  80.774  51.664  1.00  0.00     0.164 C 
BRANCH  24  25
HETATM   25  O6  UNL     1      71.078  82.119  52.021  1.00  0.00    -0.401 OA
ATOM     26  H6  UNL     1      70.766  82.618  51.275  1.00  0.00     0.209 HD
ENDBRANCH  24  25
ENDBRANCH  23  24
ENDBRANCH  22  23
ENDBRANCH  21  22
ENDBRANCH  20  21
ENDBRANCH  13  20
BRANCH  11  27
HETATM   27  O2  UNL     1      78.245  82.318  49.742  1.00  0.00    -0.251 OA
BRANCH  27  28
HETATM   28  S1  UNL     1      78.916  81.936  51.227  1.00  0.00     0.251 S 
HETATM   29  O3  UNL     1      80.372  82.328  51.311  1.00  0.00    -0.572 OA
HETATM   30  O4  UNL     1      78.842  80.472  51.522  1.00  0.00    -0.572 OA
HETATM   31  O5  UNL     1      78.006  82.713  52.435  1.00  0.00    -0.572 OA
ENDBRANCH  27  28
ENDBRANCH  11  27
BRANCH  18  32
HETATM   32  O7  UNL     1      74.194  87.349  45.730  1.00  0.00    -0.395 OA
ATOM     33  H7  UNL     1      73.903  88.146  45.302  1.00  0.00     0.210 HD
ENDBRANCH  18  32
BRANCH   3  34
HETATM   34  O1  UNL     1      70.385  89.092  47.698  1.00  0.00    -0.395 OA
ATOM     35  H1  UNL     1      69.947  88.386  48.159  1.00  0.00     0.210 HD
ENDBRANCH   3  34
TORSDOF 10
ENDMDL
MODEL 5
REMARK VINA RESULT: -6.973533174      2.503      5.149
REMARK  10 active torsions:
REMARK  status: ('A' for Active; 'I' for Inactive)
REMARK    1  A    between atoms: C3_3  and  O1_4 
REMARK    2  A    between atoms: C11_13  and  O2_14 
REMARK    3  A    between atoms: O2_14  and  S1_15 
REMARK    4  A    between atoms: C13_20  and  C14_21 
REMARK    5  A    between atoms: C14_21  and  C15_22 
REMARK    6  A    between atoms: C15_22  and  C16_23 
REMARK    7  A    between atoms: C16_23  and  C17_24 
REMARK    8  A    between atoms: C17_24  and  C18_25 
REMARK    9  A    between atoms: C18_25  and  O6_26 
REMARK   10  A    between atoms: C23_32  and  O7_33 
ROOT
HETATM    1  C1  UNL     1      70.413  83.127  47.893  1.00  0.00     0.013 C 
HETATM    2  C2  UNL     1      71.860  82.746  47.701  1.00  0.00     0.017 C 
HETATM    3  C3  UNL     1      72.251  81.489  48.440  1.00  0.00     0.122 C 
HETATM    4  C4  UNL     1      73.350  81.900  49.426  1.00  0.00     0.037 C 
HETATM    5  C5  UNL     1      72.978  83.333  49.673  1.00  0.00    -0.001 C 
HETATM    6  C6  UNL     1      74.030  84.145  50.367  1.00  0.00    -0.001 C 
HETATM    7  C7  UNL     1      73.388  85.456  50.698  1.00  0.00     0.033 C 
HETATM    8  C8  UNL     1      74.347  86.568  50.763  1.00  0.00    -0.023 C 
HETATM    9  C9  UNL     1      75.657  86.426  50.584  1.00  0.00    -0.072 C 
HETATM   10  C10 UNL     1      76.416  87.741  50.709  1.00  0.00     0.068 C 
HETATM   11  C11 UNL     1      77.901  87.437  50.788  1.00  0.00     0.149 C 
HETATM   12  C12 UNL     1      78.182  86.688  49.511  1.00  0.00     0.039 C 
HETATM   13  C13 UNL     1      77.552  85.310  49.502  1.00  0.00     0.001 C 
HETATM   14  C19 UNL     1      76.333  85.128  50.316  1.00  0.00    -0.013 C 
HETATM   15  C20 UNL     1      76.592  84.495  51.671  1.00  0.00     0.021 C 
HETATM   16  C21 UNL     1      75.316  84.212  49.635  1.00  0.00     0.005 C 
HETATM   17  C22 UNL     1      75.195  84.446  48.164  1.00  0.00     0.038 C 
HETATM   18  C23 UNL     1      73.965  83.959  47.505  1.00  0.00     0.123 C 
HETATM   19  C24 UNL     1      72.728  83.863  48.306  1.00  0.00     0.025 C 
ENDROOT
BRANCH  13  20
HETATM   20  C14 UNL     1      78.689  84.359  49.675  1.00  0.00     0.006 C 
BRANCH  20  21
HETATM   21  C15 UNL     1      79.060  83.474  48.553  1.00  0.00     0.000 C 
BRANCH  21  22
HETATM   22  C16 UNL     1      78.321  82.126  48.799  1.00  0.00     0.002 C 
BRANCH  22  23
HETATM   23  C17 UNL     1      77.557  81.727  47.576  1.00  0.00     0.026 C 
BRANCH  23  24
HETATM   24  C18 UNL     1      76.476  80.703  47.843  1.00  0.00     0.164 C 
BRANCH  24  25
HETATM   25  O6  UNL     1      75.508  80.784  46.842  1.00  0.00    -0.401 OA
ATOM     26  H6  UNL     1      74.655  80.591  47.214  1.00  0.00     0.209 HD
ENDBRANCH  24  25
ENDBRANCH  23  24
ENDBRANCH  22  23
ENDBRANCH  21  22
ENDBRANCH  20  21
ENDBRANCH  13  20
BRANCH  11  27
HETATM   27  O2  UNL     1      78.606  88.612  50.807  1.00  0.00    -0.251 OA
BRANCH  27  28
HETATM   28  S1  UNL     1      79.315  88.851  52.304  1.00  0.00     0.251 S 
HETATM   29  O3  UNL     1      78.766  90.071  53.005  1.00  0.00    -0.572 OA
HETATM   30  O4  UNL     1      80.796  89.035  52.206  1.00  0.00    -0.572 OA
HETATM   31  O5  UNL     1      79.069  87.451  53.236  1.00  0.00    -0.572 OA
ENDBRANCH  27  28
ENDBRANCH  11  27
BRANCH  18  32
HETATM   32  O7  UNL     1      73.685  84.826  46.417  1.00  0.00    -0.395 OA
ATOM     33  H7  UNL     1      73.911  85.709  46.684  1.00  0.00     0.210 HD
ENDBRANCH  18  32
BRANCH   3  34
HETATM   34  O1  UNL     1      72.663  80.471  47.603  1.00  0.00    -0.395 OA
ATOM     35  H1  UNL     1      72.500  80.653  46.685  1.00  0.00     0.210 HD
ENDBRANCH   3  34
TORSDOF 10
ENDMDL
