MODEL 1
REMARK VINA RESULT: -6.448161793      0.000      0.000
REMARK  2 active torsions:
REMARK  status: ('A' for Active; 'I' for Inactive)
REMARK    1  A    between atoms: N2_9  and  C6_10 
REMARK    2  A    between atoms: C6_10  and  C7_11 
ROOT
HETATM    1  C1  UNL     1       9.130  -8.465  10.674  1.00  0.00     0.235 C 
HETATM    2  C2  UNL     1       8.263  -7.226  10.784  1.00  0.00     0.069 C 
HETATM    3  C3  UNL     1       7.079  -7.620   9.938  1.00  0.00     0.104 C 
HETATM    4  C4  UNL     1       7.224  -9.101   9.660  1.00  0.00     0.272 C 
HETATM    5  N1  UNL     1       8.168  -9.549  10.682  1.00  0.00    -0.072 N 
ATOM      6  H11 UNL     1       7.758  -9.762  11.591  1.00  0.00     0.277 HD
ATOM      7  H12 UNL     1       8.558 -10.480  10.537  1.00  0.00     0.277 HD
HETATM    8  C5  UNL     1       7.096  -6.934   8.553  1.00  0.00     0.158 C 
HETATM    9  N2  UNL     1       5.737  -6.940   8.239  1.00  0.00    -0.389 N 
HETATM   10  C10 UNL     1       5.031  -6.813   9.457  1.00  0.00     0.289 C 
HETATM   11  O1  UNL     1       5.876  -7.260  10.477  1.00  0.00    -0.358 OA
ENDROOT
BRANCH   9  12
HETATM   12  C6  UNL     1       5.193  -6.629   7.020  1.00  0.00     0.123 C 
BRANCH  12  13
HETATM   13  C7  UNL     1       3.724  -6.248   7.218  1.00  0.00     0.003 A 
HETATM   14  C8  UNL     1       3.160  -5.273   6.225  1.00  0.00     0.007 A 
HETATM   15  C9  UNL     1       2.674  -6.662   6.256  1.00  0.00     0.007 A 
ENDBRANCH  12  13
ENDBRANCH   9  12
TORSDOF 2
ENDMDL
MODEL 2
REMARK VINA RESULT: -6.404485228      1.877      5.608
REMARK  2 active torsions:
REMARK  status: ('A' for Active; 'I' for Inactive)
REMARK    1  A    between atoms: N2_9  and  C6_10 
REMARK    2  A    between atoms: C6_10  and  C7_11 
ROOT
HETATM    1  C1  UNL     1       1.920  -5.621   6.008  1.00  0.00     0.235 C 
HETATM    2  C2  UNL     1       3.250  -4.974   6.347  1.00  0.00     0.069 C 
HETATM    3  C3  UNL     1       4.004  -6.143   6.930  1.00  0.00     0.104 C 
HETATM    4  C4  UNL     1       3.184  -7.378   6.624  1.00  0.00     0.272 C 
HETATM    5  N1  UNL     1       2.298  -6.942   5.547  1.00  0.00    -0.072 N 
ATOM      6  H11 UNL     1       2.700  -6.979   4.610  1.00  0.00     0.277 HD
ATOM      7  H12 UNL     1       1.523  -7.571   5.339  1.00  0.00     0.277 HD
HETATM    8  C5  UNL     1       4.089  -6.073   8.472  1.00  0.00     0.158 C 
HETATM    9  N2  UNL     1       5.247  -6.816   8.705  1.00  0.00    -0.389 N 
HETATM   10  C10 UNL     1       6.105  -6.603   7.603  1.00  0.00     0.289 C 
HETATM   11  O1  UNL     1       5.306  -6.212   6.523  1.00  0.00    -0.358 OA
ENDROOT
BRANCH   9  12
HETATM   12  C6  UNL     1       5.690  -7.250   9.927  1.00  0.00     0.123 C 
BRANCH  12  13
HETATM   13  C7  UNL     1       7.114  -7.789   9.774  1.00  0.00     0.003 A 
HETATM   14  C8  UNL     1       7.942  -7.818  11.026  1.00  0.00     0.007 A 
HETATM   15  C9  UNL     1       7.531  -9.075  10.382  1.00  0.00     0.007 A 
ENDBRANCH  12  13
ENDBRANCH   9  12
TORSDOF 2
ENDMDL
MODEL 3
REMARK VINA RESULT: -6.273792580      1.931      2.850
REMARK  2 active torsions:
REMARK  status: ('A' for Active; 'I' for Inactive)
REMARK    1  A    between atoms: N2_9  and  C6_10 
REMARK    2  A    between atoms: C6_10  and  C7_11 
ROOT
HETATM    1  C1  UNL     1      11.576  -8.422  10.473  1.00  0.00     0.235 C 
HETATM    2  C2  UNL     1      10.321  -9.056  11.043  1.00  0.00     0.069 C 
HETATM    3  C3  UNL     1       9.278  -8.568  10.069  1.00  0.00     0.104 C 
HETATM    4  C4  UNL     1      10.030  -7.960   8.905  1.00  0.00     0.272 C 
HETATM    5  N1  UNL     1      11.376  -8.512   9.041  1.00  0.00    -0.072 N 
ATOM      6  H11 UNL     1      11.509  -9.440   8.639  1.00  0.00     0.277 HD
ATOM      7  H12 UNL     1      12.092  -8.062   8.471  1.00  0.00     0.277 HD
HETATM    8  C5  UNL     1       8.422  -7.423  10.655  1.00  0.00     0.158 C 
HETATM    9  N2  UNL     1       7.250  -7.564   9.913  1.00  0.00    -0.389 N 
HETATM   10  C10 UNL     1       7.099  -8.942   9.635  1.00  0.00     0.289 C 
HETATM   11  O1  UNL     1       8.367  -9.524   9.718  1.00  0.00    -0.358 OA
ENDROOT
BRANCH   9  12
HETATM   12  C6  UNL     1       6.208  -6.674   9.879  1.00  0.00     0.123 C 
BRANCH  12  13
HETATM   13  C7  UNL     1       5.154  -7.183   8.893  1.00  0.00     0.003 A 
HETATM   14  C8  UNL     1       3.926  -6.333   8.749  1.00  0.00     0.007 A 
HETATM   15  C9  UNL     1       4.864  -6.473   7.625  1.00  0.00     0.007 A 
ENDBRANCH  12  13
ENDBRANCH   9  12
TORSDOF 2
ENDMDL
MODEL 4
REMARK VINA RESULT: -6.182194768      1.903      2.621
REMARK  2 active torsions:
REMARK  status: ('A' for Active; 'I' for Inactive)
REMARK    1  A    between atoms: N2_9  and  C6_10 
REMARK    2  A    between atoms: C6_10  and  C7_11 
ROOT
HETATM    1  C1  UNL     1      11.394  -9.138   9.374  1.00  0.00     0.235 C 
HETATM    2  C2  UNL     1      10.604  -8.673  10.583  1.00  0.00     0.069 C 
HETATM    3  C3  UNL     1       9.197  -8.704  10.042  1.00  0.00     0.104 C 
HETATM    4  C4  UNL     1       9.262  -9.430   8.716  1.00  0.00     0.272 C 
HETATM    5  N1  UNL     1      10.536 -10.143   8.779  1.00  0.00    -0.072 N 
ATOM      6  H11 UNL     1      10.511 -11.039   9.266  1.00  0.00     0.277 HD
ATOM      7  H12 UNL     1      10.865 -10.529   7.894  1.00  0.00     0.277 HD
HETATM    8  C5  UNL     1       8.665  -7.290   9.715  1.00  0.00     0.158 C 
HETATM    9  N2  UNL     1       7.290  -7.491   9.835  1.00  0.00    -0.389 N 
HETATM   10  C10 UNL     1       7.100  -8.470  10.836  1.00  0.00     0.289 C 
HETATM   11  O1  UNL     1       8.283  -9.212  10.922  1.00  0.00    -0.358 OA
ENDROOT
BRANCH   9  12
HETATM   12  C6  UNL     1       6.313  -6.608   9.455  1.00  0.00     0.123 C 
BRANCH  12  13
HETATM   13  C7  UNL     1       5.488  -7.238   8.330  1.00  0.00     0.003 A 
HETATM   14  C8  UNL     1       4.045  -6.827   8.266  1.00  0.00     0.007 A 
HETATM   15  C9  UNL     1       4.975  -6.434   7.195  1.00  0.00     0.007 A 
ENDBRANCH  12  13
ENDBRANCH   9  12
TORSDOF 2
ENDMDL
MODEL 5
REMARK VINA RESULT: -6.099667237      1.829      5.746
REMARK  2 active torsions:
REMARK  status: ('A' for Active; 'I' for Inactive)
REMARK    1  A    between atoms: N2_9  and  C6_10 
REMARK    2  A    between atoms: C6_10  and  C7_11 
ROOT
HETATM    1  C1  UNL     1       2.069  -5.674   5.258  1.00  0.00     0.235 C 
HETATM    2  C2  UNL     1       2.305  -6.908   6.108  1.00  0.00     0.069 C 
HETATM    3  C3  UNL     1       3.203  -6.354   7.185  1.00  0.00     0.104 C 
HETATM    4  C4  UNL     1       3.173  -4.849   7.036  1.00  0.00     0.272 C 
HETATM    5  N1  UNL     1       1.975  -4.608   6.235  1.00  0.00    -0.072 N 
ATOM      6  H11 UNL     1       1.101  -4.571   6.759  1.00  0.00     0.277 HD
ATOM      7  H12 UNL     1       1.890  -3.668   5.849  1.00  0.00     0.277 HD
HETATM    8  C5  UNL     1       4.680  -6.763   6.983  1.00  0.00     0.158 C 
HETATM    9  N2  UNL     1       5.154  -6.692   8.293  1.00  0.00    -0.389 N 
HETATM   10  C10 UNL     1       4.081  -7.047   9.142  1.00  0.00     0.289 C 
HETATM   11  O1  UNL     1       2.897  -6.806   8.438  1.00  0.00    -0.358 OA
ENDROOT
BRANCH   9  12
HETATM   12  C6  UNL     1       6.468  -6.762   8.676  1.00  0.00     0.123 C 
BRANCH  12  13
HETATM   13  C7  UNL     1       6.571  -7.625   9.936  1.00  0.00     0.003 A 
HETATM   14  C8  UNL     1       7.479  -8.816   9.844  1.00  0.00     0.007 A 
HETATM   15  C9  UNL     1       7.817  -7.694  10.735  1.00  0.00     0.007 A 
ENDBRANCH  12  13
ENDBRANCH   9  12
TORSDOF 2
ENDMDL
