MODEL 1
REMARK VINA RESULT: -8.159222268      0.000      0.000
REMARK  1 active torsions:
REMARK  status: ('A' for Active; 'I' for Inactive)
REMARK    1  A    between atoms: C5_10  and  C6_11 
ROOT
HETATM    1  C1  UNL     1      22.717  20.196  18.847  1.00  0.00     0.070 C 
HETATM    2  C2  UNL     1      22.061  21.207  17.951  1.00  0.00     0.036 A 
HETATM    3  N1  UNL     1      20.732  21.449  17.850  1.00  0.00    -0.301 N 
ATOM      4  H1  UNL     1      20.008  20.963  18.380  1.00  0.00     0.187 HD
HETATM    5  N2  UNL     1      20.513  22.398  16.971  1.00  0.00    -0.280 N 
HETATM    6  C3  UNL     1      19.243  22.963  16.559  1.00  0.00     0.179 C 
HETATM    7  C4  UNL     1      21.696  22.813  16.466  1.00  0.00     0.135 A 
HETATM    8  N3  UNL     1      22.317  23.647  15.615  1.00  0.00    -0.339 N 
ATOM      9  H3  UNL     1      21.839  24.323  15.018  1.00  0.00     0.167 HD
HETATM   10  C5  UNL     1      23.675  23.472  15.651  1.00  0.00     0.057 A 
HETATM   11  C12 UNL     1      23.918  22.489  16.561  1.00  0.00    -0.018 A 
HETATM   12  C13 UNL     1      25.155  21.879  17.103  1.00  0.00     0.052 C 
HETATM   13  C14 UNL     1      22.669  22.074  17.072  1.00  0.00     0.041 A 
ENDROOT
BRANCH  10  14
HETATM   14  C6  UNL     1      24.621  24.311  14.901  1.00  0.00     0.075 A 
HETATM   15  C7  UNL     1      24.684  24.181  13.511  1.00  0.00     0.173 A 
HETATM   16  F1  UNL     1      23.789  23.387  12.884  1.00  0.00    -0.202 F 
HETATM   17  C8  UNL     1      25.596  24.850  12.742  1.00  0.00     0.197 A 
HETATM   18  F2  UNL     1      25.624  24.692  11.373  1.00  0.00    -0.199 F 
HETATM   19  C9  UNL     1      26.500  25.694  13.344  1.00  0.00     0.199 A 
HETATM   20  F3  UNL     1      27.402  26.354  12.573  1.00  0.00    -0.199 F 
HETATM   21  C10 UNL     1      26.470  25.846  14.705  1.00  0.00     0.197 A 
HETATM   22  F4  UNL     1      27.355  26.673  15.304  1.00  0.00    -0.199 F 
HETATM   23  C11 UNL     1      25.530  25.155  15.493  1.00  0.00     0.173 A 
HETATM   24  F5  UNL     1      25.643  25.342  16.827  1.00  0.00    -0.202 F 
ENDBRANCH  10  14
TORSDOF 1
ENDMDL
MODEL 2
REMARK VINA RESULT: -7.699070103      3.406      6.788
REMARK  1 active torsions:
REMARK  status: ('A' for Active; 'I' for Inactive)
REMARK    1  A    between atoms: C5_10  and  C6_11 
ROOT
HETATM    1  C1  UNL     1      26.742  25.209  10.728  1.00  0.00     0.070 C 
HETATM    2  C2  UNL     1      27.036  25.583  12.152  1.00  0.00     0.036 A 
HETATM    3  N1  UNL     1      27.825  26.603  12.568  1.00  0.00    -0.301 N 
ATOM      4  H1  UNL     1      28.320  27.247  11.951  1.00  0.00     0.187 HD
HETATM    5  N2  UNL     1      27.858  26.641  13.879  1.00  0.00    -0.280 N 
HETATM    6  C3  UNL     1      28.575  27.567  14.733  1.00  0.00     0.179 C 
HETATM    7  C4  UNL     1      27.088  25.643  14.368  1.00  0.00     0.135 A 
HETATM    8  N3  UNL     1      26.619  25.029  15.468  1.00  0.00    -0.339 N 
ATOM      9  H3  UNL     1      26.840  25.310  16.423  1.00  0.00     0.167 HD
HETATM   10  C5  UNL     1      25.805  23.978  15.140  1.00  0.00     0.057 A 
HETATM   11  C12 UNL     1      25.760  23.928  13.780  1.00  0.00    -0.018 A 
HETATM   12  C13 UNL     1      25.026  23.079  12.812  1.00  0.00     0.052 C 
HETATM   13  C14 UNL     1      26.570  24.977  13.296  1.00  0.00     0.041 A 
ENDROOT
BRANCH  10  14
HETATM   14  C6  UNL     1      25.069  23.182  16.134  1.00  0.00     0.075 A 
HETATM   15  C7  UNL     1      25.772  22.264  16.918  1.00  0.00     0.173 A 
HETATM   16  F1  UNL     1      27.120  22.225  16.836  1.00  0.00    -0.202 F 
HETATM   17  C8  UNL     1      25.159  21.416  17.799  1.00  0.00     0.197 A 
HETATM   18  F2  UNL     1      25.891  20.525  18.554  1.00  0.00    -0.199 F 
HETATM   19  C9  UNL     1      23.791  21.453  17.935  1.00  0.00     0.199 A 
HETATM   20  F3  UNL     1      23.191  20.607  18.812  1.00  0.00    -0.199 F 
HETATM   21  C10 UNL     1      23.067  22.339  17.181  1.00  0.00     0.197 A 
HETATM   22  F4  UNL     1      21.723  22.381  17.309  1.00  0.00    -0.199 F 
HETATM   23  C11 UNL     1      23.702  23.210  16.274  1.00  0.00     0.173 A 
HETATM   24  F5  UNL     1      22.874  23.991  15.546  1.00  0.00    -0.202 F 
ENDBRANCH  10  14
TORSDOF 1
ENDMDL
MODEL 3
REMARK VINA RESULT: -7.691363074      2.304      3.302
REMARK  1 active torsions:
REMARK  status: ('A' for Active; 'I' for Inactive)
REMARK    1  A    between atoms: C5_10  and  C6_11 
ROOT
HETATM    1  C1  UNL     1      28.082  21.580  19.159  1.00  0.00     0.070 C 
HETATM    2  C2  UNL     1      26.768  21.690  18.441  1.00  0.00     0.036 A 
HETATM    3  N1  UNL     1      25.570  21.238  18.884  1.00  0.00    -0.301 N 
ATOM      4  H1  UNL     1      25.419  20.762  19.774  1.00  0.00     0.187 HD
HETATM    5  N2  UNL     1      24.635  21.503  18.003  1.00  0.00    -0.280 N 
HETATM    6  C3  UNL     1      23.220  21.196  18.077  1.00  0.00     0.179 C 
HETATM    7  C4  UNL     1      25.191  22.140  16.948  1.00  0.00     0.135 A 
HETATM    8  N3  UNL     1      24.983  22.703  15.746  1.00  0.00    -0.339 N 
ATOM      9  H3  UNL     1      24.074  22.760  15.286  1.00  0.00     0.167 HD
HETATM   10  C5  UNL     1      26.148  23.192  15.219  1.00  0.00     0.057 A 
HETATM   11  C12 UNL     1      27.129  22.925  16.125  1.00  0.00    -0.018 A 
HETATM   12  C13 UNL     1      28.576  23.238  16.187  1.00  0.00     0.052 C 
HETATM   13  C14 UNL     1      26.524  22.261  17.213  1.00  0.00     0.041 A 
ENDROOT
BRANCH  10  14
HETATM   14  C6  UNL     1      26.214  23.949  13.960  1.00  0.00     0.075 A 
HETATM   15  C7  UNL     1      25.319  23.633  12.934  1.00  0.00     0.173 A 
HETATM   16  F1  UNL     1      24.338  22.735  13.171  1.00  0.00    -0.202 F 
HETATM   17  C8  UNL     1      25.368  24.218  11.699  1.00  0.00     0.197 A 
HETATM   18  F2  UNL     1      24.465  23.877  10.715  1.00  0.00    -0.199 F 
HETATM   19  C9  UNL     1      26.332  25.162  11.434  1.00  0.00     0.199 A 
HETATM   20  F3  UNL     1      26.373  25.738  10.205  1.00  0.00    -0.199 F 
HETATM   21  C10 UNL     1      27.228  25.497  12.415  1.00  0.00     0.197 A 
HETATM   22  F4  UNL     1      28.178  26.424  12.162  1.00  0.00    -0.199 F 
HETATM   23  C11 UNL     1      27.176  24.892  13.685  1.00  0.00     0.173 A 
HETATM   24  F5  UNL     1      28.152  25.262  14.544  1.00  0.00    -0.202 F 
ENDBRANCH  10  14
TORSDOF 1
ENDMDL
MODEL 4
REMARK VINA RESULT: -7.580199174      0.902      2.409
REMARK  1 active torsions:
REMARK  status: ('A' for Active; 'I' for Inactive)
REMARK    1  A    between atoms: C5_10  and  C6_11 
ROOT
HETATM    1  C1  UNL     1      23.258  20.430  18.578  1.00  0.00     0.070 C 
HETATM    2  C2  UNL     1      22.694  21.508  17.697  1.00  0.00     0.036 A 
HETATM    3  N1  UNL     1      21.392  21.873  17.609  1.00  0.00    -0.301 N 
ATOM      4  H1  UNL     1      20.629  21.451  18.139  1.00  0.00     0.187 HD
HETATM    5  N2  UNL     1      21.256  22.849  16.742  1.00  0.00    -0.280 N 
HETATM    6  C3  UNL     1      20.041  23.534  16.345  1.00  0.00     0.179 C 
HETATM    7  C4  UNL     1      22.469  23.157  16.232  1.00  0.00     0.135 A 
HETATM    8  N3  UNL     1      23.160  23.939  15.385  1.00  0.00    -0.339 N 
ATOM      9  H3  UNL     1      22.743  24.663  14.799  1.00  0.00     0.167 HD
HETATM   10  C5  UNL     1      24.495  23.638  15.409  1.00  0.00     0.057 A 
HETATM   11  C12 UNL     1      24.652  22.627  16.307  1.00  0.00    -0.018 A 
HETATM   12  C13 UNL     1      25.831  21.899  16.833  1.00  0.00     0.052 C 
HETATM   13  C14 UNL     1      23.374  22.325  16.823  1.00  0.00     0.041 A 
ENDROOT
BRANCH  10  14
HETATM   14  C6  UNL     1      25.511  24.394  14.660  1.00  0.00     0.075 A 
HETATM   15  C7  UNL     1      26.152  25.466  15.287  1.00  0.00     0.173 A 
HETATM   16  F1  UNL     1      25.918  25.698  16.597  1.00  0.00    -0.202 F 
HETATM   17  C8  UNL     1      27.039  26.282  14.641  1.00  0.00     0.197 A 
HETATM   18  F2  UNL     1      27.649  27.330  15.296  1.00  0.00    -0.199 F 
HETATM   19  C9  UNL     1      27.327  26.054  13.315  1.00  0.00     0.199 A 
HETATM   20  F3  UNL     1      28.209  26.869  12.681  1.00  0.00    -0.199 F 
HETATM   21  C10 UNL     1      26.717  25.012  12.667  1.00  0.00     0.197 A 
HETATM   22  F4  UNL     1      26.996  24.782  11.365  1.00  0.00    -0.199 F 
HETATM   23  C11 UNL     1      25.804  24.175  13.335  1.00  0.00     0.173 A 
HETATM   24  F5  UNL     1      25.223  23.223  12.571  1.00  0.00    -0.202 F 
ENDBRANCH  10  14
TORSDOF 1
ENDMDL
MODEL 5
REMARK VINA RESULT: -7.365609642      2.385      3.451
REMARK  1 active torsions:
REMARK  status: ('A' for Active; 'I' for Inactive)
REMARK    1  A    between atoms: C5_10  and  C6_11 
ROOT
HETATM    1  C1  UNL     1      22.805  21.467  18.241  1.00  0.00     0.070 C 
HETATM    2  C2  UNL     1      24.253  21.521  17.844  1.00  0.00     0.036 A 
HETATM    3  N1  UNL     1      25.283  20.914  18.481  1.00  0.00    -0.301 N 
ATOM      4  H1  UNL     1      25.194  20.340  19.320  1.00  0.00     0.187 HD
HETATM    5  N2  UNL     1      26.410  21.173  17.862  1.00  0.00    -0.280 N 
HETATM    6  C3  UNL     1      27.746  20.725  18.203  1.00  0.00     0.179 C 
HETATM    7  C4  UNL     1      26.155  21.962  16.793  1.00  0.00     0.135 A 
HETATM    8  N3  UNL     1      26.670  22.620  15.741  1.00  0.00    -0.339 N 
ATOM      9  H3  UNL     1      27.662  22.636  15.501  1.00  0.00     0.167 HD
HETATM   10  C5  UNL     1      25.693  23.268  15.034  1.00  0.00     0.057 A 
HETATM   11  C12 UNL     1      24.515  23.006  15.666  1.00  0.00    -0.018 A 
HETATM   12  C13 UNL     1      23.103  23.352  15.380  1.00  0.00     0.052 C 
HETATM   13  C14 UNL     1      24.809  22.184  16.774  1.00  0.00     0.041 A 
ENDROOT
BRANCH  10  14
HETATM   14  C6  UNL     1      25.943  23.989  13.777  1.00  0.00     0.075 A 
HETATM   15  C7  UNL     1      25.109  23.747  12.683  1.00  0.00     0.173 A 
HETATM   16  F1  UNL     1      24.023  22.960  12.844  1.00  0.00    -0.202 F 
HETATM   17  C8  UNL     1      25.322  24.299  11.450  1.00  0.00     0.197 A 
HETATM   18  F2  UNL     1      24.475  24.034  10.395  1.00  0.00    -0.199 F 
HETATM   19  C9  UNL     1      26.399  25.133  11.258  1.00  0.00     0.199 A 
HETATM   20  F3  UNL     1      26.603  25.677  10.030  1.00  0.00    -0.199 F 
HETATM   21  C10 UNL     1      27.240  25.393  12.308  1.00  0.00     0.197 A 
HETATM   22  F4  UNL     1      28.300  26.212  12.127  1.00  0.00    -0.199 F 
HETATM   23  C11 UNL     1      27.018  24.822  13.575  1.00  0.00     0.173 A 
HETATM   24  F5  UNL     1      27.952  25.105  14.511  1.00  0.00    -0.202 F 
ENDBRANCH  10  14
TORSDOF 1
ENDMDL
