MODEL 1
REMARK VINA RESULT: -9.033902957      0.000      0.000
REMARK  1 active torsions:
REMARK  status: ('A' for Active; 'I' for Inactive)
REMARK    1  A    between atoms: C8_13  and  C9_14 
ROOT
HETATM    1  O1  UNL     1      26.919  27.059  14.201  1.00  0.00    -0.291 OA
HETATM    2  C1  UNL     1      26.597  25.861  13.924  1.00  0.00     0.177 C 
HETATM    3  C2  UNL     1      27.008  25.333  12.602  1.00  0.00     0.085 C 
HETATM    4  C3  UNL     1      25.734  24.871  11.925  1.00  0.00     0.008 C 
HETATM    5  C4  UNL     1      25.220  23.594  12.475  1.00  0.00     0.005 C 
HETATM    6  C5  UNL     1      24.257  23.716  13.612  1.00  0.00     0.043 C 
HETATM    7  C6  UNL     1      24.809  24.278  14.843  1.00  0.00     0.003 A 
HETATM    8  C7  UNL     1      25.862  25.205  14.987  1.00  0.00     0.102 A 
HETATM    9  N1  UNL     1      26.048  25.360  16.293  1.00  0.00    -0.296 N 
ATOM     10  H1  UNL     1      26.747  25.970  16.717  1.00  0.00     0.187 HD
HETATM   11  N2  UNL     1      25.195  24.608  16.960  1.00  0.00    -0.299 N 
ATOM     12  H2  UNL     1      25.140  24.553  17.977  1.00  0.00     0.187 HD
HETATM   13  C8  UNL     1      24.392  23.907  16.093  1.00  0.00     0.073 A 
ENDROOT
BRANCH  13  14
HETATM   14  C9  UNL     1      23.431  22.947  16.614  1.00  0.00     0.076 A 
HETATM   15  C10 UNL     1      23.714  21.818  17.336  1.00  0.00     0.173 A 
HETATM   16  F1  UNL     1      24.975  21.371  17.490  1.00  0.00    -0.202 F 
HETATM   17  C11 UNL     1      22.731  21.014  17.889  1.00  0.00     0.197 A 
HETATM   18  F2  UNL     1      23.041  19.907  18.599  1.00  0.00    -0.199 F 
HETATM   19  C12 UNL     1      21.406  21.316  17.737  1.00  0.00     0.199 A 
HETATM   20  F3  UNL     1      20.389  20.589  18.243  1.00  0.00    -0.199 F 
HETATM   21  C13 UNL     1      21.083  22.452  17.010  1.00  0.00     0.197 A 
HETATM   22  F4  UNL     1      19.770  22.781  16.838  1.00  0.00    -0.199 F 
HETATM   23  C14 UNL     1      22.064  23.237  16.470  1.00  0.00     0.173 A 
HETATM   24  F5  UNL     1      21.695  24.336  15.805  1.00  0.00    -0.202 F 
ENDBRANCH  13  14
TORSDOF 1
ENDMDL
MODEL 2
REMARK VINA RESULT: -8.998004594      0.345      2.263
REMARK  1 active torsions:
REMARK  status: ('A' for Active; 'I' for Inactive)
REMARK    1  A    between atoms: C8_13  and  C9_14 
ROOT
HETATM    1  O1  UNL     1      27.160  27.085  13.975  1.00  0.00    -0.291 OA
HETATM    2  C1  UNL     1      26.764  25.899  13.743  1.00  0.00     0.177 C 
HETATM    3  C2  UNL     1      27.103  25.312  12.425  1.00  0.00     0.085 C 
HETATM    4  C3  UNL     1      25.784  24.904  11.801  1.00  0.00     0.008 C 
HETATM    5  C4  UNL     1      25.218  23.673  12.404  1.00  0.00     0.005 C 
HETATM    6  C5  UNL     1      24.301  23.881  13.565  1.00  0.00     0.043 C 
HETATM    7  C6  UNL     1      24.921  24.445  14.762  1.00  0.00     0.003 A 
HETATM    8  C7  UNL     1      26.028  25.315  14.846  1.00  0.00     0.102 A 
HETATM    9  N1  UNL     1      26.263  25.495  16.142  1.00  0.00    -0.296 N 
ATOM     10  H1  UNL     1      27.008  26.077  16.526  1.00  0.00     0.187 HD
HETATM   11  N2  UNL     1      25.392  24.811  16.855  1.00  0.00    -0.299 N 
ATOM     12  H2  UNL     1      25.366  24.787  17.875  1.00  0.00     0.187 HD
HETATM   13  C8  UNL     1      24.525  24.133  16.034  1.00  0.00     0.073 A 
ENDROOT
BRANCH  13  14
HETATM   14  C9  UNL     1      23.529  23.243  16.612  1.00  0.00     0.076 A 
HETATM   15  C10 UNL     1      22.169  23.353  16.496  1.00  0.00     0.173 A 
HETATM   16  F1  UNL     1      21.588  24.443  15.959  1.00  0.00    -0.202 F 
HETATM   17  C11 UNL     1      21.293  22.399  16.987  1.00  0.00     0.197 A 
HETATM   18  F2  UNL     1      19.955  22.533  16.855  1.00  0.00    -0.199 F 
HETATM   19  C12 UNL     1      21.755  21.281  17.625  1.00  0.00     0.199 A 
HETATM   20  F3  UNL     1      20.972  20.306  18.131  1.00  0.00    -0.199 F 
HETATM   21  C13 UNL     1      23.127  21.137  17.762  1.00  0.00     0.197 A 
HETATM   22  F4  UNL     1      23.622  20.034  18.395  1.00  0.00    -0.199 F 
HETATM   23  C14 UNL     1      23.981  22.087  17.271  1.00  0.00     0.173 A 
HETATM   24  F5  UNL     1      25.294  21.881  17.405  1.00  0.00    -0.202 F 
ENDBRANCH  13  14
TORSDOF 1
ENDMDL
MODEL 3
REMARK VINA RESULT: -8.199974971      4.126      6.408
REMARK  1 active torsions:
REMARK  status: ('A' for Active; 'I' for Inactive)
REMARK    1  A    between atoms: C8_13  and  C9_14 
ROOT
HETATM    1  O1  UNL     1      26.167  22.132  19.958  1.00  0.00    -0.291 OA
HETATM    2  C1  UNL     1      26.827  21.888  18.899  1.00  0.00     0.177 C 
HETATM    3  C2  UNL     1      28.027  21.029  19.025  1.00  0.00     0.085 C 
HETATM    4  C3  UNL     1      29.179  21.839  18.468  1.00  0.00     0.008 C 
HETATM    5  C4  UNL     1      29.169  21.914  16.988  1.00  0.00     0.005 C 
HETATM    6  C5  UNL     1      28.421  23.067  16.400  1.00  0.00     0.043 C 
HETATM    7  C6  UNL     1      26.977  23.061  16.629  1.00  0.00     0.003 A 
HETATM    8  C7  UNL     1      26.267  22.515  17.718  1.00  0.00     0.102 A 
HETATM    9  N1  UNL     1      24.977  22.691  17.449  1.00  0.00    -0.296 N 
ATOM     10  H1  UNL     1      24.208  22.398  18.051  1.00  0.00     0.187 HD
HETATM   11  N2  UNL     1      24.841  23.301  16.288  1.00  0.00    -0.299 N 
ATOM     12  H2  UNL     1      23.947  23.548  15.862  1.00  0.00     0.187 HD
HETATM   13  C8  UNL     1      26.071  23.556  15.732  1.00  0.00     0.073 A 
ENDROOT
BRANCH  13  14
HETATM   14  C9  UNL     1      26.154  24.148  14.406  1.00  0.00     0.076 A 
HETATM   15  C10 UNL     1      27.133  24.990  13.946  1.00  0.00     0.173 A 
HETATM   16  F1  UNL     1      28.061  25.514  14.769  1.00  0.00    -0.202 F 
HETATM   17  C11 UNL     1      27.196  25.423  12.633  1.00  0.00     0.197 A 
HETATM   18  F2  UNL     1      28.176  26.251  12.208  1.00  0.00    -0.199 F 
HETATM   19  C12 UNL     1      26.264  25.025  11.714  1.00  0.00     0.199 A 
HETATM   20  F3  UNL     1      26.254  25.399  10.419  1.00  0.00    -0.199 F 
HETATM   21  C13 UNL     1      25.257  24.174  12.145  1.00  0.00     0.197 A 
HETATM   22  F4  UNL     1      24.311  23.759  11.254  1.00  0.00    -0.199 F 
HETATM   23  C14 UNL     1      25.208  23.753  13.445  1.00  0.00     0.173 A 
HETATM   24  F5  UNL     1      24.233  22.910  13.796  1.00  0.00    -0.202 F 
ENDBRANCH  13  14
TORSDOF 1
ENDMDL
MODEL 4
REMARK VINA RESULT: -7.850474450      1.285      2.597
REMARK  1 active torsions:
REMARK  status: ('A' for Active; 'I' for Inactive)
REMARK    1  A    between atoms: C8_13  and  C9_14 
ROOT
HETATM    1  O1  UNL     1      28.683  25.031  15.430  1.00  0.00    -0.291 OA
HETATM    2  C1  UNL     1      27.635  24.655  14.815  1.00  0.00     0.177 C 
HETATM    3  C2  UNL     1      27.501  25.046  13.393  1.00  0.00     0.085 C 
HETATM    4  C3  UNL     1      26.190  25.798  13.292  1.00  0.00     0.008 C 
HETATM    5  C4  UNL     1      25.007  24.906  13.343  1.00  0.00     0.005 C 
HETATM    6  C5  UNL     1      24.448  24.646  14.704  1.00  0.00     0.043 C 
HETATM    7  C6  UNL     1      25.322  23.904  15.611  1.00  0.00     0.003 A 
HETATM    8  C7  UNL     1      26.731  23.883  15.645  1.00  0.00     0.102 A 
HETATM    9  N1  UNL     1      27.069  23.013  16.591  1.00  0.00    -0.296 N 
ATOM     10  H1  UNL     1      28.026  22.776  16.854  1.00  0.00     0.187 HD
HETATM   11  N2  UNL     1      25.984  22.504  17.140  1.00  0.00    -0.299 N 
ATOM     12  H2  UNL     1      25.982  21.814  17.891  1.00  0.00     0.187 HD
HETATM   13  C8  UNL     1      24.858  23.033  16.558  1.00  0.00     0.073 A 
ENDROOT
BRANCH  13  14
HETATM   14  C9  UNL     1      23.545  22.547  16.954  1.00  0.00     0.076 A 
HETATM   15  C10 UNL     1      22.334  23.063  16.575  1.00  0.00     0.173 A 
HETATM   16  F1  UNL     1      22.236  24.230  15.911  1.00  0.00    -0.202 F 
HETATM   17  C11 UNL     1      21.127  22.471  16.911  1.00  0.00     0.197 A 
HETATM   18  F2  UNL     1      19.948  23.002  16.520  1.00  0.00    -0.199 F 
HETATM   19  C12 UNL     1      21.087  21.322  17.651  1.00  0.00     0.199 A 
HETATM   20  F3  UNL     1      19.958  20.684  18.019  1.00  0.00    -0.199 F 
HETATM   21  C13 UNL     1      22.295  20.773  18.054  1.00  0.00     0.197 A 
HETATM   22  F4  UNL     1      22.291  19.628  18.796  1.00  0.00    -0.199 F 
HETATM   23  C14 UNL     1      23.480  21.367  17.715  1.00  0.00     0.173 A 
HETATM   24  F5  UNL     1      24.613  20.776  18.105  1.00  0.00    -0.202 F 
ENDBRANCH  13  14
TORSDOF 1
ENDMDL
MODEL 5
REMARK VINA RESULT: -7.801110353      3.597      6.428
REMARK  1 active torsions:
REMARK  status: ('A' for Active; 'I' for Inactive)
REMARK    1  A    between atoms: C8_13  and  C9_14 
ROOT
HETATM    1  O1  UNL     1      22.768  19.603  18.381  1.00  0.00    -0.291 OA
HETATM    2  C1  UNL     1      22.481  20.801  18.066  1.00  0.00     0.177 C 
HETATM    3  C2  UNL     1      21.085  21.248  18.281  1.00  0.00     0.085 C 
HETATM    4  C3  UNL     1      20.594  21.738  16.935  1.00  0.00     0.008 C 
HETATM    5  C4  UNL     1      21.149  23.062  16.565  1.00  0.00     0.005 C 
HETATM    6  C5  UNL     1      22.428  23.038  15.793  1.00  0.00     0.043 C 
HETATM    7  C6  UNL     1      23.585  22.508  16.511  1.00  0.00     0.003 A 
HETATM    8  C7  UNL     1      23.610  21.540  17.536  1.00  0.00     0.102 A 
HETATM    9  N1  UNL     1      24.877  21.437  17.922  1.00  0.00    -0.296 N 
ATOM     10  H1  UNL     1      25.218  20.815  18.655  1.00  0.00     0.187 HD
HETATM   11  N2  UNL     1      25.629  22.259  17.217  1.00  0.00    -0.299 N 
ATOM     12  H2  UNL     1      26.638  22.363  17.326  1.00  0.00     0.187 HD
HETATM   13  C8  UNL     1      24.863  22.956  16.314  1.00  0.00     0.073 A 
ENDROOT
BRANCH  13  14
HETATM   14  C9  UNL     1      25.477  23.983  15.487  1.00  0.00     0.076 A 
HETATM   15  C10 UNL     1      25.920  25.211  15.904  1.00  0.00     0.173 A 
HETATM   16  F1  UNL     1      25.659  25.677  17.140  1.00  0.00    -0.202 F 
HETATM   17  C11 UNL     1      26.594  26.088  15.071  1.00  0.00     0.197 A 
HETATM   18  F2  UNL     1      27.022  27.292  15.512  1.00  0.00    -0.199 F 
HETATM   19  C12 UNL     1      26.853  25.765  13.768  1.00  0.00     0.199 A 
HETATM   20  F3  UNL     1      27.502  26.560  12.893  1.00  0.00    -0.199 F 
HETATM   21  C13 UNL     1      26.417  24.530  13.312  1.00  0.00     0.197 A 
HETATM   22  F4  UNL     1      26.657  24.177  12.016  1.00  0.00    -0.199 F 
HETATM   23  C14 UNL     1      25.753  23.673  14.145  1.00  0.00     0.173 A 
HETATM   24  F5  UNL     1      25.384  22.484  13.659  1.00  0.00    -0.202 F 
ENDBRANCH  13  14
TORSDOF 1
ENDMDL
