MODEL 1
REMARK VINA RESULT: -6.426335904      0.000      0.000
REMARK  5 active torsions:
REMARK  status: ('A' for Active; 'I' for Inactive)
REMARK    1  A    between atoms: N2_4  and  N3_6 
REMARK    2  A    between atoms: N3_6  and  C1_8 
REMARK    3  A    between atoms: C1_8  and  C2_12 
REMARK    4  A    between atoms: C2_12  and  N5_13 
REMARK    5  A    between atoms: N5_13  and  S1_15 
ROOT
HETATM    1  C1  UNL     1      26.402 -13.196   7.352  1.00  0.00     0.109 C 
HETATM    2  N4  UNL     1      26.058 -12.099   6.794  1.00  0.00    -0.386 N 
ATOM      3  H41 UNL     1      25.137 -12.034   6.358  1.00  0.00     0.157 HD
ATOM      4  H42 UNL     1      26.700 -11.307   6.789  1.00  0.00     0.157 HD
ENDROOT
BRANCH   1   5
HETATM    5  N3  UNL     1      27.677 -13.288   7.955  1.00  0.00    -0.274 N 
ATOM      6  H3  UNL     1      28.510 -13.324   7.367  1.00  0.00     0.190 HD
BRANCH   5   7
HETATM    7  N2  UNL     1      27.814 -13.328   9.344  1.00  0.00    -0.248 N 
HETATM    8  N1  UNL     1      28.905 -13.636   9.894  1.00  0.00    -0.331 N 
ATOM      9  H12 UNL     1      29.700 -13.859   9.295  1.00  0.00     0.178 HD
ATOM     10  H11 UNL     1      29.005 -13.665  10.909  1.00  0.00     0.178 HD
ATOM     11  H2  UNL     1      27.009 -13.102   9.929  1.00  0.00     0.207 HD
ENDBRANCH   5   7
ENDBRANCH   1   5
BRANCH   1  12
HETATM   12  C2  UNL     1      25.483 -14.332   7.360  1.00  0.00     0.212 C 
BRANCH  12  13
HETATM   13  N5  UNL     1      24.146 -14.037   7.017  1.00  0.00    -0.294 N 
ATOM     14  H5  UNL     1      23.883 -13.111   6.678  1.00  0.00     0.175 HD
BRANCH  13  15
HETATM   15  S1  UNL     1      23.013 -15.240   7.183  1.00  0.00     0.204 S 
HETATM   16  O1  UNL     1      21.938 -14.870   8.140  1.00  0.00    -0.578 OA
HETATM   17  O2  UNL     1      23.704 -16.514   7.650  1.00  0.00    -0.578 OA
HETATM   18  O3  UNL     1      22.370 -15.617   5.656  1.00  0.00    -0.578 OA
ENDBRANCH  13  15
ENDBRANCH  12  13
ENDBRANCH   1  12
TORSDOF 5
ENDMDL
MODEL 2
REMARK VINA RESULT: -6.418280947      2.685      3.498
REMARK  5 active torsions:
REMARK  status: ('A' for Active; 'I' for Inactive)
REMARK    1  A    between atoms: N2_4  and  N3_6 
REMARK    2  A    between atoms: N3_6  and  C1_8 
REMARK    3  A    between atoms: C1_8  and  C2_12 
REMARK    4  A    between atoms: C2_12  and  N5_13 
REMARK    5  A    between atoms: N5_13  and  S1_15 
ROOT
HETATM    1  C1  UNL     1      24.183 -14.897   7.266  1.00  0.00     0.109 C 
HETATM    2  N4  UNL     1      25.001 -15.528   8.019  1.00  0.00    -0.386 N 
ATOM      3  H41 UNL     1      24.804 -16.500   8.258  1.00  0.00     0.157 HD
ATOM      4  H42 UNL     1      25.836 -15.059   8.370  1.00  0.00     0.157 HD
ENDROOT
BRANCH   1   5
HETATM    5  N3  UNL     1      24.457 -13.550   6.934  1.00  0.00    -0.274 N 
ATOM      6  H3  UNL     1      23.696 -12.870   6.923  1.00  0.00     0.190 HD
BRANCH   5   7
HETATM    7  N2  UNL     1      25.753 -13.137   6.621  1.00  0.00    -0.248 N 
HETATM    8  N1  UNL     1      26.184 -11.999   6.952  1.00  0.00    -0.331 N 
ATOM      9  H12 UNL     1      25.557 -11.378   7.462  1.00  0.00     0.178 HD
ATOM     10  H11 UNL     1      27.132 -11.697   6.724  1.00  0.00     0.178 HD
ATOM     11  H2  UNL     1      26.367 -13.771   6.110  1.00  0.00     0.207 HD
ENDBRANCH   5   7
ENDBRANCH   1   5
BRANCH   1  12
HETATM   12  C2  UNL     1      22.988 -15.568   6.762  1.00  0.00     0.212 C 
BRANCH  12  13
HETATM   13  N5  UNL     1      21.795 -15.300   7.468  1.00  0.00    -0.294 N 
ATOM     14  H5  UNL     1      21.816 -14.836   8.377  1.00  0.00     0.175 HD
BRANCH  13  15
HETATM   15  S1  UNL     1      20.356 -15.760   6.777  1.00  0.00     0.204 S 
HETATM   16  O1  UNL     1      20.505 -16.081   5.334  1.00  0.00    -0.578 OA
HETATM   17  O2  UNL     1      19.337 -14.643   6.957  1.00  0.00    -0.578 OA
HETATM   18  O3  UNL     1      19.722 -17.083   7.635  1.00  0.00    -0.578 OA
ENDBRANCH  13  15
ENDBRANCH  12  13
ENDBRANCH   1  12
TORSDOF 5
ENDMDL
MODEL 3
REMARK VINA RESULT: -6.417020338      2.712      3.384
REMARK  5 active torsions:
REMARK  status: ('A' for Active; 'I' for Inactive)
REMARK    1  A    between atoms: N2_4  and  N3_6 
REMARK    2  A    between atoms: N3_6  and  C1_8 
REMARK    3  A    between atoms: C1_8  and  C2_12 
REMARK    4  A    between atoms: C2_12  and  N5_13 
REMARK    5  A    between atoms: N5_13  and  S1_15 
ROOT
HETATM    1  C1  UNL     1      24.143 -14.885   7.245  1.00  0.00     0.109 C 
HETATM    2  N4  UNL     1      24.950 -15.544   7.986  1.00  0.00    -0.386 N 
ATOM      3  H41 UNL     1      24.733 -16.515   8.213  1.00  0.00     0.157 HD
ATOM      4  H42 UNL     1      25.796 -15.098   8.340  1.00  0.00     0.157 HD
ENDROOT
BRANCH   1   5
HETATM    5  N3  UNL     1      24.444 -13.540   6.932  1.00  0.00    -0.274 N 
ATOM      6  H3  UNL     1      23.695 -12.847   6.916  1.00  0.00     0.190 HD
BRANCH   5   7
HETATM    7  N2  UNL     1      25.752 -13.145   6.642  1.00  0.00    -0.248 N 
HETATM    8  N1  UNL     1      26.177 -11.994   6.933  1.00  0.00    -0.331 N 
ATOM      9  H12 UNL     1      25.536 -11.347   7.392  1.00  0.00     0.178 HD
ATOM     10  H11 UNL     1      27.132 -11.706   6.722  1.00  0.00     0.178 HD
ATOM     11  H2  UNL     1      26.380 -13.805   6.183  1.00  0.00     0.207 HD
ENDBRANCH   5   7
ENDBRANCH   1   5
BRANCH   1  12
HETATM   12  C2  UNL     1      22.931 -15.523   6.738  1.00  0.00     0.212 C 
BRANCH  12  13
HETATM   13  N5  UNL     1      21.760 -15.296   7.494  1.00  0.00    -0.294 N 
ATOM     14  H5  UNL     1      21.804 -14.840   8.405  1.00  0.00     0.175 HD
BRANCH  13  15
HETATM   15  S1  UNL     1      20.310 -15.793   6.855  1.00  0.00     0.204 S 
HETATM   16  O1  UNL     1      19.765 -16.983   7.559  1.00  0.00    -0.578 OA
HETATM   17  O2  UNL     1      20.498 -16.107   5.377  1.00  0.00    -0.578 OA
HETATM   18  O3  UNL     1      19.208 -14.500   6.898  1.00  0.00    -0.578 OA
ENDBRANCH  13  15
ENDBRANCH  12  13
ENDBRANCH   1  12
TORSDOF 5
ENDMDL
MODEL 4
REMARK VINA RESULT: -6.402925679      2.689      3.225
REMARK  5 active torsions:
REMARK  status: ('A' for Active; 'I' for Inactive)
REMARK    1  A    between atoms: N2_4  and  N3_6 
REMARK    2  A    between atoms: N3_6  and  C1_8 
REMARK    3  A    between atoms: C1_8  and  C2_12 
REMARK    4  A    between atoms: C2_12  and  N5_13 
REMARK    5  A    between atoms: N5_13  and  S1_15 
ROOT
HETATM    1  C1  UNL     1      24.182 -14.887   7.271  1.00  0.00     0.109 C 
HETATM    2  N4  UNL     1      24.998 -15.540   8.007  1.00  0.00    -0.386 N 
ATOM      3  H41 UNL     1      24.791 -16.514   8.231  1.00  0.00     0.157 HD
ATOM      4  H42 UNL     1      25.840 -15.086   8.360  1.00  0.00     0.157 HD
ENDROOT
BRANCH   1   5
HETATM    5  N3  UNL     1      24.468 -13.538   6.961  1.00  0.00    -0.274 N 
ATOM      6  H3  UNL     1      23.714 -12.850   6.965  1.00  0.00     0.190 HD
BRANCH   5   7
HETATM    7  N2  UNL     1      25.767 -13.132   6.649  1.00  0.00    -0.248 N 
HETATM    8  N1  UNL     1      26.181 -11.972   6.917  1.00  0.00    -0.331 N 
ATOM      9  H12 UNL     1      25.538 -11.325   7.373  1.00  0.00     0.178 HD
ATOM     10  H11 UNL     1      27.130 -11.675   6.689  1.00  0.00     0.178 HD
ATOM     11  H2  UNL     1      26.397 -13.791   6.193  1.00  0.00     0.207 HD
ENDBRANCH   5   7
ENDBRANCH   1   5
BRANCH   1  12
HETATM   12  C2  UNL     1      22.975 -15.536   6.764  1.00  0.00     0.212 C 
BRANCH  12  13
HETATM   13  N5  UNL     1      21.799 -15.306   7.511  1.00  0.00    -0.294 N 
ATOM     14  H5  UNL     1      21.842 -14.896   8.444  1.00  0.00     0.175 HD
BRANCH  13  15
HETATM   15  S1  UNL     1      20.344 -15.721   6.826  1.00  0.00     0.204 S 
HETATM   16  O1  UNL     1      19.346 -14.625   6.919  1.00  0.00    -0.578 OA
HETATM   17  O2  UNL     1      19.808 -16.969   7.515  1.00  0.00    -0.578 OA
HETATM   18  O3  UNL     1      20.598 -16.181   5.210  1.00  0.00    -0.578 OA
ENDBRANCH  13  15
ENDBRANCH  12  13
ENDBRANCH   1  12
TORSDOF 5
ENDMDL
MODEL 5
REMARK VINA RESULT: -6.356275230      2.585      3.320
REMARK  5 active torsions:
REMARK  status: ('A' for Active; 'I' for Inactive)
REMARK    1  A    between atoms: N2_4  and  N3_6 
REMARK    2  A    between atoms: N3_6  and  C1_8 
REMARK    3  A    between atoms: C1_8  and  C2_12 
REMARK    4  A    between atoms: C2_12  and  N5_13 
REMARK    5  A    between atoms: N5_13  and  S1_15 
ROOT
HETATM    1  C1  UNL     1      24.261 -14.863   7.288  1.00  0.00     0.109 C 
HETATM    2  N4  UNL     1      25.117 -15.511   7.982  1.00  0.00    -0.386 N 
ATOM      3  H41 UNL     1      24.925 -16.485   8.220  1.00  0.00     0.157 HD
ATOM      4  H42 UNL     1      25.975 -15.054   8.289  1.00  0.00     0.157 HD
ENDROOT
BRANCH   1   5
HETATM    5  N3  UNL     1      24.526 -13.514   6.958  1.00  0.00    -0.274 N 
ATOM      6  H3  UNL     1      23.759 -12.842   6.935  1.00  0.00     0.190 HD
BRANCH   5   7
HETATM    7  N2  UNL     1      25.823 -13.089   6.664  1.00  0.00    -0.248 N 
HETATM    8  N1  UNL     1      26.208 -11.915   6.915  1.00  0.00    -0.331 N 
ATOM      9  H12 UNL     1      25.542 -11.272   7.344  1.00  0.00     0.178 HD
ATOM     10  H11 UNL     1      27.155 -11.603   6.701  1.00  0.00     0.178 HD
ATOM     11  H2  UNL     1      26.476 -13.744   6.236  1.00  0.00     0.207 HD
ENDBRANCH   5   7
ENDBRANCH   1   5
BRANCH   1  12
HETATM   12  C2  UNL     1      23.031 -15.517   6.849  1.00  0.00     0.212 C 
BRANCH  12  13
HETATM   13  N5  UNL     1      21.864 -15.163   7.559  1.00  0.00    -0.294 N 
ATOM     14  H5  UNL     1      21.308 -14.352   7.285  1.00  0.00     0.175 HD
BRANCH  13  15
HETATM   15  S1  UNL     1      21.421 -16.103   8.855  1.00  0.00     0.204 S 
HETATM   16  O1  UNL     1      20.309 -17.030   8.522  1.00  0.00    -0.578 OA
HETATM   17  O2  UNL     1      21.012 -15.198  10.010  1.00  0.00    -0.578 OA
HETATM   18  O3  UNL     1      22.779 -16.955   9.418  1.00  0.00    -0.578 OA
ENDBRANCH  13  15
ENDBRANCH  12  13
ENDBRANCH   1  12
TORSDOF 5
ENDMDL
