MODEL 1
REMARK VINA RESULT: -6.952948302      0.000      0.000
REMARK  5 active torsions:
REMARK  status: ('A' for Active; 'I' for Inactive)
REMARK    1  A    between atoms: N2_4  and  N3_6 
REMARK       I    between atoms: N3_6  and  C1_8 
REMARK       I    between atoms: C1_8  and  N6_17 
REMARK    2  A    between atoms: N4_9  and  C2_11 
REMARK    3  A    between atoms: C2_11  and  C3_12 
REMARK    4  A    between atoms: C3_12  and  C4_13 
REMARK    5  A    between atoms: N6_17  and  O1_21 
ROOT
HETATM    1  N3  UNL     1      20.026 -15.859   6.189  1.00  0.00    -0.115 N 
ATOM      2  H3  UNL     1      19.384 -16.477   5.694  1.00  0.00     0.207 HD
HETATM    3  C1  UNL     1      21.416 -15.984   6.008  1.00  0.00     0.735 C 
HETATM    4  N4  UNL     1      22.227 -15.590   6.913  1.00  0.00    -0.221 N 
ATOM      5  H4  UNL     1      21.881 -15.179   7.780  1.00  0.00     0.177 HD
HETATM    6  N6  UNL     1      21.908 -16.548   4.815  1.00  0.00     0.010 N 
HETATM    7  N7  UNL     1      22.098 -17.790   4.698  1.00  0.00    -0.304 N 
ATOM      8  H71 UNL     1      22.454 -18.198   3.834  1.00  0.00     0.180 HD
ATOM      9  H72 UNL     1      21.898 -18.418   5.476  1.00  0.00     0.180 HD
ENDROOT
BRANCH   1  10
HETATM   10  N2  UNL     1      19.539 -14.885   7.050  1.00  0.00    -0.235 N 
HETATM   11  N1  UNL     1      18.539 -14.144   6.797  1.00  0.00    -0.330 N 
ATOM     12  H12 UNL     1      18.076 -14.287   5.899  1.00  0.00     0.178 HD
ATOM     13  H11 UNL     1      18.182 -13.428   7.430  1.00  0.00     0.178 HD
ATOM     14  H2  UNL     1      20.015 -14.757   7.943  1.00  0.00     0.208 HD
ENDBRANCH   1  10
BRANCH   4  15
HETATM   15  C2  UNL     1      23.636 -15.738   6.684  1.00  0.00     0.143 C 
BRANCH  15  16
HETATM   16  C3  UNL     1      24.467 -15.219   7.835  1.00  0.00     0.064 C 
BRANCH  16  17
HETATM   17  C4  UNL     1      25.542 -14.297   7.398  1.00  0.00     0.054 C 
HETATM   18  N5  UNL     1      25.282 -13.147   6.952  1.00  0.00    -0.411 N 
ATOM     19  H52 UNL     1      24.304 -12.861   6.896  1.00  0.00     0.155 HD
ATOM     20  H51 UNL     1      26.021 -12.512   6.651  1.00  0.00     0.155 HD
ENDBRANCH  16  17
ENDBRANCH  15  16
ENDBRANCH   4  15
BRANCH   6  21
HETATM   21  O1  UNL     1      22.177 -15.703   3.766  1.00  0.00    -0.255 OA
ATOM     22  H1  UNL     1      22.710 -16.034   3.053  1.00  0.00     0.247 HD
ENDBRANCH   6  21
TORSDOF 5
ENDMDL
MODEL 2
REMARK VINA RESULT: -6.952246587      1.919      3.296
REMARK  5 active torsions:
REMARK  status: ('A' for Active; 'I' for Inactive)
REMARK    1  A    between atoms: N2_4  and  N3_6 
REMARK       I    between atoms: N3_6  and  C1_8 
REMARK       I    between atoms: C1_8  and  N6_17 
REMARK    2  A    between atoms: N4_9  and  C2_11 
REMARK    3  A    between atoms: C2_11  and  C3_12 
REMARK    4  A    between atoms: C3_12  and  C4_13 
REMARK    5  A    between atoms: N6_17  and  O1_21 
ROOT
HETATM    1  N3  UNL     1      22.135 -18.469   4.738  1.00  0.00    -0.115 N 
ATOM      2  H3  UNL     1      21.800 -18.514   3.775  1.00  0.00     0.207 HD
HETATM    3  C1  UNL     1      22.273 -17.228   5.386  1.00  0.00     0.735 C 
HETATM    4  N4  UNL     1      23.095 -17.089   6.354  1.00  0.00    -0.221 N 
ATOM      5  H4  UNL     1      23.663 -17.874   6.672  1.00  0.00     0.177 HD
HETATM    6  N6  UNL     1      21.493 -16.136   4.958  1.00  0.00     0.010 N 
HETATM    7  N7  UNL     1      21.891 -15.351   4.053  1.00  0.00    -0.304 N 
ATOM      8  H71 UNL     1      21.326 -14.561   3.743  1.00  0.00     0.180 HD
ATOM      9  H72 UNL     1      22.798 -15.495   3.608  1.00  0.00     0.180 HD
ENDROOT
BRANCH   1  10
HETATM   10  N2  UNL     1      22.458 -19.632   5.423  1.00  0.00    -0.235 N 
HETATM   11  N1  UNL     1      22.408 -20.796   4.917  1.00  0.00    -0.330 N 
ATOM     12  H12 UNL     1      22.109 -20.863   3.944  1.00  0.00     0.178 HD
ATOM     13  H11 UNL     1      22.646 -21.650   5.421  1.00  0.00     0.178 HD
ATOM     14  H2  UNL     1      22.756 -19.546   6.395  1.00  0.00     0.208 HD
ENDBRANCH   1  10
BRANCH   4  15
HETATM   15  C2  UNL     1      23.202 -15.804   6.985  1.00  0.00     0.143 C 
BRANCH  15  16
HETATM   16  C3  UNL     1      24.471 -15.661   7.793  1.00  0.00     0.064 C 
BRANCH  16  17
HETATM   17  C4  UNL     1      25.299 -14.509   7.364  1.00  0.00     0.054 C 
HETATM   18  N5  UNL     1      24.776 -13.423   6.995  1.00  0.00    -0.411 N 
ATOM     19  H52 UNL     1      23.759 -13.353   6.998  1.00  0.00     0.155 HD
ATOM     20  H51 UNL     1      25.346 -12.631   6.699  1.00  0.00     0.155 HD
ENDBRANCH  16  17
ENDBRANCH  15  16
ENDBRANCH   4  15
BRANCH   6  21
HETATM   21  O1  UNL     1      20.273 -15.942   5.556  1.00  0.00    -0.255 OA
ATOM     22  H1  UNL     1      19.535 -16.449   5.239  1.00  0.00     0.247 HD
ENDBRANCH   6  21
TORSDOF 5
ENDMDL
MODEL 3
REMARK VINA RESULT: -6.803706795      2.458      4.147
REMARK  5 active torsions:
REMARK  status: ('A' for Active; 'I' for Inactive)
REMARK    1  A    between atoms: N2_4  and  N3_6 
REMARK       I    between atoms: N3_6  and  C1_8 
REMARK       I    between atoms: C1_8  and  N6_17 
REMARK    2  A    between atoms: N4_9  and  C2_11 
REMARK    3  A    between atoms: C2_11  and  C3_12 
REMARK    4  A    between atoms: C3_12  and  C4_13 
REMARK    5  A    between atoms: N6_17  and  O1_21 
ROOT
HETATM    1  N3  UNL     1      22.668 -18.404   4.420  1.00  0.00    -0.115 N 
ATOM      2  H3  UNL     1      23.538 -18.144   3.954  1.00  0.00     0.207 HD
HETATM    3  C1  UNL     1      21.944 -17.450   5.159  1.00  0.00     0.735 C 
HETATM    4  N4  UNL     1      21.163 -17.815   6.102  1.00  0.00    -0.221 N 
ATOM      5  H4  UNL     1      21.052 -18.802   6.334  1.00  0.00     0.177 HD
HETATM    6  N6  UNL     1      22.086 -16.084   4.848  1.00  0.00     0.010 N 
HETATM    7  N7  UNL     1      22.973 -15.369   5.392  1.00  0.00    -0.304 N 
ATOM      8  H71 UNL     1      23.076 -14.380   5.167  1.00  0.00     0.180 HD
ATOM      9  H72 UNL     1      23.611 -15.772   6.077  1.00  0.00     0.180 HD
ENDROOT
BRANCH   1  10
HETATM   10  N2  UNL     1      22.187 -19.702   4.332  1.00  0.00    -0.235 N 
HETATM   11  N1  UNL     1      22.537 -20.648   5.104  1.00  0.00    -0.330 N 
ATOM     12  H12 UNL     1      23.218 -20.422   5.830  1.00  0.00     0.178 HD
ATOM     13  H11 UNL     1      22.183 -21.602   5.039  1.00  0.00     0.178 HD
ATOM     14  H2  UNL     1      21.507 -19.910   3.601  1.00  0.00     0.208 HD
ENDBRANCH   1  10
BRANCH   4  15
HETATM   15  C2  UNL     1      20.445 -16.807   6.828  1.00  0.00     0.143 C 
BRANCH  15  16
HETATM   16  C3  UNL     1      21.011 -16.577   8.211  1.00  0.00     0.064 C 
BRANCH  16  17
HETATM   17  C4  UNL     1      21.217 -15.141   8.516  1.00  0.00     0.054 C 
HETATM   18  N5  UNL     1      20.368 -14.270   8.188  1.00  0.00    -0.411 N 
ATOM     19  H52 UNL     1      19.525 -14.577   7.702  1.00  0.00     0.155 HD
ATOM     20  H51 UNL     1      20.509 -13.282   8.398  1.00  0.00     0.155 HD
ENDBRANCH  16  17
ENDBRANCH  15  16
ENDBRANCH   4  15
BRANCH   6  21
HETATM   21  O1  UNL     1      21.227 -15.540   3.926  1.00  0.00    -0.255 OA
ATOM     22  H1  UNL     1      20.322 -15.829   3.935  1.00  0.00     0.247 HD
ENDBRANCH   6  21
TORSDOF 5
ENDMDL
MODEL 4
REMARK VINA RESULT: -6.684970890      1.814      3.213
REMARK  5 active torsions:
REMARK  status: ('A' for Active; 'I' for Inactive)
REMARK    1  A    between atoms: N2_4  and  N3_6 
REMARK       I    between atoms: N3_6  and  C1_8 
REMARK       I    between atoms: C1_8  and  N6_17 
REMARK    2  A    between atoms: N4_9  and  C2_11 
REMARK    3  A    between atoms: C2_11  and  C3_12 
REMARK    4  A    between atoms: C3_12  and  C4_13 
REMARK    5  A    between atoms: N6_17  and  O1_21 
ROOT
HETATM    1  N3  UNL     1      21.333 -16.919   5.404  1.00  0.00    -0.115 N 
ATOM      2  H3  UNL     1      20.326 -17.084   5.394  1.00  0.00     0.207 HD
HETATM    3  C1  UNL     1      21.904 -16.061   6.361  1.00  0.00     0.735 C 
HETATM    4  N4  UNL     1      23.016 -15.476   6.128  1.00  0.00    -0.221 N 
ATOM      5  H4  UNL     1      23.506 -15.622   5.246  1.00  0.00     0.177 HD
HETATM    6  N6  UNL     1      21.238 -15.852   7.585  1.00  0.00     0.010 N 
HETATM    7  N7  UNL     1      20.387 -14.930   7.728  1.00  0.00    -0.304 N 
ATOM      8  H71 UNL     1      19.905 -14.780   8.613  1.00  0.00     0.180 HD
ATOM      9  H72 UNL     1      20.163 -14.311   6.949  1.00  0.00     0.180 HD
ENDROOT
BRANCH   1  10
HETATM   10  N2  UNL     1      22.154 -17.539   4.473  1.00  0.00    -0.235 N 
HETATM   11  N1  UNL     1      22.400 -18.785   4.455  1.00  0.00    -0.330 N 
ATOM     12  H12 UNL     1      21.956 -19.352   5.178  1.00  0.00     0.178 HD
ATOM     13  H11 UNL     1      23.003 -19.241   3.771  1.00  0.00     0.178 HD
ATOM     14  H2  UNL     1      22.589 -16.957   3.757  1.00  0.00     0.208 HD
ENDBRANCH   1  10
BRANCH   4  15
HETATM   15  C2  UNL     1      23.560 -14.609   7.134  1.00  0.00     0.143 C 
BRANCH  15  16
HETATM   16  C3  UNL     1      24.963 -15.001   7.539  1.00  0.00     0.064 C 
BRANCH  16  17
HETATM   17  C4  UNL     1      25.939 -13.900   7.367  1.00  0.00     0.054 C 
HETATM   18  N5  UNL     1      25.624 -12.824   6.791  1.00  0.00    -0.411 N 
ATOM     19  H52 UNL     1      24.671 -12.725   6.442  1.00  0.00     0.155 HD
ATOM     20  H51 UNL     1      26.296 -12.066   6.673  1.00  0.00     0.155 HD
ENDBRANCH  16  17
ENDBRANCH  15  16
ENDBRANCH   4  15
BRANCH   6  21
HETATM   21  O1  UNL     1      21.540 -16.686   8.633  1.00  0.00    -0.255 OA
ATOM     22  H1  UNL     1      21.296 -16.408   9.508  1.00  0.00     0.247 HD
ENDBRANCH   6  21
TORSDOF 5
ENDMDL
MODEL 5
REMARK VINA RESULT: -6.629269241      3.000      5.161
REMARK  5 active torsions:
REMARK  status: ('A' for Active; 'I' for Inactive)
REMARK    1  A    between atoms: N2_4  and  N3_6 
REMARK       I    between atoms: N3_6  and  C1_8 
REMARK       I    between atoms: C1_8  and  N6_17 
REMARK    2  A    between atoms: N4_9  and  C2_11 
REMARK    3  A    between atoms: C2_11  and  C3_12 
REMARK    4  A    between atoms: C3_12  and  C4_13 
REMARK    5  A    between atoms: N6_17  and  O1_21 
ROOT
HETATM    1  N3  UNL     1      25.537 -14.715   7.660  1.00  0.00    -0.115 N 
ATOM      2  H3  UNL     1      26.169 -15.135   8.341  1.00  0.00     0.207 HD
HETATM    3  C1  UNL     1      24.303 -15.324   7.364  1.00  0.00     0.735 C 
HETATM    4  N4  UNL     1      23.731 -15.120   6.240  1.00  0.00    -0.221 N 
ATOM      5  H4  UNL     1      24.158 -14.513   5.541  1.00  0.00     0.177 HD
HETATM    6  N6  UNL     1      23.701 -16.164   8.322  1.00  0.00     0.010 N 
HETATM    7  N7  UNL     1      23.944 -17.402   8.365  1.00  0.00    -0.304 N 
ATOM      8  H71 UNL     1      23.509 -18.009   9.059  1.00  0.00     0.180 HD
ATOM      9  H72 UNL     1      24.590 -17.823   7.698  1.00  0.00     0.180 HD
ENDROOT
BRANCH   1  10
HETATM   10  N2  UNL     1      25.882 -13.536   7.015  1.00  0.00    -0.235 N 
HETATM   11  N1  UNL     1      26.883 -12.819   7.326  1.00  0.00    -0.330 N 
ATOM     12  H12 UNL     1      27.460 -13.145   8.102  1.00  0.00     0.178 HD
ATOM     13  H11 UNL     1      27.137 -11.953   6.852  1.00  0.00     0.178 HD
ATOM     14  H2  UNL     1      25.295 -13.226   6.241  1.00  0.00     0.208 HD
ENDBRANCH   1  10
BRANCH   4  15
HETATM   15  C2  UNL     1      22.474 -15.763   5.983  1.00  0.00     0.143 C 
BRANCH  15  16
HETATM   16  C3  UNL     1      22.525 -16.672   4.775  1.00  0.00     0.064 C 
BRANCH  16  17
HETATM   17  C4  UNL     1      22.476 -18.108   5.135  1.00  0.00     0.054 C 
HETATM   18  N5  UNL     1      22.463 -19.008   4.252  1.00  0.00    -0.411 N 
ATOM     19  H52 UNL     1      22.486 -18.723   3.273  1.00  0.00     0.155 HD
ATOM     20  H51 UNL     1      22.429 -19.997   4.499  1.00  0.00     0.155 HD
ENDBRANCH  16  17
ENDBRANCH  15  16
ENDBRANCH   4  15
BRANCH   6  21
HETATM   21  O1  UNL     1      22.833 -15.596   9.221  1.00  0.00    -0.255 OA
ATOM     22  H1  UNL     1      22.212 -16.164   9.661  1.00  0.00     0.247 HD
ENDBRANCH   6  21
TORSDOF 5
ENDMDL
