MODEL 1
REMARK VINA RESULT: -9.524069268      0.000      0.000
REMARK  14 active torsions:
REMARK  status: ('A' for Active; 'I' for Inactive)
REMARK    1  A    between atoms: C2_2  and  C3_3 
REMARK    2  A    between atoms: N1_6  and  C5_7 
REMARK    3  A    between atoms: C5_7  and  C6_8 
REMARK       I    between atoms: C6_8  and  N2_10 
REMARK    4  A    between atoms: N2_10  and  C7_12 
REMARK    5  A    between atoms: C7_12  and  C9_14 
REMARK    6  A    between atoms: C7_12  and  C16_21 
REMARK    7  A    between atoms: C9_14  and  C10_15 
REMARK    8  A    between atoms: C16_21  and  O3_22 
REMARK    9  A    between atoms: C16_21  and  C17_24 
REMARK       I    between atoms: N3_30  and  C21_31 
REMARK       I    between atoms: C21_31  and  N4_33 
REMARK   10  A    between atoms: N4_33  and  C22_35 
REMARK   11  A    between atoms: C22_35  and  C23_36 
REMARK   12  A    between atoms: C22_35  and  C30_45 
REMARK   13  A    between atoms: C23_36  and  C24_37 
REMARK   14  A    between atoms: C24_37  and  C25_38 
REMARK       I    between atoms: C25_38  and  N5_40 
ROOT
HETATM    1  C3  UNL     1      23.776  12.804  24.004  1.00  0.00     0.180 C 
HETATM    2  C4  UNL     1      25.081  13.365  23.597  1.00  0.00     0.243 C 
HETATM    3  O1  UNL     1      25.459  13.269  22.421  1.00  0.00    -0.271 OA
HETATM    4  N1  UNL     1      25.933  14.024  24.537  1.00  0.00    -0.340 N 
HETATM    5  C19 UNL     1      25.296  14.740  25.626  1.00  0.00     0.146 C 
HETATM    6  C20 UNL     1      23.792  14.829  25.421  1.00  0.00     0.148 C 
HETATM    7  N3  UNL     1      23.228  13.528  25.152  1.00  0.00    -0.319 N 
HETATM    8  C21 UNL     1      22.218  12.906  25.911  1.00  0.00     0.319 C 
HETATM    9  O4  UNL     1      21.842  11.731  25.597  1.00  0.00    -0.247 OA
HETATM   10  N4  UNL     1      21.567  13.499  27.027  1.00  0.00    -0.330 N 
ATOM     11  H4  UNL     1      21.840  14.441  27.308  1.00  0.00     0.165 HD
ENDROOT
BRANCH   4  12
HETATM   12  C5  UNL     1      27.372  13.991  24.413  1.00  0.00     0.228 C 
BRANCH  12  13
HETATM   13  C6  UNL     1      27.816  14.125  22.975  1.00  0.00     0.236 C 
HETATM   14  O2  UNL     1      27.616  15.256  22.483  1.00  0.00    -0.272 OA
HETATM   15  N2  UNL     1      28.388  13.097  22.272  1.00  0.00    -0.345 N 
ATOM     16  H2  UNL     1      28.501  12.209  22.762  1.00  0.00     0.163 HD
BRANCH  15  17
HETATM   17  C7  UNL     1      28.870  13.157  20.827  1.00  0.00     0.076 C 
HETATM   18  C8  UNL     1      29.645  11.850  20.778  1.00  0.00     0.046 C 
BRANCH  17  19
HETATM   19  C9  UNL     1      27.696  13.287  20.052  1.00  0.00     0.009 C 
BRANCH  19  20
HETATM   20  C10 UNL     1      26.678  12.375  19.549  1.00  0.00    -0.081 C 
HETATM   21  C11 UNL     1      26.264  11.134  20.187  1.00  0.00     0.034 C 
HETATM   22  C12 UNL     1      25.137  10.389  19.505  1.00  0.00     0.004 C 
HETATM   23  C13 UNL     1      24.912  10.907  18.093  1.00  0.00     0.001 C 
HETATM   24  C14 UNL     1      24.438  12.325  18.315  1.00  0.00     0.004 C 
HETATM   25  C15 UNL     1      25.543  13.134  18.836  1.00  0.00     0.034 C 
ENDBRANCH  19  20
ENDBRANCH  17  19
BRANCH  17  26
HETATM   26  C16 UNL     1      29.839  14.267  20.986  1.00  0.00     0.188 C 
BRANCH  26  27
HETATM   27  O3  UNL     1      30.964  13.668  21.725  1.00  0.00    -0.390 OA
ATOM     28  H3  UNL     1      31.641  14.334  21.706  1.00  0.00     0.210 HD
ENDBRANCH  26  27
BRANCH  26  29
HETATM   29  C17 UNL     1      30.386  15.300  20.213  1.00  0.00     0.138 C 
HETATM   30  C18 UNL     1      31.429  15.988  21.235  1.00  0.00     0.053 C 
HETATM   31 CL1  UNL     1      29.386  16.801  19.957  1.00  0.00    -0.099 Cl
HETATM   32 CL2  UNL     1      31.378  15.074  18.819  1.00  0.00    -0.099 Cl
ENDBRANCH  26  29
ENDBRANCH  17  26
ENDBRANCH  15  17
ENDBRANCH  12  13
ENDBRANCH   4  12
BRANCH   1  33
HETATM   33  C2  UNL     1      22.814  12.708  22.857  1.00  0.00     0.030 C 
HETATM   34  C1  UNL     1      22.802  11.294  22.334  1.00  0.00     0.007 C 
ENDBRANCH   1  33
BRANCH  10  35
HETATM   35  C22 UNL     1      20.524  12.818  27.786  1.00  0.00     0.176 C 
BRANCH  35  36
HETATM   36  C23 UNL     1      19.165  13.060  27.214  1.00  0.00     0.044 C 
BRANCH  36  37
HETATM   37  C24 UNL     1      18.488  11.868  26.627  1.00  0.00     0.105 C 
BRANCH  37  38
HETATM   38  C25 UNL     1      18.131  12.107  25.224  1.00  0.00     0.219 C 
HETATM   39  O5  UNL     1      18.724  12.892  24.457  1.00  0.00    -0.273 OA
HETATM   40  N5  UNL     1      17.011  11.380  24.682  1.00  0.00    -0.352 N 
HETATM   41  C26 UNL     1      16.533  11.498  23.307  1.00  0.00     0.126 C 
HETATM   42  C29 UNL     1      16.181  10.433  25.371  1.00  0.00     0.126 C 
HETATM   43  C27 UNL     1      16.147  10.078  22.970  1.00  0.00     0.021 C 
HETATM   44  C28 UNL     1      15.622   9.543  24.280  1.00  0.00     0.021 C 
ENDBRANCH  37  38
ENDBRANCH  36  37
ENDBRANCH  35  36
BRANCH  35  45
HETATM   45  C30 UNL     1      20.511  13.311  29.197  1.00  0.00     0.254 C 
HETATM   46  N6  UNL     1      19.692  12.640  30.135  1.00  0.00    -0.060 NA
HETATM   47  O6  UNL     1      21.188  14.288  29.602  1.00  0.00    -0.275 OA
ENDBRANCH  35  45
ENDBRANCH  10  35
TORSDOF 14
ENDMDL
MODEL 2
REMARK VINA RESULT: -9.372224039      4.225     10.864
REMARK  14 active torsions:
REMARK  status: ('A' for Active; 'I' for Inactive)
REMARK    1  A    between atoms: C2_2  and  C3_3 
REMARK    2  A    between atoms: N1_6  and  C5_7 
REMARK    3  A    between atoms: C5_7  and  C6_8 
REMARK       I    between atoms: C6_8  and  N2_10 
REMARK    4  A    between atoms: N2_10  and  C7_12 
REMARK    5  A    between atoms: C7_12  and  C9_14 
REMARK    6  A    between atoms: C7_12  and  C16_21 
REMARK    7  A    between atoms: C9_14  and  C10_15 
REMARK    8  A    between atoms: C16_21  and  O3_22 
REMARK    9  A    between atoms: C16_21  and  C17_24 
REMARK       I    between atoms: N3_30  and  C21_31 
REMARK       I    between atoms: C21_31  and  N4_33 
REMARK   10  A    between atoms: N4_33  and  C22_35 
REMARK   11  A    between atoms: C22_35  and  C23_36 
REMARK   12  A    between atoms: C22_35  and  C30_45 
REMARK   13  A    between atoms: C23_36  and  C24_37 
REMARK   14  A    between atoms: C24_37  and  C25_38 
REMARK       I    between atoms: C25_38  and  N5_40 
ROOT
HETATM    1  C3  UNL     1      21.014  11.956  25.954  1.00  0.00     0.180 C 
HETATM    2  C4  UNL     1      20.074  11.923  27.093  1.00  0.00     0.243 C 
HETATM    3  O1  UNL     1      19.345  10.936  27.267  1.00  0.00    -0.271 OA
HETATM    4  N1  UNL     1      19.980  13.013  28.011  1.00  0.00    -0.340 N 
HETATM    5  C19 UNL     1      21.186  13.778  28.265  1.00  0.00     0.146 C 
HETATM    6  C20 UNL     1      22.401  13.109  27.644  1.00  0.00     0.148 C 
HETATM    7  N3  UNL     1      22.170  12.803  26.252  1.00  0.00    -0.319 N 
HETATM    8  C21 UNL     1      22.951  13.267  25.176  1.00  0.00     0.319 C 
HETATM    9  O4  UNL     1      22.610  12.965  23.988  1.00  0.00    -0.247 OA
HETATM   10  N4  UNL     1      24.121  14.064  25.313  1.00  0.00    -0.330 N 
ATOM     11  H4  UNL     1      24.427  14.326  26.250  1.00  0.00     0.165 HD
ENDROOT
BRANCH   4  12
HETATM   12  C5  UNL     1      18.739  13.345  28.674  1.00  0.00     0.228 C 
BRANCH  12  13
HETATM   13  C6  UNL     1      17.647  13.686  27.685  1.00  0.00     0.236 C 
HETATM   14  O2  UNL     1      17.410  14.909  27.589  1.00  0.00    -0.272 OA
HETATM   15  N2  UNL     1      16.978  12.737  26.958  1.00  0.00    -0.345 N 
ATOM     16  H2  UNL     1      17.241  11.764  27.114  1.00  0.00     0.163 HD
BRANCH  15  17
HETATM   17  C7  UNL     1      15.877  13.002  25.937  1.00  0.00     0.076 C 
HETATM   18  C8  UNL     1      14.761  13.406  26.888  1.00  0.00     0.046 C 
BRANCH  17  19
HETATM   19  C9  UNL     1      16.413  13.971  25.059  1.00  0.00     0.009 C 
BRANCH  19  20
HETATM   20  C10 UNL     1      15.874  15.079  24.283  1.00  0.00    -0.081 C 
HETATM   21  C11 UNL     1      14.480  15.245  23.898  1.00  0.00     0.034 C 
HETATM   22  C12 UNL     1      14.152  16.517  23.146  1.00  0.00     0.004 C 
HETATM   23  C13 UNL     1      15.415  17.192  22.633  1.00  0.00     0.001 C 
HETATM   24  C14 UNL     1      16.133  17.595  23.901  1.00  0.00     0.004 C 
HETATM   25  C15 UNL     1      16.608  16.397  24.596  1.00  0.00     0.034 C 
ENDBRANCH  19  20
ENDBRANCH  17  19
BRANCH  17  26
HETATM   26  C16 UNL     1      15.649  11.599  25.520  1.00  0.00     0.188 C 
BRANCH  26  27
HETATM   27  O3  UNL     1      14.332  11.258  26.086  1.00  0.00    -0.390 OA
ATOM     28  H3  UNL     1      14.248  10.322  25.943  1.00  0.00     0.210 HD
ENDBRANCH  26  27
BRANCH  26  29
HETATM   29  C17 UNL     1      15.797  10.809  24.372  1.00  0.00     0.138 C 
HETATM   30  C18 UNL     1      15.045   9.442  24.787  1.00  0.00     0.053 C 
HETATM   31 CL1  UNL     1      17.415  10.028  24.071  1.00  0.00    -0.099 Cl
HETATM   32 CL2  UNL     1      15.071  11.142  22.842  1.00  0.00    -0.099 Cl
ENDBRANCH  26  29
ENDBRANCH  17  26
ENDBRANCH  15  17
ENDBRANCH  12  13
ENDBRANCH   4  12
BRANCH   1  33
HETATM   33  C2  UNL     1      21.398  10.582  25.490  1.00  0.00     0.030 C 
HETATM   34  C1  UNL     1      20.777  10.319  24.142  1.00  0.00     0.007 C 
ENDBRANCH   1  33
BRANCH  10  35
HETATM   35  C22 UNL     1      24.901  14.523  24.170  1.00  0.00     0.176 C 
BRANCH  35  36
HETATM   36  C23 UNL     1      26.216  13.822  24.069  1.00  0.00     0.044 C 
BRANCH  36  37
HETATM   37  C24 UNL     1      26.750  13.640  22.690  1.00  0.00     0.105 C 
BRANCH  37  38
HETATM   38  C25 UNL     1      27.951  12.799  22.700  1.00  0.00     0.219 C 
HETATM   39  O5  UNL     1      28.840  12.828  23.575  1.00  0.00    -0.273 OA
HETATM   40  N5  UNL     1      28.125  11.861  21.619  1.00  0.00    -0.352 N 
HETATM   41  C26 UNL     1      29.259  10.950  21.485  1.00  0.00     0.126 C 
HETATM   42  C29 UNL     1      27.243  11.654  20.505  1.00  0.00     0.126 C 
HETATM   43  C27 UNL     1      28.613   9.698  20.943  1.00  0.00     0.021 C 
HETATM   44  C28 UNL     1      27.515  10.233  20.056  1.00  0.00     0.021 C 
ENDBRANCH  37  38
ENDBRANCH  36  37
ENDBRANCH  35  36
BRANCH  35  45
HETATM   45  C30 UNL     1      25.181  15.987  24.293  1.00  0.00     0.254 C 
HETATM   46  N6  UNL     1      26.389  16.391  24.909  1.00  0.00    -0.060 NA
HETATM   47  O6  UNL     1      24.405  16.884  23.879  1.00  0.00    -0.275 OA
ENDBRANCH  35  45
ENDBRANCH  10  35
TORSDOF 14
ENDMDL
MODEL 3
REMARK VINA RESULT: -9.291572342      2.322      4.173
REMARK  14 active torsions:
REMARK  status: ('A' for Active; 'I' for Inactive)
REMARK    1  A    between atoms: C2_2  and  C3_3 
REMARK    2  A    between atoms: N1_6  and  C5_7 
REMARK    3  A    between atoms: C5_7  and  C6_8 
REMARK       I    between atoms: C6_8  and  N2_10 
REMARK    4  A    between atoms: N2_10  and  C7_12 
REMARK    5  A    between atoms: C7_12  and  C9_14 
REMARK    6  A    between atoms: C7_12  and  C16_21 
REMARK    7  A    between atoms: C9_14  and  C10_15 
REMARK    8  A    between atoms: C16_21  and  O3_22 
REMARK    9  A    between atoms: C16_21  and  C17_24 
REMARK       I    between atoms: N3_30  and  C21_31 
REMARK       I    between atoms: C21_31  and  N4_33 
REMARK   10  A    between atoms: N4_33  and  C22_35 
REMARK   11  A    between atoms: C22_35  and  C23_36 
REMARK   12  A    between atoms: C22_35  and  C30_45 
REMARK   13  A    between atoms: C23_36  and  C24_37 
REMARK   14  A    between atoms: C24_37  and  C25_38 
REMARK       I    between atoms: C25_38  and  N5_40 
ROOT
HETATM    1  C3  UNL     1      24.065  12.011  21.545  1.00  0.00     0.180 C 
HETATM    2  C4  UNL     1      25.444  12.470  21.275  1.00  0.00     0.243 C 
HETATM    3  O1  UNL     1      25.884  12.463  20.116  1.00  0.00    -0.271 OA
HETATM    4  N1  UNL     1      26.296  12.925  22.327  1.00  0.00    -0.340 N 
HETATM    5  C19 UNL     1      25.667  13.582  23.458  1.00  0.00     0.146 C 
HETATM    6  C20 UNL     1      24.196  13.854  23.187  1.00  0.00     0.148 C 
HETATM    7  N3  UNL     1      23.521  12.659  22.740  1.00  0.00    -0.319 N 
HETATM    8  C21 UNL     1      22.407  12.070  23.368  1.00  0.00     0.319 C 
HETATM    9  O4  UNL     1      21.935  10.985  22.901  1.00  0.00    -0.247 OA
HETATM   10  N4  UNL     1      21.750  12.604  24.510  1.00  0.00    -0.330 N 
ATOM     11  H4  UNL     1      22.099  13.474  24.913  1.00  0.00     0.165 HD
ENDROOT
BRANCH   4  12
HETATM   12  C5  UNL     1      27.730  12.751  22.276  1.00  0.00     0.228 C 
BRANCH  12  13
HETATM   13  C6  UNL     1      28.461  13.928  22.879  1.00  0.00     0.236 C 
HETATM   14  O2  UNL     1      28.982  13.690  23.989  1.00  0.00    -0.272 OA
HETATM   15  N2  UNL     1      28.545  15.149  22.263  1.00  0.00    -0.345 N 
ATOM     16  H2  UNL     1      28.078  15.245  21.361  1.00  0.00     0.163 HD
BRANCH  15  17
HETATM   17  C7  UNL     1      29.272  16.377  22.801  1.00  0.00     0.076 C 
HETATM   18  C8  UNL     1      29.068  17.313  21.620  1.00  0.00     0.046 C 
BRANCH  17  19
HETATM   19  C9  UNL     1      28.635  16.674  24.027  1.00  0.00     0.009 C 
BRANCH  19  20
HETATM   20  C10 UNL     1      27.268  16.947  24.447  1.00  0.00    -0.081 C 
HETATM   21  C11 UNL     1      26.166  17.304  23.565  1.00  0.00     0.034 C 
HETATM   22  C12 UNL     1      24.819  17.476  24.233  1.00  0.00     0.004 C 
HETATM   23  C13 UNL     1      24.965  17.593  25.741  1.00  0.00     0.001 C 
HETATM   24  C14 UNL     1      25.493  16.236  26.146  1.00  0.00     0.004 C 
HETATM   25  C15 UNL     1      26.862  16.076  25.651  1.00  0.00     0.034 C 
ENDBRANCH  19  20
ENDBRANCH  17  19
BRANCH  17  26
HETATM   26  C16 UNL     1      30.649  15.838  22.736  1.00  0.00     0.188 C 
BRANCH  26  27
HETATM   27  O3  UNL     1      30.989  15.871  21.303  1.00  0.00    -0.390 OA
ATOM     28  H3  UNL     1      31.848  16.276  21.272  1.00  0.00     0.210 HD
ENDBRANCH  26  27
BRANCH  26  29
HETATM   29  C17 UNL     1      31.861  15.972  23.427  1.00  0.00     0.138 C 
HETATM   30  C18 UNL     1      32.389  17.415  22.933  1.00  0.00     0.053 C 
HETATM   31 CL1  UNL     1      33.305  15.046  22.815  1.00  0.00    -0.099 Cl
HETATM   32 CL2  UNL     1      32.012  16.126  25.140  1.00  0.00    -0.099 Cl
ENDBRANCH  26  29
ENDBRANCH  17  26
ENDBRANCH  15  17
ENDBRANCH  12  13
ENDBRANCH   4  12
BRANCH   1  33
HETATM   33  C2  UNL     1      23.174  12.146  20.347  1.00  0.00     0.030 C 
HETATM   34  C1  UNL     1      22.866  10.775  19.798  1.00  0.00     0.007 C 
ENDBRANCH   1  33
BRANCH  10  35
HETATM   35  C22 UNL     1      20.597  11.960  25.130  1.00  0.00     0.176 C 
BRANCH  35  36
HETATM   36  C23 UNL     1      19.379  12.824  25.081  1.00  0.00     0.044 C 
BRANCH  36  37
HETATM   37  C24 UNL     1      18.188  12.227  24.412  1.00  0.00     0.105 C 
BRANCH  37  38
HETATM   38  C25 UNL     1      17.436  11.376  25.340  1.00  0.00     0.219 C 
HETATM   39  O5  UNL     1      17.314  11.584  26.564  1.00  0.00    -0.273 OA
HETATM   40  N5  UNL     1      16.782  10.208  24.804  1.00  0.00    -0.352 N 
HETATM   41  C26 UNL     1      15.992   9.266  25.592  1.00  0.00     0.126 C 
HETATM   42  C29 UNL     1      16.787   9.767  23.438  1.00  0.00     0.126 C 
HETATM   43  C27 UNL     1      14.863   8.918  24.651  1.00  0.00     0.021 C 
HETATM   44  C28 UNL     1      15.524   8.943  23.294  1.00  0.00     0.021 C 
ENDBRANCH  37  38
ENDBRANCH  36  37
ENDBRANCH  35  36
BRANCH  35  45
HETATM   45  C30 UNL     1      20.883  11.668  26.568  1.00  0.00     0.254 C 
HETATM   46  N6  UNL     1      21.680  12.583  27.294  1.00  0.00    -0.060 NA
HETATM   47  O6  UNL     1      20.455  10.653  27.173  1.00  0.00    -0.275 OA
ENDBRANCH  35  45
ENDBRANCH  10  35
TORSDOF 14
ENDMDL
MODEL 4
REMARK VINA RESULT: -9.237447629      3.783     10.092
REMARK  14 active torsions:
REMARK  status: ('A' for Active; 'I' for Inactive)
REMARK    1  A    between atoms: C2_2  and  C3_3 
REMARK    2  A    between atoms: N1_6  and  C5_7 
REMARK    3  A    between atoms: C5_7  and  C6_8 
REMARK       I    between atoms: C6_8  and  N2_10 
REMARK    4  A    between atoms: N2_10  and  C7_12 
REMARK    5  A    between atoms: C7_12  and  C9_14 
REMARK    6  A    between atoms: C7_12  and  C16_21 
REMARK    7  A    between atoms: C9_14  and  C10_15 
REMARK    8  A    between atoms: C16_21  and  O3_22 
REMARK    9  A    between atoms: C16_21  and  C17_24 
REMARK       I    between atoms: N3_30  and  C21_31 
REMARK       I    between atoms: C21_31  and  N4_33 
REMARK   10  A    between atoms: N4_33  and  C22_35 
REMARK   11  A    between atoms: C22_35  and  C23_36 
REMARK   12  A    between atoms: C22_35  and  C30_45 
REMARK   13  A    between atoms: C23_36  and  C24_37 
REMARK   14  A    between atoms: C24_37  and  C25_38 
REMARK       I    between atoms: C25_38  and  N5_40 
ROOT
HETATM    1  C3  UNL     1      24.766  14.491  25.251  1.00  0.00     0.180 C 
HETATM    2  C4  UNL     1      23.450  14.201  25.857  1.00  0.00     0.243 C 
HETATM    3  O1  UNL     1      22.923  15.024  26.619  1.00  0.00    -0.271 OA
HETATM    4  N1  UNL     1      22.760  12.980  25.586  1.00  0.00    -0.340 N 
HETATM    5  C19 UNL     1      22.952  12.381  24.279  1.00  0.00     0.146 C 
HETATM    6  C20 UNL     1      23.708  13.319  23.351  1.00  0.00     0.148 C 
HETATM    7  N3  UNL     1      24.920  13.797  23.972  1.00  0.00    -0.319 N 
HETATM    8  C21 UNL     1      26.220  13.632  23.455  1.00  0.00     0.319 C 
HETATM    9  O4  UNL     1      27.212  14.059  24.128  1.00  0.00    -0.247 OA
HETATM   10  N4  UNL     1      26.520  13.014  22.211  1.00  0.00    -0.330 N 
ATOM     11  H4  UNL     1      25.751  12.660  21.642  1.00  0.00     0.165 HD
ENDROOT
BRANCH   4  12
HETATM   12  C5  UNL     1      21.895  12.361  26.564  1.00  0.00     0.228 C 
BRANCH  12  13
HETATM   13  C6  UNL     1      20.509  12.113  26.013  1.00  0.00     0.236 C 
HETATM   14  O2  UNL     1      20.464  11.243  25.118  1.00  0.00    -0.272 OA
HETATM   15  N2  UNL     1      19.400  12.785  26.457  1.00  0.00    -0.345 N 
ATOM     16  H2  UNL     1      19.543  13.483  27.187  1.00  0.00     0.163 HD
BRANCH  15  17
HETATM   17  C7  UNL     1      17.972  12.584  25.961  1.00  0.00     0.076 C 
HETATM   18  C8  UNL     1      17.961  13.612  24.841  1.00  0.00     0.046 C 
BRANCH  17  19
HETATM   19  C9  UNL     1      17.886  11.212  25.632  1.00  0.00     0.009 C 
BRANCH  19  20
HETATM   20  C10 UNL     1      16.932  10.375  24.918  1.00  0.00    -0.081 C 
HETATM   21  C11 UNL     1      15.975   9.466  25.534  1.00  0.00     0.034 C 
HETATM   22  C12 UNL     1      15.042   8.750  24.581  1.00  0.00     0.004 C 
HETATM   23  C13 UNL     1      15.536   8.855  23.147  1.00  0.00     0.001 C 
HETATM   24  C14 UNL     1      15.428  10.333  22.849  1.00  0.00     0.004 C 
HETATM   25  C15 UNL     1      16.422  11.065  23.639  1.00  0.00     0.034 C 
ENDBRANCH  19  20
ENDBRANCH  17  19
BRANCH  17  26
HETATM   26  C16 UNL     1      17.271  13.161  27.131  1.00  0.00     0.188 C 
BRANCH  26  27
HETATM   27  O3  UNL     1      17.866  12.474  28.290  1.00  0.00    -0.390 OA
ATOM     28  H3  UNL     1      17.169  12.452  28.936  1.00  0.00     0.210 HD
ENDBRANCH  26  27
BRANCH  26  29
HETATM   29  C17 UNL     1      16.862  14.420  27.592  1.00  0.00     0.138 C 
HETATM   30  C18 UNL     1      16.589  14.149  29.159  1.00  0.00     0.053 C 
HETATM   31 CL1  UNL     1      15.164  14.961  27.215  1.00  0.00    -0.099 Cl
HETATM   32 CL2  UNL     1      17.867  15.823  27.662  1.00  0.00    -0.099 Cl
ENDBRANCH  26  29
ENDBRANCH  17  26
ENDBRANCH  15  17
ENDBRANCH  12  13
ENDBRANCH   4  12
BRANCH   1  33
HETATM   33  C2  UNL     1      25.040  15.963  25.157  1.00  0.00     0.030 C 
HETATM   34  C1  UNL     1      26.042  16.353  26.213  1.00  0.00     0.007 C 
ENDBRANCH   1  33
BRANCH  10  35
HETATM   35  C22 UNL     1      27.883  12.864  21.713  1.00  0.00     0.176 C 
BRANCH  35  36
HETATM   36  C23 UNL     1      27.963  13.050  20.233  1.00  0.00     0.044 C 
BRANCH  36  37
HETATM   37  C24 UNL     1      26.659  13.187  19.524  1.00  0.00     0.105 C 
BRANCH  37  38
HETATM   38  C25 UNL     1      26.194  11.887  19.029  1.00  0.00     0.219 C 
HETATM   39  O5  UNL     1      26.912  11.034  18.469  1.00  0.00    -0.273 OA
HETATM   40  N5  UNL     1      24.799  11.562  19.199  1.00  0.00    -0.352 N 
HETATM   41  C26 UNL     1      24.181  10.311  18.768  1.00  0.00     0.126 C 
HETATM   42  C29 UNL     1      23.789  12.382  19.805  1.00  0.00     0.126 C 
HETATM   43  C27 UNL     1      23.202  10.028  19.881  1.00  0.00     0.021 C 
HETATM   44  C28 UNL     1      22.739  11.405  20.292  1.00  0.00     0.021 C 
ENDBRANCH  37  38
ENDBRANCH  36  37
ENDBRANCH  35  36
BRANCH  35  45
HETATM   45  C30 UNL     1      28.395  11.494  22.022  1.00  0.00     0.254 C 
HETATM   46  N6  UNL     1      29.337  11.348  23.066  1.00  0.00    -0.060 NA
HETATM   47  O6  UNL     1      28.036  10.459  21.406  1.00  0.00    -0.275 OA
ENDBRANCH  35  45
ENDBRANCH  10  35
TORSDOF 14
ENDMDL
MODEL 5
REMARK VINA RESULT: -9.226669991      3.031      9.052
REMARK  14 active torsions:
REMARK  status: ('A' for Active; 'I' for Inactive)
REMARK    1  A    between atoms: C2_2  and  C3_3 
REMARK    2  A    between atoms: N1_6  and  C5_7 
REMARK    3  A    between atoms: C5_7  and  C6_8 
REMARK       I    between atoms: C6_8  and  N2_10 
REMARK    4  A    between atoms: N2_10  and  C7_12 
REMARK    5  A    between atoms: C7_12  and  C9_14 
REMARK    6  A    between atoms: C7_12  and  C16_21 
REMARK    7  A    between atoms: C9_14  and  C10_15 
REMARK    8  A    between atoms: C16_21  and  O3_22 
REMARK    9  A    between atoms: C16_21  and  C17_24 
REMARK       I    between atoms: N3_30  and  C21_31 
REMARK       I    between atoms: C21_31  and  N4_33 
REMARK   10  A    between atoms: N4_33  and  C22_35 
REMARK   11  A    between atoms: C22_35  and  C23_36 
REMARK   12  A    between atoms: C22_35  and  C30_45 
REMARK   13  A    between atoms: C23_36  and  C24_37 
REMARK   14  A    between atoms: C24_37  and  C25_38 
REMARK       I    between atoms: C25_38  and  N5_40 
ROOT
HETATM    1  C3  UNL     1      25.727  16.087  24.823  1.00  0.00     0.180 C 
HETATM    2  C4  UNL     1      24.602  15.980  25.776  1.00  0.00     0.243 C 
HETATM    3  O1  UNL     1      24.155  16.997  26.324  1.00  0.00    -0.271 OA
HETATM    4  N1  UNL     1      24.009  14.718  26.086  1.00  0.00    -0.340 N 
HETATM    5  C19 UNL     1      23.995  13.712  25.041  1.00  0.00     0.146 C 
HETATM    6  C20 UNL     1      24.438  14.297  23.709  1.00  0.00     0.148 C 
HETATM    7  N3  UNL     1      25.692  15.001  23.844  1.00  0.00    -0.319 N 
HETATM    8  C21 UNL     1      26.868  14.712  23.126  1.00  0.00     0.319 C 
HETATM    9  O4  UNL     1      27.924  15.377  23.375  1.00  0.00    -0.247 OA
HETATM   10  N4  UNL     1      26.974  13.713  22.120  1.00  0.00    -0.330 N 
ATOM     11  H4  UNL     1      26.148  13.159  21.891  1.00  0.00     0.165 HD
ENDROOT
BRANCH   4  12
HETATM   12  C5  UNL     1      23.436  14.445  27.384  1.00  0.00     0.228 C 
BRANCH  12  13
HETATM   13  C6  UNL     1      22.485  13.270  27.344  1.00  0.00     0.236 C 
HETATM   14  O2  UNL     1      22.847  12.298  28.039  1.00  0.00    -0.272 OA
HETATM   15  N2  UNL     1      21.329  13.273  26.608  1.00  0.00    -0.345 N 
ATOM     16  H2  UNL     1      21.126  14.114  26.067  1.00  0.00     0.163 HD
BRANCH  15  17
HETATM   17  C7  UNL     1      20.317  12.136  26.525  1.00  0.00     0.076 C 
HETATM   18  C8  UNL     1      20.262  11.755  27.997  1.00  0.00     0.046 C 
BRANCH  17  19
HETATM   19  C9  UNL     1      19.172  12.704  25.922  1.00  0.00     0.009 C 
BRANCH  19  20
HETATM   20  C10 UNL     1      17.960  12.186  25.303  1.00  0.00    -0.081 C 
HETATM   21  C11 UNL     1      17.626  12.273  23.889  1.00  0.00     0.034 C 
HETATM   22  C12 UNL     1      16.336  11.600  23.475  1.00  0.00     0.004 C 
HETATM   23  C13 UNL     1      15.472  11.279  24.684  1.00  0.00     0.001 C 
HETATM   24  C14 UNL     1      16.290  10.252  25.433  1.00  0.00     0.004 C 
HETATM   25  C15 UNL     1      17.485  10.890  25.989  1.00  0.00     0.034 C 
ENDBRANCH  19  20
ENDBRANCH  17  19
BRANCH  17  26
HETATM   26  C16 UNL     1      21.176  11.156  25.822  1.00  0.00     0.188 C 
BRANCH  26  27
HETATM   27  O3  UNL     1      20.884   9.872  26.483  1.00  0.00    -0.390 OA
ATOM     28  H3  UNL     1      20.819  10.090  27.405  1.00  0.00     0.210 HD
ENDBRANCH  26  27
BRANCH  26  29
HETATM   29  C17 UNL     1      21.549  10.842  24.508  1.00  0.00     0.138 C 
HETATM   30  C18 UNL     1      20.350   9.875  24.024  1.00  0.00     0.053 C 
HETATM   31 CL1  UNL     1      22.869   9.611  24.262  1.00  0.00    -0.099 Cl
HETATM   32 CL2  UNL     1      21.620  11.970  23.203  1.00  0.00    -0.099 Cl
ENDBRANCH  26  29
ENDBRANCH  17  26
ENDBRANCH  15  17
ENDBRANCH  12  13
ENDBRANCH   4  12
BRANCH   1  33
HETATM   33  C2  UNL     1      25.812  17.444  24.191  1.00  0.00     0.030 C 
HETATM   34  C1  UNL     1      26.879  18.252  24.885  1.00  0.00     0.007 C 
ENDBRANCH   1  33
BRANCH  10  35
HETATM   35  C22 UNL     1      28.214  13.446  21.400  1.00  0.00     0.176 C 
BRANCH  35  36
HETATM   36  C23 UNL     1      27.965  13.011  19.993  1.00  0.00     0.044 C 
BRANCH  36  37
HETATM   37  C24 UNL     1      27.027  11.864  19.826  1.00  0.00     0.105 C 
BRANCH  37  38
HETATM   38  C25 UNL     1      25.717  12.322  19.352  1.00  0.00     0.219 C 
HETATM   39  O5  UNL     1      25.536  13.208  18.492  1.00  0.00    -0.273 OA
HETATM   40  N5  UNL     1      24.543  11.705  19.917  1.00  0.00    -0.352 N 
HETATM   41  C26 UNL     1      23.171  12.043  19.549  1.00  0.00     0.126 C 
HETATM   42  C29 UNL     1      24.505  10.675  20.916  1.00  0.00     0.126 C 
HETATM   43  C27 UNL     1      22.485  10.698  19.571  1.00  0.00     0.021 C 
HETATM   44  C28 UNL     1      23.181   9.974  20.698  1.00  0.00     0.021 C 
ENDBRANCH  37  38
ENDBRANCH  36  37
ENDBRANCH  35  36
BRANCH  35  45
HETATM   45  C30 UNL     1      28.978  12.355  22.079  1.00  0.00     0.254 C 
HETATM   46  N6  UNL     1      30.120  11.830  21.430  1.00  0.00    -0.060 NA
HETATM   47  O6  UNL     1      28.666  11.875  23.197  1.00  0.00    -0.275 OA
ENDBRANCH  35  45
ENDBRANCH  10  35
TORSDOF 14
ENDMDL
