MODEL 1
REMARK VINA RESULT: -6.439656860      0.000      0.000
REMARK  10 active torsions:
REMARK  status: ('A' for Active; 'I' for Inactive)
REMARK    1  A    between atoms: N1_2  and  C4_5 
REMARK    2  A    between atoms: C4_5  and  C5_6 
REMARK    3  A    between atoms: C5_6  and  N2_7 
REMARK    4  A    between atoms: C5_6  and  O1_22 
REMARK    5  A    between atoms: N2_7  and  C6_9 
REMARK    6  A    between atoms: C8_11  and  N3_12 
REMARK    7  A    between atoms: C10_17  and  N4_18 
REMARK    8  A    between atoms: O1_22  and  C11_23 
REMARK    9  A    between atoms: C11_23  and  C12_24 
REMARK   10  A    between atoms: C12_24  and  N5_25 
ROOT
HETATM    1  N2  UNL     1      -2.176  31.313 -17.238  1.00  0.00    -0.389 N 
ATOM      2  H2  UNL     1      -2.535  31.601 -16.328  1.00  0.00     0.156 HD
ENDROOT
BRANCH   1   3
HETATM    3  C5  UNL     1      -0.788  31.132 -17.424  1.00  0.00     0.242 C 
BRANCH   3   4
HETATM    4  C4  UNL     1      -0.222  29.806 -17.686  1.00  0.00     0.289 C 
BRANCH   4   5
HETATM    5  N1  UNL     1       0.610  29.113 -16.808  1.00  0.00    -0.074 N 
HETATM    6  C1  UNL     1       1.368  30.010 -15.926  1.00  0.00     0.271 C 
HETATM    7  C2  UNL     1       1.474  28.115 -17.328  1.00  0.00     0.271 C 
HETATM    8  C3  UNL     1      -0.303  28.413 -15.868  1.00  0.00     0.271 C 
ENDBRANCH   4   5
ENDBRANCH   3   4
BRANCH   3   9
HETATM    9  O1  UNL     1      -0.381  31.941 -18.498  1.00  0.00    -0.364 OA
BRANCH   9  10
HETATM   10  C11 UNL     1      -0.209  33.248 -18.170  1.00  0.00     0.190 C 
BRANCH  10  11
HETATM   11  C12 UNL     1       0.423  33.928 -19.394  1.00  0.00     0.148 C 
BRANCH  11  12
HETATM   12  N5  UNL     1      -0.512  33.791 -20.514  1.00  0.00    -0.365 N 
HETATM   13  C13 UNL     1      -0.229  34.435 -21.586  1.00  0.00     0.197 C 
HETATM   14  N6  UNL     1      -1.107  34.305 -22.679  1.00  0.00    -0.067 NA
HETATM   15  N7  UNL     1       0.879  35.296 -21.710  1.00  0.00    -0.067 NA
ATOM     16  H5  UNL     1      -1.348  33.211 -20.443  1.00  0.00     0.161 HD
ENDBRANCH  11  12
ENDBRANCH  10  11
ENDBRANCH   9  10
ENDBRANCH   3   9
ENDBRANCH   1   3
BRANCH   1  17
HETATM   17  C6  UNL     1      -3.069  31.096 -18.311  1.00  0.00     0.111 C 
HETATM   18  C7  UNL     1      -3.826  32.352 -18.661  1.00  0.00     0.059 C 
HETATM   19  C8  UNL     1      -5.261  32.083 -18.267  1.00  0.00     0.187 C 
HETATM   20  C9  UNL     1      -5.384  30.613 -18.541  1.00  0.00     0.067 C 
HETATM   21  C10 UNL     1      -4.128  30.052 -17.954  1.00  0.00     0.207 C 
BRANCH  19  22
HETATM   22  N3  UNL     1      -6.226  32.857 -19.018  1.00  0.00    -0.075 N 
ATOM     23  H33 UNL     1      -5.756  33.529 -19.624  1.00  0.00     0.274 HD
ATOM     24  H32 UNL     1      -6.680  32.278 -19.726  1.00  0.00     0.274 HD
ATOM     25  H31 UNL     1      -6.922  33.323 -18.435  1.00  0.00     0.274 HD
ENDBRANCH  19  22
BRANCH  21  26
HETATM   26  N4  UNL     1      -3.895  28.774 -18.588  1.00  0.00    -0.073 N 
ATOM     27  H43 UNL     1      -3.462  28.896 -19.504  1.00  0.00     0.274 HD
ATOM     28  H42 UNL     1      -3.148  28.265 -18.118  1.00  0.00     0.274 HD
ATOM     29  H41 UNL     1      -4.739  28.206 -18.655  1.00  0.00     0.274 HD
ENDBRANCH  21  26
ENDBRANCH   1  17
TORSDOF 10
ENDMDL
MODEL 2
REMARK VINA RESULT: -6.402010426      2.160      6.245
REMARK  10 active torsions:
REMARK  status: ('A' for Active; 'I' for Inactive)
REMARK    1  A    between atoms: N1_2  and  C4_5 
REMARK    2  A    between atoms: C4_5  and  C5_6 
REMARK    3  A    between atoms: C5_6  and  N2_7 
REMARK    4  A    between atoms: C5_6  and  O1_22 
REMARK    5  A    between atoms: N2_7  and  C6_9 
REMARK    6  A    between atoms: C8_11  and  N3_12 
REMARK    7  A    between atoms: C10_17  and  N4_18 
REMARK    8  A    between atoms: O1_22  and  C11_23 
REMARK    9  A    between atoms: C11_23  and  C12_24 
REMARK   10  A    between atoms: C12_24  and  N5_25 
ROOT
HETATM    1  N2  UNL     1      -2.039  33.248 -19.028  1.00  0.00    -0.389 N 
ATOM      2  H2  UNL     1      -2.506  34.146 -18.892  1.00  0.00     0.156 HD
ENDROOT
BRANCH   1   3
HETATM    3  C5  UNL     1      -2.775  32.048 -18.918  1.00  0.00     0.242 C 
BRANCH   3   4
HETATM    4  C4  UNL     1      -3.060  31.447 -17.613  1.00  0.00     0.289 C 
BRANCH   4   5
HETATM    5  N1  UNL     1      -2.719  30.145 -17.248  1.00  0.00    -0.074 N 
HETATM    6  C1  UNL     1      -1.268  29.913 -17.286  1.00  0.00     0.271 C 
HETATM    7  C2  UNL     1      -3.390  29.062 -17.873  1.00  0.00     0.271 C 
HETATM    8  C3  UNL     1      -3.038  30.043 -15.802  1.00  0.00     0.271 C 
ENDBRANCH   4   5
ENDBRANCH   3   4
BRANCH   3   9
HETATM    9  O1  UNL     1      -4.025  32.243 -19.530  1.00  0.00    -0.364 OA
BRANCH   9  10
HETATM   10  C11 UNL     1      -5.048  32.408 -18.652  1.00  0.00     0.190 C 
BRANCH  10  11
HETATM   11  C12 UNL     1      -6.213  31.550 -19.170  1.00  0.00     0.148 C 
BRANCH  11  12
HETATM   12  N5  UNL     1      -7.452  32.302 -18.951  1.00  0.00    -0.365 N 
HETATM   13  C13 UNL     1      -8.552  31.657 -19.089  1.00  0.00     0.197 C 
HETATM   14  N6  UNL     1      -9.754  32.357 -18.869  1.00  0.00    -0.067 NA
HETATM   15  N7  UNL     1      -8.621  30.310 -19.495  1.00  0.00    -0.067 NA
ATOM     16  H5  UNL     1      -7.440  33.291 -18.700  1.00  0.00     0.161 HD
ENDBRANCH  11  12
ENDBRANCH  10  11
ENDBRANCH   9  10
ENDBRANCH   3   9
ENDBRANCH   1   3
BRANCH   1  17
HETATM   17  C6  UNL     1      -0.660  33.209 -19.326  1.00  0.00     0.111 C 
HETATM   18  C7  UNL     1       0.174  33.165 -18.070  1.00  0.00     0.059 C 
HETATM   19  C8  UNL     1       0.888  34.496 -18.012  1.00  0.00     0.187 C 
HETATM   20  C9  UNL     1       1.108  34.791 -19.467  1.00  0.00     0.067 C 
HETATM   21  C10 UNL     1      -0.215  34.461 -20.083  1.00  0.00     0.207 C 
BRANCH  19  22
HETATM   22  N3  UNL     1       2.133  34.458 -17.273  1.00  0.00    -0.075 N 
ATOM     23  H33 UNL     1       2.841  33.934 -17.788  1.00  0.00     0.274 HD
ATOM     24  H32 UNL     1       2.575  35.378 -17.264  1.00  0.00     0.274 HD
ATOM     25  H31 UNL     1       2.037  34.096 -16.324  1.00  0.00     0.274 HD
ENDBRANCH  19  22
BRANCH  21  26
HETATM   26  N4  UNL     1       0.019  34.216 -21.487  1.00  0.00    -0.073 N 
ATOM     27  H43 UNL     1       1.014  34.281 -21.708  1.00  0.00     0.274 HD
ATOM     28  H42 UNL     1      -0.139  33.235 -21.717  1.00  0.00     0.274 HD
ATOM     29  H41 UNL     1      -0.529  34.826 -22.093  1.00  0.00     0.274 HD
ENDBRANCH  21  26
ENDBRANCH   1  17
TORSDOF 10
ENDMDL
MODEL 3
REMARK VINA RESULT: -6.394137138      1.550      4.986
REMARK  10 active torsions:
REMARK  status: ('A' for Active; 'I' for Inactive)
REMARK    1  A    between atoms: N1_2  and  C4_5 
REMARK    2  A    between atoms: C4_5  and  C5_6 
REMARK    3  A    between atoms: C5_6  and  N2_7 
REMARK    4  A    between atoms: C5_6  and  O1_22 
REMARK    5  A    between atoms: N2_7  and  C6_9 
REMARK    6  A    between atoms: C8_11  and  N3_12 
REMARK    7  A    between atoms: C10_17  and  N4_18 
REMARK    8  A    between atoms: O1_22  and  C11_23 
REMARK    9  A    between atoms: C11_23  and  C12_24 
REMARK   10  A    between atoms: C12_24  and  N5_25 
ROOT
HETATM    1  N2  UNL     1      -2.438  31.331 -17.683  1.00  0.00    -0.389 N 
ATOM      2  H2  UNL     1      -2.388  31.345 -16.664  1.00  0.00     0.156 HD
ENDROOT
BRANCH   1   3
HETATM    3  C5  UNL     1      -1.270  31.537 -18.449  1.00  0.00     0.242 C 
BRANCH   3   4
HETATM    4  C4  UNL     1      -0.397  32.691 -18.211  1.00  0.00     0.289 C 
BRANCH   4   5
HETATM    5  N1  UNL     1      -0.112  33.676 -19.154  1.00  0.00    -0.074 N 
HETATM    6  C1  UNL     1      -0.085  33.149 -20.526  1.00  0.00     0.271 C 
HETATM    7  C2  UNL     1       1.011  34.517 -18.946  1.00  0.00     0.271 C 
HETATM    8  C3  UNL     1      -1.297  34.571 -19.162  1.00  0.00     0.271 C 
ENDBRANCH   4   5
ENDBRANCH   3   4
BRANCH   3   9
HETATM    9  O1  UNL     1      -0.451  30.404 -18.313  1.00  0.00    -0.364 OA
BRANCH   9  10
HETATM   10  C11 UNL     1       0.198  30.333 -17.122  1.00  0.00     0.190 C 
BRANCH  10  11
HETATM   11  C12 UNL     1       0.206  28.852 -16.713  1.00  0.00     0.148 C 
BRANCH  11  12
HETATM   12  N5  UNL     1      -0.911  28.639 -15.789  1.00  0.00    -0.365 N 
HETATM   13  C13 UNL     1      -1.920  27.990 -16.241  1.00  0.00     0.197 C 
HETATM   14  N6  UNL     1      -2.999  27.761 -15.365  1.00  0.00    -0.067 NA
HETATM   15  N7  UNL     1      -2.026  27.540 -17.572  1.00  0.00    -0.067 NA
ATOM     16  H5  UNL     1      -0.887  28.990 -14.831  1.00  0.00     0.161 HD
ENDBRANCH  11  12
ENDBRANCH  10  11
ENDBRANCH   9  10
ENDBRANCH   3   9
ENDBRANCH   1   3
BRANCH   1  17
HETATM   17  C6  UNL     1      -3.675  31.104 -18.325  1.00  0.00     0.111 C 
HETATM   18  C7  UNL     1      -4.354  32.402 -18.686  1.00  0.00     0.059 C 
HETATM   19  C8  UNL     1      -5.572  32.483 -17.794  1.00  0.00     0.187 C 
HETATM   20  C9  UNL     1      -5.958  31.038 -17.668  1.00  0.00     0.067 C 
HETATM   21  C10 UNL     1      -4.650  30.359 -17.412  1.00  0.00     0.207 C 
BRANCH  19  22
HETATM   22  N3  UNL     1      -6.645  33.284 -18.344  1.00  0.00    -0.075 N 
ATOM     23  H33 UNL     1      -7.549  32.957 -18.004  1.00  0.00     0.274 HD
ATOM     24  H32 UNL     1      -6.639  34.221 -17.939  1.00  0.00     0.274 HD
ATOM     25  H31 UNL     1      -6.640  33.333 -19.363  1.00  0.00     0.274 HD
ENDBRANCH  19  22
BRANCH  21  26
HETATM   26  N4  UNL     1      -4.813  28.971 -17.778  1.00  0.00    -0.073 N 
ATOM     27  H43 UNL     1      -5.043  28.878 -18.768  1.00  0.00     0.274 HD
ATOM     28  H42 UNL     1      -3.917  28.484 -17.769  1.00  0.00     0.274 HD
ATOM     29  H41 UNL     1      -5.498  28.486 -17.198  1.00  0.00     0.274 HD
ENDBRANCH  21  26
ENDBRANCH   1  17
TORSDOF 10
ENDMDL
MODEL 4
REMARK VINA RESULT: -6.352979009      1.260      1.719
REMARK  10 active torsions:
REMARK  status: ('A' for Active; 'I' for Inactive)
REMARK    1  A    between atoms: N1_2  and  C4_5 
REMARK    2  A    between atoms: C4_5  and  C5_6 
REMARK    3  A    between atoms: C5_6  and  N2_7 
REMARK    4  A    between atoms: C5_6  and  O1_22 
REMARK    5  A    between atoms: N2_7  and  C6_9 
REMARK    6  A    between atoms: C8_11  and  N3_12 
REMARK    7  A    between atoms: C10_17  and  N4_18 
REMARK    8  A    between atoms: O1_22  and  C11_23 
REMARK    9  A    between atoms: C11_23  and  C12_24 
REMARK   10  A    between atoms: C12_24  and  N5_25 
ROOT
HETATM    1  N2  UNL     1      -2.967  30.496 -18.476  1.00  0.00    -0.389 N 
ATOM      2  H2  UNL     1      -2.769  30.028 -19.361  1.00  0.00     0.156 HD
ENDROOT
BRANCH   1   3
HETATM    3  C5  UNL     1      -1.917  31.089 -17.741  1.00  0.00     0.242 C 
BRANCH   3   4
HETATM    4  C4  UNL     1      -0.649  30.388 -17.525  1.00  0.00     0.289 C 
BRANCH   4   5
HETATM    5  N1  UNL     1      -0.398  29.509 -16.473  1.00  0.00    -0.074 N 
HETATM    6  C1  UNL     1      -0.491  28.101 -16.883  1.00  0.00     0.271 C 
HETATM    7  C2  UNL     1      -1.089  29.693 -15.248  1.00  0.00     0.271 C 
HETATM    8  C3  UNL     1       1.044  29.671 -16.157  1.00  0.00     0.271 C 
ENDBRANCH   4   5
ENDBRANCH   3   4
BRANCH   3   9
HETATM    9  O1  UNL     1      -1.582  32.305 -18.360  1.00  0.00    -0.364 OA
BRANCH   9  10
HETATM   10  C11 UNL     1      -0.274  32.649 -18.225  1.00  0.00     0.190 C 
BRANCH  10  11
HETATM   11  C12 UNL     1      -0.134  34.069 -18.795  1.00  0.00     0.148 C 
BRANCH  11  12
HETATM   12  N5  UNL     1      -0.881  34.121 -20.054  1.00  0.00    -0.365 N 
HETATM   13  C13 UNL     1      -0.192  34.200 -21.133  1.00  0.00     0.197 C 
HETATM   14  N6  UNL     1      -0.891  34.236 -22.355  1.00  0.00    -0.067 NA
HETATM   15  N7  UNL     1       1.213  34.301 -21.156  1.00  0.00    -0.067 NA
ATOM     16  H5  UNL     1      -1.901  34.095 -20.072  1.00  0.00     0.161 HD
ENDBRANCH  11  12
ENDBRANCH  10  11
ENDBRANCH   9  10
ENDBRANCH   3   9
ENDBRANCH   1   3
BRANCH   1  17
HETATM   17  C6  UNL     1      -4.292  30.551 -17.990  1.00  0.00     0.111 C 
HETATM   18  C7  UNL     1      -5.155  31.448 -18.841  1.00  0.00     0.059 C 
HETATM   19  C8  UNL     1      -5.478  32.642 -17.971  1.00  0.00     0.187 C 
HETATM   20  C9  UNL     1      -5.549  32.019 -16.608  1.00  0.00     0.067 C 
HETATM   21  C10 UNL     1      -4.344  31.133 -16.576  1.00  0.00     0.207 C 
BRANCH  19  22
HETATM   22  N3  UNL     1      -6.714  33.306 -18.328  1.00  0.00    -0.075 N 
ATOM     23  H33 UNL     1      -6.551  34.296 -18.509  1.00  0.00     0.274 HD
ATOM     24  H32 UNL     1      -7.026  33.012 -19.254  1.00  0.00     0.274 HD
ATOM     25  H31 UNL     1      -7.459  33.183 -17.642  1.00  0.00     0.274 HD
ENDBRANCH  19  22
BRANCH  21  26
HETATM   26  N4  UNL     1      -4.580  30.130 -15.563  1.00  0.00    -0.073 N 
ATOM     27  H43 UNL     1      -4.772  29.222 -15.986  1.00  0.00     0.274 HD
ATOM     28  H42 UNL     1      -3.718  29.903 -15.068  1.00  0.00     0.274 HD
ATOM     29  H41 UNL     1      -5.318  30.393 -14.910  1.00  0.00     0.274 HD
ENDBRANCH  21  26
ENDBRANCH   1  17
TORSDOF 10
ENDMDL
MODEL 5
REMARK VINA RESULT: -6.348291628      1.452      2.005
REMARK  10 active torsions:
REMARK  status: ('A' for Active; 'I' for Inactive)
REMARK    1  A    between atoms: N1_2  and  C4_5 
REMARK    2  A    between atoms: C4_5  and  C5_6 
REMARK    3  A    between atoms: C5_6  and  N2_7 
REMARK    4  A    between atoms: C5_6  and  O1_22 
REMARK    5  A    between atoms: N2_7  and  C6_9 
REMARK    6  A    between atoms: C8_11  and  N3_12 
REMARK    7  A    between atoms: C10_17  and  N4_18 
REMARK    8  A    between atoms: O1_22  and  C11_23 
REMARK    9  A    between atoms: C11_23  and  C12_24 
REMARK   10  A    between atoms: C12_24  and  N5_25 
ROOT
HETATM    1  N2  UNL     1      -2.683  32.234 -17.839  1.00  0.00    -0.389 N 
ATOM      2  H2  UNL     1      -2.650  33.199 -18.169  1.00  0.00     0.156 HD
ENDROOT
BRANCH   1   3
HETATM    3  C5  UNL     1      -1.487  31.497 -17.692  1.00  0.00     0.242 C 
BRANCH   3   4
HETATM    4  C4  UNL     1      -1.509  30.067 -17.375  1.00  0.00     0.289 C 
BRANCH   4   5
HETATM    5  N1  UNL     1      -0.847  29.485 -16.295  1.00  0.00    -0.074 N 
HETATM    6  C1  UNL     1      -1.536  29.726 -15.019  1.00  0.00     0.271 C 
HETATM    7  C2  UNL     1       0.542  29.720 -16.136  1.00  0.00     0.271 C 
HETATM    8  C3  UNL     1      -0.994  28.019 -16.484  1.00  0.00     0.271 C 
ENDBRANCH   4   5
ENDBRANCH   3   4
BRANCH   3   9
HETATM    9  O1  UNL     1      -0.753  31.614 -18.884  1.00  0.00    -0.364 OA
BRANCH   9  10
HETATM   10  C11 UNL     1      -0.708  32.876 -19.383  1.00  0.00     0.190 C 
BRANCH  10  11
HETATM   11  C12 UNL     1      -0.166  32.763 -20.817  1.00  0.00     0.148 C 
BRANCH  11  12
HETATM   12  N5  UNL     1       0.622  33.967 -21.091  1.00  0.00    -0.365 N 
HETATM   13  C13 UNL     1       0.127  34.803 -21.929  1.00  0.00     0.197 C 
HETATM   14  N6  UNL     1       0.862  35.975 -22.197  1.00  0.00    -0.067 NA
HETATM   15  N7  UNL     1      -1.078  34.589 -22.626  1.00  0.00    -0.067 NA
ATOM     16  H5  UNL     1       1.520  34.133 -20.638  1.00  0.00     0.161 HD
ENDBRANCH  11  12
ENDBRANCH  10  11
ENDBRANCH   9  10
ENDBRANCH   3   9
ENDBRANCH   1   3
BRANCH   1  17
HETATM   17  C6  UNL     1      -3.925  31.637 -17.530  1.00  0.00     0.111 C 
HETATM   18  C7  UNL     1      -4.753  31.413 -18.770  1.00  0.00     0.059 C 
HETATM   19  C8  UNL     1      -5.920  32.367 -18.656  1.00  0.00     0.187 C 
HETATM   20  C9  UNL     1      -6.148  32.397 -17.173  1.00  0.00     0.067 C 
HETATM   21  C10 UNL     1      -4.765  32.535 -16.620  1.00  0.00     0.207 C 
BRANCH  19  22
HETATM   22  N3  UNL     1      -7.099  31.934 -19.377  1.00  0.00    -0.075 N 
ATOM     23  H33 UNL     1      -6.878  31.759 -20.356  1.00  0.00     0.274 HD
ATOM     24  H32 UNL     1      -7.370  30.993 -19.092  1.00  0.00     0.274 HD
ATOM     25  H31 UNL     1      -7.889  32.576 -19.295  1.00  0.00     0.274 HD
ENDBRANCH  19  22
BRANCH  21  26
HETATM   26  N4  UNL     1      -4.806  32.070 -15.253  1.00  0.00    -0.073 N 
ATOM     27  H43 UNL     1      -4.160  31.292 -15.112  1.00  0.00     0.274 HD
ATOM     28  H42 UNL     1      -4.383  32.752 -14.623  1.00  0.00     0.274 HD
ATOM     29  H41 UNL     1      -5.747  31.824 -14.945  1.00  0.00     0.274 HD
ENDBRANCH  21  26
ENDBRANCH   1  17
TORSDOF 10
ENDMDL
