MODEL 1
REMARK VINA RESULT: -7.800605641      0.000      0.000
REMARK  3 active torsions:
REMARK  status: ('A' for Active; 'I' for Inactive)
REMARK    1  A    between atoms: C2_2  and  N1_3 
REMARK    2  A    between atoms: C7_11  and  N3_12 
REMARK    3  A    between atoms: C12_22  and  N6_23 
ROOT
HETATM    1  C1  UNL     1     -17.966  34.937  43.603  1.00  0.00     0.097 A 
HETATM    2  C2  UNL     1     -17.009  35.114  42.625  1.00  0.00     0.122 A 
HETATM    3  N2  UNL     1     -15.729  35.088  43.008  1.00  0.00    -0.177 N 
ATOM      4  H2  UNL     1     -15.016  35.218  42.291  1.00  0.00     0.186 HD
HETATM    5  C7  UNL     1     -15.313  34.902  44.285  1.00  0.00     0.683 A 
HETATM    6  N5  UNL     1     -16.290  34.736  45.193  1.00  0.00    -0.177 N 
ATOM      7  H5  UNL     1     -16.013  34.595  46.165  1.00  0.00     0.186 HD
HETATM    8  C12 UNL     1     -17.602  34.743  44.917  1.00  0.00     0.122 A 
ENDROOT
BRANCH   5   9
HETATM    9  N3  UNL     1     -13.939  34.885  44.632  1.00  0.00    -0.214 N 
HETATM   10  C8  UNL     1     -13.470  35.691  45.720  1.00  0.00     0.168 C 
HETATM   11  C9  UNL     1     -12.145  36.329  45.499  1.00  0.00     0.252 C 
HETATM   12  N4  UNL     1     -11.505  35.854  44.309  1.00  0.00    -0.072 N 
HETATM   13  C10 UNL     1     -11.618  34.388  44.299  1.00  0.00     0.252 C 
ATOM     14  H42 UNL     1     -11.872  36.286  43.461  1.00  0.00     0.277 HD
ATOM     15  H41 UNL     1     -10.542  36.179  44.219  1.00  0.00     0.277 HD
HETATM   16  C11 UNL     1     -13.021  34.063  43.897  1.00  0.00     0.168 C 
ENDBRANCH   5   9
BRANCH   2  17
HETATM   17  N1  UNL     1     -17.344  35.316  41.258  1.00  0.00    -0.363 N 
HETATM   18  C3  UNL     1     -17.111  34.217  40.310  1.00  0.00     0.150 C 
HETATM   19  C4  UNL     1     -16.242  34.759  39.196  1.00  0.00     0.187 C 
HETATM   20  O1  UNL     1     -16.891  35.853  38.623  1.00  0.00    -0.388 OA
HETATM   21  C5  UNL     1     -17.026  36.906  39.508  1.00  0.00     0.187 C 
HETATM   22  C6  UNL     1     -17.896  36.508  40.704  1.00  0.00     0.150 C 
ENDBRANCH   2  17
BRANCH   8  23
HETATM   23  N6  UNL     1     -18.518  34.555  45.976  1.00  0.00    -0.363 N 
HETATM   24  C13 UNL     1     -19.959  34.589  45.853  1.00  0.00     0.150 C 
HETATM   25  C14 UNL     1     -20.416  35.625  46.891  1.00  0.00     0.187 C 
HETATM   26  O2  UNL     1     -20.142  35.086  48.122  1.00  0.00    -0.388 OA
HETATM   27  C15 UNL     1     -18.798  34.942  48.392  1.00  0.00     0.187 C 
HETATM   28  C16 UNL     1     -18.007  34.306  47.308  1.00  0.00     0.150 C 
ENDBRANCH   8  23
TORSDOF 3
ENDMDL
MODEL 2
REMARK VINA RESULT: -7.755959165      0.175      5.624
REMARK  3 active torsions:
REMARK  status: ('A' for Active; 'I' for Inactive)
REMARK    1  A    between atoms: C2_2  and  N1_3 
REMARK    2  A    between atoms: C7_11  and  N3_12 
REMARK    3  A    between atoms: C12_22  and  N6_23 
ROOT
HETATM    1  C1  UNL     1     -17.906  34.842  43.709  1.00  0.00     0.097 A 
HETATM    2  C2  UNL     1     -17.520  34.685  45.025  1.00  0.00     0.122 A 
HETATM    3  N2  UNL     1     -16.210  34.711  45.287  1.00  0.00    -0.177 N 
ATOM      4  H2  UNL     1     -15.917  34.597  46.256  1.00  0.00     0.186 HD
HETATM    5  C7  UNL     1     -15.244  34.880  44.352  1.00  0.00     0.683 A 
HETATM    6  N5  UNL     1     -15.680  35.026  43.088  1.00  0.00    -0.177 N 
ATOM      7  H5  UNL     1     -14.979  35.153  42.358  1.00  0.00     0.186 HD
HETATM    8  C12 UNL     1     -16.967  35.016  42.717  1.00  0.00     0.122 A 
ENDROOT
BRANCH   5   9
HETATM    9  N3  UNL     1     -13.866  34.899  44.690  1.00  0.00    -0.214 N 
HETATM   10  C8  UNL     1     -13.411  35.721  45.771  1.00  0.00     0.168 C 
HETATM   11  C9  UNL     1     -12.104  36.392  45.539  1.00  0.00     0.252 C 
HETATM   12  N4  UNL     1     -11.460  35.928  44.346  1.00  0.00    -0.072 N 
HETATM   13  C10 UNL     1     -11.536  34.460  44.343  1.00  0.00     0.252 C 
ATOM     14  H42 UNL     1     -11.844  36.347  43.499  1.00  0.00     0.277 HD
ATOM     15  H41 UNL     1     -10.506  36.277  44.248  1.00  0.00     0.277 HD
HETATM   16  C11 UNL     1     -12.933  34.098  43.951  1.00  0.00     0.168 C 
ENDBRANCH   5   9
BRANCH   2  17
HETATM   17  N1  UNL     1     -18.458  34.503  46.078  1.00  0.00    -0.363 N 
HETATM   18  C3  UNL     1     -19.891  34.530  45.751  1.00  0.00     0.150 C 
HETATM   19  C4  UNL     1     -20.534  35.578  46.635  1.00  0.00     0.187 C 
HETATM   20  O1  UNL     1     -20.279  35.248  47.966  1.00  0.00    -0.388 OA
HETATM   21  C5  UNL     1     -18.932  35.309  48.272  1.00  0.00     0.187 C 
HETATM   22  C6  UNL     1     -18.137  34.290  47.451  1.00  0.00     0.150 C 
ENDBRANCH   2  17
BRANCH   8  23
HETATM   23  N6  UNL     1     -17.279  35.182  41.349  1.00  0.00    -0.363 N 
HETATM   24  C13 UNL     1     -17.152  34.161  40.331  1.00  0.00     0.150 C 
HETATM   25  C14 UNL     1     -16.277  34.802  39.242  1.00  0.00     0.187 C 
HETATM   26  O2  UNL     1     -17.023  35.812  38.691  1.00  0.00    -0.388 OA
HETATM   27  C15 UNL     1     -17.278  36.862  39.548  1.00  0.00     0.187 C 
HETATM   28  C16 UNL     1     -17.768  36.466  40.893  1.00  0.00     0.150 C 
ENDBRANCH   8  23
TORSDOF 3
ENDMDL
MODEL 3
REMARK VINA RESULT: -7.630604644      2.074      6.337
REMARK  3 active torsions:
REMARK  status: ('A' for Active; 'I' for Inactive)
REMARK    1  A    between atoms: C2_2  and  N1_3 
REMARK    2  A    between atoms: C7_11  and  N3_12 
REMARK    3  A    between atoms: C12_22  and  N6_23 
ROOT
HETATM    1  C1  UNL     1     -16.718  35.392  45.433  1.00  0.00     0.097 A 
HETATM    2  C2  UNL     1     -17.985  35.568  44.915  1.00  0.00     0.122 A 
HETATM    3  N2  UNL     1     -18.111  35.550  43.584  1.00  0.00    -0.177 N 
ATOM      4  H2  UNL     1     -19.044  35.679  43.194  1.00  0.00     0.186 HD
HETATM    5  C7  UNL     1     -17.085  35.372  42.718  1.00  0.00     0.683 A 
HETATM    6  N5  UNL     1     -15.874  35.207  43.280  1.00  0.00    -0.177 N 
ATOM      7  H5  UNL     1     -15.078  35.072  42.657  1.00  0.00     0.186 HD
HETATM    8  C12 UNL     1     -15.638  35.207  44.599  1.00  0.00     0.122 A 
ENDROOT
BRANCH   5   9
HETATM    9  N3  UNL     1     -17.280  35.362  41.313  1.00  0.00    -0.214 N 
HETATM   10  C8  UNL     1     -17.026  34.166  40.568  1.00  0.00     0.168 C 
HETATM   11  C9  UNL     1     -16.384  34.379  39.243  1.00  0.00     0.252 C 
HETATM   12  N4  UNL     1     -16.322  35.765  38.887  1.00  0.00    -0.072 N 
HETATM   13  C10 UNL     1     -17.641  36.354  39.162  1.00  0.00     0.252 C 
ATOM     14  H42 UNL     1     -15.561  36.261  39.353  1.00  0.00     0.277 HD
ATOM     15  H41 UNL     1     -16.012  35.915  37.926  1.00  0.00     0.277 HD
HETATM   16  C11 UNL     1     -17.730  36.547  40.642  1.00  0.00     0.168 C 
ENDBRANCH   5   9
BRANCH   2  17
HETATM   17  N1  UNL     1     -19.126  35.762  45.741  1.00  0.00    -0.363 N 
HETATM   18  C3  UNL     1     -18.962  35.654  47.197  1.00  0.00     0.150 C 
HETATM   19  C4  UNL     1     -19.958  34.626  47.688  1.00  0.00     0.187 C 
HETATM   20  O1  UNL     1     -21.237  35.033  47.306  1.00  0.00    -0.388 OA
HETATM   21  C5  UNL     1     -21.393  35.048  45.933  1.00  0.00     0.187 C 
HETATM   22  C6  UNL     1     -20.444  36.058  45.283  1.00  0.00     0.150 C 
ENDBRANCH   2  17
BRANCH   8  23
HETATM   23  N6  UNL     1     -14.310  35.020  45.049  1.00  0.00    -0.363 N 
HETATM   24  C13 UNL     1     -13.659  35.796  46.082  1.00  0.00     0.150 C 
HETATM   25  C14 UNL     1     -12.368  36.312  45.428  1.00  0.00     0.187 C 
HETATM   26  O2  UNL     1     -11.579  35.212  45.210  1.00  0.00    -0.388 OA
HETATM   27  C15 UNL     1     -12.077  34.333  44.272  1.00  0.00     0.187 C 
HETATM   28  C16 UNL     1     -13.508  33.976  44.447  1.00  0.00     0.150 C 
ENDBRANCH   8  23
TORSDOF 3
ENDMDL
MODEL 4
REMARK VINA RESULT: -7.620653007      2.000      5.128
REMARK  3 active torsions:
REMARK  status: ('A' for Active; 'I' for Inactive)
REMARK    1  A    between atoms: C2_2  and  N1_3 
REMARK    2  A    between atoms: C7_11  and  N3_12 
REMARK    3  A    between atoms: C12_22  and  N6_23 
ROOT
HETATM    1  C1  UNL     1     -16.364  35.253  45.430  1.00  0.00     0.097 A 
HETATM    2  C2  UNL     1     -15.338  35.127  44.516  1.00  0.00     0.122 A 
HETATM    3  N2  UNL     1     -15.664  35.157  43.220  1.00  0.00    -0.177 N 
ATOM      4  H2  UNL     1     -14.911  35.064  42.539  1.00  0.00     0.186 HD
HETATM    5  C7  UNL     1     -16.926  35.301  42.749  1.00  0.00     0.683 A 
HETATM    6  N5  UNL     1     -17.884  35.418  43.686  1.00  0.00    -0.177 N 
ATOM      7  H5  UNL     1     -18.846  35.526  43.367  1.00  0.00     0.186 HD
HETATM    8  C12 UNL     1     -17.666  35.402  45.008  1.00  0.00     0.122 A 
ENDROOT
BRANCH   5   9
HETATM    9  N3  UNL     1     -17.211  35.325  41.360  1.00  0.00    -0.214 N 
HETATM   10  C8  UNL     1     -17.006  34.147  40.571  1.00  0.00     0.168 C 
HETATM   11  C9  UNL     1     -16.451  34.394  39.213  1.00  0.00     0.252 C 
HETATM   12  N4  UNL     1     -16.412  35.788  38.888  1.00  0.00    -0.072 N 
HETATM   13  C10 UNL     1     -17.710  36.368  39.261  1.00  0.00     0.252 C 
ATOM     14  H42 UNL     1     -15.622  36.273  39.315  1.00  0.00     0.277 HD
ATOM     15  H41 UNL     1     -16.164  35.962  37.913  1.00  0.00     0.277 HD
HETATM   16  C11 UNL     1     -17.704  36.525  40.748  1.00  0.00     0.168 C 
ENDBRANCH   5   9
BRANCH   2  17
HETATM   17  N1  UNL     1     -13.980  34.971  44.910  1.00  0.00    -0.363 N 
HETATM   18  C3  UNL     1     -13.399  35.966  45.823  1.00  0.00     0.150 C 
HETATM   19  C4  UNL     1     -12.154  36.513  45.159  1.00  0.00     0.187 C 
HETATM   20  O1  UNL     1     -11.295  35.448  44.885  1.00  0.00    -0.388 OA
HETATM   21  C5  UNL     1     -11.830  34.569  43.961  1.00  0.00     0.187 C 
HETATM   22  C6  UNL     1     -13.109  33.921  44.498  1.00  0.00     0.150 C 
ENDBRANCH   2  17
BRANCH   8  23
HETATM   23  N6  UNL     1     -18.773  35.536  45.878  1.00  0.00    -0.363 N 
HETATM   24  C13 UNL     1     -18.710  35.508  47.323  1.00  0.00     0.150 C 
HETATM   25  C14 UNL     1     -19.714  34.420  47.736  1.00  0.00     0.187 C 
HETATM   26  O2  UNL     1     -20.957  34.897  47.408  1.00  0.00    -0.388 OA
HETATM   27  C15 UNL     1     -21.176  35.028  46.053  1.00  0.00     0.187 C 
HETATM   28  C16 UNL     1     -20.092  35.718  45.309  1.00  0.00     0.150 C 
ENDBRANCH   8  23
TORSDOF 3
ENDMDL
MODEL 5
REMARK VINA RESULT: -7.599282372      1.888      4.990
REMARK  3 active torsions:
REMARK  status: ('A' for Active; 'I' for Inactive)
REMARK    1  A    between atoms: C2_2  and  N1_3 
REMARK    2  A    between atoms: C7_11  and  N3_12 
REMARK    3  A    between atoms: C12_22  and  N6_23 
ROOT
HETATM    1  C1  UNL     1     -16.240  34.673  45.464  1.00  0.00     0.097 A 
HETATM    2  C2  UNL     1     -15.245  34.837  44.522  1.00  0.00     0.122 A 
HETATM    3  N2  UNL     1     -15.625  35.014  43.253  1.00  0.00    -0.177 N 
ATOM      4  H2  UNL     1     -14.895  35.137  42.552  1.00  0.00     0.186 HD
HETATM    5  C7  UNL     1     -16.913  35.043  42.834  1.00  0.00     0.683 A 
HETATM    6  N5  UNL     1     -17.838  34.876  43.796  1.00  0.00    -0.177 N 
ATOM      7  H5  UNL     1     -18.819  34.891  43.516  1.00  0.00     0.186 HD
HETATM    8  C12 UNL     1     -17.566  34.693  45.095  1.00  0.00     0.122 A 
ENDROOT
BRANCH   5   9
HETATM    9  N3  UNL     1     -17.256  35.235  41.472  1.00  0.00    -0.214 N 
HETATM   10  C8  UNL     1     -17.059  34.172  40.532  1.00  0.00     0.168 C 
HETATM   11  C9  UNL     1     -16.566  34.602  39.196  1.00  0.00     0.252 C 
HETATM   12  N4  UNL     1     -16.570  36.027  39.050  1.00  0.00    -0.072 N 
HETATM   13  C10 UNL     1     -17.864  36.521  39.543  1.00  0.00     0.252 C 
ATOM     14  H42 UNL     1     -15.774  36.475  39.505  1.00  0.00     0.277 HD
ATOM     15  H41 UNL     1     -16.367  36.329  38.096  1.00  0.00     0.277 HD
HETATM   16  C11 UNL     1     -17.799  36.489  41.037  1.00  0.00     0.168 C 
ENDBRANCH   5   9
BRANCH   2  17
HETATM   17  N1  UNL     1     -13.864  34.823  44.861  1.00  0.00    -0.363 N 
HETATM   18  C3  UNL     1     -13.354  35.865  45.764  1.00  0.00     0.150 C 
HETATM   19  C4  UNL     1     -12.202  36.548  45.059  1.00  0.00     0.187 C 
HETATM   20  O1  UNL     1     -11.248  35.582  44.738  1.00  0.00    -0.388 OA
HETATM   21  C5  UNL     1     -11.722  34.659  43.825  1.00  0.00     0.187 C 
HETATM   22  C6  UNL     1     -12.904  33.875  44.402  1.00  0.00     0.150 C 
ENDBRANCH   2  17
BRANCH   8  23
HETATM   23  N6  UNL     1     -18.644  34.532  45.996  1.00  0.00    -0.363 N 
HETATM   24  C13 UNL     1     -20.046  34.592  45.644  1.00  0.00     0.150 C 
HETATM   25  C14 UNL     1     -20.641  35.647  46.591  1.00  0.00     0.187 C 
HETATM   26  O2  UNL     1     -20.578  35.113  47.852  1.00  0.00    -0.388 OA
HETATM   27  C15 UNL     1     -19.297  34.945  48.334  1.00  0.00     0.187 C 
HETATM   28  C16 UNL     1     -18.357  34.284  47.393  1.00  0.00     0.150 C 
ENDBRANCH   8  23
TORSDOF 3
ENDMDL
