MODEL 1
REMARK VINA RESULT: -7.182132107      0.000      0.000
REMARK  3 active torsions:
REMARK  status: ('A' for Active; 'I' for Inactive)
REMARK    1  A    between atoms: C4_9  and  N3_10 
REMARK    2  A    between atoms: C12_22  and  N5_23 
REMARK    3  A    between atoms: C15_26  and  N6_27 
ROOT
HETATM    1  O1  UNL     1     -20.997  34.950  48.828  1.00  0.00    -0.266 OA
HETATM    2  C1  UNL     1     -20.234  35.063  47.835  1.00  0.00     0.275 C 
HETATM    3  N1  UNL     1     -18.925  34.741  48.018  1.00  0.00    -0.320 N 
ATOM      4  H1  UNL     1     -18.698  34.328  48.923  1.00  0.00     0.169 HD
HETATM    5  C2  UNL     1     -17.890  34.889  47.174  1.00  0.00     0.065 A 
HETATM    6  C3  UNL     1     -16.699  34.485  47.748  1.00  0.00     0.120 A 
HETATM    7  N2  UNL     1     -15.551  34.560  47.052  1.00  0.00    -0.350 N 
ATOM      8  H2  UNL     1     -14.689  34.254  47.504  1.00  0.00     0.166 HD
HETATM    9  C4  UNL     1     -15.482  35.019  45.790  1.00  0.00     0.104 A 
HETATM   10  C9  UNL     1     -16.654  35.439  45.170  1.00  0.00     0.066 A 
HETATM   11  C10 UNL     1     -17.835  35.364  45.877  1.00  0.00     0.048 A 
HETATM   12  C11 UNL     1     -18.931  35.816  45.137  1.00  0.00     0.213 C 
HETATM   13  O2  UNL     1     -18.657  36.155  43.974  1.00  0.00    -0.285 OA
HETATM   14  C12 UNL     1     -20.265  35.937  45.518  1.00  0.00     0.114 C 
HETATM   15  C15 UNL     1     -20.850  35.506  46.683  1.00  0.00     0.130 C 
ENDROOT
BRANCH   9  16
HETATM   16  N3  UNL     1     -14.250  35.085  45.086  1.00  0.00    -0.364 N 
HETATM   17  C5  UNL     1     -13.713  36.395  44.778  1.00  0.00     0.152 C 
HETATM   18  C6  UNL     1     -12.226  36.355  45.023  1.00  0.00     0.252 C 
HETATM   19  N4  UNL     1     -11.566  35.343  44.262  1.00  0.00    -0.072 N 
HETATM   20  C7  UNL     1     -12.440  34.348  43.708  1.00  0.00     0.252 C 
ATOM     21  H42 UNL     1     -10.999  35.765  43.527  1.00  0.00     0.277 HD
ATOM     22  H41 UNL     1     -10.834  34.902  44.817  1.00  0.00     0.277 HD
HETATM   23  C8  UNL     1     -13.522  33.929  44.671  1.00  0.00     0.152 C 
ENDBRANCH   9  16
BRANCH  14  24
HETATM   24  N5  UNL     1     -21.152  36.569  44.630  1.00  0.00    -0.372 N 
HETATM   25  C13 UNL     1     -22.130  36.823  43.610  1.00  0.00     0.143 A 
HETATM   26  C14 UNL     1     -21.576  38.008  44.311  1.00  0.00     0.143 A 
ENDBRANCH  14  24
BRANCH  15  27
HETATM   27  N6  UNL     1     -22.267  35.535  46.657  1.00  0.00    -0.371 N 
HETATM   28  C16 UNL     1     -23.602  36.061  46.861  1.00  0.00     0.143 A 
HETATM   29  C17 UNL     1     -23.466  34.710  46.243  1.00  0.00     0.143 A 
ENDBRANCH  15  27
TORSDOF 3
ENDMDL
MODEL 2
REMARK VINA RESULT: -7.041020362      3.701      5.876
REMARK  3 active torsions:
REMARK  status: ('A' for Active; 'I' for Inactive)
REMARK    1  A    between atoms: C4_9  and  N3_10 
REMARK    2  A    between atoms: C12_22  and  N5_23 
REMARK    3  A    between atoms: C15_26  and  N6_27 
ROOT
HETATM    1  O1  UNL     1     -15.851  33.207  41.389  1.00  0.00    -0.266 OA
HETATM    2  C1  UNL     1     -16.133  34.142  42.180  1.00  0.00     0.275 C 
HETATM    3  N1  UNL     1     -15.682  34.030  43.459  1.00  0.00    -0.320 N 
ATOM      4  H1  UNL     1     -15.057  33.243  43.637  1.00  0.00     0.169 HD
HETATM    5  C2  UNL     1     -15.944  34.810  44.522  1.00  0.00     0.065 A 
HETATM    6  C3  UNL     1     -15.333  34.336  45.668  1.00  0.00     0.120 A 
HETATM    7  N2  UNL     1     -15.482  34.989  46.835  1.00  0.00    -0.350 N 
ATOM      8  H2  UNL     1     -15.019  34.614  47.662  1.00  0.00     0.166 HD
HETATM    9  C4  UNL     1     -16.211  36.111  46.964  1.00  0.00     0.104 A 
HETATM   10  C9  UNL     1     -16.846  36.626  45.839  1.00  0.00     0.066 A 
HETATM   11  C10 UNL     1     -16.698  35.963  44.639  1.00  0.00     0.048 A 
HETATM   12  C11 UNL     1     -17.386  36.586  43.595  1.00  0.00     0.213 C 
HETATM   13  O2  UNL     1     -17.961  37.639  43.918  1.00  0.00    -0.285 OA
HETATM   14  C12 UNL     1     -17.513  36.196  42.264  1.00  0.00     0.114 C 
HETATM   15  C15 UNL     1     -16.871  35.166  41.624  1.00  0.00     0.130 C 
ENDROOT
BRANCH   9  16
HETATM   16  N3  UNL     1     -16.347  36.773  48.214  1.00  0.00    -0.364 N 
HETATM   17  C5  UNL     1     -17.197  37.944  48.272  1.00  0.00     0.152 C 
HETATM   18  C6  UNL     1     -17.996  37.873  49.550  1.00  0.00     0.252 C 
HETATM   19  N4  UNL     1     -17.172  37.783  50.713  1.00  0.00    -0.072 N 
HETATM   20  C7  UNL     1     -15.809  37.418  50.453  1.00  0.00     0.252 C 
ATOM     21  H42 UNL     1     -17.211  38.653  51.244  1.00  0.00     0.277 HD
ATOM     22  H41 UNL     1     -17.586  37.145  51.392  1.00  0.00     0.277 HD
HETATM   23  C8  UNL     1     -15.689  36.340  49.405  1.00  0.00     0.152 C 
ENDBRANCH   9  16
BRANCH  14  24
HETATM   24  N5  UNL     1     -18.395  36.921  41.444  1.00  0.00    -0.372 N 
HETATM   25  C13 UNL     1     -18.944  37.741  40.401  1.00  0.00     0.143 A 
HETATM   26  C14 UNL     1     -19.899  37.214  41.406  1.00  0.00     0.143 A 
ENDBRANCH  14  24
BRANCH  15  27
HETATM   27  N6  UNL     1     -17.008  35.194  40.213  1.00  0.00    -0.371 N 
HETATM   28  C16 UNL     1     -17.606  34.937  38.918  1.00  0.00     0.143 A 
HETATM   29  C17 UNL     1     -16.326  35.704  38.962  1.00  0.00     0.143 A 
ENDBRANCH  15  27
TORSDOF 3
ENDMDL
MODEL 3
REMARK VINA RESULT: -6.943443946      3.082      4.028
REMARK  3 active torsions:
REMARK  status: ('A' for Active; 'I' for Inactive)
REMARK    1  A    between atoms: C4_9  and  N3_10 
REMARK    2  A    between atoms: C12_22  and  N5_23 
REMARK    3  A    between atoms: C15_26  and  N6_27 
ROOT
HETATM    1  O1  UNL     1     -18.031  33.982  49.099  1.00  0.00    -0.266 OA
HETATM    2  C1  UNL     1     -18.398  34.256  47.929  1.00  0.00     0.275 C 
HETATM    3  N1  UNL     1     -17.468  34.141  46.944  1.00  0.00    -0.320 N 
ATOM      4  H1  UNL     1     -16.576  33.734  47.228  1.00  0.00     0.169 HD
HETATM    5  C2  UNL     1     -17.557  34.488  45.649  1.00  0.00     0.065 A 
HETATM    6  C3  UNL     1     -16.373  34.257  44.973  1.00  0.00     0.120 A 
HETATM    7  N2  UNL     1     -16.273  34.544  43.663  1.00  0.00    -0.350 N 
ATOM      8  H2  UNL     1     -15.387  34.363  43.193  1.00  0.00     0.166 HD
HETATM    9  C4  UNL     1     -17.284  35.059  42.941  1.00  0.00     0.104 A 
HETATM   10  C9  UNL     1     -18.496  35.309  43.576  1.00  0.00     0.066 A 
HETATM   11  C10 UNL     1     -18.606  35.017  44.919  1.00  0.00     0.048 A 
HETATM   12  C11 UNL     1     -19.872  35.316  45.430  1.00  0.00     0.213 C 
HETATM   13  O2  UNL     1     -20.677  35.741  44.584  1.00  0.00    -0.285 OA
HETATM   14  C12 UNL     1     -20.348  35.205  46.733  1.00  0.00     0.114 C 
HETATM   15  C15 UNL     1     -19.718  34.640  47.814  1.00  0.00     0.130 C 
ENDROOT
BRANCH   9  16
HETATM   16  N3  UNL     1     -17.141  35.350  41.558  1.00  0.00    -0.364 N 
HETATM   17  C5  UNL     1     -16.365  34.434  40.748  1.00  0.00     0.152 C 
HETATM   18  C6  UNL     1     -17.086  34.250  39.436  1.00  0.00     0.252 C 
HETATM   19  N4  UNL     1     -17.303  35.481  38.747  1.00  0.00    -0.072 N 
HETATM   20  C7  UNL     1     -17.138  36.655  39.555  1.00  0.00     0.252 C 
ATOM     21  H42 UNL     1     -16.709  35.534  37.919  1.00  0.00     0.277 HD
ATOM     22  H41 UNL     1     -18.222  35.482  38.304  1.00  0.00     0.277 HD
HETATM   23  C8  UNL     1     -17.724  36.495  40.935  1.00  0.00     0.152 C 
ENDBRANCH   9  16
BRANCH  14  24
HETATM   24  N5  UNL     1     -21.623  35.722  47.019  1.00  0.00    -0.372 N 
HETATM   25  C13 UNL     1     -22.700  36.565  47.458  1.00  0.00     0.143 A 
HETATM   26  C14 UNL     1     -23.078  35.272  46.837  1.00  0.00     0.143 A 
ENDBRANCH  14  24
BRANCH  15  27
HETATM   27  N6  UNL     1     -20.567  34.441  48.933  1.00  0.00    -0.371 N 
HETATM   28  C16 UNL     1     -21.272  34.769  50.155  1.00  0.00     0.143 A 
HETATM   29  C17 UNL     1     -21.446  33.399  49.589  1.00  0.00     0.143 A 
ENDBRANCH  15  27
TORSDOF 3
ENDMDL
MODEL 4
REMARK VINA RESULT: -6.938386761      3.786      5.195
REMARK  3 active torsions:
REMARK  status: ('A' for Active; 'I' for Inactive)
REMARK    1  A    between atoms: C4_9  and  N3_10 
REMARK    2  A    between atoms: C12_22  and  N5_23 
REMARK    3  A    between atoms: C15_26  and  N6_27 
ROOT
HETATM    1  O1  UNL     1     -14.474  35.751  48.896  1.00  0.00    -0.266 OA
HETATM    2  C1  UNL     1     -15.237  35.922  47.913  1.00  0.00     0.275 C 
HETATM    3  N1  UNL     1     -14.920  35.273  46.760  1.00  0.00    -0.320 N 
ATOM      4  H1  UNL     1     -14.145  34.613  46.827  1.00  0.00     0.169 HD
HETATM    5  C2  UNL     1     -15.483  35.379  45.545  1.00  0.00     0.065 A 
HETATM    6  C3  UNL     1     -14.842  34.585  44.611  1.00  0.00     0.120 A 
HETATM    7  N2  UNL     1     -15.268  34.561  43.336  1.00  0.00    -0.350 N 
ATOM      8  H2  UNL     1     -14.774  33.966  42.672  1.00  0.00     0.166 HD
HETATM    9  C4  UNL     1     -16.311  35.283  42.892  1.00  0.00     0.104 A 
HETATM   10  C9  UNL     1     -16.988  36.097  43.793  1.00  0.00     0.066 A 
HETATM   11  C10 UNL     1     -16.559  36.128  45.103  1.00  0.00     0.048 A 
HETATM   12  C11 UNL     1     -17.325  36.984  45.898  1.00  0.00     0.213 C 
HETATM   13  O2  UNL     1     -18.274  37.521  45.303  1.00  0.00    -0.285 OA
HETATM   14  C12 UNL     1     -17.174  37.312  47.243  1.00  0.00     0.114 C 
HETATM   15  C15 UNL     1     -16.307  36.759  48.152  1.00  0.00     0.130 C 
ENDROOT
BRANCH   9  16
HETATM   16  N3  UNL     1     -16.732  35.232  41.536  1.00  0.00    -0.364 N 
HETATM   17  C5  UNL     1     -17.675  36.233  41.080  1.00  0.00     0.152 C 
HETATM   18  C6  UNL     1     -17.244  36.684  39.707  1.00  0.00     0.252 C 
HETATM   19  N4  UNL     1     -17.153  35.606  38.774  1.00  0.00    -0.072 N 
HETATM   20  C7  UNL     1     -17.128  34.301  39.370  1.00  0.00     0.252 C 
ATOM     21  H42 UNL     1     -17.904  35.668  38.087  1.00  0.00     0.277 HD
ATOM     22  H41 UNL     1     -16.346  35.733  38.163  1.00  0.00     0.277 HD
HETATM   23  C8  UNL     1     -16.271  34.248  40.610  1.00  0.00     0.152 C 
ENDBRANCH   9  16
BRANCH  14  24
HETATM   24  N5  UNL     1     -17.990  38.327  47.772  1.00  0.00    -0.372 N 
HETATM   25  C13 UNL     1     -19.071  39.040  48.393  1.00  0.00     0.143 A 
HETATM   26  C14 UNL     1     -17.918  39.851  47.929  1.00  0.00     0.143 A 
ENDBRANCH  14  24
BRANCH  15  27
HETATM   27  N6  UNL     1     -16.581  37.118  49.496  1.00  0.00    -0.371 N 
HETATM   28  C16 UNL     1     -16.509  37.894  50.718  1.00  0.00     0.143 A 
HETATM   29  C17 UNL     1     -17.374  36.678  50.707  1.00  0.00     0.143 A 
ENDBRANCH  15  27
TORSDOF 3
ENDMDL
MODEL 5
REMARK VINA RESULT: -6.922906911      1.614      3.220
REMARK  3 active torsions:
REMARK  status: ('A' for Active; 'I' for Inactive)
REMARK    1  A    between atoms: C4_9  and  N3_10 
REMARK    2  A    between atoms: C12_22  and  N5_23 
REMARK    3  A    between atoms: C15_26  and  N6_27 
ROOT
HETATM    1  O1  UNL     1     -22.200  36.495  43.799  1.00  0.00    -0.266 OA
HETATM    2  C1  UNL     1     -21.112  36.392  44.421  1.00  0.00     0.275 C 
HETATM    3  N1  UNL     1     -19.972  36.382  43.680  1.00  0.00    -0.320 N 
ATOM      4  H1  UNL     1     -20.094  36.570  42.685  1.00  0.00     0.169 HD
HETATM    5  C2  UNL     1     -18.707  36.158  44.074  1.00  0.00     0.065 A 
HETATM    6  C3  UNL     1     -17.826  36.184  43.009  1.00  0.00     0.120 A 
HETATM    7  N2  UNL     1     -16.512  35.981  43.211  1.00  0.00    -0.350 N 
ATOM      8  H2  UNL     1     -15.888  36.006  42.405  1.00  0.00     0.166 HD
HETATM    9  C4  UNL     1     -15.979  35.745  44.423  1.00  0.00     0.104 A 
HETATM   10  C9  UNL     1     -16.825  35.709  45.526  1.00  0.00     0.066 A 
HETATM   11  C10 UNL     1     -18.174  35.917  45.327  1.00  0.00     0.048 A 
HETATM   12  C11 UNL     1     -18.906  35.854  46.515  1.00  0.00     0.213 C 
HETATM   13  O2  UNL     1     -18.216  35.672  47.532  1.00  0.00    -0.285 OA
HETATM   14  C12 UNL     1     -20.280  35.965  46.714  1.00  0.00     0.114 C 
HETATM   15  C15 UNL     1     -21.239  36.304  45.792  1.00  0.00     0.130 C 
ENDROOT
BRANCH   9  16
HETATM   16  N3  UNL     1     -14.585  35.534  44.598  1.00  0.00    -0.364 N 
HETATM   17  C5  UNL     1     -14.114  34.168  44.706  1.00  0.00     0.152 C 
HETATM   18  C6  UNL     1     -12.842  34.053  43.904  1.00  0.00     0.252 C 
HETATM   19  N4  UNL     1     -11.836  34.974  44.327  1.00  0.00    -0.072 N 
HETATM   20  C7  UNL     1     -12.316  36.046  45.151  1.00  0.00     0.252 C 
ATOM     21  H42 UNL     1     -11.077  34.479  44.796  1.00  0.00     0.277 HD
ATOM     22  H41 UNL     1     -11.333  35.344  43.521  1.00  0.00     0.277 HD
HETATM   23  C8  UNL     1     -13.635  36.597  44.672  1.00  0.00     0.152 C 
ENDBRANCH   9  16
BRANCH  14  24
HETATM   24  N5  UNL     1     -20.786  35.708  48.000  1.00  0.00    -0.372 N 
HETATM   25  C13 UNL     1     -21.264  35.857  49.345  1.00  0.00     0.143 A 
HETATM   26  C14 UNL     1     -21.231  34.478  48.800  1.00  0.00     0.143 A 
ENDBRANCH  14  24
BRANCH  15  27
HETATM   27  N6  UNL     1     -22.505  36.593  46.362  1.00  0.00    -0.371 N 
HETATM   28  C16 UNL     1     -23.828  36.331  46.891  1.00  0.00     0.143 A 
HETATM   29  C17 UNL     1     -23.350  37.745  46.858  1.00  0.00     0.143 A 
ENDBRANCH  15  27
TORSDOF 3
ENDMDL
