MODEL 1
REMARK VINA RESULT: -6.401703394      0.000      0.000
REMARK  1 active torsions:
REMARK  status: ('A' for Active; 'I' for Inactive)
REMARK    1  A    between atoms: O1_1  and  N1_3 
ROOT
HETATM    1  N1  UNL     1      37.434  -8.546 -29.105  1.00  0.00    -0.228 N 
HETATM    2  C1  UNL     1      37.107  -7.610 -29.999  1.00  0.00     0.173 A 
HETATM    3  S1  UNL     1      36.159  -8.477 -31.124  1.00  0.00    -0.080 SA
HETATM    4  C2  UNL     1      36.229 -10.013 -30.387  1.00  0.00     0.035 A 
HETATM    5  C3  UNL     1      35.701 -11.284 -30.693  1.00  0.00     0.021 A 
HETATM    6  C4  UNL     1      35.958 -12.342 -29.859  1.00  0.00     0.002 A 
HETATM    7  C5  UNL     1      36.730 -12.092 -28.754  1.00  0.00     0.002 A 
HETATM    8  C6  UNL     1      37.244 -10.871 -28.451  1.00  0.00     0.033 A 
HETATM    9  C7  UNL     1      36.998  -9.770 -29.285  1.00  0.00     0.079 A 
ENDROOT
BRANCH   1  10
HETATM   10  O1  UNL     1      38.242  -8.103 -28.025  1.00  0.00    -0.282 OA
ATOM     11  H1  UNL     1      38.122  -8.570 -27.206  1.00  0.00     0.245 HD
ENDBRANCH   1  10
TORSDOF 1
ENDMDL
MODEL 2
REMARK VINA RESULT: -6.172418477      2.000      2.152
REMARK  1 active torsions:
REMARK  status: ('A' for Active; 'I' for Inactive)
REMARK    1  A    between atoms: O1_1  and  N1_3 
ROOT
HETATM    1  N1  UNL     1      38.767  -8.820 -28.951  1.00  0.00    -0.228 N 
HETATM    2  C1  UNL     1      37.782  -8.138 -28.361  1.00  0.00     0.173 A 
HETATM    3  S1  UNL     1      36.509  -9.275 -28.317  1.00  0.00    -0.080 SA
HETATM    4  C2  UNL     1      37.308 -10.582 -29.065  1.00  0.00     0.035 A 
HETATM    5  C3  UNL     1      36.945 -11.901 -29.408  1.00  0.00     0.021 A 
HETATM    6  C4  UNL     1      37.861 -12.716 -30.023  1.00  0.00     0.002 A 
HETATM    7  C5  UNL     1      39.101 -12.188 -30.271  1.00  0.00     0.002 A 
HETATM    8  C6  UNL     1      39.459 -10.918 -29.945  1.00  0.00     0.033 A 
HETATM    9  C7  UNL     1      38.544 -10.060 -29.316  1.00  0.00     0.079 A 
ENDROOT
BRANCH   1  10
HETATM   10  O1  UNL     1      39.983  -8.108 -29.127  1.00  0.00    -0.282 OA
ATOM     11  H1  UNL     1      40.763  -8.644 -29.203  1.00  0.00     0.245 HD
ENDBRANCH   1  10
TORSDOF 1
ENDMDL
MODEL 3
REMARK VINA RESULT: -6.168054485      2.015      2.292
REMARK  1 active torsions:
REMARK  status: ('A' for Active; 'I' for Inactive)
REMARK    1  A    between atoms: O1_1  and  N1_3 
ROOT
HETATM    1  N1  UNL     1      37.598  -8.954 -28.343  1.00  0.00    -0.228 N 
HETATM    2  C1  UNL     1      36.269  -8.909 -28.220  1.00  0.00     0.173 A 
HETATM    3  S1  UNL     1      35.768 -10.342 -29.002  1.00  0.00    -0.080 SA
HETATM    4  C2  UNL     1      37.302 -10.936 -29.453  1.00  0.00     0.035 A 
HETATM    5  C3  UNL     1      37.759 -12.080 -30.139  1.00  0.00     0.021 A 
HETATM    6  C4  UNL     1      39.105 -12.256 -30.338  1.00  0.00     0.002 A 
HETATM    7  C5  UNL     1      39.941 -11.288 -29.846  1.00  0.00     0.002 A 
HETATM    8  C6  UNL     1      39.510 -10.182 -29.185  1.00  0.00     0.033 A 
HETATM    9  C7  UNL     1      38.139  -9.974 -28.965  1.00  0.00     0.079 A 
ENDROOT
BRANCH   1  10
HETATM   10  O1  UNL     1      38.302  -7.862 -27.772  1.00  0.00    -0.282 OA
ATOM     11  H1  UNL     1      37.927  -7.004 -27.935  1.00  0.00     0.245 HD
ENDBRANCH   1  10
TORSDOF 1
ENDMDL
MODEL 4
REMARK VINA RESULT: -6.099532936      2.882      3.956
REMARK  1 active torsions:
REMARK  status: ('A' for Active; 'I' for Inactive)
REMARK    1  A    between atoms: O1_1  and  N1_3 
ROOT
HETATM    1  N1  UNL     1      37.282 -12.008 -30.229  1.00  0.00    -0.228 N 
HETATM    2  C1  UNL     1      38.511 -12.458 -29.967  1.00  0.00     0.173 A 
HETATM    3  S1  UNL     1      39.465 -11.047 -30.093  1.00  0.00    -0.080 SA
HETATM    4  C2  UNL     1      38.229  -9.938 -30.481  1.00  0.00     0.035 A 
HETATM    5  C3  UNL     1      38.187  -8.554 -30.748  1.00  0.00     0.021 A 
HETATM    6  C4  UNL     1      36.986  -7.956 -31.034  1.00  0.00     0.002 A 
HETATM    7  C5  UNL     1      35.875  -8.759 -31.043  1.00  0.00     0.002 A 
HETATM    8  C6  UNL     1      35.906 -10.094 -30.789  1.00  0.00     0.033 A 
HETATM    9  C7  UNL     1      37.119 -10.734 -30.492  1.00  0.00     0.079 A 
ENDROOT
BRANCH   1  10
HETATM   10  O1  UNL     1      36.253 -12.986 -30.195  1.00  0.00    -0.282 OA
ATOM     11  H1  UNL     1      36.164 -13.457 -29.374  1.00  0.00     0.245 HD
ENDBRANCH   1  10
TORSDOF 1
ENDMDL
MODEL 5
REMARK VINA RESULT: -6.061311954      1.968      2.113
REMARK  1 active torsions:
REMARK  status: ('A' for Active; 'I' for Inactive)
REMARK    1  A    between atoms: O1_1  and  N1_3 
ROOT
HETATM    1  N1  UNL     1      39.270 -10.166 -29.345  1.00  0.00    -0.228 N 
HETATM    2  C1  UNL     1      39.327  -8.850 -29.131  1.00  0.00     0.173 A 
HETATM    3  S1  UNL     1      37.695  -8.370 -29.288  1.00  0.00    -0.080 SA
HETATM    4  C2  UNL     1      37.012  -9.896 -29.625  1.00  0.00     0.035 A 
HETATM    5  C3  UNL     1      35.707 -10.362 -29.885  1.00  0.00     0.021 A 
HETATM    6  C4  UNL     1      35.501 -11.697 -30.124  1.00  0.00     0.002 A 
HETATM    7  C5  UNL     1      36.601 -12.514 -30.094  1.00  0.00     0.002 A 
HETATM    8  C6  UNL     1      37.862 -12.074 -29.846  1.00  0.00     0.033 A 
HETATM    9  C7  UNL     1      38.105 -10.714 -29.597  1.00  0.00     0.079 A 
ENDROOT
BRANCH   1  10
HETATM   10  O1  UNL     1      40.512 -10.850 -29.276  1.00  0.00    -0.282 OA
ATOM     11  H1  UNL     1      40.706 -11.261 -28.441  1.00  0.00     0.245 HD
ENDBRANCH   1  10
TORSDOF 1
ENDMDL
