MODEL 1
REMARK VINA RESULT: -8.840292263      0.000      0.000
REMARK  4 active torsions:
REMARK  status: ('A' for Active; 'I' for Inactive)
REMARK    1  A    between atoms: O1_2  and  C2_3 
REMARK    2  A    between atoms: C8_9  and  N1_10 
REMARK    3  A    between atoms: N1_10  and  N2_12 
REMARK    4  A    between atoms: C9_14  and  C10_15 
ROOT
HETATM    1  C2  UNL     1       3.186  15.642   6.514  1.00  0.00     0.069 A 
HETATM    2  C3  UNL     1       4.397  16.008   7.058  1.00  0.00     0.038 A 
HETATM    3  C4  UNL     1       4.646  17.347   7.270  1.00  0.00     0.029 A 
HETATM    4  C5  UNL     1       3.707  18.286   6.945  1.00  0.00     0.094 A 
HETATM    5  C6  UNL     1       2.516  17.953   6.412  1.00  0.00     0.036 A 
HETATM    6  C7  UNL     1       2.258  16.606   6.196  1.00  0.00     0.053 A 
HETATM    7  C8  UNL     1       1.656  19.079   6.135  1.00  0.00     0.141 A 
HETATM    8  N3  UNL     1       2.195  20.331   6.463  1.00  0.00    -0.264 N 
ATOM      9  H3  UNL     1       1.750  21.240   6.344  1.00  0.00     0.180 HD
HETATM   10  S1  UNL     1       3.764  20.022   7.107  1.00  0.00     0.265 S 
HETATM   11  O2  UNL     1       4.846  20.633   6.282  1.00  0.00    -0.200 OA
HETATM   12  O3  UNL     1       3.859  20.372   8.555  1.00  0.00    -0.200 OA
ENDROOT
BRANCH   7  13
HETATM   13  N1  UNL     1       0.459  18.987   5.620  1.00  0.00    -0.285 N 
ATOM     14  H1  UNL     1      -0.126  19.823   5.613  1.00  0.00     0.188 HD
BRANCH  13  15
HETATM   15  N2  UNL     1      -0.060  17.830   5.085  1.00  0.00    -0.309 N 
HETATM   16  C9  UNL     1      -1.110  17.814   4.317  1.00  0.00     0.118 C 
ATOM     17  H2  UNL     1       0.399  16.946   5.302  1.00  0.00     0.186 HD
BRANCH  16  18
HETATM   18  C10 UNL     1      -1.625  16.555   3.772  1.00  0.00    -0.019 A 
HETATM   19  C11 UNL     1      -0.853  15.431   3.746  1.00  0.00     0.013 A 
HETATM   20  C12 UNL     1      -1.309  14.237   3.240  1.00  0.00     0.001 A 
HETATM   21  C13 UNL     1      -2.581  14.154   2.740  1.00  0.00     0.000 A 
HETATM   22  C14 UNL     1      -3.386  15.272   2.752  1.00  0.00     0.001 A 
HETATM   23  C15 UNL     1      -2.906  16.455   3.263  1.00  0.00     0.013 A 
ENDBRANCH  16  18
ENDBRANCH  13  15
ENDBRANCH   7  13
BRANCH   1  24
HETATM   24  O1  UNL     1       2.922  14.276   6.293  1.00  0.00    -0.356 OA
HETATM   25  C1  UNL     1       1.747  13.899   5.600  1.00  0.00     0.210 C 
ENDBRANCH   1  24
TORSDOF 4
ENDMDL
MODEL 2
REMARK VINA RESULT: -8.830429529      0.028      1.006
REMARK  4 active torsions:
REMARK  status: ('A' for Active; 'I' for Inactive)
REMARK    1  A    between atoms: O1_2  and  C2_3 
REMARK    2  A    between atoms: C8_9  and  N1_10 
REMARK    3  A    between atoms: N1_10  and  N2_12 
REMARK    4  A    between atoms: C9_14  and  C10_15 
ROOT
HETATM    1  C2  UNL     1       3.190  15.631   6.507  1.00  0.00     0.069 A 
HETATM    2  C3  UNL     1       4.397  15.994   7.059  1.00  0.00     0.038 A 
HETATM    3  C4  UNL     1       4.645  17.333   7.278  1.00  0.00     0.029 A 
HETATM    4  C5  UNL     1       3.707  18.273   6.952  1.00  0.00     0.094 A 
HETATM    5  C6  UNL     1       2.519  17.942   6.411  1.00  0.00     0.036 A 
HETATM    6  C7  UNL     1       2.263  16.596   6.188  1.00  0.00     0.053 A 
HETATM    7  C8  UNL     1       1.660  19.069   6.135  1.00  0.00     0.141 A 
HETATM    8  N3  UNL     1       2.198  20.319   6.471  1.00  0.00    -0.264 N 
ATOM      9  H3  UNL     1       1.753  21.229   6.354  1.00  0.00     0.180 HD
HETATM   10  S1  UNL     1       3.763  20.008   7.122  1.00  0.00     0.265 S 
HETATM   11  O2  UNL     1       4.849  20.623   6.305  1.00  0.00    -0.200 OA
HETATM   12  O3  UNL     1       3.850  20.352   8.572  1.00  0.00    -0.200 OA
ENDROOT
BRANCH   7  13
HETATM   13  N1  UNL     1       0.466  18.979   5.613  1.00  0.00    -0.285 N 
ATOM     14  H1  UNL     1      -0.112  19.820   5.590  1.00  0.00     0.188 HD
BRANCH  13  15
HETATM   15  N2  UNL     1      -0.059  17.819   5.092  1.00  0.00    -0.309 N 
HETATM   16  C9  UNL     1      -1.097  17.801   4.308  1.00  0.00     0.118 C 
ATOM     17  H2  UNL     1       0.387  16.933   5.332  1.00  0.00     0.186 HD
BRANCH  16  18
HETATM   18  C10 UNL     1      -1.619  16.538   3.779  1.00  0.00    -0.019 A 
HETATM   19  C11 UNL     1      -2.884  16.455   3.273  1.00  0.00     0.013 A 
HETATM   20  C12 UNL     1      -3.398  15.284   2.770  1.00  0.00     0.001 A 
HETATM   21  C13 UNL     1      -2.630  14.150   2.769  1.00  0.00     0.000 A 
HETATM   22  C14 UNL     1      -1.349  14.202   3.273  1.00  0.00     0.001 A 
HETATM   23  C15 UNL     1      -0.856  15.385   3.770  1.00  0.00     0.013 A 
ENDBRANCH  16  18
ENDBRANCH  13  15
ENDBRANCH   7  13
BRANCH   1  24
HETATM   24  O1  UNL     1       2.926  14.266   6.279  1.00  0.00    -0.356 OA
HETATM   25  C1  UNL     1       1.760  13.892   5.569  1.00  0.00     0.210 C 
ENDBRANCH   1  24
TORSDOF 4
ENDMDL
MODEL 3
REMARK VINA RESULT: -8.622738528      2.474      3.813
REMARK  4 active torsions:
REMARK  status: ('A' for Active; 'I' for Inactive)
REMARK    1  A    between atoms: O1_2  and  C2_3 
REMARK    2  A    between atoms: C8_9  and  N1_10 
REMARK    3  A    between atoms: N1_10  and  N2_12 
REMARK    4  A    between atoms: C9_14  and  C10_15 
ROOT
HETATM    1  C2  UNL     1       1.955  18.905   6.579  1.00  0.00     0.069 A 
HETATM    2  C3  UNL     1       3.229  19.426   6.601  1.00  0.00     0.038 A 
HETATM    3  C4  UNL     1       4.297  18.554   6.544  1.00  0.00     0.029 A 
HETATM    4  C5  UNL     1       4.087  17.206   6.466  1.00  0.00     0.094 A 
HETATM    5  C6  UNL     1       2.850  16.674   6.443  1.00  0.00     0.036 A 
HETATM    6  C7  UNL     1       1.770  17.545   6.500  1.00  0.00     0.053 A 
HETATM    7  C8  UNL     1       2.828  15.233   6.358  1.00  0.00     0.141 A 
HETATM    8  N3  UNL     1       4.089  14.623   6.315  1.00  0.00    -0.264 N 
ATOM      9  H3  UNL     1       4.285  13.624   6.257  1.00  0.00     0.180 HD
HETATM   10  S1  UNL     1       5.242  15.902   6.382  1.00  0.00     0.265 S 
HETATM   11  O2  UNL     1       6.102  15.828   7.598  1.00  0.00    -0.200 OA
HETATM   12  O3  UNL     1       6.023  16.025   5.115  1.00  0.00    -0.200 OA
ENDROOT
BRANCH   7  13
HETATM   13  N1  UNL     1       1.740  14.510   6.322  1.00  0.00    -0.285 N 
ATOM     14  H1  UNL     1       1.759  13.593   6.768  1.00  0.00     0.188 HD
BRANCH  13  15
HETATM   15  N2  UNL     1       0.571  14.913   5.719  1.00  0.00    -0.309 N 
HETATM   16  C9  UNL     1       0.329  14.737   4.453  1.00  0.00     0.118 C 
ATOM     17  H2  UNL     1      -0.139  15.370   6.292  1.00  0.00     0.186 HD
BRANCH  16  18
HETATM   18  C10 UNL     1      -0.933  15.183   3.858  1.00  0.00    -0.019 A 
HETATM   19  C11 UNL     1      -1.262  16.507   3.814  1.00  0.00     0.013 A 
HETATM   20  C12 UNL     1      -2.439  16.953   3.263  1.00  0.00     0.001 A 
HETATM   21  C13 UNL     1      -3.325  16.054   2.733  1.00  0.00     0.000 A 
HETATM   22  C14 UNL     1      -3.021  14.710   2.762  1.00  0.00     0.001 A 
HETATM   23  C15 UNL     1      -1.838  14.287   3.319  1.00  0.00     0.013 A 
ENDBRANCH  16  18
ENDBRANCH  13  15
ENDBRANCH   7  13
BRANCH   1  24
HETATM   24  O1  UNL     1       0.857  19.786   6.638  1.00  0.00    -0.356 OA
HETATM   25  C1  UNL     1       1.026  21.136   6.244  1.00  0.00     0.210 C 
ENDBRANCH   1  24
TORSDOF 4
ENDMDL
MODEL 4
REMARK VINA RESULT: -8.610888297      2.476      3.789
REMARK  4 active torsions:
REMARK  status: ('A' for Active; 'I' for Inactive)
REMARK    1  A    between atoms: O1_2  and  C2_3 
REMARK    2  A    between atoms: C8_9  and  N1_10 
REMARK    3  A    between atoms: N1_10  and  N2_12 
REMARK    4  A    between atoms: C9_14  and  C10_15 
ROOT
HETATM    1  C2  UNL     1       1.948  18.900   6.569  1.00  0.00     0.069 A 
HETATM    2  C3  UNL     1       3.222  19.422   6.595  1.00  0.00     0.038 A 
HETATM    3  C4  UNL     1       4.291  18.552   6.535  1.00  0.00     0.029 A 
HETATM    4  C5  UNL     1       4.083  17.204   6.453  1.00  0.00     0.094 A 
HETATM    5  C6  UNL     1       2.847  16.670   6.427  1.00  0.00     0.036 A 
HETATM    6  C7  UNL     1       1.766  17.539   6.486  1.00  0.00     0.053 A 
HETATM    7  C8  UNL     1       2.827  15.229   6.337  1.00  0.00     0.141 A 
HETATM    8  N3  UNL     1       4.090  14.621   6.293  1.00  0.00    -0.264 N 
ATOM      9  H3  UNL     1       4.287  13.623   6.232  1.00  0.00     0.180 HD
HETATM   10  S1  UNL     1       5.241  15.902   6.365  1.00  0.00     0.265 S 
HETATM   11  O2  UNL     1       6.100  15.825   7.582  1.00  0.00    -0.200 OA
HETATM   12  O3  UNL     1       6.023  16.030   5.100  1.00  0.00    -0.200 OA
ENDROOT
BRANCH   7  13
HETATM   13  N1  UNL     1       1.741  14.505   6.298  1.00  0.00    -0.285 N 
ATOM     14  H1  UNL     1       1.762  13.584   6.736  1.00  0.00     0.188 HD
BRANCH  13  15
HETATM   15  N2  UNL     1       0.569  14.911   5.701  1.00  0.00    -0.309 N 
HETATM   16  C9  UNL     1       0.325  14.743   4.434  1.00  0.00     0.118 C 
ATOM     17  H2  UNL     1      -0.140  15.363   6.278  1.00  0.00     0.186 HD
BRANCH  16  18
HETATM   18  C10 UNL     1      -0.939  15.192   3.845  1.00  0.00    -0.019 A 
HETATM   19  C11 UNL     1      -1.836  14.299   3.335  1.00  0.00     0.013 A 
HETATM   20  C12 UNL     1      -3.029  14.692   2.777  1.00  0.00     0.001 A 
HETATM   21  C13 UNL     1      -3.346  16.023   2.721  1.00  0.00     0.000 A 
HETATM   22  C14 UNL     1      -2.461  16.950   3.227  1.00  0.00     0.001 A 
HETATM   23  C15 UNL     1      -1.274  16.532   3.781  1.00  0.00     0.013 A 
ENDBRANCH  16  18
ENDBRANCH  13  15
ENDBRANCH   7  13
BRANCH   1  24
HETATM   24  O1  UNL     1       0.848  19.778   6.630  1.00  0.00    -0.356 OA
HETATM   25  C1  UNL     1       1.011  21.125   6.224  1.00  0.00     0.210 C 
ENDBRANCH   1  24
TORSDOF 4
ENDMDL
MODEL 5
REMARK VINA RESULT: -8.579131062      1.931      3.065
REMARK  4 active torsions:
REMARK  status: ('A' for Active; 'I' for Inactive)
REMARK    1  A    between atoms: O1_2  and  C2_3 
REMARK    2  A    between atoms: C8_9  and  N1_10 
REMARK    3  A    between atoms: N1_10  and  N2_12 
REMARK    4  A    between atoms: C9_14  and  C10_15 
ROOT
HETATM    1  C2  UNL     1       5.384  18.183   8.540  1.00  0.00     0.069 A 
HETATM    2  C3  UNL     1       5.460  19.518   8.867  1.00  0.00     0.038 A 
HETATM    3  C4  UNL     1       4.550  20.387   8.304  1.00  0.00     0.029 A 
HETATM    4  C5  UNL     1       3.595  19.926   7.442  1.00  0.00     0.094 A 
HETATM    5  C6  UNL     1       3.500  18.626   7.107  1.00  0.00     0.036 A 
HETATM    6  C7  UNL     1       4.413  17.745   7.670  1.00  0.00     0.053 A 
HETATM    7  C8  UNL     1       2.429  18.329   6.185  1.00  0.00     0.141 A 
HETATM    8  N3  UNL     1       1.666  19.436   5.787  1.00  0.00    -0.264 N 
ATOM      9  H3  UNL     1       0.874  19.435   5.146  1.00  0.00     0.180 HD
HETATM   10  S1  UNL     1       2.339  20.798   6.601  1.00  0.00     0.265 S 
HETATM   11  O2  UNL     1       2.888  21.810   5.654  1.00  0.00    -0.200 OA
HETATM   12  O3  UNL     1       1.396  21.379   7.603  1.00  0.00    -0.200 OA
ENDROOT
BRANCH   7  13
HETATM   13  N1  UNL     1       2.155  17.136   5.728  1.00  0.00    -0.285 N 
ATOM     14  H1  UNL     1       2.901  16.439   5.728  1.00  0.00     0.188 HD
BRANCH  13  15
HETATM   15  N2  UNL     1       0.921  16.763   5.246  1.00  0.00    -0.309 N 
HETATM   16  C9  UNL     1       0.769  15.944   4.246  1.00  0.00     0.118 C 
ATOM     17  H2  UNL     1       0.089  17.146   5.693  1.00  0.00     0.186 HD
BRANCH  16  18
HETATM   18  C10 UNL     1      -0.567  15.578   3.770  1.00  0.00    -0.019 A 
HETATM   19  C11 UNL     1      -1.548  16.516   3.632  1.00  0.00     0.013 A 
HETATM   20  C12 UNL     1      -2.810  16.200   3.188  1.00  0.00     0.001 A 
HETATM   21  C13 UNL     1      -3.112  14.904   2.868  1.00  0.00     0.000 A 
HETATM   22  C14 UNL     1      -2.143  13.933   2.997  1.00  0.00     0.001 A 
HETATM   23  C15 UNL     1      -0.888  14.273   3.443  1.00  0.00     0.013 A 
ENDBRANCH  16  18
ENDBRANCH  13  15
ENDBRANCH   7  13
BRANCH   1  24
HETATM   24  O1  UNL     1       6.309  17.286   9.109  1.00  0.00    -0.356 OA
HETATM   25  C1  UNL     1       7.272  17.771  10.028  1.00  0.00     0.210 C 
ENDBRANCH   1  24
TORSDOF 4
ENDMDL
