MODEL 1
REMARK VINA RESULT: -8.811059188      0.000      0.000
REMARK  6 active torsions:
REMARK  status: ('A' for Active; 'I' for Inactive)
REMARK    1  A    between atoms: N1_2  and  C1_4 
REMARK    2  A    between atoms: C6_9  and  O3_10 
REMARK    3  A    between atoms: C7_12  and  C8_13 
REMARK    4  A    between atoms: C13_18  and  C14_19 
REMARK    5  A    between atoms: C14_19  and  O4_20 
REMARK    6  A    between atoms: N2_22  and  O5_23 
ROOT
HETATM    1  C1  UNL     1      -2.778  17.111   3.033  1.00  0.00     0.105 A 
HETATM    2  C2  UNL     1      -3.159  15.808   2.758  1.00  0.00     0.037 A 
HETATM    3  C3  UNL     1      -2.375  14.738   3.108  1.00  0.00     0.016 A 
HETATM    4  C4  UNL     1      -1.182  14.944   3.746  1.00  0.00    -0.004 A 
HETATM    5  C5  UNL     1      -0.357  13.888   4.120  1.00  0.00     0.052 A 
HETATM    6  C6  UNL     1       0.829  14.169   4.758  1.00  0.00     0.096 A 
HETATM    7  C7  UNL     1       1.246  15.454   5.052  1.00  0.00     0.107 A 
HETATM    8  N2  UNL     1       0.419  16.447   4.675  1.00  0.00    -0.221 N 
HETATM    9  C15 UNL     1      -0.759  16.213   4.042  1.00  0.00     0.075 A 
HETATM   10  C16 UNL     1      -1.572  17.275   3.676  1.00  0.00     0.069 A 
ENDROOT
BRANCH   7  11
HETATM   11  C8  UNL     1       2.504  15.732   5.729  1.00  0.00     0.004 A 
HETATM   12  C9  UNL     1       3.688  16.010   5.076  1.00  0.00     0.014 A 
HETATM   13  C10 UNL     1       4.864  16.268   5.785  1.00  0.00     0.001 A 
HETATM   14  C11 UNL     1       4.862  16.250   7.165  1.00  0.00     0.001 A 
HETATM   15  C12 UNL     1       3.667  15.970   7.803  1.00  0.00     0.010 A 
HETATM   16  C13 UNL     1       2.505  15.715   7.102  1.00  0.00    -0.022 A 
BRANCH  16  17
HETATM   17  C14 UNL     1       1.237  15.418   7.809  1.00  0.00     0.203 C 
BRANCH  17  18
HETATM   18  O4  UNL     1       0.517  16.606   8.033  1.00  0.00    -0.396 OA
ATOM     19  H4  UNL     1       1.094  17.279   8.374  1.00  0.00     0.209 HD
ENDBRANCH  17  18
ENDBRANCH  16  17
ENDBRANCH   7  11
BRANCH   6  20
HETATM   20  O3  UNL     1       1.636  13.103   5.121  1.00  0.00    -0.358 OA
ATOM     21  H3  UNL     1       2.562  13.161   4.921  1.00  0.00     0.217 HD
ENDBRANCH   6  20
BRANCH   8  22
HETATM   22  O5  UNL     1       0.762  17.732   4.930  1.00  0.00    -0.282 OA
ATOM     23  H5  UNL     1       0.475  18.141   5.738  1.00  0.00     0.245 HD
ENDBRANCH   8  22
BRANCH   1  24
HETATM   24  N1  UNL     1      -3.603  18.206   2.663  1.00  0.00    -0.116 N 
HETATM   25  O1  UNL     1      -4.710  17.984   2.138  1.00  0.00    -0.532 OA
HETATM   26  O2  UNL     1      -3.173  19.479   2.887  1.00  0.00    -0.532 OA
ENDBRANCH   1  24
TORSDOF 6
ENDMDL
MODEL 2
REMARK VINA RESULT: -8.472737018      2.398      6.722
REMARK  6 active torsions:
REMARK  status: ('A' for Active; 'I' for Inactive)
REMARK    1  A    between atoms: N1_2  and  C1_4 
REMARK    2  A    between atoms: C6_9  and  O3_10 
REMARK    3  A    between atoms: C7_12  and  C8_13 
REMARK    4  A    between atoms: C13_18  and  C14_19 
REMARK    5  A    between atoms: C14_19  and  O4_20 
REMARK    6  A    between atoms: N2_22  and  O5_23 
ROOT
HETATM    1  C1  UNL     1       4.727  15.791   5.911  1.00  0.00     0.105 A 
HETATM    2  C2  UNL     1       4.526  15.679   7.277  1.00  0.00     0.037 A 
HETATM    3  C3  UNL     1       3.274  15.767   7.831  1.00  0.00     0.016 A 
HETATM    4  C4  UNL     1       2.183  15.970   7.029  1.00  0.00    -0.004 A 
HETATM    5  C5  UNL     1       0.897  16.063   7.549  1.00  0.00     0.052 A 
HETATM    6  C6  UNL     1      -0.153  16.267   6.684  1.00  0.00     0.096 A 
HETATM    7  C7  UNL     1       0.004  16.384   5.315  1.00  0.00     0.107 A 
HETATM    8  N2  UNL     1       1.264  16.287   4.852  1.00  0.00    -0.221 N 
HETATM    9  C15 UNL     1       2.328  16.086   5.672  1.00  0.00     0.075 A 
HETATM   10  C16 UNL     1       3.605  15.994   5.139  1.00  0.00     0.069 A 
ENDROOT
BRANCH   7  11
HETATM   11  C8  UNL     1      -1.119  16.599   4.415  1.00  0.00     0.004 A 
HETATM   12  C9  UNL     1      -1.593  17.845   4.056  1.00  0.00     0.014 A 
HETATM   13  C10 UNL     1      -2.678  17.985   3.185  1.00  0.00     0.001 A 
HETATM   14  C11 UNL     1      -3.299  16.869   2.665  1.00  0.00     0.001 A 
HETATM   15  C12 UNL     1      -2.811  15.629   3.035  1.00  0.00     0.010 A 
HETATM   16  C13 UNL     1      -1.740  15.491   3.894  1.00  0.00    -0.022 A 
BRANCH  16  17
HETATM   17  C14 UNL     1      -1.235  14.151   4.276  1.00  0.00     0.203 C 
BRANCH  17  18
HETATM   18  O4  UNL     1      -0.352  13.668   3.293  1.00  0.00    -0.396 OA
ATOM     19  H4  UNL     1       0.527  13.993   3.452  1.00  0.00     0.209 HD
ENDBRANCH  17  18
ENDBRANCH  16  17
ENDBRANCH   7  11
BRANCH   6  20
HETATM   20  O3  UNL     1      -1.426  16.359   7.223  1.00  0.00    -0.358 OA
ATOM     21  H3  UNL     1      -1.583  17.031   7.875  1.00  0.00     0.217 HD
ENDBRANCH   6  20
BRANCH   8  22
HETATM   22  O5  UNL     1       1.495  16.391   3.521  1.00  0.00    -0.282 OA
ATOM     23  H5  UNL     1       1.210  15.693   2.942  1.00  0.00     0.245 HD
ENDBRANCH   8  22
BRANCH   1  24
HETATM   24  N1  UNL     1       6.031  15.698   5.356  1.00  0.00    -0.116 N 
HETATM   25  O1  UNL     1       6.182  15.851   4.129  1.00  0.00    -0.532 OA
HETATM   26  O2  UNL     1       7.094  15.444   6.169  1.00  0.00    -0.532 OA
ENDBRANCH   1  24
TORSDOF 6
ENDMDL
MODEL 3
REMARK VINA RESULT: -8.339039109      1.312      1.691
REMARK  6 active torsions:
REMARK  status: ('A' for Active; 'I' for Inactive)
REMARK    1  A    between atoms: N1_2  and  C1_4 
REMARK    2  A    between atoms: C6_9  and  O3_10 
REMARK    3  A    between atoms: C7_12  and  C8_13 
REMARK    4  A    between atoms: C13_18  and  C14_19 
REMARK    5  A    between atoms: C14_19  and  O4_20 
REMARK    6  A    between atoms: N2_22  and  O5_23 
ROOT
HETATM    1  C1  UNL     1      -3.097  18.986   2.967  1.00  0.00     0.105 A 
HETATM    2  C2  UNL     1      -3.767  17.895   2.438  1.00  0.00     0.037 A 
HETATM    3  C3  UNL     1      -3.331  16.612   2.645  1.00  0.00     0.016 A 
HETATM    4  C4  UNL     1      -2.207  16.382   3.392  1.00  0.00    -0.004 A 
HETATM    5  C5  UNL     1      -1.731  15.097   3.628  1.00  0.00     0.052 A 
HETATM    6  C6  UNL     1      -0.596  14.940   4.388  1.00  0.00     0.096 A 
HETATM    7  C7  UNL     1       0.102  16.001   4.935  1.00  0.00     0.107 A 
HETATM    8  N2  UNL     1      -0.391  17.228   4.684  1.00  0.00    -0.221 N 
HETATM    9  C15 UNL     1      -1.508  17.426   3.939  1.00  0.00     0.075 A 
HETATM   10  C16 UNL     1      -1.972  18.713   3.713  1.00  0.00     0.069 A 
ENDROOT
BRANCH   7  11
HETATM   11  C8  UNL     1       1.302  15.817   5.737  1.00  0.00     0.004 A 
HETATM   12  C9  UNL     1       2.585  15.842   5.226  1.00  0.00     0.014 A 
HETATM   13  C10 UNL     1       3.698  15.657   6.051  1.00  0.00     0.001 A 
HETATM   14  C11 UNL     1       3.532  15.445   7.404  1.00  0.00     0.001 A 
HETATM   15  C12 UNL     1       2.241  15.423   7.899  1.00  0.00     0.010 A 
HETATM   16  C13 UNL     1       1.142  15.605   7.084  1.00  0.00    -0.022 A 
BRANCH  16  17
HETATM   17  C14 UNL     1      -0.233  15.578   7.639  1.00  0.00     0.203 C 
BRANCH  17  18
HETATM   18  O4  UNL     1      -0.333  16.461   8.729  1.00  0.00    -0.396 OA
ATOM     19  H4  UNL     1      -1.246  16.639   8.924  1.00  0.00     0.209 HD
ENDBRANCH  17  18
ENDBRANCH  16  17
ENDBRANCH   7  11
BRANCH   6  20
HETATM   20  O3  UNL     1      -0.138  13.652   4.609  1.00  0.00    -0.358 OA
ATOM     21  H3  UNL     1       0.773  13.466   4.416  1.00  0.00     0.217 HD
ENDBRANCH   6  20
BRANCH   8  22
HETATM   22  O5  UNL     1       0.240  18.315   5.189  1.00  0.00    -0.282 OA
ATOM     23  H5  UNL     1       1.122  18.227   5.532  1.00  0.00     0.245 HD
ENDBRANCH   8  22
BRANCH   1  24
HETATM   24  N1  UNL     1      -3.563  20.308   2.742  1.00  0.00    -0.116 N 
HETATM   25  O1  UNL     1      -3.779  20.687   1.576  1.00  0.00    -0.532 OA
HETATM   26  O2  UNL     1      -3.766  21.141   3.801  1.00  0.00    -0.532 OA
ENDBRANCH   1  24
TORSDOF 6
ENDMDL
MODEL 4
REMARK VINA RESULT: -8.331834883      2.347      6.705
REMARK  6 active torsions:
REMARK  status: ('A' for Active; 'I' for Inactive)
REMARK    1  A    between atoms: N1_2  and  C1_4 
REMARK    2  A    between atoms: C6_9  and  O3_10 
REMARK    3  A    between atoms: C7_12  and  C8_13 
REMARK    4  A    between atoms: C13_18  and  C14_19 
REMARK    5  A    between atoms: C14_19  and  O4_20 
REMARK    6  A    between atoms: N2_22  and  O5_23 
ROOT
HETATM    1  C1  UNL     1       4.626  15.782   6.007  1.00  0.00     0.105 A 
HETATM    2  C2  UNL     1       4.405  15.670   7.369  1.00  0.00     0.037 A 
HETATM    3  C3  UNL     1       3.140  15.692   7.898  1.00  0.00     0.016 A 
HETATM    4  C4  UNL     1       2.055  15.829   7.075  1.00  0.00    -0.004 A 
HETATM    5  C5  UNL     1       0.756  15.855   7.569  1.00  0.00     0.052 A 
HETATM    6  C6  UNL     1      -0.287  15.995   6.683  1.00  0.00     0.096 A 
HETATM    7  C7  UNL     1      -0.110  16.111   5.317  1.00  0.00     0.107 A 
HETATM    8  N2  UNL     1       1.162  16.080   4.878  1.00  0.00    -0.221 N 
HETATM    9  C15 UNL     1       2.219  15.944   5.720  1.00  0.00     0.075 A 
HETATM   10  C16 UNL     1       3.509  15.918   5.212  1.00  0.00     0.069 A 
ENDROOT
BRANCH   7  11
HETATM   11  C8  UNL     1      -1.226  16.258   4.393  1.00  0.00     0.004 A 
HETATM   12  C9  UNL     1      -1.840  15.202   3.750  1.00  0.00     0.014 A 
HETATM   13  C10 UNL     1      -2.909  15.409   2.874  1.00  0.00     0.001 A 
HETATM   14  C11 UNL     1      -3.373  16.686   2.635  1.00  0.00     0.001 A 
HETATM   15  C12 UNL     1      -2.746  17.732   3.288  1.00  0.00     0.010 A 
HETATM   16  C13 UNL     1      -1.691  17.527   4.153  1.00  0.00    -0.022 A 
BRANCH  16  17
HETATM   17  C14 UNL     1      -1.036  18.664   4.842  1.00  0.00     0.203 C 
BRANCH  17  18
HETATM   18  O4  UNL     1      -1.891  19.781   4.853  1.00  0.00    -0.396 OA
ATOM     19  H4  UNL     1      -1.574  20.431   5.469  1.00  0.00     0.209 HD
ENDBRANCH  17  18
ENDBRANCH  16  17
ENDBRANCH   7  11
BRANCH   6  20
HETATM   20  O3  UNL     1      -1.573  16.021   7.197  1.00  0.00    -0.358 OA
ATOM     21  H3  UNL     1      -2.280  15.723   6.636  1.00  0.00     0.217 HD
ENDBRANCH   6  20
BRANCH   8  22
HETATM   22  O5  UNL     1       1.412  16.186   3.551  1.00  0.00    -0.282 OA
ATOM     23  H5  UNL     1       2.285  16.419   3.258  1.00  0.00     0.245 HD
ENDBRANCH   8  22
BRANCH   1  24
HETATM   24  N1  UNL     1       5.943  15.757   5.477  1.00  0.00    -0.116 N 
HETATM   25  O1  UNL     1       6.909  15.622   6.252  1.00  0.00    -0.532 OA
HETATM   26  O2  UNL     1       6.132  15.879   4.133  1.00  0.00    -0.532 OA
ENDBRANCH   1  24
TORSDOF 6
ENDMDL
MODEL 5
REMARK VINA RESULT: -8.009023322      1.092      1.243
REMARK  6 active torsions:
REMARK  status: ('A' for Active; 'I' for Inactive)
REMARK    1  A    between atoms: N1_2  and  C1_4 
REMARK    2  A    between atoms: C6_9  and  O3_10 
REMARK    3  A    between atoms: C7_12  and  C8_13 
REMARK    4  A    between atoms: C13_18  and  C14_19 
REMARK    5  A    between atoms: C14_19  and  O4_20 
REMARK    6  A    between atoms: N2_22  and  O5_23 
ROOT
HETATM    1  C1  UNL     1      -2.007  15.990   3.363  1.00  0.00     0.105 A 
HETATM    2  C2  UNL     1      -2.281  14.642   3.199  1.00  0.00     0.037 A 
HETATM    3  C3  UNL     1      -1.396  13.673   3.597  1.00  0.00     0.016 A 
HETATM    4  C4  UNL     1      -0.205  14.028   4.172  1.00  0.00    -0.004 A 
HETATM    5  C5  UNL     1       0.721  13.077   4.590  1.00  0.00     0.052 A 
HETATM    6  C6  UNL     1       1.897  13.506   5.161  1.00  0.00     0.096 A 
HETATM    7  C7  UNL     1       2.209  14.841   5.342  1.00  0.00     0.107 A 
HETATM    8  N2  UNL     1       1.287  15.728   4.925  1.00  0.00    -0.221 N 
HETATM    9  C15 UNL     1       0.114  15.347   4.357  1.00  0.00     0.075 A 
HETATM   10  C16 UNL     1      -0.799  16.305   3.945  1.00  0.00     0.069 A 
ENDROOT
BRANCH   7  11
HETATM   11  C8  UNL     1       3.459  15.275   5.948  1.00  0.00     0.004 A 
HETATM   12  C9  UNL     1       4.628  15.484   5.243  1.00  0.00     0.014 A 
HETATM   13  C10 UNL     1       5.797  15.902   5.885  1.00  0.00     0.001 A 
HETATM   14  C11 UNL     1       5.802  16.116   7.248  1.00  0.00     0.001 A 
HETATM   15  C12 UNL     1       4.623  15.902   7.938  1.00  0.00     0.010 A 
HETATM   16  C13 UNL     1       3.469  15.490   7.304  1.00  0.00    -0.022 A 
BRANCH  16  17
HETATM   17  C14 UNL     1       2.217  15.268   8.066  1.00  0.00     0.203 C 
BRANCH  17  18
HETATM   18  O4  UNL     1       1.373  16.387   7.948  1.00  0.00    -0.396 OA
ATOM     19  H4  UNL     1       0.735  16.393   8.653  1.00  0.00     0.209 HD
ENDBRANCH  17  18
ENDBRANCH  16  17
ENDBRANCH   7  11
BRANCH   6  20
HETATM   20  O3  UNL     1       2.805  12.543   5.569  1.00  0.00    -0.358 OA
ATOM     21  H3  UNL     1       3.438  12.786   6.234  1.00  0.00     0.217 HD
ENDBRANCH   6  20
BRANCH   8  22
HETATM   22  O5  UNL     1       1.525  17.053   5.071  1.00  0.00    -0.282 OA
ATOM     23  H5  UNL     1       0.942  17.575   5.610  1.00  0.00     0.245 HD
ENDBRANCH   8  22
BRANCH   1  24
HETATM   24  N1  UNL     1      -2.936  16.979   2.945  1.00  0.00    -0.116 N 
HETATM   25  O1  UNL     1      -4.033  16.624   2.475  1.00  0.00    -0.532 OA
HETATM   26  O2  UNL     1      -2.615  18.298   3.064  1.00  0.00    -0.532 OA
ENDBRANCH   1  24
TORSDOF 6
ENDMDL
