MODEL 1
REMARK VINA RESULT: -7.904604380      0.000      0.000
REMARK  4 active torsions:
REMARK  status: ('A' for Active; 'I' for Inactive)
REMARK    1  A    between atoms: C5_5  and  C6_6 
REMARK    2  A    between atoms: C7_7  and  C8_8 
REMARK    3  A    between atoms: N1_13  and  O2_14 
REMARK    4  A    between atoms: N4_21  and  O3_22 
ROOT
HETATM    1  C6  UNL     1      -5.499   5.880  17.673  1.00  0.00     0.106 A 
HETATM    2  C7  UNL     1      -4.645   5.097  16.918  1.00  0.00     0.128 A 
HETATM    3  N1  UNL     1      -3.875   4.215  17.602  1.00  0.00    -0.203 N 
HETATM    4  C12 UNL     1      -3.907   4.078  18.933  1.00  0.00     0.184 A 
HETATM    5  N2  UNL     1      -3.066   3.129  19.576  1.00  0.00    -0.077 NA
HETATM    6  C13 UNL     1      -4.780   4.890  19.621  1.00  0.00     0.186 A 
HETATM    7  C14 UNL     1      -4.838   4.768  21.047  1.00  0.00     0.123 C 
HETATM    8  N3  UNL     1      -4.893   4.651  22.183  1.00  0.00    -0.190 NA
HETATM    9  N4  UNL     1      -5.575   5.787  19.015  1.00  0.00    -0.208 N 
ENDROOT
BRANCH   9  10
HETATM   10  O3  UNL     1      -6.433   6.579  19.741  1.00  0.00    -0.281 OA
ATOM     11  H3  UNL     1      -6.366   6.644  20.687  1.00  0.00     0.245 HD
ENDBRANCH   9  10
BRANCH   3  12
HETATM   12  O2  UNL     1      -3.008   3.413  16.884  1.00  0.00    -0.281 OA
ATOM     13  H2  UNL     1      -3.225   2.493  16.785  1.00  0.00     0.245 HD
ENDBRANCH   3  12
BRANCH   1  14
HETATM   14  C5  UNL     1      -6.342   6.834  16.998  1.00  0.00    -0.004 A 
HETATM   15  C4  UNL     1      -7.596   6.467  16.553  1.00  0.00     0.014 A 
HETATM   16  C3  UNL     1      -8.410   7.377  15.906  1.00  0.00     0.007 A 
HETATM   17  C2  UNL     1      -7.996   8.687  15.681  1.00  0.00    -0.062 A 
HETATM   18  C1  UNL     1      -8.874   9.667  14.983  1.00  0.00     0.048 C 
HETATM   19  C16 UNL     1      -6.740   9.022  16.138  1.00  0.00     0.007 A 
HETATM   20  C15 UNL     1      -5.906   8.125  16.791  1.00  0.00     0.014 A 
ENDBRANCH   1  14
BRANCH   2  21
HETATM   21  C8  UNL     1      -4.573   5.210  15.462  1.00  0.00     0.106 A 
HETATM   22  C9  UNL     1      -5.232   4.498  14.483  1.00  0.00     0.041 A 
HETATM   23  C10 UNL     1      -4.814   4.991  13.243  1.00  0.00     0.027 A 
HETATM   24  C11 UNL     1      -3.913   5.984  13.564  1.00  0.00     0.142 A 
HETATM   25  O1  UNL     1      -3.798   6.083  14.858  1.00  0.00    -0.320 OA
ENDBRANCH   2  21
TORSDOF 4
ENDMDL
MODEL 2
REMARK VINA RESULT: -7.726328448      4.347      7.467
REMARK  4 active torsions:
REMARK  status: ('A' for Active; 'I' for Inactive)
REMARK    1  A    between atoms: C5_5  and  C6_6 
REMARK    2  A    between atoms: C7_7  and  C8_8 
REMARK    3  A    between atoms: N1_13  and  O2_14 
REMARK    4  A    between atoms: N4_21  and  O3_22 
ROOT
HETATM    1  C6  UNL     1      -8.033   9.120  16.495  1.00  0.00     0.106 A 
HETATM    2  C7  UNL     1      -8.246  10.055  17.492  1.00  0.00     0.128 A 
HETATM    3  N1  UNL     1      -9.187  10.999  17.241  1.00  0.00    -0.203 N 
HETATM    4  C12 UNL     1      -9.892  11.061  16.105  1.00  0.00     0.184 A 
HETATM    5  N2  UNL     1     -10.861  12.084  15.917  1.00  0.00    -0.077 NA
HETATM    6  C13 UNL     1      -9.627  10.098  15.156  1.00  0.00     0.186 A 
HETATM    7  C14 UNL     1     -10.366  10.136  13.929  1.00  0.00     0.123 C 
HETATM    8  N3  UNL     1     -10.972  10.162  12.960  1.00  0.00    -0.190 NA
HETATM    9  N4  UNL     1      -8.712   9.131  15.332  1.00  0.00    -0.208 N 
ENDROOT
BRANCH   9  10
HETATM   10  O3  UNL     1      -8.480   8.189  14.357  1.00  0.00    -0.281 OA
ATOM     11  H3  UNL     1      -7.654   8.155  13.889  1.00  0.00     0.245 HD
ENDBRANCH   9  10
BRANCH   3  12
HETATM   12  O2  UNL     1      -9.430  11.952  18.213  1.00  0.00    -0.281 OA
ATOM     13  H2  UNL     1     -10.078  12.622  18.031  1.00  0.00     0.245 HD
ENDBRANCH   3  12
BRANCH   1  14
HETATM   14  C5  UNL     1      -7.046   8.093  16.709  1.00  0.00    -0.004 A 
HETATM   15  C4  UNL     1      -7.408   6.880  17.258  1.00  0.00     0.014 A 
HETATM   16  C3  UNL     1      -6.467   5.889  17.465  1.00  0.00     0.007 A 
HETATM   17  C2  UNL     1      -5.129   6.080  17.130  1.00  0.00    -0.062 A 
HETATM   18  C1  UNL     1      -4.115   5.012  17.354  1.00  0.00     0.048 C 
HETATM   19  C16 UNL     1      -4.800   7.301  16.583  1.00  0.00     0.007 A 
HETATM   20  C15 UNL     1      -5.729   8.310  16.366  1.00  0.00     0.014 A 
ENDBRANCH   1  14
BRANCH   2  21
HETATM   21  C8  UNL     1      -7.501  10.031  18.750  1.00  0.00     0.106 A 
HETATM   22  C9  UNL     1      -7.404   9.042  19.706  1.00  0.00     0.041 A 
HETATM   23  C10 UNL     1      -6.566   9.512  20.721  1.00  0.00     0.027 A 
HETATM   24  C11 UNL     1      -6.208  10.776  20.302  1.00  0.00     0.142 A 
HETATM   25  O1  UNL     1      -6.767  11.043  19.156  1.00  0.00    -0.320 OA
ENDBRANCH   2  21
TORSDOF 4
ENDMDL
MODEL 3
REMARK VINA RESULT: -7.558841757      3.636      5.998
REMARK  4 active torsions:
REMARK  status: ('A' for Active; 'I' for Inactive)
REMARK    1  A    between atoms: C5_5  and  C6_6 
REMARK    2  A    between atoms: C7_7  and  C8_8 
REMARK    3  A    between atoms: N1_13  and  O2_14 
REMARK    4  A    between atoms: N4_21  and  O3_22 
ROOT
HETATM    1  C6  UNL     1      -7.160   9.058  17.685  1.00  0.00     0.106 A 
HETATM    2  C7  UNL     1      -8.100   9.869  17.075  1.00  0.00     0.128 A 
HETATM    3  N1  UNL     1      -8.483  10.972  17.765  1.00  0.00    -0.203 N 
HETATM    4  C12 UNL     1      -8.003  11.295  18.972  1.00  0.00     0.184 A 
HETATM    5  N2  UNL     1      -8.455  12.471  19.632  1.00  0.00    -0.077 NA
HETATM    6  C13 UNL     1      -7.070  10.442  19.520  1.00  0.00     0.186 A 
HETATM    7  C14 UNL     1      -6.538  10.760  20.811  1.00  0.00     0.123 C 
HETATM    8  N3  UNL     1      -6.103  11.031  21.833  1.00  0.00    -0.190 NA
HETATM    9  N4  UNL     1      -6.642   9.332  18.897  1.00  0.00    -0.208 N 
ENDROOT
BRANCH   9  10
HETATM   10  O3  UNL     1      -5.709   8.508  19.481  1.00  0.00    -0.281 OA
ATOM     11  H3  UNL     1      -5.961   7.692  19.898  1.00  0.00     0.245 HD
ENDBRANCH   9  10
BRANCH   3  12
HETATM   12  O2  UNL     1      -9.420  11.809  17.190  1.00  0.00    -0.281 OA
ATOM     13  H2  UNL     1      -9.339  12.743  17.339  1.00  0.00     0.245 HD
ENDBRANCH   3  12
BRANCH   1  14
HETATM   14  C5  UNL     1      -6.717   7.873  16.995  1.00  0.00    -0.004 A 
HETATM   15  C4  UNL     1      -5.676   7.938  16.092  1.00  0.00     0.014 A 
HETATM   16  C3  UNL     1      -5.244   6.806  15.428  1.00  0.00     0.007 A 
HETATM   17  C2  UNL     1      -5.843   5.567  15.646  1.00  0.00    -0.062 A 
HETATM   18  C1  UNL     1      -5.378   4.347  14.929  1.00  0.00     0.048 C 
HETATM   19  C16 UNL     1      -6.879   5.535  16.553  1.00  0.00     0.007 A 
HETATM   20  C15 UNL     1      -7.328   6.661  17.231  1.00  0.00     0.014 A 
ENDBRANCH   1  14
BRANCH   2  21
HETATM   21  C8  UNL     1      -8.655   9.559  15.758  1.00  0.00     0.106 A 
HETATM   22  C9  UNL     1      -9.087   8.358  15.237  1.00  0.00     0.041 A 
HETATM   23  C10 UNL     1      -9.530   8.593  13.932  1.00  0.00     0.027 A 
HETATM   24  C11 UNL     1      -9.331   9.945  13.750  1.00  0.00     0.142 A 
HETATM   25  O1  UNL     1      -8.823  10.473  14.828  1.00  0.00    -0.320 OA
ENDBRANCH   2  21
TORSDOF 4
ENDMDL
MODEL 4
REMARK VINA RESULT: -7.447896889      2.241      2.869
REMARK  4 active torsions:
REMARK  status: ('A' for Active; 'I' for Inactive)
REMARK    1  A    between atoms: C5_5  and  C6_6 
REMARK    2  A    between atoms: C7_7  and  C8_8 
REMARK    3  A    between atoms: N1_13  and  O2_14 
REMARK    4  A    between atoms: N4_21  and  O3_22 
ROOT
HETATM    1  C6  UNL     1      -5.846   7.096  18.690  1.00  0.00     0.106 A 
HETATM    2  C7  UNL     1      -6.120   5.963  17.945  1.00  0.00     0.128 A 
HETATM    3  N1  UNL     1      -5.373   4.865  18.222  1.00  0.00    -0.203 N 
HETATM    4  C12 UNL     1      -4.415   4.836  19.155  1.00  0.00     0.184 A 
HETATM    5  N2  UNL     1      -3.675   3.644  19.386  1.00  0.00    -0.077 NA
HETATM    6  C13 UNL     1      -4.195   6.000  19.858  1.00  0.00     0.186 A 
HETATM    7  C14 UNL     1      -3.176   6.001  20.864  1.00  0.00     0.123 C 
HETATM    8  N3  UNL     1      -2.373   5.989  21.679  1.00  0.00    -0.190 NA
HETATM    9  N4  UNL     1      -4.894   7.126  19.642  1.00  0.00    -0.208 N 
ENDROOT
BRANCH   9  10
HETATM   10  O3  UNL     1      -4.641   8.267  20.368  1.00  0.00    -0.281 OA
ATOM     11  H3  UNL     1      -3.937   8.304  21.005  1.00  0.00     0.245 HD
ENDBRANCH   9  10
BRANCH   3  12
HETATM   12  O2  UNL     1      -5.616   3.712  17.499  1.00  0.00    -0.281 OA
ATOM     13  H2  UNL     1      -5.627   2.885  17.966  1.00  0.00     0.245 HD
ENDBRANCH   3  12
BRANCH   1  14
HETATM   14  C5  UNL     1      -6.610   8.292  18.438  1.00  0.00    -0.004 A 
HETATM   15  C4  UNL     1      -6.478   8.966  17.241  1.00  0.00     0.014 A 
HETATM   16  C3  UNL     1      -7.208  10.113  16.992  1.00  0.00     0.007 A 
HETATM   17  C2  UNL     1      -8.096  10.625  17.935  1.00  0.00    -0.062 A 
HETATM   18  C1  UNL     1      -8.882  11.861  17.666  1.00  0.00     0.048 C 
HETATM   19  C16 UNL     1      -8.205   9.928  19.119  1.00  0.00     0.007 A 
HETATM   20  C15 UNL     1      -7.482   8.775  19.389  1.00  0.00     0.014 A 
ENDBRANCH   1  14
BRANCH   2  21
HETATM   21  C8  UNL     1      -7.156   5.945  16.913  1.00  0.00     0.106 A 
HETATM   22  C9  UNL     1      -8.529   5.988  17.033  1.00  0.00     0.041 A 
HETATM   23  C10 UNL     1      -9.071   5.945  15.745  1.00  0.00     0.027 A 
HETATM   24  C11 UNL     1      -7.968   5.877  14.920  1.00  0.00     0.142 A 
HETATM   25  O1  UNL     1      -6.876   5.880  15.631  1.00  0.00    -0.320 OA
ENDBRANCH   2  21
TORSDOF 4
ENDMDL
MODEL 5
REMARK VINA RESULT: -7.366430561      4.174      6.613
REMARK  4 active torsions:
REMARK  status: ('A' for Active; 'I' for Inactive)
REMARK    1  A    between atoms: C5_5  and  C6_6 
REMARK    2  A    between atoms: C7_7  and  C8_8 
REMARK    3  A    between atoms: N1_13  and  O2_14 
REMARK    4  A    between atoms: N4_21  and  O3_22 
ROOT
HETATM    1  C6  UNL     1      -7.213   9.893  18.823  1.00  0.00     0.106 A 
HETATM    2  C7  UNL     1      -8.067  10.928  18.486  1.00  0.00     0.128 A 
HETATM    3  N1  UNL     1      -8.137  11.960  19.363  1.00  0.00    -0.203 N 
HETATM    4  C12 UNL     1      -7.438  12.015  20.502  1.00  0.00     0.184 A 
HETATM    5  N2  UNL     1      -7.567  13.134  21.370  1.00  0.00    -0.077 NA
HETATM    6  C13 UNL     1      -6.608  10.950  20.775  1.00  0.00     0.186 A 
HETATM    7  C14 UNL     1      -5.845  10.979  21.987  1.00  0.00     0.123 C 
HETATM    8  N3  UNL     1      -5.225  11.018  22.947  1.00  0.00    -0.190 NA
HETATM    9  N4  UNL     1      -6.484   9.893  19.956  1.00  0.00    -0.208 N 
ENDROOT
BRANCH   9  10
HETATM   10  O3  UNL     1      -5.643   8.850  20.267  1.00  0.00    -0.281 OA
ATOM     11  H3  UNL     1      -4.961   8.942  20.923  1.00  0.00     0.245 HD
ENDBRANCH   9  10
BRANCH   3  12
HETATM   12  O2  UNL     1      -8.979  13.014  19.062  1.00  0.00    -0.281 OA
ATOM     13  H2  UNL     1      -9.861  12.815  18.772  1.00  0.00     0.245 HD
ENDBRANCH   3  12
BRANCH   1  14
HETATM   14  C5  UNL     1      -7.098   8.771  17.927  1.00  0.00    -0.004 A 
HETATM   15  C4  UNL     1      -6.146   8.768  16.929  1.00  0.00     0.014 A 
HETATM   16  C3  UNL     1      -6.028   7.694  16.067  1.00  0.00     0.007 A 
HETATM   17  C2  UNL     1      -6.864   6.585  16.174  1.00  0.00    -0.062 A 
HETATM   18  C1  UNL     1      -6.737   5.429  15.245  1.00  0.00     0.048 C 
HETATM   19  C16 UNL     1      -7.804   6.618  17.181  1.00  0.00     0.007 A 
HETATM   20  C15 UNL     1      -7.938   7.686  18.058  1.00  0.00     0.014 A 
ENDBRANCH   1  14
BRANCH   2  21
HETATM   21  C8  UNL     1      -8.854  10.914  17.253  1.00  0.00     0.106 A 
HETATM   22  C9  UNL     1      -8.476  10.607  15.963  1.00  0.00     0.041 A 
HETATM   23  C10 UNL     1      -9.602  10.745  15.146  1.00  0.00     0.027 A 
HETATM   24  C11 UNL     1     -10.600  11.134  16.014  1.00  0.00     0.142 A 
HETATM   25  O1  UNL     1     -10.131  11.221  17.226  1.00  0.00    -0.320 OA
ENDBRANCH   2  21
TORSDOF 4
ENDMDL
