MODEL 1
REMARK VINA RESULT: -8.643501207      0.000      0.000
REMARK  17 active torsions:
REMARK  status: ('A' for Active; 'I' for Inactive)
REMARK    1  A    between atoms: O1_2  and  C2_3 
REMARK    2  A    between atoms: C4_7  and  C5_8 
REMARK    3  A    between atoms: C6_9  and  C7_10 
REMARK    4  A    between atoms: C8_11  and  C9_12 
REMARK    5  A    between atoms: C10_13  and  C11_14 
REMARK    6  A    between atoms: C11_14  and  C12_15 
REMARK    7  A    between atoms: C12_15  and  C13_16 
REMARK    8  A    between atoms: C13_16  and  N2_17 
REMARK    9  A    between atoms: C20_24  and  C21_25 
REMARK       I    between atoms: C21_25  and  N3_27 
REMARK   10  A    between atoms: N3_27  and  C22_29 
REMARK   11  A    between atoms: C22_29  and  C23_30 
REMARK   12  A    between atoms: C23_30  and  C24_31 
REMARK   13  A    between atoms: C24_31  and  C25_32 
REMARK   14  A    between atoms: C25_32  and  C26_33 
REMARK   15  A    between atoms: C26_33  and  N4_34 
REMARK   16  A    between atoms: C27_38  and  C28_39 
REMARK   17  A    between atoms: C28_39  and  O3_40 
ROOT
HETATM    1  N2  UNL     1     -13.347  14.059   4.946  1.00  0.00    -0.360 N 
HETATM    2  C14 UNL     1     -14.622  14.337   4.373  1.00  0.00     0.095 A 
HETATM    3  C15 UNL     1     -14.327  14.018   3.166  1.00  0.00    -0.016 A 
HETATM    4  C16 UNL     1     -14.575  13.824   1.735  1.00  0.00     0.048 C 
HETATM    5  C17 UNL     1     -13.348  13.945   0.893  1.00  0.00     0.032 A 
HETATM    6  C18 UNL     1     -12.265  12.949   0.961  1.00  0.00     0.029 A 
HETATM    7  C19 UNL     1     -11.337  12.875  -0.228  1.00  0.00     0.022 C 
HETATM    8  C20 UNL     1     -10.214  13.871   0.098  1.00  0.00     0.087 C 
HETATM    9  C27 UNL     1     -10.931  14.893   0.852  1.00  0.00     0.058 C 
HETATM   10  C29 UNL     1     -12.118  14.291   1.574  1.00  0.00     0.079 A 
HETATM   11  O4  UNL     1     -12.103  14.443   2.935  1.00  0.00    -0.350 OA
HETATM   12  C30 UNL     1     -12.941  13.633   3.649  1.00  0.00     0.255 A 
ENDROOT
BRANCH   1  13
HETATM   13  C13 UNL     1     -12.789  14.186   6.286  1.00  0.00     0.125 C 
BRANCH  13  14
HETATM   14  C12 UNL     1     -12.060  12.907   6.624  1.00  0.00     0.023 C 
BRANCH  14  15
HETATM   15  C11 UNL     1     -10.559  13.153   6.690  1.00  0.00     0.029 C 
BRANCH  15  16
HETATM   16  C10 UNL     1     -10.298  14.245   7.664  1.00  0.00    -0.018 C 
HETATM   17  C9  UNL     1      -9.743  15.390   7.330  1.00  0.00     0.061 C 
BRANCH  17  18
HETATM   18  C8  UNL     1      -9.351  15.655   5.980  1.00  0.00    -0.065 C 
HETATM   19  C7  UNL     1      -8.991  15.882   4.830  1.00  0.00    -0.010 C 
BRANCH  19  20
HETATM   20  C6  UNL     1      -8.551  16.148   3.513  1.00  0.00    -0.007 C 
HETATM   21  C5  UNL     1      -8.164  16.393   2.399  1.00  0.00    -0.027 C 
BRANCH  21  22
HETATM   22  C4  UNL     1      -7.672  16.694   1.062  1.00  0.00     0.132 A 
HETATM   23  N1  UNL     1      -8.222  17.499   0.167  1.00  0.00    -0.350 N 
HETATM   24  C3  UNL     1      -7.656  17.662  -0.985  1.00  0.00     0.134 A 
ATOM     25  H1  UNL     1      -9.090  17.988   0.385  1.00  0.00     0.166 HD
HETATM   26  C2  UNL     1      -6.494  16.984  -1.233  1.00  0.00     0.127 A 
HETATM   27  S1  UNL     1      -6.283  16.132   0.249  1.00  0.00    -0.037 SA
BRANCH  26  28
HETATM   28  O1  UNL     1      -5.693  16.989  -2.390  1.00  0.00    -0.347 OA
HETATM   29  C1  UNL     1      -4.316  16.865  -2.209  1.00  0.00     0.211 C 
ENDBRANCH  26  28
ENDBRANCH  21  22
ENDBRANCH  19  20
ENDBRANCH  17  18
ENDBRANCH  15  16
ENDBRANCH  14  15
ENDBRANCH  13  14
ENDBRANCH   1  13
BRANCH   9  30
HETATM   30  C28 UNL     1     -11.274  16.177   0.155  1.00  0.00     0.172 C 
BRANCH  30  31
HETATM   31  O3  UNL     1     -11.210  17.306   0.956  1.00  0.00    -0.400 OA
ATOM     32  H3  UNL     1     -11.265  18.130   0.486  1.00  0.00     0.209 HD
ENDBRANCH  30  31
ENDBRANCH   9  30
BRANCH   8  33
HETATM   33  C21 UNL     1      -9.506  14.215  -1.124  1.00  0.00     0.222 C 
HETATM   34  O2  UNL     1      -8.352  13.875  -1.436  1.00  0.00    -0.273 OA
HETATM   35  N3  UNL     1     -10.217  15.026  -2.053  1.00  0.00    -0.361 N 
ATOM     36  H3  UNL     1     -11.167  15.320  -1.828  1.00  0.00     0.162 HD
BRANCH  35  37
HETATM   37  C22 UNL     1      -9.635  15.443  -3.298  1.00  0.00     0.122 C 
BRANCH  37  38
HETATM   38  C23 UNL     1     -10.560  15.447  -4.473  1.00  0.00     0.020 C 
BRANCH  38  39
HETATM   39  C24 UNL     1      -9.769  15.824  -5.715  1.00  0.00     0.003 C 
BRANCH  39  40
HETATM   40  C25 UNL     1      -8.302  15.895  -5.337  1.00  0.00     0.027 C 
BRANCH  40  41
HETATM   41  C26 UNL     1      -7.688  17.194  -5.838  1.00  0.00     0.229 C 
BRANCH  41  42
HETATM   42  N4  UNL     1      -7.186  17.982  -4.726  1.00  0.00    -0.079 N 
ATOM     43  H43 UNL     1      -7.895  18.618  -4.362  1.00  0.00     0.274 HD
ATOM     44  H42 UNL     1      -7.049  17.413  -3.891  1.00  0.00     0.274 HD
ATOM     45  H41 UNL     1      -6.334  18.476  -4.993  1.00  0.00     0.274 HD
ENDBRANCH  41  42
ENDBRANCH  40  41
ENDBRANCH  39  40
ENDBRANCH  38  39
ENDBRANCH  37  38
ENDBRANCH  35  37
ENDBRANCH   8  33
TORSDOF 17
ENDMDL
MODEL 2
REMARK VINA RESULT: -8.537227671      2.119      9.721
REMARK  17 active torsions:
REMARK  status: ('A' for Active; 'I' for Inactive)
REMARK    1  A    between atoms: O1_2  and  C2_3 
REMARK    2  A    between atoms: C4_7  and  C5_8 
REMARK    3  A    between atoms: C6_9  and  C7_10 
REMARK    4  A    between atoms: C8_11  and  C9_12 
REMARK    5  A    between atoms: C10_13  and  C11_14 
REMARK    6  A    between atoms: C11_14  and  C12_15 
REMARK    7  A    between atoms: C12_15  and  C13_16 
REMARK    8  A    between atoms: C13_16  and  N2_17 
REMARK    9  A    between atoms: C20_24  and  C21_25 
REMARK       I    between atoms: C21_25  and  N3_27 
REMARK   10  A    between atoms: N3_27  and  C22_29 
REMARK   11  A    between atoms: C22_29  and  C23_30 
REMARK   12  A    between atoms: C23_30  and  C24_31 
REMARK   13  A    between atoms: C24_31  and  C25_32 
REMARK   14  A    between atoms: C25_32  and  C26_33 
REMARK   15  A    between atoms: C26_33  and  N4_34 
REMARK   16  A    between atoms: C27_38  and  C28_39 
REMARK   17  A    between atoms: C28_39  and  O3_40 
ROOT
HETATM    1  N2  UNL     1      -5.361  17.412  -4.184  1.00  0.00    -0.360 N 
HETATM    2  C14 UNL     1      -5.049  18.776  -3.909  1.00  0.00     0.095 A 
HETATM    3  C15 UNL     1      -5.160  18.710  -2.632  1.00  0.00    -0.016 A 
HETATM    4  C16 UNL     1      -5.139  19.223  -1.260  1.00  0.00     0.048 C 
HETATM    5  C17 UNL     1      -6.026  18.468  -0.326  1.00  0.00     0.032 A 
HETATM    6  C18 UNL     1      -5.732  17.079   0.063  1.00  0.00     0.029 A 
HETATM    7  C19 UNL     1      -6.368  16.584   1.340  1.00  0.00     0.022 C 
HETATM    8  C20 UNL     1      -7.716  15.997   0.896  1.00  0.00     0.087 C 
HETATM    9  C27 UNL     1      -8.065  16.864  -0.224  1.00  0.00     0.058 C 
HETATM   10  C29 UNL     1      -6.817  17.398  -0.895  1.00  0.00     0.079 A 
HETATM   11  O4  UNL     1      -6.697  17.083  -2.223  1.00  0.00    -0.350 OA
HETATM   12  C30 UNL     1      -5.455  17.229  -2.774  1.00  0.00     0.255 A 
ENDROOT
BRANCH   1  13
HETATM   13  C13 UNL     1      -5.501  16.631  -5.406  1.00  0.00     0.125 C 
BRANCH  13  14
HETATM   14  C12 UNL     1      -5.736  17.580  -6.556  1.00  0.00     0.023 C 
BRANCH  14  15
HETATM   15  C11 UNL     1      -7.221  17.884  -6.698  1.00  0.00     0.029 C 
BRANCH  15  16
HETATM   16  C10 UNL     1      -7.796  16.979  -7.728  1.00  0.00    -0.018 C 
HETATM   17  C9  UNL     1      -8.688  16.051  -7.454  1.00  0.00     0.061 C 
BRANCH  17  18
HETATM   18  C8  UNL     1      -9.166  15.856  -6.119  1.00  0.00    -0.065 C 
HETATM   19  C7  UNL     1      -9.575  15.665  -4.979  1.00  0.00    -0.010 C 
BRANCH  19  20
HETATM   20  C6  UNL     1     -10.049  15.418  -3.671  1.00  0.00    -0.007 C 
HETATM   21  C5  UNL     1     -10.468  15.192  -2.565  1.00  0.00    -0.027 C 
BRANCH  21  22
HETATM   22  C4  UNL     1     -10.975  14.892  -1.233  1.00  0.00     0.132 A 
HETATM   23  N1  UNL     1     -11.680  15.687  -0.445  1.00  0.00    -0.350 N 
HETATM   24  C3  UNL     1     -12.059  15.269   0.719  1.00  0.00     0.134 A 
ATOM     25  H1  UNL     1     -11.923  16.628  -0.754  1.00  0.00     0.166 HD
HETATM   26  C2  UNL     1     -11.708  14.000   1.092  1.00  0.00     0.127 A 
HETATM   27  S1  UNL     1     -10.832  13.476  -0.295  1.00  0.00    -0.037 SA
BRANCH  26  28
HETATM   28  O1  UNL     1     -11.991  13.316   2.288  1.00  0.00    -0.347 OA
HETATM   29  C1  UNL     1     -12.496  12.021   2.175  1.00  0.00     0.211 C 
ENDBRANCH  26  28
ENDBRANCH  21  22
ENDBRANCH  19  20
ENDBRANCH  17  18
ENDBRANCH  15  16
ENDBRANCH  14  15
ENDBRANCH  13  14
ENDBRANCH   1  13
BRANCH   9  30
HETATM   30  C28 UNL     1      -9.097  17.930   0.001  1.00  0.00     0.172 C 
BRANCH  30  31
HETATM   31  O3  UNL     1      -9.854  18.247  -1.116  1.00  0.00    -0.400 OA
ATOM     32  H3  UNL     1      -9.352  18.378  -1.912  1.00  0.00     0.209 HD
ENDBRANCH  30  31
ENDBRANCH   9  30
BRANCH   8  33
HETATM   33  C21 UNL     1      -8.596  15.888   2.048  1.00  0.00     0.222 C 
HETATM   34  O2  UNL     1      -9.395  16.748   2.457  1.00  0.00    -0.273 OA
HETATM   35  N3  UNL     1      -8.528  14.667   2.775  1.00  0.00    -0.361 N 
ATOM     36  H3  UNL     1      -7.885  13.940   2.464  1.00  0.00     0.162 HD
BRANCH  35  37
HETATM   37  C22 UNL     1      -9.340  14.429   3.936  1.00  0.00     0.122 C 
BRANCH  37  38
HETATM   38  C23 UNL     1      -8.631  14.533   5.249  1.00  0.00     0.020 C 
BRANCH  38  39
HETATM   39  C24 UNL     1      -8.862  15.923   5.819  1.00  0.00     0.003 C 
BRANCH  39  40
HETATM   40  C25 UNL     1      -9.364  15.773   7.243  1.00  0.00     0.027 C 
BRANCH  40  41
HETATM   41  C26 UNL     1     -10.827  15.351   7.248  1.00  0.00     0.229 C 
BRANCH  41  42
HETATM   42  N4  UNL     1     -11.000  14.126   8.007  1.00  0.00    -0.079 N 
ATOM     43  H43 UNL     1     -10.956  14.293   9.012  1.00  0.00     0.274 HD
ATOM     44  H42 UNL     1     -11.958  13.779   7.953  1.00  0.00     0.274 HD
ATOM     45  H41 UNL     1     -10.325  13.421   7.709  1.00  0.00     0.274 HD
ENDBRANCH  41  42
ENDBRANCH  40  41
ENDBRANCH  39  40
ENDBRANCH  38  39
ENDBRANCH  37  38
ENDBRANCH  35  37
ENDBRANCH   8  33
TORSDOF 17
ENDMDL
MODEL 3
REMARK VINA RESULT: -8.529934738      1.106      1.223
REMARK  17 active torsions:
REMARK  status: ('A' for Active; 'I' for Inactive)
REMARK    1  A    between atoms: O1_2  and  C2_3 
REMARK    2  A    between atoms: C4_7  and  C5_8 
REMARK    3  A    between atoms: C6_9  and  C7_10 
REMARK    4  A    between atoms: C8_11  and  C9_12 
REMARK    5  A    between atoms: C10_13  and  C11_14 
REMARK    6  A    between atoms: C11_14  and  C12_15 
REMARK    7  A    between atoms: C12_15  and  C13_16 
REMARK    8  A    between atoms: C13_16  and  N2_17 
REMARK    9  A    between atoms: C20_24  and  C21_25 
REMARK       I    between atoms: C21_25  and  N3_27 
REMARK   10  A    between atoms: N3_27  and  C22_29 
REMARK   11  A    between atoms: C22_29  and  C23_30 
REMARK   12  A    between atoms: C23_30  and  C24_31 
REMARK   13  A    between atoms: C24_31  and  C25_32 
REMARK   14  A    between atoms: C25_32  and  C26_33 
REMARK   15  A    between atoms: C26_33  and  N4_34 
REMARK   16  A    between atoms: C27_38  and  C28_39 
REMARK   17  A    between atoms: C28_39  and  O3_40 
ROOT
HETATM    1  N2  UNL     1     -13.130  13.612   4.720  1.00  0.00    -0.360 N 
HETATM    2  C14 UNL     1     -14.412  13.960   4.202  1.00  0.00     0.095 A 
HETATM    3  C15 UNL     1     -14.120  13.837   2.959  1.00  0.00    -0.016 A 
HETATM    4  C16 UNL     1     -14.375  13.865   1.517  1.00  0.00     0.048 C 
HETATM    5  C17 UNL     1     -13.155  14.131   0.699  1.00  0.00     0.032 A 
HETATM    6  C18 UNL     1     -12.061  13.150   0.606  1.00  0.00     0.029 A 
HETATM    7  C19 UNL     1     -11.140  13.273  -0.585  1.00  0.00     0.022 C 
HETATM    8  C20 UNL     1     -10.026  14.220  -0.113  1.00  0.00     0.087 C 
HETATM    9  C27 UNL     1     -10.750  15.103   0.795  1.00  0.00     0.058 C 
HETATM   10  C29 UNL     1     -11.925  14.381   1.419  1.00  0.00     0.079 A 
HETATM   11  O4  UNL     1     -11.903  14.320   2.788  1.00  0.00    -0.350 OA
HETATM   12  C30 UNL     1     -12.727  13.399   3.370  1.00  0.00     0.255 A 
ENDROOT
BRANCH   1  13
HETATM   13  C13 UNL     1     -12.564  13.535   6.061  1.00  0.00     0.125 C 
BRANCH  13  14
HETATM   14  C12 UNL     1     -12.276  14.938   6.539  1.00  0.00     0.023 C 
BRANCH  14  15
HETATM   15  C11 UNL     1     -10.811  15.077   6.926  1.00  0.00     0.029 C 
BRANCH  15  16
HETATM   16  C10 UNL     1     -10.203  13.721   6.988  1.00  0.00    -0.018 C 
HETATM   17  C9  UNL     1      -9.344  13.277   6.097  1.00  0.00     0.061 C 
BRANCH  17  18
HETATM   18  C8  UNL     1      -8.936  14.091   4.993  1.00  0.00    -0.065 C 
HETATM   19  C7  UNL     1      -8.563  14.783   4.052  1.00  0.00    -0.010 C 
BRANCH  19  20
HETATM   20  C6  UNL     1      -8.107  15.578   2.976  1.00  0.00    -0.007 C 
HETATM   21  C5  UNL     1      -7.710  16.271   2.074  1.00  0.00    -0.027 C 
BRANCH  21  22
HETATM   22  C4  UNL     1      -7.208  17.114   0.998  1.00  0.00     0.132 A 
HETATM   23  N1  UNL     1      -7.918  17.829   0.141  1.00  0.00    -0.350 N 
HETATM   24  C3  UNL     1      -7.318  18.531  -0.765  1.00  0.00     0.134 A 
ATOM     25  H1  UNL     1      -8.937  17.826   0.193  1.00  0.00     0.166 HD
HETATM   26  C2  UNL     1      -5.950  18.503  -0.798  1.00  0.00     0.127 A 
HETATM   27  S1  UNL     1      -5.607  17.439   0.512  1.00  0.00    -0.037 SA
BRANCH  26  28
HETATM   28  O1  UNL     1      -5.069  19.168  -1.671  1.00  0.00    -0.347 OA
HETATM   29  C1  UNL     1      -4.837  18.575  -2.911  1.00  0.00     0.211 C 
ENDBRANCH  26  28
ENDBRANCH  21  22
ENDBRANCH  19  20
ENDBRANCH  17  18
ENDBRANCH  15  16
ENDBRANCH  14  15
ENDBRANCH  13  14
ENDBRANCH   1  13
BRANCH   9  30
HETATM   30  C28 UNL     1     -11.112  16.476   0.308  1.00  0.00     0.172 C 
BRANCH  30  31
HETATM   31  O3  UNL     1     -10.841  17.498   1.203  1.00  0.00    -0.400 OA
ATOM     32  H3  UNL     1     -11.013  18.372   0.872  1.00  0.00     0.209 HD
ENDBRANCH  30  31
ENDBRANCH   9  30
BRANCH   8  33
HETATM   33  C21 UNL     1      -9.330  14.759  -1.270  1.00  0.00     0.222 C 
HETATM   34  O2  UNL     1      -8.120  15.033  -1.348  1.00  0.00    -0.273 OA
HETATM   35  N3  UNL     1     -10.126  14.994  -2.426  1.00  0.00    -0.361 N 
ATOM     36  H3  UNL     1     -11.121  14.777  -2.395  1.00  0.00     0.162 HD
BRANCH  35  37
HETATM   37  C22 UNL     1      -9.566  15.528  -3.637  1.00  0.00     0.122 C 
BRANCH  37  38
HETATM   38  C23 UNL     1     -10.476  15.522  -4.824  1.00  0.00     0.020 C 
BRANCH  38  39
HETATM   39  C24 UNL     1      -9.649  15.788  -6.072  1.00  0.00     0.003 C 
BRANCH  39  40
HETATM   40  C25 UNL     1      -8.233  15.312  -5.811  1.00  0.00     0.027 C 
BRANCH  40  41
HETATM   41  C26 UNL     1      -7.329  15.667  -6.983  1.00  0.00     0.229 C 
BRANCH  41  42
HETATM   42  N4  UNL     1      -7.909  16.744  -7.764  1.00  0.00    -0.079 N 
ATOM     43  H43 UNL     1      -7.590  16.725  -8.733  1.00  0.00     0.274 HD
ATOM     44  H42 UNL     1      -8.905  16.599  -7.930  1.00  0.00     0.274 HD
ATOM     45  H41 UNL     1      -7.727  17.646  -7.322  1.00  0.00     0.274 HD
ENDBRANCH  41  42
ENDBRANCH  40  41
ENDBRANCH  39  40
ENDBRANCH  38  39
ENDBRANCH  37  38
ENDBRANCH  35  37
ENDBRANCH   8  33
TORSDOF 17
ENDMDL
MODEL 4
REMARK VINA RESULT: -8.465210657      2.045      9.786
REMARK  17 active torsions:
REMARK  status: ('A' for Active; 'I' for Inactive)
REMARK    1  A    between atoms: O1_2  and  C2_3 
REMARK    2  A    between atoms: C4_7  and  C5_8 
REMARK    3  A    between atoms: C6_9  and  C7_10 
REMARK    4  A    between atoms: C8_11  and  C9_12 
REMARK    5  A    between atoms: C10_13  and  C11_14 
REMARK    6  A    between atoms: C11_14  and  C12_15 
REMARK    7  A    between atoms: C12_15  and  C13_16 
REMARK    8  A    between atoms: C13_16  and  N2_17 
REMARK    9  A    between atoms: C20_24  and  C21_25 
REMARK       I    between atoms: C21_25  and  N3_27 
REMARK   10  A    between atoms: N3_27  and  C22_29 
REMARK   11  A    between atoms: C22_29  and  C23_30 
REMARK   12  A    between atoms: C23_30  and  C24_31 
REMARK   13  A    between atoms: C24_31  and  C25_32 
REMARK   14  A    between atoms: C25_32  and  C26_33 
REMARK   15  A    between atoms: C26_33  and  N4_34 
REMARK   16  A    between atoms: C27_38  and  C28_39 
REMARK   17  A    between atoms: C28_39  and  O3_40 
ROOT
HETATM    1  N2  UNL     1      -5.153  17.760  -4.704  1.00  0.00    -0.360 N 
HETATM    2  C14 UNL     1      -3.882  17.991  -4.101  1.00  0.00     0.095 A 
HETATM    3  C15 UNL     1      -4.138  17.435  -2.974  1.00  0.00    -0.016 A 
HETATM    4  C16 UNL     1      -3.853  16.988  -1.608  1.00  0.00     0.048 C 
HETATM    5  C17 UNL     1      -5.069  16.883  -0.747  1.00  0.00     0.032 A 
HETATM    6  C18 UNL     1      -6.101  15.862  -0.992  1.00  0.00     0.029 A 
HETATM    7  C19 UNL     1      -7.001  15.516   0.170  1.00  0.00     0.022 C 
HETATM    8  C20 UNL     1      -8.179  16.496   0.049  1.00  0.00     0.087 C 
HETATM    9  C27 UNL     1      -7.528  17.678  -0.504  1.00  0.00     0.058 C 
HETATM   10  C29 UNL     1      -6.327  17.286  -1.338  1.00  0.00     0.079 A 
HETATM   11  O4  UNL     1      -6.375  17.692  -2.646  1.00  0.00    -0.350 OA
HETATM   12  C30 UNL     1      -5.512  17.076  -3.507  1.00  0.00     0.255 A 
ENDROOT
BRANCH   1  13
HETATM   13  C13 UNL     1      -5.743  18.108  -5.991  1.00  0.00     0.125 C 
BRANCH  13  14
HETATM   14  C12 UNL     1      -5.517  16.961  -6.946  1.00  0.00     0.023 C 
BRANCH  14  15
HETATM   15  C11 UNL     1      -6.606  15.910  -6.782  1.00  0.00     0.029 C 
BRANCH  15  16
HETATM   16  C10 UNL     1      -7.717  16.225  -7.719  1.00  0.00    -0.018 C 
HETATM   17  C9  UNL     1      -8.980  16.254  -7.354  1.00  0.00     0.061 C 
BRANCH  17  18
HETATM   18  C8  UNL     1      -9.366  15.977  -6.004  1.00  0.00    -0.065 C 
HETATM   19  C7  UNL     1      -9.715  15.726  -4.856  1.00  0.00    -0.010 C 
BRANCH  19  20
HETATM   20  C6  UNL     1     -10.140  15.425  -3.542  1.00  0.00    -0.007 C 
HETATM   21  C5  UNL     1     -10.524  15.169  -2.429  1.00  0.00    -0.027 C 
BRANCH  21  22
HETATM   22  C4  UNL     1     -11.006  14.841  -1.095  1.00  0.00     0.132 A 
HETATM   23  N1  UNL     1     -11.876  15.522  -0.366  1.00  0.00    -0.350 N 
HETATM   24  C3  UNL     1     -12.204  15.095   0.810  1.00  0.00     0.134 A 
ATOM     25  H1  UNL     1     -12.286  16.381  -0.731  1.00  0.00     0.166 HD
HETATM   26  C2  UNL     1     -11.627  13.938   1.259  1.00  0.00     0.127 A 
HETATM   27  S1  UNL     1     -10.622  13.527  -0.079  1.00  0.00    -0.037 SA
BRANCH  26  28
HETATM   28  O1  UNL     1     -11.811  13.271   2.483  1.00  0.00    -0.347 OA
HETATM   29  C1  UNL     1     -12.661  13.871   3.411  1.00  0.00     0.211 C 
ENDBRANCH  26  28
ENDBRANCH  21  22
ENDBRANCH  19  20
ENDBRANCH  17  18
ENDBRANCH  15  16
ENDBRANCH  14  15
ENDBRANCH  13  14
ENDBRANCH   1  13
BRANCH   9  30
HETATM   30  C28 UNL     1      -7.236  18.823   0.420  1.00  0.00     0.172 C 
BRANCH  30  31
HETATM   31  O3  UNL     1      -7.183  20.064  -0.195  1.00  0.00    -0.400 OA
ATOM     32  H3  UNL     1      -7.936  20.620  -0.033  1.00  0.00     0.209 HD
ENDBRANCH  30  31
ENDBRANCH   9  30
BRANCH   8  33
HETATM   33  C21 UNL     1      -8.879  16.565   1.321  1.00  0.00     0.222 C 
HETATM   34  O2  UNL     1      -9.892  17.239   1.576  1.00  0.00    -0.273 OA
HETATM   35  N3  UNL     1      -8.342  15.776   2.376  1.00  0.00    -0.361 N 
ATOM     36  H3  UNL     1      -7.513  15.209   2.198  1.00  0.00     0.162 HD
BRANCH  35  37
HETATM   37  C22 UNL     1      -8.933  15.755   3.685  1.00  0.00     0.122 C 
BRANCH  37  38
HETATM   38  C23 UNL     1      -9.047  14.405   4.319  1.00  0.00     0.020 C 
BRANCH  38  39
HETATM   39  C24 UNL     1      -8.671  14.523   5.788  1.00  0.00     0.003 C 
BRANCH  39  40
HETATM   40  C25 UNL     1      -9.035  15.918   6.257  1.00  0.00     0.027 C 
BRANCH  40  41
HETATM   41  C26 UNL     1     -10.158  15.857   7.283  1.00  0.00     0.229 C 
BRANCH  41  42
HETATM   42  N4  UNL     1     -10.096  14.615   8.032  1.00  0.00    -0.079 N 
ATOM     43  H43 UNL     1      -9.900  13.817   7.428  1.00  0.00     0.274 HD
ATOM     44  H42 UNL     1      -9.264  14.568   8.619  1.00  0.00     0.274 HD
ATOM     45  H41 UNL     1     -10.950  14.481   8.573  1.00  0.00     0.274 HD
ENDBRANCH  41  42
ENDBRANCH  40  41
ENDBRANCH  39  40
ENDBRANCH  38  39
ENDBRANCH  37  38
ENDBRANCH  35  37
ENDBRANCH   8  33
TORSDOF 17
ENDMDL
MODEL 5
REMARK VINA RESULT: -8.347437581      1.996      5.057
REMARK  17 active torsions:
REMARK  status: ('A' for Active; 'I' for Inactive)
REMARK    1  A    between atoms: O1_2  and  C2_3 
REMARK    2  A    between atoms: C4_7  and  C5_8 
REMARK    3  A    between atoms: C6_9  and  C7_10 
REMARK    4  A    between atoms: C8_11  and  C9_12 
REMARK    5  A    between atoms: C10_13  and  C11_14 
REMARK    6  A    between atoms: C11_14  and  C12_15 
REMARK    7  A    between atoms: C12_15  and  C13_16 
REMARK    8  A    between atoms: C13_16  and  N2_17 
REMARK    9  A    between atoms: C20_24  and  C21_25 
REMARK       I    between atoms: C21_25  and  N3_27 
REMARK   10  A    between atoms: N3_27  and  C22_29 
REMARK   11  A    between atoms: C22_29  and  C23_30 
REMARK   12  A    between atoms: C23_30  and  C24_31 
REMARK   13  A    between atoms: C24_31  and  C25_32 
REMARK   14  A    between atoms: C25_32  and  C26_33 
REMARK   15  A    between atoms: C26_33  and  N4_34 
REMARK   16  A    between atoms: C27_38  and  C28_39 
REMARK   17  A    between atoms: C28_39  and  O3_40 
ROOT
HETATM    1  N2  UNL     1     -12.626  13.764   4.305  1.00  0.00    -0.360 N 
HETATM    2  C14 UNL     1     -11.774  13.513   5.421  1.00  0.00     0.095 A 
HETATM    3  C15 UNL     1     -10.863  14.363   5.120  1.00  0.00    -0.016 A 
HETATM    4  C16 UNL     1      -9.604  15.092   5.294  1.00  0.00     0.048 C 
HETATM    5  C17 UNL     1      -9.013  15.581   4.013  1.00  0.00     0.032 A 
HETATM    6  C18 UNL     1      -9.657  16.644   3.224  1.00  0.00     0.029 A 
HETATM    7  C19 UNL     1      -8.776  17.394   2.253  1.00  0.00     0.022 C 
HETATM    8  C20 UNL     1      -8.877  16.594   0.945  1.00  0.00     0.087 C 
HETATM    9  C27 UNL     1      -9.029  15.231   1.441  1.00  0.00     0.058 C 
HETATM   10  C29 UNL     1      -9.708  15.227   2.794  1.00  0.00     0.079 A 
HETATM   11  O4  UNL     1     -10.879  14.518   2.849  1.00  0.00    -0.350 OA
HETATM   12  C30 UNL     1     -11.694  14.769   3.918  1.00  0.00     0.255 A 
ENDROOT
BRANCH   1  13
HETATM   13  C13 UNL     1     -13.884  13.193   3.841  1.00  0.00     0.125 C 
BRANCH  13  14
HETATM   14  C12 UNL     1     -14.418  14.058   2.724  1.00  0.00     0.023 C 
BRANCH  14  15
HETATM   15  C11 UNL     1     -13.856  13.602   1.385  1.00  0.00     0.029 C 
BRANCH  15  16
HETATM   16  C10 UNL     1     -13.179  12.292   1.573  1.00  0.00    -0.018 C 
HETATM   17  C9  UNL     1     -12.106  11.933   0.902  1.00  0.00     0.061 C 
BRANCH  17  18
HETATM   18  C8  UNL     1     -11.517  12.803  -0.069  1.00  0.00    -0.065 C 
HETATM   19  C7  UNL     1     -11.001  13.529  -0.913  1.00  0.00    -0.010 C 
BRANCH  19  20
HETATM   20  C6  UNL     1     -10.393  14.344  -1.894  1.00  0.00    -0.007 C 
HETATM   21  C5  UNL     1      -9.858  15.024  -2.732  1.00  0.00    -0.027 C 
BRANCH  21  22
HETATM   22  C4  UNL     1      -9.204  15.823  -3.758  1.00  0.00     0.132 A 
HETATM   23  N1  UNL     1      -8.273  16.747  -3.583  1.00  0.00    -0.350 N 
HETATM   24  C3  UNL     1      -7.788  17.374  -4.606  1.00  0.00     0.134 A 
ATOM     25  H1  UNL     1      -7.939  16.966  -2.645  1.00  0.00     0.166 HD
HETATM   26  C2  UNL     1      -8.267  17.048  -5.846  1.00  0.00     0.127 A 
HETATM   27  S1  UNL     1      -9.415  15.828  -5.449  1.00  0.00    -0.037 SA
BRANCH  26  28
HETATM   28  O1  UNL     1      -7.910  17.574  -7.101  1.00  0.00    -0.347 OA
HETATM   29  C1  UNL     1      -6.569  17.481  -7.472  1.00  0.00     0.211 C 
ENDBRANCH  26  28
ENDBRANCH  21  22
ENDBRANCH  19  20
ENDBRANCH  17  18
ENDBRANCH  15  16
ENDBRANCH  14  15
ENDBRANCH  13  14
ENDBRANCH   1  13
BRANCH   9  30
HETATM   30  C28 UNL     1      -7.835  14.323   1.395  1.00  0.00     0.172 C 
BRANCH  30  31
HETATM   31  O3  UNL     1      -7.795  13.475   0.300  1.00  0.00    -0.400 OA
ATOM     32  H3  UNL     1      -6.943  13.398  -0.112  1.00  0.00     0.209 HD
ENDBRANCH  30  31
ENDBRANCH   9  30
BRANCH   8  33
HETATM   33  C21 UNL     1      -7.763  16.945   0.079  1.00  0.00     0.222 C 
HETATM   34  O2  UNL     1      -7.310  16.269  -0.860  1.00  0.00    -0.273 OA
HETATM   35  N3  UNL     1      -7.134  18.194   0.343  1.00  0.00    -0.361 N 
ATOM     36  H3  UNL     1      -7.484  18.774   1.105  1.00  0.00     0.162 HD
BRANCH  35  37
HETATM   37  C22 UNL     1      -6.020  18.662  -0.434  1.00  0.00     0.122 C 
BRANCH  37  38
HETATM   38  C23 UNL     1      -4.682  18.132  -0.024  1.00  0.00     0.020 C 
BRANCH  38  39
HETATM   39  C24 UNL     1      -3.986  17.565  -1.252  1.00  0.00     0.003 C 
BRANCH  39  40
HETATM   40  C25 UNL     1      -4.546  18.264  -2.476  1.00  0.00     0.027 C 
BRANCH  40  41
HETATM   41  C26 UNL     1      -3.650  18.018  -3.683  1.00  0.00     0.229 C 
BRANCH  41  42
HETATM   42  N4  UNL     1      -4.199  16.966  -4.518  1.00  0.00    -0.079 N 
ATOM     43  H43 UNL     1      -3.481  16.309  -4.823  1.00  0.00     0.274 HD
ATOM     44  H42 UNL     1      -4.778  16.320  -3.983  1.00  0.00     0.274 HD
ATOM     45  H41 UNL     1      -4.708  17.365  -5.308  1.00  0.00     0.274 HD
ENDBRANCH  41  42
ENDBRANCH  40  41
ENDBRANCH  39  40
ENDBRANCH  38  39
ENDBRANCH  37  38
ENDBRANCH  35  37
ENDBRANCH   8  33
TORSDOF 17
ENDMDL
