MODEL 1
REMARK VINA RESULT: -8.434733910      0.000      0.000
REMARK  13 active torsions:
REMARK  status: ('A' for Active; 'I' for Inactive)
REMARK    1  A    between atoms: C2_2  and  C3_3 
REMARK    2  A    between atoms: C3_3  and  O1_4 
REMARK    3  A    between atoms: O1_4  and  C4_5 
REMARK    4  A    between atoms: C6_9  and  N2_10 
REMARK       I    between atoms: N3_13  and  C9_14 
REMARK    5  A    between atoms: C9_14  and  C10_16 
REMARK    6  A    between atoms: C10_16  and  C11_17 
REMARK    7  A    between atoms: C10_16  and  N4_23 
REMARK    8  A    between atoms: C11_17  and  C12_18 
REMARK    9  A    between atoms: C12_18  and  C13_19 
REMARK       I    between atoms: N4_23  and  C17_25 
REMARK   10  A    between atoms: C17_25  and  C18_27 
REMARK   11  A    between atoms: C18_27  and  N5_28 
REMARK       I    between atoms: N5_28  and  C19_30 
REMARK   12  A    between atoms: C19_30  and  O5_32 
REMARK   13  A    between atoms: O5_32  and  C20_33 
ROOT
HETATM    1  C10 UNL     1       8.621 -15.677  -2.268  1.00  0.00     0.176 C 
ENDROOT
BRANCH   1   2
HETATM    2  C9  UNL     1       9.768 -15.310  -1.439  1.00  0.00     0.242 C 
HETATM    3  N3  UNL     1       9.751 -14.418  -0.333  1.00  0.00    -0.347 N 
HETATM    4  C8  UNL     1      11.010 -14.081   0.328  1.00  0.00     0.146 C 
HETATM    5  C25 UNL     1       8.536 -13.835   0.226  1.00  0.00     0.146 C 
HETATM    6  C7  UNL     1      10.756 -13.315   1.612  1.00  0.00     0.161 C 
HETATM    7  N2  UNL     1       9.724 -14.046   2.320  1.00  0.00    -0.214 N 
HETATM    8  C26 UNL     1       8.463 -14.303   1.679  1.00  0.00     0.161 C 
HETATM    9  O2  UNL     1      10.894 -15.844  -1.744  1.00  0.00    -0.271 OA
BRANCH   7  10
HETATM   10  C6  UNL     1       9.970 -14.508   3.635  1.00  0.00     0.680 A 
HETATM   11  N1  UNL     1       8.990 -15.096   4.369  1.00  0.00    -0.199 N 
HETATM   12  C5  UNL     1       9.203 -15.530   5.613  1.00  0.00     0.144 A 
ATOM     13  H1  UNL     1       8.063 -15.208   3.958  1.00  0.00     0.183 HD
HETATM   14  C4  UNL     1      10.455 -15.404   6.228  1.00  0.00     0.100 A 
HETATM   15  C27 UNL     1      11.414 -14.805   5.448  1.00  0.00     0.144 A 
HETATM   16  N7  UNL     1      11.176 -14.376   4.201  1.00  0.00    -0.199 N 
ATOM     17  H7  UNL     1      11.930 -13.938   3.671  1.00  0.00     0.183 HD
BRANCH  14  18
HETATM   18  O1  UNL     1      10.577 -15.868   7.486  1.00  0.00    -0.348 OA
BRANCH  18  19
HETATM   19  C3  UNL     1      10.128 -15.485   8.717  1.00  0.00     0.175 C 
BRANCH  19  20
HETATM   20  C2  UNL     1      10.313 -14.031   9.054  1.00  0.00     0.022 C 
HETATM   21  C1  UNL     1      11.771 -13.750   9.367  1.00  0.00     0.007 C 
ENDBRANCH  19  20
ENDBRANCH  18  19
ENDBRANCH  14  18
ENDBRANCH   7  10
ENDBRANCH   1   2
BRANCH   1  22
HETATM   22  C11 UNL     1       9.131 -16.359  -3.579  1.00  0.00     0.035 C 
BRANCH  22  23
HETATM   23  C12 UNL     1       8.957 -15.369  -4.682  1.00  0.00     0.011 C 
BRANCH  23  24
HETATM   24  C13 UNL     1       8.147 -15.919  -5.829  1.00  0.00    -0.051 C 
HETATM   25  C14 UNL     1       8.956 -16.118  -7.088  1.00  0.00     0.014 C 
HETATM   26  C15 UNL     1       7.091 -14.870  -6.173  1.00  0.00     0.014 C 
HETATM   27  C16 UNL     1       7.418 -17.188  -5.454  1.00  0.00     0.014 C 
ENDBRANCH  23  24
ENDBRANCH  22  23
ENDBRANCH   1  22
BRANCH   1  28
HETATM   28  N4  UNL     1       7.790 -16.689  -1.583  1.00  0.00    -0.344 N 
HETATM   29  C17 UNL     1       6.409 -16.768  -1.784  1.00  0.00     0.275 C 
HETATM   30  O3  UNL     1       5.884 -15.962  -2.572  1.00  0.00    -0.269 OA
ATOM     31  H4  UNL     1       8.238 -17.348  -0.946  1.00  0.00     0.163 HD
BRANCH  29  32
HETATM   32  C18 UNL     1       5.603 -17.779  -1.086  1.00  0.00     0.282 C 
HETATM   33  C22 UNL     1       6.080 -18.118   0.288  1.00  0.00     0.074 C 
HETATM   34  C23 UNL     1       5.470 -17.102   1.200  1.00  0.00     0.032 C 
HETATM   35  C24 UNL     1       4.591 -16.268   0.277  1.00  0.00     0.236 C 
HETATM   36  N6  UNL     1       4.297 -17.139  -0.837  1.00  0.00    -0.039 N 
ATOM     37  H62 UNL     1       3.883 -16.677  -1.647  1.00  0.00     0.280 HD
ATOM     38  H61 UNL     1       3.522 -17.784  -0.685  1.00  0.00     0.280 HD
BRANCH  32  39
HETATM   39  N5  UNL     1       5.366 -18.991  -1.856  1.00  0.00    -0.296 N 
HETATM   40  C19 UNL     1       4.473 -19.147  -2.908  1.00  0.00     0.362 C 
HETATM   41  O4  UNL     1       3.724 -18.246  -3.347  1.00  0.00    -0.238 OA
ATOM     42  H5  UNL     1       5.913 -19.812  -1.597  1.00  0.00     0.167 HD
BRANCH  40  43
HETATM   43  O5  UNL     1       4.394 -20.411  -3.535  1.00  0.00    -0.304 OA
BRANCH  43  44
HETATM   44  C20 UNL     1       3.657 -20.509  -4.723  1.00  0.00     0.176 C 
HETATM   45  C21 UNL     1       2.286 -21.037  -4.440  1.00  0.00     0.034 C 
ENDBRANCH  43  44
ENDBRANCH  40  43
ENDBRANCH  32  39
ENDBRANCH  29  32
ENDBRANCH   1  28
TORSDOF 13
ENDMDL
MODEL 2
REMARK VINA RESULT: -8.413794248      1.198      1.314
REMARK  13 active torsions:
REMARK  status: ('A' for Active; 'I' for Inactive)
REMARK    1  A    between atoms: C2_2  and  C3_3 
REMARK    2  A    between atoms: C3_3  and  O1_4 
REMARK    3  A    between atoms: O1_4  and  C4_5 
REMARK    4  A    between atoms: C6_9  and  N2_10 
REMARK       I    between atoms: N3_13  and  C9_14 
REMARK    5  A    between atoms: C9_14  and  C10_16 
REMARK    6  A    between atoms: C10_16  and  C11_17 
REMARK    7  A    between atoms: C10_16  and  N4_23 
REMARK    8  A    between atoms: C11_17  and  C12_18 
REMARK    9  A    between atoms: C12_18  and  C13_19 
REMARK       I    between atoms: N4_23  and  C17_25 
REMARK   10  A    between atoms: C17_25  and  C18_27 
REMARK   11  A    between atoms: C18_27  and  N5_28 
REMARK       I    between atoms: N5_28  and  C19_30 
REMARK   12  A    between atoms: C19_30  and  O5_32 
REMARK   13  A    between atoms: O5_32  and  C20_33 
ROOT
HETATM    1  C10 UNL     1       8.468 -16.413  -1.716  1.00  0.00     0.176 C 
ENDROOT
BRANCH   1   2
HETATM    2  C9  UNL     1       9.483 -16.615  -0.683  1.00  0.00     0.242 C 
HETATM    3  N3  UNL     1      10.039 -15.611   0.155  1.00  0.00    -0.347 N 
HETATM    4  C8  UNL     1      11.121 -15.967   1.070  1.00  0.00     0.146 C 
HETATM    5  C25 UNL     1       9.569 -14.230   0.194  1.00  0.00     0.146 C 
HETATM    6  C7  UNL     1      11.410 -14.829   2.030  1.00  0.00     0.161 C 
HETATM    7  N2  UNL     1      10.125 -14.395   2.540  1.00  0.00    -0.214 N 
HETATM    8  C26 UNL     1       9.097 -13.977   1.626  1.00  0.00     0.161 C 
HETATM    9  O2  UNL     1       9.911 -17.815  -0.522  1.00  0.00    -0.271 OA
BRANCH   7  10
HETATM   10  C6  UNL     1       9.890 -14.395   3.936  1.00  0.00     0.680 A 
HETATM   11  N1  UNL     1      10.584 -15.216   4.766  1.00  0.00    -0.199 N 
HETATM   12  C5  UNL     1      10.368 -15.233   6.083  1.00  0.00     0.144 A 
ATOM     13  H1  UNL     1      11.290 -15.837   4.372  1.00  0.00     0.183 HD
HETATM   14  C4  UNL     1       9.413 -14.401   6.681  1.00  0.00     0.100 A 
HETATM   15  C27 UNL     1       8.738 -13.590   5.801  1.00  0.00     0.144 A 
HETATM   16  N7  UNL     1       8.971 -13.590   4.482  1.00  0.00    -0.199 N 
ATOM     17  H7  UNL     1       8.436 -12.964   3.880  1.00  0.00     0.183 HD
BRANCH  14  18
HETATM   18  O1  UNL     1       9.263 -14.488   8.016  1.00  0.00    -0.348 OA
BRANCH  18  19
HETATM   19  C3  UNL     1      10.037 -14.902   9.061  1.00  0.00     0.175 C 
BRANCH  19  20
HETATM   20  C2  UNL     1      10.790 -13.819   9.784  1.00  0.00     0.022 C 
HETATM   21  C1  UNL     1      12.068 -13.485   9.037  1.00  0.00     0.007 C 
ENDBRANCH  19  20
ENDBRANCH  18  19
ENDBRANCH  14  18
ENDBRANCH   7  10
ENDBRANCH   1   2
BRANCH   1  22
HETATM   22  C11 UNL     1       9.099 -16.692  -3.118  1.00  0.00     0.035 C 
BRANCH  22  23
HETATM   23  C12 UNL     1       8.963 -15.438  -3.915  1.00  0.00     0.011 C 
BRANCH  23  24
HETATM   24  C13 UNL     1       8.397 -15.687  -5.291  1.00  0.00    -0.051 C 
HETATM   25  C14 UNL     1       9.448 -15.698  -6.374  1.00  0.00     0.014 C 
HETATM   26  C15 UNL     1       7.477 -14.511  -5.615  1.00  0.00     0.014 C 
HETATM   27  C16 UNL     1       7.560 -16.943  -5.343  1.00  0.00     0.014 C 
ENDBRANCH  23  24
ENDBRANCH  22  23
ENDBRANCH   1  22
BRANCH   1  28
HETATM   28  N4  UNL     1       7.372 -17.392  -1.563  1.00  0.00    -0.344 N 
HETATM   29  C17 UNL     1       6.060 -17.096  -1.945  1.00  0.00     0.275 C 
HETATM   30  O3  UNL     1       5.830 -15.976  -2.434  1.00  0.00    -0.269 OA
ATOM     31  H4  UNL     1       7.579 -18.309  -1.168  1.00  0.00     0.163 HD
BRANCH  29  32
HETATM   32  C18 UNL     1       4.986 -18.084  -1.778  1.00  0.00     0.282 C 
HETATM   33  C22 UNL     1       5.094 -18.921  -0.545  1.00  0.00     0.074 C 
HETATM   34  C23 UNL     1       4.446 -18.133   0.548  1.00  0.00     0.032 C 
HETATM   35  C24 UNL     1       3.920 -16.892  -0.162  1.00  0.00     0.236 C 
HETATM   36  N6  UNL     1       3.760 -17.297  -1.540  1.00  0.00    -0.039 N 
ATOM     37  H62 UNL     1       3.605 -16.533  -2.198  1.00  0.00     0.280 HD
ATOM     38  H61 UNL     1       2.889 -17.783  -1.747  1.00  0.00     0.280 HD
BRANCH  32  39
HETATM   39  N5  UNL     1       4.758 -18.923  -2.945  1.00  0.00    -0.296 N 
HETATM   40  C19 UNL     1       4.106 -18.560  -4.116  1.00  0.00     0.362 C 
HETATM   41  O4  UNL     1       3.605 -17.434  -4.334  1.00  0.00    -0.238 OA
ATOM     42  H5  UNL     1       5.114 -19.878  -2.898  1.00  0.00     0.167 HD
BRANCH  40  43
HETATM   43  O5  UNL     1       3.991 -19.524  -5.143  1.00  0.00    -0.304 OA
BRANCH  43  44
HETATM   44  C20 UNL     1       3.559 -20.810  -4.788  1.00  0.00     0.176 C 
HETATM   45  C21 UNL     1       2.083 -20.812  -4.546  1.00  0.00     0.034 C 
ENDBRANCH  43  44
ENDBRANCH  40  43
ENDBRANCH  32  39
ENDBRANCH  29  32
ENDBRANCH   1  28
TORSDOF 13
ENDMDL
MODEL 3
REMARK VINA RESULT: -8.294727183      1.002      1.236
REMARK  13 active torsions:
REMARK  status: ('A' for Active; 'I' for Inactive)
REMARK    1  A    between atoms: C2_2  and  C3_3 
REMARK    2  A    between atoms: C3_3  and  O1_4 
REMARK    3  A    between atoms: O1_4  and  C4_5 
REMARK    4  A    between atoms: C6_9  and  N2_10 
REMARK       I    between atoms: N3_13  and  C9_14 
REMARK    5  A    between atoms: C9_14  and  C10_16 
REMARK    6  A    between atoms: C10_16  and  C11_17 
REMARK    7  A    between atoms: C10_16  and  N4_23 
REMARK    8  A    between atoms: C11_17  and  C12_18 
REMARK    9  A    between atoms: C12_18  and  C13_19 
REMARK       I    between atoms: N4_23  and  C17_25 
REMARK   10  A    between atoms: C17_25  and  C18_27 
REMARK   11  A    between atoms: C18_27  and  N5_28 
REMARK       I    between atoms: N5_28  and  C19_30 
REMARK   12  A    between atoms: C19_30  and  O5_32 
REMARK   13  A    between atoms: O5_32  and  C20_33 
ROOT
HETATM    1  C10 UNL     1       8.324 -15.460  -2.546  1.00  0.00     0.176 C 
ENDROOT
BRANCH   1   2
HETATM    2  C9  UNL     1       9.456 -15.890  -1.725  1.00  0.00     0.242 C 
HETATM    3  N3  UNL     1      10.117 -15.113  -0.736  1.00  0.00    -0.347 N 
HETATM    4  C8  UNL     1      11.299 -15.660  -0.075  1.00  0.00     0.146 C 
HETATM    5  C25 UNL     1       9.666 -13.796  -0.297  1.00  0.00     0.146 C 
HETATM    6  C7  UNL     1      11.712 -14.791   1.097  1.00  0.00     0.161 C 
HETATM    7  N2  UNL     1      10.502 -14.528   1.850  1.00  0.00    -0.214 N 
HETATM    8  C26 UNL     1       9.374 -13.918   1.198  1.00  0.00     0.161 C 
HETATM    9  O2  UNL     1       9.891 -17.081  -1.921  1.00  0.00    -0.271 OA
BRANCH   7  10
HETATM   10  C6  UNL     1      10.437 -14.880   3.219  1.00  0.00     0.680 A 
HETATM   11  N1  UNL     1       9.309 -15.413   3.755  1.00  0.00    -0.199 N 
HETATM   12  C5  UNL     1       9.230 -15.743   5.046  1.00  0.00     0.144 A 
ATOM     13  H1  UNL     1       8.500 -15.566   3.155  1.00  0.00     0.183 HD
HETATM   14  C4  UNL     1      10.310 -15.558   5.918  1.00  0.00     0.100 A 
HETATM   15  C27 UNL     1      11.428 -15.016   5.330  1.00  0.00     0.144 A 
HETATM   16  N7  UNL     1      11.484 -14.692   4.031  1.00  0.00    -0.199 N 
ATOM     17  H7  UNL     1      12.343 -14.293   3.653  1.00  0.00     0.183 HD
BRANCH  14  18
HETATM   18  O1  UNL     1      10.138 -15.918   7.204  1.00  0.00    -0.348 OA
BRANCH  18  19
HETATM   19  C3  UNL     1       9.394 -15.464   8.255  1.00  0.00     0.175 C 
BRANCH  19  20
HETATM   20  C2  UNL     1      10.170 -14.833   9.378  1.00  0.00     0.022 C 
HETATM   21  C1  UNL     1      10.777 -13.520   8.919  1.00  0.00     0.007 C 
ENDBRANCH  19  20
ENDBRANCH  18  19
ENDBRANCH  14  18
ENDBRANCH   7  10
ENDBRANCH   1   2
BRANCH   1  22
HETATM   22  C11 UNL     1       8.757 -15.441  -4.048  1.00  0.00     0.035 C 
BRANCH  22  23
HETATM   23  C12 UNL     1       8.014 -16.541  -4.730  1.00  0.00     0.011 C 
BRANCH  23  24
HETATM   24  C13 UNL     1       7.732 -16.235  -6.180  1.00  0.00    -0.051 C 
HETATM   25  C14 UNL     1       6.979 -14.942  -6.380  1.00  0.00     0.014 C 
HETATM   26  C15 UNL     1       6.812 -17.339  -6.698  1.00  0.00     0.014 C 
HETATM   27  C16 UNL     1       8.987 -16.262  -7.021  1.00  0.00     0.014 C 
ENDBRANCH  23  24
ENDBRANCH  22  23
ENDBRANCH   1  22
BRANCH   1  28
HETATM   28  N4  UNL     1       7.219 -16.436  -2.455  1.00  0.00    -0.344 N 
HETATM   29  C17 UNL     1       6.516 -16.644  -1.265  1.00  0.00     0.275 C 
HETATM   30  O3  UNL     1       6.837 -15.973  -0.268  1.00  0.00    -0.269 OA
ATOM     31  H4  UNL     1       6.962 -16.972  -3.284  1.00  0.00     0.163 HD
BRANCH  29  32
HETATM   32  C18 UNL     1       5.424 -17.626  -1.197  1.00  0.00     0.282 C 
HETATM   33  C22 UNL     1       5.242 -18.266   0.140  1.00  0.00     0.074 C 
HETATM   34  C23 UNL     1       4.367 -17.342   0.925  1.00  0.00     0.032 C 
HETATM   35  C24 UNL     1       4.026 -16.236  -0.065  1.00  0.00     0.236 C 
HETATM   36  N6  UNL     1       4.183 -16.846  -1.365  1.00  0.00    -0.039 N 
ATOM     37  H62 UNL     1       4.187 -16.193  -2.149  1.00  0.00     0.280 HD
ATOM     38  H61 UNL     1       3.377 -17.381  -1.688  1.00  0.00     0.280 HD
BRANCH  32  39
HETATM   39  N5  UNL     1       5.462 -18.635  -2.245  1.00  0.00    -0.296 N 
HETATM   40  C19 UNL     1       5.057 -18.480  -3.564  1.00  0.00     0.362 C 
HETATM   41  O4  UNL     1       4.584 -17.427  -4.046  1.00  0.00    -0.238 OA
ATOM     42  H5  UNL     1       5.825 -19.552  -1.983  1.00  0.00     0.167 HD
BRANCH  40  43
HETATM   43  O5  UNL     1       5.180 -19.588  -4.434  1.00  0.00    -0.304 OA
BRANCH  43  44
HETATM   44  C20 UNL     1       4.672 -20.820  -4.002  1.00  0.00     0.176 C 
HETATM   45  C21 UNL     1       3.177 -20.812  -4.053  1.00  0.00     0.034 C 
ENDBRANCH  43  44
ENDBRANCH  40  43
ENDBRANCH  32  39
ENDBRANCH  29  32
ENDBRANCH   1  28
TORSDOF 13
ENDMDL
MODEL 4
REMARK VINA RESULT: -8.286296661      2.928     10.890
REMARK  13 active torsions:
REMARK  status: ('A' for Active; 'I' for Inactive)
REMARK    1  A    between atoms: C2_2  and  C3_3 
REMARK    2  A    between atoms: C3_3  and  O1_4 
REMARK    3  A    between atoms: O1_4  and  C4_5 
REMARK    4  A    between atoms: C6_9  and  N2_10 
REMARK       I    between atoms: N3_13  and  C9_14 
REMARK    5  A    between atoms: C9_14  and  C10_16 
REMARK    6  A    between atoms: C10_16  and  C11_17 
REMARK    7  A    between atoms: C10_16  and  N4_23 
REMARK    8  A    between atoms: C11_17  and  C12_18 
REMARK    9  A    between atoms: C12_18  and  C13_19 
REMARK       I    between atoms: N4_23  and  C17_25 
REMARK   10  A    between atoms: C17_25  and  C18_27 
REMARK   11  A    between atoms: C18_27  and  N5_28 
REMARK       I    between atoms: N5_28  and  C19_30 
REMARK   12  A    between atoms: C19_30  and  O5_32 
REMARK   13  A    between atoms: O5_32  and  C20_33 
ROOT
HETATM    1  C10 UNL     1       9.841 -14.961   3.587  1.00  0.00     0.176 C 
ENDROOT
BRANCH   1   2
HETATM    2  C9  UNL     1       8.824 -15.815   2.975  1.00  0.00     0.242 C 
HETATM    3  N3  UNL     1       7.891 -15.424   1.978  1.00  0.00    -0.347 N 
HETATM    4  C8  UNL     1       6.872 -16.377   1.545  1.00  0.00     0.146 C 
HETATM    5  C25 UNL     1       7.903 -14.125   1.314  1.00  0.00     0.146 C 
HETATM    6  C7  UNL     1       6.135 -15.861   0.324  1.00  0.00     0.161 C 
HETATM    7  N2  UNL     1       7.154 -15.401  -0.598  1.00  0.00    -0.214 N 
HETATM    8  C26 UNL     1       8.102 -14.405  -0.176  1.00  0.00     0.161 C 
HETATM    9  O2  UNL     1       8.772 -17.031   3.382  1.00  0.00    -0.271 OA
BRANCH   7  10
HETATM   10  C6  UNL     1       7.212 -15.941  -1.904  1.00  0.00     0.680 A 
HETATM   11  N1  UNL     1       6.113 -16.484  -2.490  1.00  0.00    -0.199 N 
HETATM   12  C5  UNL     1       6.153 -17.005  -3.718  1.00  0.00     0.144 A 
ATOM     13  H1  UNL     1       5.232 -16.494  -1.977  1.00  0.00     0.183 HD
HETATM   14  C4  UNL     1       7.334 -17.017  -4.471  1.00  0.00     0.100 A 
HETATM   15  C27 UNL     1       8.417 -16.457  -3.838  1.00  0.00     0.144 A 
HETATM   16  N7  UNL     1       8.353 -15.941  -2.603  1.00  0.00    -0.199 N 
ATOM     17  H7  UNL     1       9.193 -15.539  -2.186  1.00  0.00     0.183 HD
BRANCH  14  18
HETATM   18  O1  UNL     1       7.280 -17.565  -5.700  1.00  0.00    -0.348 OA
BRANCH  18  19
HETATM   19  C3  UNL     1       6.949 -17.128  -6.950  1.00  0.00     0.175 C 
BRANCH  19  20
HETATM   20  C2  UNL     1       7.456 -15.761  -7.318  1.00  0.00     0.022 C 
HETATM   21  C1  UNL     1       8.966 -15.788  -7.467  1.00  0.00     0.007 C 
ENDBRANCH  19  20
ENDBRANCH  18  19
ENDBRANCH  14  18
ENDBRANCH   7  10
ENDBRANCH   1   2
BRANCH   1  22
HETATM   22  C11 UNL     1      10.200 -15.522   5.002  1.00  0.00     0.035 C 
BRANCH  22  23
HETATM   23  C12 UNL     1       9.296 -14.850   5.980  1.00  0.00     0.011 C 
BRANCH  23  24
HETATM   24  C13 UNL     1      10.039 -14.304   7.174  1.00  0.00    -0.051 C 
HETATM   25  C14 UNL     1      10.056 -12.795   7.224  1.00  0.00     0.014 C 
HETATM   26  C15 UNL     1      11.497 -14.733   7.027  1.00  0.00     0.014 C 
HETATM   27  C16 UNL     1       9.527 -14.879   8.474  1.00  0.00     0.014 C 
ENDBRANCH  23  24
ENDBRANCH  22  23
ENDBRANCH   1  22
BRANCH   1  28
HETATM   28  N4  UNL     1      11.093 -15.005   2.805  1.00  0.00    -0.344 N 
HETATM   29  C17 UNL     1      11.783 -13.841   2.451  1.00  0.00     0.275 C 
HETATM   30  O3  UNL     1      11.320 -12.748   2.823  1.00  0.00    -0.269 OA
ATOM     31  H4  UNL     1      11.464 -15.909   2.514  1.00  0.00     0.163 HD
BRANCH  29  32
HETATM   32  C18 UNL     1      13.024 -13.910   1.666  1.00  0.00     0.282 C 
HETATM   33  C22 UNL     1      12.968 -14.831   0.491  1.00  0.00     0.074 C 
HETATM   34  C23 UNL     1      12.383 -14.035  -0.631  1.00  0.00     0.032 C 
HETATM   35  C24 UNL     1      12.208 -12.644  -0.037  1.00  0.00     0.236 C 
HETATM   36  N6  UNL     1      13.168 -12.581   1.041  1.00  0.00    -0.039 N 
ATOM     37  H62 UNL     1      13.051 -11.792   1.677  1.00  0.00     0.280 HD
ATOM     38  H61 UNL     1      14.117 -12.339   0.758  1.00  0.00     0.280 HD
BRANCH  32  39
HETATM   39  N5  UNL     1      14.218 -14.164   2.457  1.00  0.00    -0.296 N 
HETATM   40  C19 UNL     1      14.766 -13.334   3.427  1.00  0.00     0.362 C 
HETATM   41  O4  UNL     1      14.300 -12.221   3.758  1.00  0.00    -0.238 OA
ATOM     42  H5  UNL     1      14.704 -15.043   2.281  1.00  0.00     0.167 HD
BRANCH  40  43
HETATM   43  O5  UNL     1      15.936 -13.766   4.091  1.00  0.00    -0.304 OA
BRANCH  43  44
HETATM   44  C20 UNL     1      16.241 -13.182   5.328  1.00  0.00     0.176 C 
HETATM   45  C21 UNL     1      17.362 -12.203   5.176  1.00  0.00     0.034 C 
ENDBRANCH  43  44
ENDBRANCH  40  43
ENDBRANCH  32  39
ENDBRANCH  29  32
ENDBRANCH   1  28
TORSDOF 13
ENDMDL
MODEL 5
REMARK VINA RESULT: -8.258558751      2.042      4.351
REMARK  13 active torsions:
REMARK  status: ('A' for Active; 'I' for Inactive)
REMARK    1  A    between atoms: C2_2  and  C3_3 
REMARK    2  A    between atoms: C3_3  and  O1_4 
REMARK    3  A    between atoms: O1_4  and  C4_5 
REMARK    4  A    between atoms: C6_9  and  N2_10 
REMARK       I    between atoms: N3_13  and  C9_14 
REMARK    5  A    between atoms: C9_14  and  C10_16 
REMARK    6  A    between atoms: C10_16  and  C11_17 
REMARK    7  A    between atoms: C10_16  and  N4_23 
REMARK    8  A    between atoms: C11_17  and  C12_18 
REMARK    9  A    between atoms: C12_18  and  C13_19 
REMARK       I    between atoms: N4_23  and  C17_25 
REMARK   10  A    between atoms: C17_25  and  C18_27 
REMARK   11  A    between atoms: C18_27  and  N5_28 
REMARK       I    between atoms: N5_28  and  C19_30 
REMARK   12  A    between atoms: C19_30  and  O5_32 
REMARK   13  A    between atoms: O5_32  and  C20_33 
ROOT
HETATM    1  C10 UNL     1       9.234 -14.258  -1.795  1.00  0.00     0.176 C 
ENDROOT
BRANCH   1   2
HETATM    2  C9  UNL     1       8.438 -14.242  -0.568  1.00  0.00     0.242 C 
HETATM    3  N3  UNL     1       8.452 -15.231   0.453  1.00  0.00    -0.347 N 
HETATM    4  C8  UNL     1       7.518 -15.113   1.569  1.00  0.00     0.146 C 
HETATM    5  C25 UNL     1       9.379 -16.357   0.484  1.00  0.00     0.146 C 
HETATM    6  C7  UNL     1       7.847 -16.120   2.655  1.00  0.00     0.161 C 
HETATM    7  N2  UNL     1       9.276 -16.022   2.876  1.00  0.00    -0.214 N 
HETATM    8  C26 UNL     1      10.183 -16.217   1.777  1.00  0.00     0.161 C 
HETATM    9  O2  UNL     1       7.654 -13.240  -0.402  1.00  0.00    -0.271 OA
BRANCH   7  10
HETATM   10  C6  UNL     1       9.767 -15.730   4.170  1.00  0.00     0.680 A 
HETATM   11  N1  UNL     1       9.005 -15.939   5.275  1.00  0.00    -0.199 N 
HETATM   12  C5  UNL     1       9.450 -15.661   6.502  1.00  0.00     0.144 A 
ATOM     13  H1  UNL     1       8.066 -16.320   5.164  1.00  0.00     0.183 HD
HETATM   14  C4  UNL     1      10.731 -15.138   6.716  1.00  0.00     0.100 A 
HETATM   15  C27 UNL     1      11.464 -14.944   5.570  1.00  0.00     0.144 A 
HETATM   16  N7  UNL     1      10.995 -15.230   4.348  1.00  0.00    -0.199 N 
ATOM     17  H7  UNL     1      11.588 -15.063   3.534  1.00  0.00     0.183 HD
BRANCH  14  18
HETATM   18  O1  UNL     1      11.095 -14.886   7.988  1.00  0.00    -0.348 OA
BRANCH  18  19
HETATM   19  C3  UNL     1      10.582 -14.161   9.025  1.00  0.00     0.175 C 
BRANCH  19  20
HETATM   20  C2  UNL     1      11.453 -13.044   9.532  1.00  0.00     0.022 C 
HETATM   21  C1  UNL     1      11.338 -12.939  11.042  1.00  0.00     0.007 C 
ENDBRANCH  19  20
ENDBRANCH  18  19
ENDBRANCH  14  18
ENDBRANCH   7  10
ENDBRANCH   1   2
BRANCH   1  22
HETATM   22  C11 UNL     1      10.688 -14.723  -1.459  1.00  0.00     0.035 C 
BRANCH  22  23
HETATM   23  C12 UNL     1      11.543 -13.501  -1.436  1.00  0.00     0.011 C 
BRANCH  23  24
HETATM   24  C13 UNL     1      12.258 -13.319  -0.120  1.00  0.00    -0.051 C 
HETATM   25  C14 UNL     1      11.339 -12.909   1.004  1.00  0.00     0.014 C 
HETATM   26  C15 UNL     1      13.239 -12.162  -0.301  1.00  0.00     0.014 C 
HETATM   27  C16 UNL     1      13.063 -14.539   0.262  1.00  0.00     0.014 C 
ENDBRANCH  23  24
ENDBRANCH  22  23
ENDBRANCH   1  22
BRANCH   1  28
HETATM   28  N4  UNL     1       8.700 -15.254  -2.745  1.00  0.00    -0.344 N 
HETATM   29  C17 UNL     1       7.836 -14.893  -3.785  1.00  0.00     0.275 C 
HETATM   30  O3  UNL     1       7.529 -13.694  -3.902  1.00  0.00    -0.269 OA
ATOM     31  H4  UNL     1       8.968 -16.233  -2.640  1.00  0.00     0.163 HD
BRANCH  29  32
HETATM   32  C18 UNL     1       7.312 -15.904  -4.714  1.00  0.00     0.282 C 
HETATM   33  C22 UNL     1       6.918 -15.375  -6.054  1.00  0.00     0.074 C 
HETATM   34  C23 UNL     1       8.166 -15.364  -6.878  1.00  0.00     0.032 C 
HETATM   35  C24 UNL     1       9.213 -15.980  -5.959  1.00  0.00     0.236 C 
HETATM   36  N6  UNL     1       8.457 -16.782  -5.026  1.00  0.00    -0.039 N 
ATOM     37  H62 UNL     1       8.982 -17.109  -4.214  1.00  0.00     0.280 HD
ATOM     38  H61 UNL     1       8.207 -17.712  -5.362  1.00  0.00     0.280 HD
BRANCH  32  39
HETATM   39  N5  UNL     1       6.252 -16.732  -4.160  1.00  0.00    -0.296 N 
HETATM   40  C19 UNL     1       5.915 -18.022  -4.548  1.00  0.00     0.362 C 
HETATM   41  O4  UNL     1       6.487 -18.666  -5.456  1.00  0.00    -0.238 OA
ATOM     42  H5  UNL     1       5.698 -16.322  -3.408  1.00  0.00     0.167 HD
BRANCH  40  43
HETATM   43  O5  UNL     1       4.848 -18.663  -3.878  1.00  0.00    -0.304 OA
BRANCH  43  44
HETATM   44  C20 UNL     1       4.464 -18.161  -2.627  1.00  0.00     0.176 C 
HETATM   45  C21 UNL     1       4.972 -19.048  -1.535  1.00  0.00     0.034 C 
ENDBRANCH  43  44
ENDBRANCH  40  43
ENDBRANCH  32  39
ENDBRANCH  29  32
ENDBRANCH   1  28
TORSDOF 13
ENDMDL
