MODEL 1
REMARK VINA RESULT: -8.066282478      0.000      0.000
REMARK  15 active torsions:
REMARK  status: ('A' for Active; 'I' for Inactive)
REMARK    1  A    between atoms: C2_2  and  N1_3 
REMARK    2  A    between atoms: N1_3  and  C3_4 
REMARK       I    between atoms: N1_3  and  C5_6 
REMARK    3  A    between atoms: C5_6  and  C6_8 
REMARK    4  A    between atoms: C6_8  and  S1_9 
REMARK    5  A    between atoms: S1_9  and  C7_10 
REMARK    6  A    between atoms: C9_14  and  N3_15 
REMARK    7  A    between atoms: N3_15  and  C10_17 
REMARK    8  A    between atoms: C10_17  and  N4_19 
REMARK    9  A    between atoms: N4_19  and  C11_20 
REMARK   10  A    between atoms: N4_19  and  C13_24 
REMARK   11  A    between atoms: C11_20  and  C12_21 
REMARK   12  A    between atoms: C12_21  and  O2_22 
REMARK   13  A    between atoms: C13_24  and  C14_25 
REMARK       I    between atoms: C14_25  and  N5_27 
REMARK   14  A    between atoms: N5_27  and  C15_28 
REMARK   15  A    between atoms: C21_34  and  N6_35 
ROOT
HETATM    1  C7  UNL     1      10.249 -14.939   4.193  1.00  0.00     0.146 A 
HETATM    2  N2  UNL     1       9.109 -15.598   4.089  1.00  0.00    -0.344 N 
ATOM      3  H2  UNL     1       8.692 -15.972   4.941  1.00  0.00     0.167 HD
HETATM    4  C8  UNL     1       8.474 -15.803   2.945  1.00  0.00     0.123 A 
HETATM    5  C9  UNL     1       9.029 -15.289   1.710  1.00  0.00     0.094 A 
HETATM    6  C21 UNL     1      10.220 -14.630   1.895  1.00  0.00     0.134 A 
HETATM    7  N7  UNL     1      10.804 -14.465   3.120  1.00  0.00    -0.321 N 
ATOM      8  H7  UNL     1      11.690 -13.963   3.191  1.00  0.00     0.169 HD
ENDROOT
BRANCH   5   9
HETATM    9  N3  UNL     1       8.537 -15.410   0.443  1.00  0.00    -0.329 N 
ATOM     10  H3  UNL     1       8.333 -14.517  -0.005  1.00  0.00     0.168 HD
BRANCH   9  11
HETATM   11  C10 UNL     1       8.248 -16.551  -0.387  1.00  0.00     0.175 C 
HETATM   12  S2  UNL     1       9.344 -17.509  -1.049  1.00  0.00    -0.041 SA
BRANCH  11  13
HETATM   13  N4  UNL     1       6.840 -16.809  -0.520  1.00  0.00    -0.346 N 
BRANCH  13  14
HETATM   14  C11 UNL     1       6.050 -17.665   0.250  1.00  0.00     0.151 C 
BRANCH  14  15
HETATM   15  C12 UNL     1       5.192 -16.844   1.230  1.00  0.00     0.183 C 
BRANCH  15  16
HETATM   16  O2  UNL     1       4.041 -17.590   1.486  1.00  0.00    -0.399 OA
ATOM     17  H2  UNL     1       3.540 -17.112   2.136  1.00  0.00     0.209 HD
ENDBRANCH  15  16
ENDBRANCH  14  15
ENDBRANCH  13  14
BRANCH  13  18
HETATM   18  C13 UNL     1       6.180 -15.951  -1.495  1.00  0.00     0.244 C 
BRANCH  18  19
HETATM   19  C14 UNL     1       6.380 -16.761  -2.969  1.00  0.00     0.304 C 
HETATM   20  O3  UNL     1       5.794 -17.762  -2.861  1.00  0.00    -0.256 OA
HETATM   21  N5  UNL     1       7.129 -15.910  -3.586  1.00  0.00    -0.408 NA
BRANCH  21  22
HETATM   22  C15 UNL     1       7.948 -14.990  -4.272  1.00  0.00     0.167 C 
HETATM   23  C16 UNL     1       9.218 -15.705  -4.675  1.00  0.00     0.039 C 
HETATM   24  C17 UNL     1       9.134 -16.208  -6.117  1.00  0.00     0.003 C 
HETATM   25  C18 UNL     1       7.769 -16.417  -6.678  1.00  0.00     0.000 C 
HETATM   26  C19 UNL     1       6.849 -15.238  -6.465  1.00  0.00     0.003 C 
HETATM   27  C20 UNL     1       7.384 -14.290  -5.444  1.00  0.00     0.039 C 
ENDBRANCH  21  22
ENDBRANCH  18  19
ENDBRANCH  13  18
ENDBRANCH  11  13
ENDBRANCH   9  11
ENDBRANCH   5   9
BRANCH   6  28
HETATM   28  N6  UNL     1      10.987 -14.156   0.781  1.00  0.00    -0.365 N 
HETATM   29  C22 UNL     1      11.041 -12.994   0.013  1.00  0.00     0.124 C 
HETATM   30  C23 UNL     1      12.573 -12.773  -0.063  1.00  0.00     0.021 C 
HETATM   31  C24 UNL     1      13.202 -14.062   0.431  1.00  0.00     0.021 C 
HETATM   32  C25 UNL     1      12.041 -15.066   0.275  1.00  0.00     0.124 C 
ENDBRANCH   6  28
BRANCH   1  33
HETATM   33  S1  UNL     1      11.033 -14.711   5.762  1.00  0.00    -0.085 SA
BRANCH  33  34
HETATM   34  C6  UNL     1      12.819 -14.535   5.560  1.00  0.00     0.185 C 
BRANCH  34  35
HETATM   35  C5  UNL     1      13.156 -13.014   5.573  1.00  0.00     0.229 C 
HETATM   36  N1  UNL     1      14.018 -12.602   4.568  1.00  0.00    -0.352 N 
HETATM   37  O1  UNL     1      12.600 -12.371   6.458  1.00  0.00    -0.273 OA
BRANCH  36  38
HETATM   38  C2  UNL     1      14.369 -11.141   4.523  1.00  0.00     0.121 C 
HETATM   39  C1  UNL     1      13.444 -10.512   3.517  1.00  0.00     0.026 C 
ENDBRANCH  36  38
BRANCH  36  40
HETATM   40  C3  UNL     1      14.597 -13.378   3.541  1.00  0.00     0.121 C 
HETATM   41  C4  UNL     1      16.045 -13.693   3.786  1.00  0.00     0.026 C 
ENDBRANCH  36  40
ENDBRANCH  34  35
ENDBRANCH  33  34
ENDBRANCH   1  33
TORSDOF 15
ENDMDL
MODEL 2
REMARK VINA RESULT: -8.046050535      2.839     10.215
REMARK  15 active torsions:
REMARK  status: ('A' for Active; 'I' for Inactive)
REMARK    1  A    between atoms: C2_2  and  N1_3 
REMARK    2  A    between atoms: N1_3  and  C3_4 
REMARK       I    between atoms: N1_3  and  C5_6 
REMARK    3  A    between atoms: C5_6  and  C6_8 
REMARK    4  A    between atoms: C6_8  and  S1_9 
REMARK    5  A    between atoms: S1_9  and  C7_10 
REMARK    6  A    between atoms: C9_14  and  N3_15 
REMARK    7  A    between atoms: N3_15  and  C10_17 
REMARK    8  A    between atoms: C10_17  and  N4_19 
REMARK    9  A    between atoms: N4_19  and  C11_20 
REMARK   10  A    between atoms: N4_19  and  C13_24 
REMARK   11  A    between atoms: C11_20  and  C12_21 
REMARK   12  A    between atoms: C12_21  and  O2_22 
REMARK   13  A    between atoms: C13_24  and  C14_25 
REMARK       I    between atoms: C14_25  and  N5_27 
REMARK   14  A    between atoms: N5_27  and  C15_28 
REMARK   15  A    between atoms: C21_34  and  N6_35 
ROOT
HETATM    1  C7  UNL     1       7.746 -16.451  -3.920  1.00  0.00     0.146 A 
HETATM    2  N2  UNL     1       8.906 -15.823  -3.848  1.00  0.00    -0.344 N 
ATOM      3  H2  UNL     1       9.433 -15.689  -4.710  1.00  0.00     0.167 HD
HETATM    4  C8  UNL     1       9.426 -15.356  -2.723  1.00  0.00     0.123 A 
HETATM    5  C9  UNL     1       8.712 -15.523  -1.474  1.00  0.00     0.094 A 
HETATM    6  C21 UNL     1       7.525 -16.196  -1.626  1.00  0.00     0.134 A 
HETATM    7  N7  UNL     1       7.064 -16.644  -2.833  1.00  0.00    -0.321 N 
ATOM      8  H7  UNL     1       6.172 -17.136  -2.880  1.00  0.00     0.169 HD
ENDROOT
BRANCH   5   9
HETATM    9  N3  UNL     1       9.088 -15.130  -0.222  1.00  0.00    -0.329 N 
ATOM     10  H3  UNL     1       8.433 -14.484   0.219  1.00  0.00     0.168 HD
BRANCH   9  11
HETATM   11  C10 UNL     1      10.226 -15.448   0.600  1.00  0.00     0.175 C 
HETATM   12  S2  UNL     1      10.505 -16.869   1.276  1.00  0.00    -0.041 SA
BRANCH  11  13
HETATM   13  N4  UNL     1      11.162 -14.362   0.711  1.00  0.00    -0.346 N 
BRANCH  13  14
HETATM   14  C11 UNL     1      12.309 -14.139  -0.054  1.00  0.00     0.151 C 
BRANCH  14  15
HETATM   15  C12 UNL     1      12.031 -13.052  -1.109  1.00  0.00     0.183 C 
BRANCH  15  16
HETATM   16  O2  UNL     1      13.164 -12.238  -1.162  1.00  0.00    -0.399 OA
ATOM     17  H2  UNL     1      12.919 -11.400  -0.788  1.00  0.00     0.209 HD
ENDBRANCH  15  16
ENDBRANCH  14  15
ENDBRANCH  13  14
BRANCH  13  18
HETATM   18  C13 UNL     1      10.748 -13.329   1.650  1.00  0.00     0.244 C 
BRANCH  18  19
HETATM   19  C14 UNL     1      11.361 -13.849   3.141  1.00  0.00     0.304 C 
HETATM   20  O3  UNL     1      12.521 -13.831   3.028  1.00  0.00    -0.256 OA
HETATM   21  N5  UNL     1      10.255 -14.063   3.770  1.00  0.00    -0.408 NA
BRANCH  21  22
HETATM   22  C15 UNL     1       9.054 -14.302   4.469  1.00  0.00     0.167 C 
HETATM   23  C16 UNL     1       9.039 -15.755   4.887  1.00  0.00     0.039 C 
HETATM   24  C17 UNL     1       9.529 -15.919   6.328  1.00  0.00     0.003 C 
HETATM   25  C18 UNL     1      10.399 -14.838   6.869  1.00  0.00     0.000 C 
HETATM   26  C19 UNL     1       9.840 -13.452   6.646  1.00  0.00     0.003 C 
HETATM   27  C20 UNL     1       8.742 -13.450   5.635  1.00  0.00     0.039 C 
ENDBRANCH  21  22
ENDBRANCH  18  19
ENDBRANCH  13  18
ENDBRANCH  11  13
ENDBRANCH   9  11
ENDBRANCH   5   9
BRANCH   6  28
HETATM   28  N6  UNL     1       6.731 -16.568  -0.491  1.00  0.00    -0.365 N 
HETATM   29  C22 UNL     1       5.748 -15.968   0.295  1.00  0.00     0.124 C 
HETATM   30  C23 UNL     1       4.723 -17.125   0.402  1.00  0.00     0.021 C 
HETATM   31  C24 UNL     1       5.442 -18.363  -0.100  1.00  0.00     0.021 C 
HETATM   32  C25 UNL     1       6.923 -17.945   0.021  1.00  0.00     0.124 C 
ENDBRANCH   6  28
BRANCH   1  33
HETATM   33  S1  UNL     1       7.124 -17.045  -5.465  1.00  0.00    -0.085 SA
BRANCH  33  34
HETATM   34  C6  UNL     1       6.167 -18.557  -5.225  1.00  0.00     0.185 C 
BRANCH  34  35
HETATM   35  C5  UNL     1       4.659 -18.204  -5.402  1.00  0.00     0.229 C 
HETATM   36  N1  UNL     1       3.826 -18.708  -4.415  1.00  0.00    -0.352 N 
HETATM   37  O1  UNL     1       4.405 -17.509  -6.380  1.00  0.00    -0.273 OA
BRANCH  36  38
HETATM   38  C2  UNL     1       2.361 -18.388  -4.526  1.00  0.00     0.121 C 
HETATM   39  C1  UNL     1       2.129 -17.160  -3.688  1.00  0.00     0.026 C 
ENDBRANCH  36  38
BRANCH  36  40
HETATM   40  C3  UNL     1       4.177 -19.468  -3.278  1.00  0.00     0.121 C 
HETATM   41  C4  UNL     1       3.844 -20.926  -3.419  1.00  0.00     0.026 C 
ENDBRANCH  36  40
ENDBRANCH  34  35
ENDBRANCH  33  34
ENDBRANCH   1  33
TORSDOF 15
ENDMDL
MODEL 3
REMARK VINA RESULT: -8.022481827      1.741      2.138
REMARK  15 active torsions:
REMARK  status: ('A' for Active; 'I' for Inactive)
REMARK    1  A    between atoms: C2_2  and  N1_3 
REMARK    2  A    between atoms: N1_3  and  C3_4 
REMARK       I    between atoms: N1_3  and  C5_6 
REMARK    3  A    between atoms: C5_6  and  C6_8 
REMARK    4  A    between atoms: C6_8  and  S1_9 
REMARK    5  A    between atoms: S1_9  and  C7_10 
REMARK    6  A    between atoms: C9_14  and  N3_15 
REMARK    7  A    between atoms: N3_15  and  C10_17 
REMARK    8  A    between atoms: C10_17  and  N4_19 
REMARK    9  A    between atoms: N4_19  and  C11_20 
REMARK   10  A    between atoms: N4_19  and  C13_24 
REMARK   11  A    between atoms: C11_20  and  C12_21 
REMARK   12  A    between atoms: C12_21  and  O2_22 
REMARK   13  A    between atoms: C13_24  and  C14_25 
REMARK       I    between atoms: C14_25  and  N5_27 
REMARK   14  A    between atoms: N5_27  and  C15_28 
REMARK   15  A    between atoms: C21_34  and  N6_35 
ROOT
HETATM    1  C7  UNL     1      10.416 -14.795   4.251  1.00  0.00     0.146 A 
HETATM    2  N2  UNL     1       9.196 -15.294   4.160  1.00  0.00    -0.344 N 
ATOM      3  H2  UNL     1       8.769 -15.671   5.006  1.00  0.00     0.167 HD
HETATM    4  C8  UNL     1       8.494 -15.333   3.038  1.00  0.00     0.123 A 
HETATM    5  C9  UNL     1       9.062 -14.807   1.813  1.00  0.00     0.094 A 
HETATM    6  C21 UNL     1      10.334 -14.321   1.983  1.00  0.00     0.134 A 
HETATM    7  N7  UNL     1      10.985 -14.320   3.186  1.00  0.00    -0.321 N 
ATOM      8  H7  UNL     1      11.930 -13.942   3.246  1.00  0.00     0.169 HD
ENDROOT
BRANCH   5   9
HETATM    9  N3  UNL     1       8.507 -14.773   0.567  1.00  0.00    -0.329 N 
ATOM     10  H3  UNL     1       8.828 -13.991  -0.004  1.00  0.00     0.168 HD
BRANCH   9  11
HETATM   11  C10 UNL     1       7.557 -15.624  -0.102  1.00  0.00     0.175 C 
HETATM   12  S2  UNL     1       6.056 -15.885   0.379  1.00  0.00    -0.041 SA
BRANCH  11  13
HETATM   13  N4  UNL     1       8.069 -16.189  -1.321  1.00  0.00    -0.346 N 
BRANCH  13  14
HETATM   14  C11 UNL     1       9.320 -16.773  -1.535  1.00  0.00     0.151 C 
BRANCH  14  15
HETATM   15  C12 UNL     1       9.460 -18.039  -0.670  1.00  0.00     0.183 C 
BRANCH  15  16
HETATM   16  O2  UNL     1      10.444 -17.775   0.283  1.00  0.00    -0.399 OA
ATOM     17  H2  UNL     1      11.260 -18.121  -0.059  1.00  0.00     0.209 HD
ENDBRANCH  15  16
ENDBRANCH  14  15
ENDBRANCH  13  14
BRANCH  13  18
HETATM   18  C13 UNL     1       7.083 -16.260  -2.391  1.00  0.00     0.244 C 
BRANCH  18  19
HETATM   19  C14 UNL     1       7.696 -15.235  -3.593  1.00  0.00     0.304 C 
HETATM   20  O3  UNL     1       7.729 -14.173  -3.115  1.00  0.00    -0.256 OA
HETATM   21  N5  UNL     1       7.847 -16.088  -4.550  1.00  0.00    -0.408 NA
BRANCH  21  22
HETATM   22  C15 UNL     1       8.018 -17.007  -5.605  1.00  0.00     0.167 C 
HETATM   23  C16 UNL     1       6.714 -17.748  -5.795  1.00  0.00     0.039 C 
HETATM   24  C17 UNL     1       5.880 -17.118  -6.913  1.00  0.00     0.003 C 
HETATM   25  C18 UNL     1       6.158 -15.691  -7.236  1.00  0.00     0.000 C 
HETATM   26  C19 UNL     1       7.627 -15.396  -7.429  1.00  0.00     0.003 C 
HETATM   27  C20 UNL     1       8.490 -16.497  -6.909  1.00  0.00     0.039 C 
ENDBRANCH  21  22
ENDBRANCH  18  19
ENDBRANCH  13  18
ENDBRANCH  11  13
ENDBRANCH   9  11
ENDBRANCH   5   9
BRANCH   6  28
HETATM   28  N6  UNL     1      11.112 -13.869   0.866  1.00  0.00    -0.365 N 
HETATM   29  C22 UNL     1      11.242 -12.689   0.136  1.00  0.00     0.124 C 
HETATM   30  C23 UNL     1      12.784 -12.588   0.028  1.00  0.00     0.021 C 
HETATM   31  C24 UNL     1      13.319 -13.940   0.463  1.00  0.00     0.021 C 
HETATM   32  C25 UNL     1      12.077 -14.842   0.303  1.00  0.00     0.124 C 
ENDBRANCH   6  28
BRANCH   1  33
HETATM   33  S1  UNL     1      11.286 -14.783   5.791  1.00  0.00    -0.085 SA
BRANCH  33  34
HETATM   34  C6  UNL     1      13.059 -14.580   5.518  1.00  0.00     0.185 C 
BRANCH  34  35
HETATM   35  C5  UNL     1      13.388 -13.059   5.610  1.00  0.00     0.229 C 
HETATM   36  N1  UNL     1      14.230 -12.587   4.614  1.00  0.00    -0.352 N 
HETATM   37  O1  UNL     1      12.844 -12.470   6.538  1.00  0.00    -0.273 OA
BRANCH  36  38
HETATM   38  C2  UNL     1      14.572 -11.123   4.645  1.00  0.00     0.121 C 
HETATM   39  C1  UNL     1      13.604 -10.441   3.717  1.00  0.00     0.026 C 
ENDBRANCH  36  38
BRANCH  36  40
HETATM   40  C3  UNL     1      14.795 -13.301   3.535  1.00  0.00     0.121 C 
HETATM   41  C4  UNL     1      16.227 -13.686   3.771  1.00  0.00     0.026 C 
ENDBRANCH  36  40
ENDBRANCH  34  35
ENDBRANCH  33  34
ENDBRANCH   1  33
TORSDOF 15
ENDMDL
MODEL 4
REMARK VINA RESULT: -7.966128649      1.972      2.627
REMARK  15 active torsions:
REMARK  status: ('A' for Active; 'I' for Inactive)
REMARK    1  A    between atoms: C2_2  and  N1_3 
REMARK    2  A    between atoms: N1_3  and  C3_4 
REMARK       I    between atoms: N1_3  and  C5_6 
REMARK    3  A    between atoms: C5_6  and  C6_8 
REMARK    4  A    between atoms: C6_8  and  S1_9 
REMARK    5  A    between atoms: S1_9  and  C7_10 
REMARK    6  A    between atoms: C9_14  and  N3_15 
REMARK    7  A    between atoms: N3_15  and  C10_17 
REMARK    8  A    between atoms: C10_17  and  N4_19 
REMARK    9  A    between atoms: N4_19  and  C11_20 
REMARK   10  A    between atoms: N4_19  and  C13_24 
REMARK   11  A    between atoms: C11_20  and  C12_21 
REMARK   12  A    between atoms: C12_21  and  O2_22 
REMARK   13  A    between atoms: C13_24  and  C14_25 
REMARK       I    between atoms: C14_25  and  N5_27 
REMARK   14  A    between atoms: N5_27  and  C15_28 
REMARK   15  A    between atoms: C21_34  and  N6_35 
ROOT
HETATM    1  C7  UNL     1      10.335 -14.560   3.913  1.00  0.00     0.146 A 
HETATM    2  N2  UNL     1       9.163 -15.169   3.927  1.00  0.00    -0.344 N 
ATOM      3  H2  UNL     1       8.771 -15.433   4.830  1.00  0.00     0.167 HD
HETATM    4  C8  UNL     1       8.466 -15.457   2.839  1.00  0.00     0.123 A 
HETATM    5  C9  UNL     1       8.983 -15.100   1.534  1.00  0.00     0.094 A 
HETATM    6  C21 UNL     1      10.209 -14.485   1.599  1.00  0.00     0.134 A 
HETATM    7  N7  UNL     1      10.859 -14.226   2.773  1.00  0.00    -0.321 N 
ATOM      8  H7  UNL     1      11.768 -13.763   2.754  1.00  0.00     0.169 HD
ENDROOT
BRANCH   5   9
HETATM    9  N3  UNL     1       8.426 -15.324   0.309  1.00  0.00    -0.329 N 
ATOM     10  H3  UNL     1       8.118 -14.475  -0.164  1.00  0.00     0.168 HD
BRANCH   9  11
HETATM   11  C10 UNL     1       8.187 -16.525  -0.449  1.00  0.00     0.175 C 
HETATM   12  S2  UNL     1       9.323 -17.475  -1.051  1.00  0.00    -0.041 SA
BRANCH  11  13
HETATM   13  N4  UNL     1       6.791 -16.849  -0.566  1.00  0.00    -0.346 N 
BRANCH  13  14
HETATM   14  C11 UNL     1       6.051 -17.742   0.212  1.00  0.00     0.151 C 
BRANCH  14  15
HETATM   15  C12 UNL     1       5.341 -16.981   1.348  1.00  0.00     0.183 C 
BRANCH  15  16
HETATM   16  O2  UNL     1       4.073 -17.546   1.485  1.00  0.00    -0.399 OA
ATOM     17  H2  UNL     1       3.646 -17.095   2.203  1.00  0.00     0.209 HD
ENDBRANCH  15  16
ENDBRANCH  14  15
ENDBRANCH  13  14
BRANCH  13  18
HETATM   18  C13 UNL     1       6.080 -16.023  -1.532  1.00  0.00     0.244 C 
BRANCH  18  19
HETATM   19  C14 UNL     1       6.352 -16.789  -3.019  1.00  0.00     0.304 C 
HETATM   20  O3  UNL     1       5.798 -17.812  -2.952  1.00  0.00    -0.256 OA
HETATM   21  N5  UNL     1       7.089 -15.898  -3.592  1.00  0.00    -0.408 NA
BRANCH  21  22
HETATM   22  C15 UNL     1       7.896 -14.935  -4.231  1.00  0.00     0.167 C 
HETATM   23  C16 UNL     1       9.215 -15.585  -4.578  1.00  0.00     0.039 C 
HETATM   24  C17 UNL     1       9.223 -16.078  -6.027  1.00  0.00     0.003 C 
HETATM   25  C18 UNL     1       7.899 -16.344  -6.654  1.00  0.00     0.000 C 
HETATM   26  C19 UNL     1       6.914 -15.212  -6.476  1.00  0.00     0.003 C 
HETATM   27  C20 UNL     1       7.356 -14.249  -5.423  1.00  0.00     0.039 C 
ENDBRANCH  21  22
ENDBRANCH  18  19
ENDBRANCH  13  18
ENDBRANCH  11  13
ENDBRANCH   9  11
ENDBRANCH   5   9
BRANCH   6  28
HETATM   28  N6  UNL     1      10.943 -14.165   0.410  1.00  0.00    -0.365 N 
HETATM   29  C22 UNL     1      10.764 -13.334  -0.696  1.00  0.00     0.124 C 
HETATM   30  C23 UNL     1      12.171 -12.694  -0.803  1.00  0.00     0.021 C 
HETATM   31  C24 UNL     1      13.070 -13.516   0.102  1.00  0.00     0.021 C 
HETATM   32  C25 UNL     1      12.262 -14.822   0.255  1.00  0.00     0.124 C 
ENDBRANCH   6  28
BRANCH   1  33
HETATM   33  S1  UNL     1      11.203 -14.213   5.414  1.00  0.00    -0.085 SA
BRANCH  33  34
HETATM   34  C6  UNL     1      10.047 -14.039   6.790  1.00  0.00     0.185 C 
BRANCH  34  35
HETATM   35  C5  UNL     1      10.810 -14.386   8.104  1.00  0.00     0.229 C 
HETATM   36  N1  UNL     1      11.298 -13.289   8.798  1.00  0.00    -0.352 N 
HETATM   37  O1  UNL     1      10.864 -15.583   8.367  1.00  0.00    -0.273 OA
BRANCH  36  38
HETATM   38  C2  UNL     1      12.032 -13.562  10.082  1.00  0.00     0.121 C 
HETATM   39  C1  UNL     1      11.196 -12.970  11.184  1.00  0.00     0.026 C 
ENDBRANCH  36  38
BRANCH  36  40
HETATM   40  C3  UNL     1      11.167 -11.921   8.475  1.00  0.00     0.121 C 
HETATM   41  C4  UNL     1      12.408 -11.342   7.856  1.00  0.00     0.026 C 
ENDBRANCH  36  40
ENDBRANCH  34  35
ENDBRANCH  33  34
ENDBRANCH   1  33
TORSDOF 15
ENDMDL
MODEL 5
REMARK VINA RESULT: -7.941240205      2.269      3.533
REMARK  15 active torsions:
REMARK  status: ('A' for Active; 'I' for Inactive)
REMARK    1  A    between atoms: C2_2  and  N1_3 
REMARK    2  A    between atoms: N1_3  and  C3_4 
REMARK       I    between atoms: N1_3  and  C5_6 
REMARK    3  A    between atoms: C5_6  and  C6_8 
REMARK    4  A    between atoms: C6_8  and  S1_9 
REMARK    5  A    between atoms: S1_9  and  C7_10 
REMARK    6  A    between atoms: C9_14  and  N3_15 
REMARK    7  A    between atoms: N3_15  and  C10_17 
REMARK    8  A    between atoms: C10_17  and  N4_19 
REMARK    9  A    between atoms: N4_19  and  C11_20 
REMARK   10  A    between atoms: N4_19  and  C13_24 
REMARK   11  A    between atoms: C11_20  and  C12_21 
REMARK   12  A    between atoms: C12_21  and  O2_22 
REMARK   13  A    between atoms: C13_24  and  C14_25 
REMARK       I    between atoms: C14_25  and  N5_27 
REMARK   14  A    between atoms: N5_27  and  C15_28 
REMARK   15  A    between atoms: C21_34  and  N6_35 
ROOT
HETATM    1  C7  UNL     1      11.989 -13.887   0.461  1.00  0.00     0.146 A 
HETATM    2  N2  UNL     1      11.438 -13.593  -0.703  1.00  0.00    -0.344 N 
ATOM      3  H2  UNL     1      12.042 -13.231  -1.441  1.00  0.00     0.167 HD
HETATM    4  C8  UNL     1      10.150 -13.739  -0.969  1.00  0.00     0.123 A 
HETATM    5  C9  UNL     1       9.255 -14.251   0.049  1.00  0.00     0.094 A 
HETATM    6  C21 UNL     1       9.897 -14.519   1.233  1.00  0.00     0.134 A 
HETATM    7  N7  UNL     1      11.239 -14.337   1.420  1.00  0.00    -0.321 N 
ATOM      8  H7  UNL     1      11.656 -14.558   2.324  1.00  0.00     0.169 HD
ENDROOT
BRANCH   5   9
HETATM    9  N3  UNL     1       7.908 -14.455  -0.029  1.00  0.00    -0.329 N 
ATOM     10  H3  UNL     1       7.356 -13.618   0.155  1.00  0.00     0.168 HD
BRANCH   9  11
HETATM   11  C10 UNL     1       7.113 -15.619  -0.320  1.00  0.00     0.175 C 
HETATM   12  S2  UNL     1       5.834 -16.093   0.513  1.00  0.00    -0.041 SA
BRANCH  11  13
HETATM   13  N4  UNL     1       7.540 -16.310  -1.507  1.00  0.00    -0.346 N 
BRANCH  13  14
HETATM   14  C11 UNL     1       8.609 -17.198  -1.643  1.00  0.00     0.151 C 
BRANCH  14  15
HETATM   15  C12 UNL     1       8.845 -17.939  -0.313  1.00  0.00     0.183 C 
BRANCH  15  16
HETATM   16  O2  UNL     1      10.219 -17.917  -0.074  1.00  0.00    -0.399 OA
ATOM     17  H2  UNL     1      10.373 -18.443   0.702  1.00  0.00     0.209 HD
ENDBRANCH  15  16
ENDBRANCH  14  15
ENDBRANCH  13  14
BRANCH  13  18
HETATM   18  C13 UNL     1       6.640 -16.136  -2.639  1.00  0.00     0.244 C 
BRANCH  18  19
HETATM   19  C14 UNL     1       7.521 -15.190  -3.733  1.00  0.00     0.304 C 
HETATM   20  O3  UNL     1       7.596 -14.134  -3.247  1.00  0.00    -0.256 OA
HETATM   21  N5  UNL     1       7.719 -16.060  -4.665  1.00  0.00    -0.408 NA
BRANCH  21  22
HETATM   22  C15 UNL     1       7.944 -17.001  -5.691  1.00  0.00     0.167 C 
HETATM   23  C16 UNL     1       6.621 -17.654  -6.023  1.00  0.00     0.039 C 
HETATM   24  C17 UNL     1       5.962 -16.981  -7.230  1.00  0.00     0.003 C 
HETATM   25  C18 UNL     1       6.370 -15.579  -7.524  1.00  0.00     0.000 C 
HETATM   26  C19 UNL     1       7.868 -15.386  -7.553  1.00  0.00     0.003 C 
HETATM   27  C20 UNL     1       8.591 -16.538  -6.935  1.00  0.00     0.039 C 
ENDBRANCH  21  22
ENDBRANCH  18  19
ENDBRANCH  13  18
ENDBRANCH  11  13
ENDBRANCH   9  11
ENDBRANCH   5   9
BRANCH   6  28
HETATM   28  N6  UNL     1       9.165 -14.917   2.400  1.00  0.00    -0.365 N 
HETATM   29  C22 UNL     1       8.849 -16.117   3.035  1.00  0.00     0.124 C 
HETATM   30  C23 UNL     1       9.134 -15.743   4.511  1.00  0.00     0.021 C 
HETATM   31  C24 UNL     1       9.281 -14.234   4.535  1.00  0.00     0.021 C 
HETATM   32  C25 UNL     1       8.589 -13.823   3.218  1.00  0.00     0.124 C 
ENDBRANCH   6  28
BRANCH   1  33
HETATM   33  S1  UNL     1      13.722 -13.660   0.736  1.00  0.00    -0.085 SA
BRANCH  33  34
HETATM   34  C6  UNL     1      14.111 -13.801   2.493  1.00  0.00     0.185 C 
BRANCH  34  35
HETATM   35  C5  UNL     1      13.679 -12.474   3.188  1.00  0.00     0.229 C 
HETATM   36  N1  UNL     1      13.656 -12.526   4.573  1.00  0.00    -0.352 N 
HETATM   37  O1  UNL     1      13.434 -11.549   2.422  1.00  0.00    -0.273 OA
BRANCH  36  38
HETATM   38  C2  UNL     1      13.259 -11.270   5.299  1.00  0.00     0.121 C 
HETATM   39  C1  UNL     1      14.531 -10.659   5.818  1.00  0.00     0.026 C 
ENDBRANCH  36  38
BRANCH  36  40
HETATM   40  C3  UNL     1      13.993 -13.609   5.413  1.00  0.00     0.121 C 
HETATM   41  C4  UNL     1      12.814 -14.470   5.766  1.00  0.00     0.026 C 
ENDBRANCH  36  40
ENDBRANCH  34  35
ENDBRANCH  33  34
ENDBRANCH   1  33
TORSDOF 15
ENDMDL
