MODEL 1
REMARK VINA RESULT: -7.380928000      0.000      0.000
REMARK  11 active torsions:
REMARK  status: ('A' for Active; 'I' for Inactive)
REMARK    1  A    between atoms: N1_1  and  C1_4 
REMARK    2  A    between atoms: C2_7  and  N3_8 
REMARK    3  A    between atoms: N5_15  and  C5_16 
REMARK    4  A    between atoms: C5_16  and  C6_17 
REMARK    5  A    between atoms: C6_17  and  S1_18 
REMARK    6  A    between atoms: S1_18  and  C7_19 
REMARK    7  A    between atoms: C7_19  and  C8_20 
REMARK    8  A    between atoms: C8_20  and  O1_21 
REMARK    9  A    between atoms: C10_27  and  N8_28 
REMARK   10  A    between atoms: N11_37  and  N12_39 
REMARK   11  A    between atoms: N12_39  and  O3_41 
ROOT
HETATM    1  C1  UNL     1     -29.846  -8.341   8.859  1.00  0.00     0.679 A 
HETATM    2  N2  UNL     1     -28.564  -8.100   9.178  1.00  0.00    -0.175 N 
ATOM      3  H2  UNL     1     -28.343  -7.792  10.125  1.00  0.00     0.186 HD
HETATM    4  C2  UNL     1     -27.550  -8.249   8.285  1.00  0.00     0.146 A 
HETATM    5  C3  UNL     1     -27.906  -8.667   7.029  1.00  0.00     0.149 A 
HETATM    6  C4  UNL     1     -29.259  -8.914   6.715  1.00  0.00     0.171 A 
HETATM    7  N4  UNL     1     -30.216  -8.749   7.634  1.00  0.00    -0.174 N 
ATOM      8  H4  UNL     1     -31.195  -8.926   7.411  1.00  0.00     0.186 HD
HETATM    9  N5  UNL     1     -29.293  -9.300   5.421  1.00  0.00    -0.162 N 
HETATM   10  C9  UNL     1     -28.050  -9.301   4.948  1.00  0.00     0.713 A 
HETATM   11  N6  UNL     1     -27.695  -9.613   3.666  1.00  0.00    -0.094 N 
ATOM     12  H6  UNL     1     -28.242 -10.333   3.194  1.00  0.00     0.208 HD
HETATM   13  N7  UNL     1     -26.687  -9.055   2.973  1.00  0.00     0.007 N 
HETATM   14  C10 UNL     1     -26.696  -8.937   1.634  1.00  0.00     0.717 A 
HETATM   15  N9  UNL     1     -25.555  -8.340   1.259  1.00  0.00    -0.137 N 
ATOM     16  H9  UNL     1     -25.265  -8.110   0.309  1.00  0.00     0.189 HD
HETATM   17  C11 UNL     1     -24.865  -8.106   2.403  1.00  0.00     0.364 A 
HETATM   18  O2  UNL     1     -23.726  -7.555   2.508  1.00  0.00    -0.244 OA
HETATM   19  N10 UNL     1     -25.566  -8.547   3.451  1.00  0.00    -0.144 N 
HETATM   20  C12 UNL     1     -25.148  -8.461   4.755  1.00  0.00     0.220 C 
HETATM   21  N11 UNL     1     -23.996  -7.998   4.958  1.00  0.00    -0.260 N 
ATOM     22  H11 UNL     1     -23.478  -7.727   4.122  1.00  0.00     0.190 HD
HETATM   23  C13 UNL     1     -25.854  -8.840   5.879  1.00  0.00     0.314 C 
HETATM   24  O4  UNL     1     -25.184  -9.134   6.876  1.00  0.00    -0.263 OA
HETATM   25  N13 UNL     1     -27.193  -8.912   5.945  1.00  0.00    -0.099 N 
ENDROOT
BRANCH   9  26
HETATM   26  C5  UNL     1     -30.517  -9.634   4.712  1.00  0.00     0.159 C 
BRANCH  26  27
HETATM   27  C6  UNL     1     -30.206  -9.957   3.284  1.00  0.00     0.094 C 
BRANCH  27  28
HETATM   28  S1  UNL     1     -30.543 -11.680   2.848  1.00  0.00    -0.165 SA
BRANCH  28  29
HETATM   29  C7  UNL     1     -29.197 -12.225   1.750  1.00  0.00     0.100 C 
BRANCH  29  30
HETATM   30  C8  UNL     1     -29.357 -13.727   1.526  1.00  0.00     0.174 C 
BRANCH  30  31
HETATM   31  O1  UNL     1     -30.438 -14.186   2.300  1.00  0.00    -0.400 OA
ATOM     32  H1  UNL     1     -31.136 -13.542   2.260  1.00  0.00     0.209 HD
ENDBRANCH  30  31
ENDBRANCH  29  30
ENDBRANCH  28  29
ENDBRANCH  27  28
ENDBRANCH  26  27
ENDBRANCH   9  26
BRANCH   4  33
HETATM   33  N3  UNL     1     -26.386  -7.948   8.696  1.00  0.00    -0.383 N 
ATOM     34  H32 UNL     1     -25.967  -7.020   8.742  1.00  0.00     0.157 HD
ATOM     35  H31 UNL     1     -25.816  -8.718   9.048  1.00  0.00     0.157 HD
ENDBRANCH   4  33
BRANCH   1  36
HETATM   36  N1  UNL     1     -30.801  -8.197   9.717  1.00  0.00    -0.234 N 
ATOM     37  H12 UNL     1     -31.560  -8.876   9.656  1.00  0.00     0.174 HD
ATOM     38  H11 UNL     1     -30.793  -7.452  10.413  1.00  0.00     0.174 HD
ENDBRANCH   1  36
BRANCH  14  39
HETATM   39  N8  UNL     1     -27.617  -9.313   0.797  1.00  0.00    -0.231 N 
ATOM     40  H82 UNL     1     -27.566 -10.176   0.255  1.00  0.00     0.174 HD
ATOM     41  H81 UNL     1     -28.488  -8.838   0.558  1.00  0.00     0.174 HD
ENDBRANCH  14  39
BRANCH  21  42
HETATM   42  N12 UNL     1     -23.339  -7.806   6.145  1.00  0.00    -0.208 N 
ATOM     43  H12 UNL     1     -22.828  -8.581   6.568  1.00  0.00     0.215 HD
BRANCH  42  44
HETATM   44  O3  UNL     1     -23.360  -6.589   6.770  1.00  0.00    -0.274 OA
ATOM     45  H3  UNL     1     -22.868  -5.855   6.422  1.00  0.00     0.246 HD
ENDBRANCH  42  44
ENDBRANCH  21  42
TORSDOF 11
ENDMDL
MODEL 2
REMARK VINA RESULT: -7.119088416      4.061      8.398
REMARK  11 active torsions:
REMARK  status: ('A' for Active; 'I' for Inactive)
REMARK    1  A    between atoms: N1_1  and  C1_4 
REMARK    2  A    between atoms: C2_7  and  N3_8 
REMARK    3  A    between atoms: N5_15  and  C5_16 
REMARK    4  A    between atoms: C5_16  and  C6_17 
REMARK    5  A    between atoms: C6_17  and  S1_18 
REMARK    6  A    between atoms: S1_18  and  C7_19 
REMARK    7  A    between atoms: C7_19  and  C8_20 
REMARK    8  A    between atoms: C8_20  and  O1_21 
REMARK    9  A    between atoms: C10_27  and  N8_28 
REMARK   10  A    between atoms: N11_37  and  N12_39 
REMARK   11  A    between atoms: N12_39  and  O3_41 
ROOT
HETATM    1  C1  UNL     1     -24.537  -8.111   4.128  1.00  0.00     0.679 A 
HETATM    2  N2  UNL     1     -25.778  -8.566   4.362  1.00  0.00    -0.175 N 
ATOM      3  H2  UNL     1     -26.361  -8.835   3.569  1.00  0.00     0.186 HD
HETATM    4  C2  UNL     1     -26.288  -8.680   5.618  1.00  0.00     0.146 A 
HETATM    5  C3  UNL     1     -25.460  -8.308   6.643  1.00  0.00     0.149 A 
HETATM    6  C4  UNL     1     -24.160  -7.831   6.375  1.00  0.00     0.171 A 
HETATM    7  N4  UNL     1     -23.711  -7.738   5.119  1.00  0.00    -0.174 N 
ATOM      8  H4  UNL     1     -22.771  -7.393   4.921  1.00  0.00     0.186 HD
HETATM    9  N5  UNL     1     -23.598  -7.542   7.569  1.00  0.00    -0.162 N 
HETATM   10  C9  UNL     1     -24.477  -7.817   8.527  1.00  0.00     0.713 A 
HETATM   11  N6  UNL     1     -24.272  -7.628   9.864  1.00  0.00    -0.094 N 
ATOM     12  H6  UNL     1     -23.325  -7.775  10.215  1.00  0.00     0.208 HD
HETATM   13  N7  UNL     1     -25.208  -7.264  10.758  1.00  0.00     0.007 N 
HETATM   14  C10 UNL     1     -24.926  -6.560  11.868  1.00  0.00     0.717 A 
HETATM   15  N9  UNL     1     -26.069  -6.362  12.540  1.00  0.00    -0.137 N 
ATOM     16  H9  UNL     1     -26.186  -5.863  13.421  1.00  0.00     0.189 HD
HETATM   17  C11 UNL     1     -27.039  -6.963  11.806  1.00  0.00     0.364 A 
HETATM   18  O2  UNL     1     -28.278  -7.018  12.079  1.00  0.00    -0.244 OA
HETATM   19  N10 UNL     1     -26.503  -7.514  10.714  1.00  0.00    -0.144 N 
HETATM   20  C12 UNL     1     -27.215  -8.200   9.762  1.00  0.00     0.220 C 
HETATM   21  N11 UNL     1     -28.442  -8.373   9.980  1.00  0.00    -0.260 N 
ATOM     22  H11 UNL     1     -28.793  -7.983  10.854  1.00  0.00     0.190 HD
HETATM   23  C13 UNL     1     -26.727  -8.733   8.587  1.00  0.00     0.314 C 
HETATM   24  O4  UNL     1     -27.360  -9.683   8.110  1.00  0.00    -0.263 OA
HETATM   25  N13 UNL     1     -25.628  -8.294   7.952  1.00  0.00    -0.099 N 
ENDROOT
BRANCH   9  26
HETATM   26  C5  UNL     1     -22.255  -7.007   7.719  1.00  0.00     0.159 C 
BRANCH  26  27
HETATM   27  C6  UNL     1     -22.287  -5.514   7.615  1.00  0.00     0.094 C 
BRANCH  27  28
HETATM   28  S1  UNL     1     -22.128  -4.680   9.212  1.00  0.00    -0.165 SA
BRANCH  28  29
HETATM   29  C7  UNL     1     -23.640  -3.694   9.452  1.00  0.00     0.100 C 
BRANCH  29  30
HETATM   30  C8  UNL     1     -24.660  -4.143   8.407  1.00  0.00     0.174 C 
BRANCH  30  31
HETATM   31  O1  UNL     1     -25.088  -3.016   7.682  1.00  0.00    -0.400 OA
ATOM     32  H1  UNL     1     -25.173  -2.283   8.280  1.00  0.00     0.209 HD
ENDBRANCH  30  31
ENDBRANCH  29  30
ENDBRANCH  28  29
ENDBRANCH  27  28
ENDBRANCH  26  27
ENDBRANCH   9  26
BRANCH   4  33
HETATM   33  N3  UNL     1     -27.490  -9.084   5.705  1.00  0.00    -0.383 N 
ATOM     34  H32 UNL     1     -28.008  -9.635   5.021  1.00  0.00     0.157 HD
ATOM     35  H31 UNL     1     -27.983  -8.857   6.569  1.00  0.00     0.157 HD
ENDBRANCH   4  33
BRANCH   1  36
HETATM   36  N1  UNL     1     -24.062  -8.008   2.930  1.00  0.00    -0.234 N 
ATOM     37  H12 UNL     1     -23.685  -8.865   2.526  1.00  0.00     0.174 HD
ATOM     38  H11 UNL     1     -24.069  -7.124   2.423  1.00  0.00     0.174 HD
ENDBRANCH   1  36
BRANCH  14  39
HETATM   39  N8  UNL     1     -23.771  -6.121  12.274  1.00  0.00    -0.231 N 
ATOM     40  H82 UNL     1     -23.018  -5.851  11.641  1.00  0.00     0.174 HD
ATOM     41  H81 UNL     1     -23.447  -5.983  13.232  1.00  0.00     0.174 HD
ENDBRANCH  14  39
BRANCH  21  42
HETATM   42  N12 UNL     1     -29.373  -9.015   9.206  1.00  0.00    -0.208 N 
ATOM     43  H12 UNL     1     -29.768  -8.538   8.395  1.00  0.00     0.215 HD
BRANCH  42  44
HETATM   44  O3  UNL     1     -29.781 -10.285   9.507  1.00  0.00    -0.274 OA
ATOM     45  H3  UNL     1     -30.679 -10.461   9.760  1.00  0.00     0.246 HD
ENDBRANCH  42  44
ENDBRANCH  21  42
TORSDOF 11
ENDMDL
MODEL 3
REMARK VINA RESULT: -7.096384312      2.945      7.673
REMARK  11 active torsions:
REMARK  status: ('A' for Active; 'I' for Inactive)
REMARK    1  A    between atoms: N1_1  and  C1_4 
REMARK    2  A    between atoms: C2_7  and  N3_8 
REMARK    3  A    between atoms: N5_15  and  C5_16 
REMARK    4  A    between atoms: C5_16  and  C6_17 
REMARK    5  A    between atoms: C6_17  and  S1_18 
REMARK    6  A    between atoms: S1_18  and  C7_19 
REMARK    7  A    between atoms: C7_19  and  C8_20 
REMARK    8  A    between atoms: C8_20  and  O1_21 
REMARK    9  A    between atoms: C10_27  and  N8_28 
REMARK   10  A    between atoms: N11_37  and  N12_39 
REMARK   11  A    between atoms: N12_39  and  O3_41 
ROOT
HETATM    1  C1  UNL     1     -25.365  -8.708   1.084  1.00  0.00     0.679 A 
HETATM    2  N2  UNL     1     -26.666  -9.026   0.994  1.00  0.00    -0.175 N 
ATOM      3  H2  UNL     1     -27.088  -9.114   0.069  1.00  0.00     0.186 HD
HETATM    4  C2  UNL     1     -27.443  -9.235   2.090  1.00  0.00     0.146 A 
HETATM    5  C3  UNL     1     -26.822  -9.107   3.305  1.00  0.00     0.149 A 
HETATM    6  C4  UNL     1     -25.454  -8.771   3.376  1.00  0.00     0.171 A 
HETATM    7  N4  UNL     1     -24.738  -8.574   2.264  1.00  0.00    -0.174 N 
ATOM      8  H4  UNL     1     -23.749  -8.331   2.311  1.00  0.00     0.186 HD
HETATM    9  N5  UNL     1     -25.136  -8.712   4.688  1.00  0.00    -0.162 N 
HETATM   10  C9  UNL     1     -26.224  -8.993   5.399  1.00  0.00     0.713 A 
HETATM   11  N6  UNL     1     -26.293  -9.005   6.763  1.00  0.00    -0.094 N 
ATOM     12  H6  UNL     1     -25.463  -9.317   7.268  1.00  0.00     0.208 HD
HETATM   13  N7  UNL     1     -27.359  -8.642   7.498  1.00  0.00     0.007 N 
HETATM   14  C10 UNL     1     -27.254  -8.130   8.736  1.00  0.00     0.717 A 
HETATM   15  N9  UNL     1     -28.490  -7.875   9.189  1.00  0.00    -0.137 N 
ATOM     16  H9  UNL     1     -28.744  -7.482  10.095  1.00  0.00     0.189 HD
HETATM   17  C11 UNL     1     -29.334  -8.247   8.194  1.00  0.00     0.364 A 
HETATM   18  O2  UNL     1     -30.602  -8.177   8.204  1.00  0.00    -0.244 OA
HETATM   19  N10 UNL     1     -28.633  -8.717   7.160  1.00  0.00    -0.144 N 
HETATM   20  C12 UNL     1     -29.187  -9.177   5.992  1.00  0.00     0.220 C 
HETATM   21  N11 UNL     1     -30.443  -9.219   5.932  1.00  0.00    -0.260 N 
ATOM     22  H11 UNL     1     -30.933  -8.902   6.768  1.00  0.00     0.190 HD
HETATM   23  C13 UNL     1     -28.513  -9.613   4.870  1.00  0.00     0.314 C 
HETATM   24  O4  UNL     1     -29.118 -10.405   4.138  1.00  0.00    -0.263 OA
HETATM   25  N13 UNL     1     -27.265  -9.240   4.541  1.00  0.00    -0.099 N 
ENDROOT
BRANCH   9  26
HETATM   26  C5  UNL     1     -23.810  -8.377   5.181  1.00  0.00     0.159 C 
BRANCH  26  27
HETATM   27  C6  UNL     1     -23.915  -7.342   6.258  1.00  0.00     0.094 C 
BRANCH  27  28
HETATM   28  S1  UNL     1     -22.820  -7.656   7.663  1.00  0.00    -0.165 SA
BRANCH  28  29
HETATM   29  C7  UNL     1     -22.501  -6.051   8.460  1.00  0.00     0.100 C 
BRANCH  29  30
HETATM   30  C8  UNL     1     -22.705  -4.960   7.411  1.00  0.00     0.174 C 
BRANCH  30  31
HETATM   31  O1  UNL     1     -21.465  -4.675   6.811  1.00  0.00    -0.400 OA
ATOM     32  H1  UNL     1     -21.189  -3.807   7.080  1.00  0.00     0.209 HD
ENDBRANCH  30  31
ENDBRANCH  29  30
ENDBRANCH  28  29
ENDBRANCH  27  28
ENDBRANCH  26  27
ENDBRANCH   9  26
BRANCH   4  33
HETATM   33  N3  UNL     1     -28.669  -9.489   1.874  1.00  0.00    -0.383 N 
ATOM     34  H32 UNL     1     -29.069 -10.363   1.533  1.00  0.00     0.157 HD
ATOM     35  H31 UNL     1     -29.332  -8.746   2.096  1.00  0.00     0.157 HD
ENDBRANCH   4  33
BRANCH   1  36
HETATM   36  N1  UNL     1     -24.636  -8.513   0.034  1.00  0.00    -0.234 N 
ATOM     37  H12 UNL     1     -24.882  -9.067  -0.787  1.00  0.00     0.174 HD
ATOM     38  H11 UNL     1     -23.866  -7.845   0.029  1.00  0.00     0.174 HD
ENDBRANCH   1  36
BRANCH  14  39
HETATM   39  N8  UNL     1     -26.176  -7.898   9.425  1.00  0.00    -0.231 N 
ATOM     40  H82 UNL     1     -25.697  -6.997   9.436  1.00  0.00     0.174 HD
ATOM     41  H81 UNL     1     -25.662  -8.538  10.031  1.00  0.00     0.174 HD
ENDBRANCH  14  39
BRANCH  21  42
HETATM   42  N12 UNL     1     -31.244  -9.630   4.900  1.00  0.00    -0.208 N 
ATOM     43  H12 UNL     1     -31.404  -9.008   4.108  1.00  0.00     0.215 HD
BRANCH  42  44
HETATM   44  O3  UNL     1     -31.833 -10.865   4.918  1.00  0.00    -0.274 OA
ATOM     45  H3  UNL     1     -32.338 -11.153   5.670  1.00  0.00     0.246 HD
ENDBRANCH  42  44
ENDBRANCH  21  42
TORSDOF 11
ENDMDL
MODEL 4
REMARK VINA RESULT: -6.856844802      4.165      8.380
REMARK  11 active torsions:
REMARK  status: ('A' for Active; 'I' for Inactive)
REMARK    1  A    between atoms: N1_1  and  C1_4 
REMARK    2  A    between atoms: C2_7  and  N3_8 
REMARK    3  A    between atoms: N5_15  and  C5_16 
REMARK    4  A    between atoms: C5_16  and  C6_17 
REMARK    5  A    between atoms: C6_17  and  S1_18 
REMARK    6  A    between atoms: S1_18  and  C7_19 
REMARK    7  A    between atoms: C7_19  and  C8_20 
REMARK    8  A    between atoms: C8_20  and  O1_21 
REMARK    9  A    between atoms: C10_27  and  N8_28 
REMARK   10  A    between atoms: N11_37  and  N12_39 
REMARK   11  A    between atoms: N12_39  and  O3_41 
ROOT
HETATM    1  C1  UNL     1     -24.522  -8.107   4.321  1.00  0.00     0.679 A 
HETATM    2  N2  UNL     1     -25.777  -8.538   4.530  1.00  0.00    -0.175 N 
ATOM      3  H2  UNL     1     -26.351  -8.790   3.725  1.00  0.00     0.186 HD
HETATM    4  C2  UNL     1     -26.310  -8.652   5.775  1.00  0.00     0.146 A 
HETATM    5  C3  UNL     1     -25.492  -8.304   6.818  1.00  0.00     0.149 A 
HETATM    6  C4  UNL     1     -24.178  -7.852   6.575  1.00  0.00     0.171 A 
HETATM    7  N4  UNL     1     -23.706  -7.758   5.329  1.00  0.00    -0.174 N 
ATOM      8  H4  UNL     1     -22.756  -7.432   5.149  1.00  0.00     0.186 HD
HETATM    9  N5  UNL     1     -23.631  -7.583   7.781  1.00  0.00    -0.162 N 
HETATM   10  C9  UNL     1     -24.533  -7.848   8.722  1.00  0.00     0.713 A 
HETATM   11  N6  UNL     1     -24.346  -7.672  10.064  1.00  0.00    -0.094 N 
ATOM     12  H6  UNL     1     -23.409  -7.842  10.430  1.00  0.00     0.208 HD
HETATM   13  N7  UNL     1     -25.290  -7.296  10.945  1.00  0.00     0.007 N 
HETATM   14  C10 UNL     1     -25.013  -6.607  12.065  1.00  0.00     0.717 A 
HETATM   15  N9  UNL     1     -26.164  -6.391  12.718  1.00  0.00    -0.137 N 
ATOM     16  H9  UNL     1     -26.286  -5.896  13.601  1.00  0.00     0.189 HD
HETATM   17  C11 UNL     1     -27.133  -6.967  11.964  1.00  0.00     0.364 A 
HETATM   18  O2  UNL     1     -28.377  -6.998  12.215  1.00  0.00    -0.244 OA
HETATM   19  N10 UNL     1     -26.589  -7.520  10.877  1.00  0.00    -0.144 N 
HETATM   20  C12 UNL     1     -27.298  -8.184   9.907  1.00  0.00     0.220 C 
HETATM   21  N11 UNL     1     -28.532  -8.335  10.103  1.00  0.00    -0.260 N 
ATOM     22  H11 UNL     1     -28.889  -7.943  10.974  1.00  0.00     0.190 HD
HETATM   23  C13 UNL     1     -26.801  -8.719   8.737  1.00  0.00     0.314 C 
HETATM   24  O4  UNL     1     -27.444  -9.652   8.242  1.00  0.00    -0.263 OA
HETATM   25  N13 UNL     1     -25.682  -8.297   8.124  1.00  0.00    -0.099 N 
ENDROOT
BRANCH   9  26
HETATM   26  C5  UNL     1     -22.280  -7.077   7.958  1.00  0.00     0.159 C 
BRANCH  26  27
HETATM   27  C6  UNL     1     -21.296  -8.198   7.837  1.00  0.00     0.094 C 
BRANCH  27  28
HETATM   28  S1  UNL     1     -20.966  -9.035   9.407  1.00  0.00    -0.165 SA
BRANCH  28  29
HETATM   29  C7  UNL     1     -20.495 -10.748   9.008  1.00  0.00     0.100 C 
BRANCH  29  30
HETATM   30  C8  UNL     1     -18.970 -10.817   8.974  1.00  0.00     0.174 C 
BRANCH  30  31
HETATM   31  O1  UNL     1     -18.531 -10.457   7.687  1.00  0.00    -0.400 OA
ATOM     32  H1  UNL     1     -18.320  -9.530   7.685  1.00  0.00     0.209 HD
ENDBRANCH  30  31
ENDBRANCH  29  30
ENDBRANCH  28  29
ENDBRANCH  27  28
ENDBRANCH  26  27
ENDBRANCH   9  26
BRANCH   4  33
HETATM   33  N3  UNL     1     -27.521  -9.032   5.839  1.00  0.00    -0.383 N 
ATOM     34  H32 UNL     1     -28.057  -9.252   6.679  1.00  0.00     0.157 HD
ATOM     35  H31 UNL     1     -28.024  -9.093   4.954  1.00  0.00     0.157 HD
ENDBRANCH   4  33
BRANCH   1  36
HETATM   36  N1  UNL     1     -24.025  -8.005   3.132  1.00  0.00    -0.234 N 
ATOM     37  H12 UNL     1     -23.850  -8.884   2.646  1.00  0.00     0.174 HD
ATOM     38  H11 UNL     1     -23.825  -7.099   2.708  1.00  0.00     0.174 HD
ENDBRANCH   1  36
BRANCH  14  39
HETATM   39  N8  UNL     1     -23.857  -6.194  12.494  1.00  0.00    -0.231 N 
ATOM     40  H82 UNL     1     -23.033  -6.110  11.898  1.00  0.00     0.174 HD
ATOM     41  H81 UNL     1     -23.598  -5.905  13.438  1.00  0.00     0.174 HD
ENDBRANCH  14  39
BRANCH  21  42
HETATM   42  N12 UNL     1     -29.462  -8.951   9.308  1.00  0.00    -0.208 N 
ATOM     43  H12 UNL     1     -29.911  -8.425   8.558  1.00  0.00     0.215 HD
BRANCH  42  44
HETATM   44  O3  UNL     1     -29.797 -10.262   9.508  1.00  0.00    -0.274 OA
ATOM     45  H3  UNL     1     -30.576 -10.632   9.108  1.00  0.00     0.246 HD
ENDBRANCH  42  44
ENDBRANCH  21  42
TORSDOF 11
ENDMDL
MODEL 5
REMARK VINA RESULT: -6.841945981      2.866      5.184
REMARK  11 active torsions:
REMARK  status: ('A' for Active; 'I' for Inactive)
REMARK    1  A    between atoms: N1_1  and  C1_4 
REMARK    2  A    between atoms: C2_7  and  N3_8 
REMARK    3  A    between atoms: N5_15  and  C5_16 
REMARK    4  A    between atoms: C5_16  and  C6_17 
REMARK    5  A    between atoms: C6_17  and  S1_18 
REMARK    6  A    between atoms: S1_18  and  C7_19 
REMARK    7  A    between atoms: C7_19  and  C8_20 
REMARK    8  A    between atoms: C8_20  and  O1_21 
REMARK    9  A    between atoms: C10_27  and  N8_28 
REMARK   10  A    between atoms: N11_37  and  N12_39 
REMARK   11  A    between atoms: N12_39  and  O3_41 
ROOT
HETATM    1  C1  UNL     1     -24.585  -6.796   9.788  1.00  0.00     0.679 A 
HETATM    2  N2  UNL     1     -23.717  -6.579   8.787  1.00  0.00    -0.175 N 
ATOM      3  H2  UNL     1     -22.881  -6.024   8.973  1.00  0.00     0.186 HD
HETATM    4  C2  UNL     1     -23.911  -7.071   7.534  1.00  0.00     0.146 A 
HETATM    5  C3  UNL     1     -25.048  -7.811   7.345  1.00  0.00     0.149 A 
HETATM    6  C4  UNL     1     -25.947  -8.026   8.410  1.00  0.00     0.171 A 
HETATM    7  N4  UNL     1     -25.706  -7.517   9.622  1.00  0.00    -0.174 N 
ATOM      8  H4  UNL     1     -26.354  -7.670  10.396  1.00  0.00     0.186 HD
HETATM    9  N5  UNL     1     -26.959  -8.775   7.920  1.00  0.00    -0.162 N 
HETATM   10  C9  UNL     1     -26.719  -9.019   6.635  1.00  0.00     0.713 A 
HETATM   11  N6  UNL     1     -27.537  -9.727   5.801  1.00  0.00    -0.094 N 
ATOM     12  H6  UNL     1     -28.055 -10.506   6.207  1.00  0.00     0.208 HD
HETATM   13  N7  UNL     1     -27.720  -9.485   4.491  1.00  0.00     0.007 N 
HETATM   14  C10 UNL     1     -28.865  -9.770   3.846  1.00  0.00     0.717 A 
HETATM   15  N9  UNL     1     -28.723  -9.409   2.563  1.00  0.00    -0.137 N 
ATOM     16  H9  UNL     1     -29.416  -9.496   1.820  1.00  0.00     0.189 HD
HETATM   17  C11 UNL     1     -27.469  -8.904   2.455  1.00  0.00     0.364 A 
HETATM   18  O2  UNL     1     -26.919  -8.445   1.407  1.00  0.00    -0.244 OA
HETATM   19  N10 UNL     1     -26.859  -8.954   3.643  1.00  0.00    -0.144 N 
HETATM   20  C12 UNL     1     -25.578  -8.521   3.876  1.00  0.00     0.220 C 
HETATM   21  N11 UNL     1     -24.921  -8.116   2.881  1.00  0.00    -0.260 N 
ATOM     22  H11 UNL     1     -25.412  -8.150   1.988  1.00  0.00     0.190 HD
HETATM   23  C13 UNL     1     -24.922  -8.489   5.089  1.00  0.00     0.314 C 
HETATM   24  O4  UNL     1     -23.687  -8.529   5.046  1.00  0.00    -0.263 OA
HETATM   25  N13 UNL     1     -25.535  -8.425   6.282  1.00  0.00    -0.099 N 
ENDROOT
BRANCH   9  26
HETATM   26  C5  UNL     1     -28.103  -9.200   8.710  1.00  0.00     0.159 C 
BRANCH  26  27
HETATM   27  C6  UNL     1     -29.169  -8.151   8.667  1.00  0.00     0.094 C 
BRANCH  27  28
HETATM   28  S1  UNL     1     -30.681  -8.629   9.538  1.00  0.00    -0.165 SA
BRANCH  28  29
HETATM   29  C7  UNL     1     -30.433  -8.225  11.296  1.00  0.00     0.100 C 
BRANCH  29  30
HETATM   30  C8  UNL     1     -31.808  -8.004  11.922  1.00  0.00     0.174 C 
BRANCH  30  31
HETATM   31  O1  UNL     1     -32.020  -8.989  12.904  1.00  0.00    -0.400 OA
ATOM     32  H1  UNL     1     -32.115  -9.831  12.475  1.00  0.00     0.209 HD
ENDBRANCH  30  31
ENDBRANCH  29  30
ENDBRANCH  28  29
ENDBRANCH  27  28
ENDBRANCH  26  27
ENDBRANCH   9  26
BRANCH   4  33
HETATM   33  N3  UNL     1     -23.039  -6.760   6.664  1.00  0.00    -0.383 N 
ATOM     34  H32 UNL     1     -22.617  -7.372   5.966  1.00  0.00     0.157 HD
ATOM     35  H31 UNL     1     -22.751  -5.782   6.639  1.00  0.00     0.157 HD
ENDBRANCH   4  33
BRANCH   1  36
HETATM   36  N1  UNL     1     -24.389  -6.325  10.976  1.00  0.00    -0.234 N 
ATOM     37  H12 UNL     1     -23.427  -6.359  11.315  1.00  0.00     0.174 HD
ATOM     38  H11 UNL     1     -25.150  -5.941  11.535  1.00  0.00     0.174 HD
ENDBRANCH   1  36
BRANCH  14  39
HETATM   39  N8  UNL     1     -29.951 -10.299   4.327  1.00  0.00    -0.231 N 
ATOM     40  H82 UNL     1     -29.956 -10.990   5.078  1.00  0.00     0.174 HD
ATOM     41  H81 UNL     1     -30.917 -10.124   4.049  1.00  0.00     0.174 HD
ENDBRANCH  14  39
BRANCH  21  42
HETATM   42  N12 UNL     1     -23.639  -7.636   2.832  1.00  0.00    -0.208 N 
ATOM     43  H12 UNL     1     -23.389  -6.812   3.378  1.00  0.00     0.215 HD
BRANCH  42  44
HETATM   44  O3  UNL     1     -22.690  -8.248   2.060  1.00  0.00    -0.274 OA
ATOM     45  H3  UNL     1     -22.802  -8.323   1.119  1.00  0.00     0.246 HD
ENDBRANCH  42  44
ENDBRANCH  21  42
TORSDOF 11
ENDMDL
