MODEL 1
REMARK VINA RESULT: -8.522579465      0.000      0.000
REMARK  8 active torsions:
REMARK  status: ('A' for Active; 'I' for Inactive)
REMARK    1  A    between atoms: S1_2  and  C2_4 
REMARK    2  A    between atoms: C3_6  and  C4_7 
REMARK    3  A    between atoms: C6_11  and  N1_12 
REMARK    4  A    between atoms: C9_15  and  C10_17 
REMARK    5  A    between atoms: C10_17  and  C11_18 
REMARK       I    between atoms: C11_18  and  N2_20 
REMARK    6  A    between atoms: N2_20  and  C12_22 
REMARK    7  A    between atoms: C20_30  and  O4_31 
REMARK    8  A    between atoms: O4_31  and  C21_32 
ROOT
HETATM    1  C10 UNL     1       4.468  28.878  20.001  1.00  0.00     0.146 C 
ENDROOT
BRANCH   1   2
HETATM    2  C9  UNL     1       5.104  28.247  18.746  1.00  0.00     0.114 C 
HETATM    3  C8  UNL     1       6.459  27.784  19.102  1.00  0.00     0.064 C 
HETATM    4  C7  UNL     1       7.587  28.159  18.201  1.00  0.00     0.126 C 
HETATM    5  N1  UNL     1       7.177  28.669  16.914  1.00  0.00    -0.378 N 
HETATM    6  C24 UNL     1       6.171  29.724  16.976  1.00  0.00     0.126 C 
HETATM    7  C23 UNL     1       4.942  29.241  17.661  1.00  0.00     0.064 C 
HETATM    8  F3  UNL     1       4.258  27.131  18.506  1.00  0.00    -0.242 F 
BRANCH   5   9
HETATM    9  C6  UNL     1       7.712  28.178  15.696  1.00  0.00     0.076 A 
HETATM   10  C2  UNL     1       7.078  27.841  14.521  1.00  0.00     0.168 A 
HETATM   11  O2  UNL     1       7.985  27.424  13.648  1.00  0.00    -0.298 OA
HETATM   12  C3  UNL     1       9.175  27.457  14.145  1.00  0.00     0.120 A 
HETATM   13  C5  UNL     1       9.066  27.923  15.432  1.00  0.00     0.071 A 
BRANCH  10  14
HETATM   14  S1  UNL     1       5.368  27.949  14.241  1.00  0.00     0.072 S 
HETATM   15  C1  UNL     1       4.753  26.742  13.119  1.00  0.00     0.135 C 
HETATM   16  O1  UNL     1       4.886  29.501  13.851  1.00  0.00    -0.251 OA
ENDBRANCH  10  14
BRANCH  12  17
HETATM   17  C4  UNL     1      10.425  27.061  13.444  1.00  0.00     0.410 C 
HETATM   18  F1  UNL     1      11.504  27.364  14.256  1.00  0.00    -0.207 F 
HETATM   19  F2  UNL     1      10.544  27.778  12.263  1.00  0.00    -0.207 F 
ENDBRANCH  12  17
ENDBRANCH   5   9
ENDBRANCH   1   2
BRANCH   1  20
HETATM   20  C11 UNL     1       5.413  29.846  20.603  1.00  0.00     0.221 C 
HETATM   21  O3  UNL     1       5.793  29.670  21.793  1.00  0.00    -0.273 OA
HETATM   22  N2  UNL     1       5.912  30.967  19.894  1.00  0.00    -0.356 N 
ATOM     23  H2  UNL     1       5.623  31.134  18.930  1.00  0.00     0.162 HD
BRANCH  22  24
HETATM   24  C12 UNL     1       6.829  31.869  20.541  1.00  0.00     0.089 C 
HETATM   25  C13 UNL     1       7.851  32.285  19.522  1.00  0.00     0.030 C 
HETATM   26  C14 UNL     1       8.791  33.346  19.969  1.00  0.00    -0.009 C 
HETATM   27  C15 UNL     1       8.256  34.676  19.501  1.00  0.00     0.012 C 
HETATM   28  C22 UNL     1       8.923  33.486  21.454  1.00  0.00     0.044 C 
HETATM   29  C16 UNL     1       7.286  35.016  20.621  1.00  0.00     0.022 C 
HETATM   30  C17 UNL     1       6.008  34.237  20.275  1.00  0.00     0.014 C 
HETATM   31  C20 UNL     1       7.785  34.387  21.867  1.00  0.00     0.076 C 
HETATM   32  C18 UNL     1       6.037  33.008  21.107  1.00  0.00     0.012 C 
HETATM   33  C19 UNL     1       6.677  33.453  22.376  1.00  0.00     0.045 C 
BRANCH  31  34
HETATM   34  O4  UNL     1       8.078  35.242  22.916  1.00  0.00    -0.295 OA
BRANCH  34  35
HETATM   35  C21 UNL     1       8.554  36.522  22.854  1.00  0.00     0.373 C 
HETATM   36  N3  UNL     1       9.849  36.862  22.353  1.00  0.00    -0.032 NA
HETATM   37  O5  UNL     1       7.812  37.432  23.258  1.00  0.00    -0.242 OA
ENDBRANCH  34  35
ENDBRANCH  31  34
ENDBRANCH  22  24
ENDBRANCH   1  20
TORSDOF 8
ENDMDL
MODEL 2
REMARK VINA RESULT: -8.266905681      1.662      2.060
REMARK  8 active torsions:
REMARK  status: ('A' for Active; 'I' for Inactive)
REMARK    1  A    between atoms: S1_2  and  C2_4 
REMARK    2  A    between atoms: C3_6  and  C4_7 
REMARK    3  A    between atoms: C6_11  and  N1_12 
REMARK    4  A    between atoms: C9_15  and  C10_17 
REMARK    5  A    between atoms: C10_17  and  C11_18 
REMARK       I    between atoms: C11_18  and  N2_20 
REMARK    6  A    between atoms: N2_20  and  C12_22 
REMARK    7  A    between atoms: C20_30  and  O4_31 
REMARK    8  A    between atoms: O4_31  and  C21_32 
ROOT
HETATM    1  C10 UNL     1       2.517  30.599  17.768  1.00  0.00     0.146 C 
ENDROOT
BRANCH   1   2
HETATM    2  C9  UNL     1       3.319  29.701  16.804  1.00  0.00     0.114 C 
HETATM    3  C8  UNL     1       4.165  28.801  17.612  1.00  0.00     0.064 C 
HETATM    4  C7  UNL     1       5.607  28.682  17.252  1.00  0.00     0.126 C 
HETATM    5  N1  UNL     1       5.943  29.224  15.957  1.00  0.00    -0.378 N 
HETATM    6  C24 UNL     1       5.443  30.575  15.719  1.00  0.00     0.126 C 
HETATM    7  C23 UNL     1       3.961  30.615  15.832  1.00  0.00     0.064 C 
HETATM    8  F3  UNL     1       2.295  28.956  16.161  1.00  0.00    -0.242 F 
BRANCH   5   9
HETATM    9  C6  UNL     1       6.695  28.496  15.000  1.00  0.00     0.076 A 
HETATM   10  C2  UNL     1       6.274  27.655  13.994  1.00  0.00     0.168 A 
HETATM   11  O2  UNL     1       7.337  27.195  13.347  1.00  0.00    -0.298 OA
HETATM   12  C3  UNL     1       8.434  27.662  13.839  1.00  0.00     0.120 A 
HETATM   13  C5  UNL     1       8.094  28.487  14.882  1.00  0.00     0.071 A 
BRANCH  10  14
HETATM   14  S1  UNL     1       4.620  27.269  13.641  1.00  0.00     0.072 S 
HETATM   15  C1  UNL     1       3.728  28.583  12.885  1.00  0.00     0.135 C 
HETATM   16  O1  UNL     1       3.824  26.620  14.959  1.00  0.00    -0.251 OA
ENDBRANCH  10  14
BRANCH  12  17
HETATM   17  C4  UNL     1       9.806  27.355  13.357  1.00  0.00     0.410 C 
HETATM   18  F1  UNL     1      10.711  27.688  14.351  1.00  0.00    -0.207 F 
HETATM   19  F2  UNL     1      10.086  28.116  12.231  1.00  0.00    -0.207 F 
ENDBRANCH  12  17
ENDBRANCH   5   9
ENDBRANCH   1   2
BRANCH   1  20
HETATM   20  C11 UNL     1       3.424  31.158  18.797  1.00  0.00     0.221 C 
HETATM   21  O3  UNL     1       3.178  30.934  20.014  1.00  0.00    -0.273 OA
HETATM   22  N2  UNL     1       4.561  31.936  18.468  1.00  0.00    -0.356 N 
ATOM     23  H2  UNL     1       4.784  32.132  17.492  1.00  0.00     0.162 HD
BRANCH  22  24
HETATM   24  C12 UNL     1       5.401  32.449  19.520  1.00  0.00     0.089 C 
HETATM   25  C13 UNL     1       6.593  31.544  19.631  1.00  0.00     0.030 C 
HETATM   26  C14 UNL     1       7.654  32.010  20.561  1.00  0.00    -0.009 C 
HETATM   27  C15 UNL     1       8.695  32.748  19.758  1.00  0.00     0.012 C 
HETATM   28  C22 UNL     1       7.199  32.994  21.594  1.00  0.00     0.044 C 
HETATM   29  C16 UNL     1       8.090  34.140  19.695  1.00  0.00     0.022 C 
HETATM   30  C17 UNL     1       7.070  34.069  18.548  1.00  0.00     0.014 C 
HETATM   31  C20 UNL     1       7.270  34.339  20.915  1.00  0.00     0.076 C 
HETATM   32  C18 UNL     1       5.744  33.869  19.187  1.00  0.00     0.012 C 
HETATM   33  C19 UNL     1       5.838  34.649  20.452  1.00  0.00     0.045 C 
BRANCH  31  34
HETATM   34  O4  UNL     1       7.640  35.386  21.744  1.00  0.00    -0.295 OA
BRANCH  34  35
HETATM   35  C21 UNL     1       8.854  35.609  22.329  1.00  0.00     0.373 C 
HETATM   36  N3  UNL     1       9.835  36.506  21.804  1.00  0.00    -0.032 NA
HETATM   37  O5  UNL     1       9.110  34.992  23.377  1.00  0.00    -0.242 OA
ENDBRANCH  34  35
ENDBRANCH  31  34
ENDBRANCH  22  24
ENDBRANCH   1  20
TORSDOF 8
ENDMDL
MODEL 3
REMARK VINA RESULT: -8.109539414      3.700      5.390
REMARK  8 active torsions:
REMARK  status: ('A' for Active; 'I' for Inactive)
REMARK    1  A    between atoms: S1_2  and  C2_4 
REMARK    2  A    between atoms: C3_6  and  C4_7 
REMARK    3  A    between atoms: C6_11  and  N1_12 
REMARK    4  A    between atoms: C9_15  and  C10_17 
REMARK    5  A    between atoms: C10_17  and  C11_18 
REMARK       I    between atoms: C11_18  and  N2_20 
REMARK    6  A    between atoms: N2_20  and  C12_22 
REMARK    7  A    between atoms: C20_30  and  O4_31 
REMARK    8  A    between atoms: O4_31  and  C21_32 
ROOT
HETATM    1  C10 UNL     1       6.386  29.120  16.714  1.00  0.00     0.146 C 
ENDROOT
BRANCH   1   2
HETATM    2  C9  UNL     1       5.017  29.392  16.058  1.00  0.00     0.114 C 
HETATM    3  C8  UNL     1       4.044  28.432  16.611  1.00  0.00     0.064 C 
HETATM    4  C7  UNL     1       3.176  27.684  15.656  1.00  0.00     0.126 C 
HETATM    5  N1  UNL     1       3.172  28.216  14.314  1.00  0.00    -0.378 N 
HETATM    6  C24 UNL     1       4.499  28.455  13.755  1.00  0.00     0.126 C 
HETATM    7  C23 UNL     1       5.261  29.414  14.598  1.00  0.00     0.064 C 
HETATM    8  F3  UNL     1       4.719  30.704  16.515  1.00  0.00    -0.242 F 
BRANCH   5   9
HETATM    9  C6  UNL     1       1.973  28.485  13.607  1.00  0.00     0.076 A 
HETATM   10  C2  UNL     1       1.185  29.615  13.592  1.00  0.00     0.168 A 
HETATM   11  O2  UNL     1       0.156  29.410  12.781  1.00  0.00    -0.298 OA
HETATM   12  C3  UNL     1       0.193  28.235  12.252  1.00  0.00     0.120 A 
HETATM   13  C5  UNL     1       1.314  27.606  12.734  1.00  0.00     0.071 A 
BRANCH  10  14
HETATM   14  S1  UNL     1       1.501  31.065  14.492  1.00  0.00     0.072 S 
HETATM   15  C1  UNL     1       0.057  31.997  14.870  1.00  0.00     0.135 C 
HETATM   16  O1  UNL     1       2.707  31.992  13.801  1.00  0.00    -0.251 OA
ENDBRANCH  10  14
BRANCH  12  17
HETATM   17  C4  UNL     1      -0.801  27.675  11.298  1.00  0.00     0.410 C 
HETATM   18  F1  UNL     1      -1.156  28.664  10.396  1.00  0.00    -0.207 F 
HETATM   19  F2  UNL     1      -1.936  27.278  11.988  1.00  0.00    -0.207 F 
ENDBRANCH  12  17
ENDBRANCH   5   9
ENDBRANCH   1   2
BRANCH   1  20
HETATM   20  C11 UNL     1       6.536  29.967  17.920  1.00  0.00     0.221 C 
HETATM   21  O3  UNL     1       6.237  29.485  19.047  1.00  0.00    -0.273 OA
HETATM   22  N2  UNL     1       7.005  31.303  17.859  1.00  0.00    -0.356 N 
ATOM     23  H2  UNL     1       7.255  31.718  16.962  1.00  0.00     0.162 HD
BRANCH  22  24
HETATM   24  C12 UNL     1       7.126  32.071  19.072  1.00  0.00     0.089 C 
HETATM   25  C13 UNL     1       8.569  32.044  19.483  1.00  0.00     0.030 C 
HETATM   26  C14 UNL     1       8.914  32.922  20.632  1.00  0.00    -0.009 C 
HETATM   27  C15 UNL     1       9.428  34.230  20.087  1.00  0.00     0.012 C 
HETATM   28  C22 UNL     1       7.758  33.298  21.506  1.00  0.00     0.044 C 
HETATM   29  C16 UNL     1       8.131  34.986  19.855  1.00  0.00     0.022 C 
HETATM   30  C17 UNL     1       7.622  34.475  18.498  1.00  0.00     0.014 C 
HETATM   31  C20 UNL     1       7.133  34.498  20.838  1.00  0.00     0.076 C 
HETATM   32  C18 UNL     1       6.596  33.446  18.804  1.00  0.00     0.012 C 
HETATM   33  C19 UNL     1       5.939  33.956  20.039  1.00  0.00     0.045 C 
BRANCH  31  34
HETATM   34  O4  UNL     1       6.615  35.441  21.711  1.00  0.00    -0.295 OA
BRANCH  34  35
HETATM   35  C21 UNL     1       7.099  35.815  22.933  1.00  0.00     0.373 C 
HETATM   36  N3  UNL     1       6.446  35.519  24.170  1.00  0.00    -0.032 NA
HETATM   37  O5  UNL     1       8.168  36.447  22.960  1.00  0.00    -0.242 OA
ENDBRANCH  34  35
ENDBRANCH  31  34
ENDBRANCH  22  24
ENDBRANCH   1  20
TORSDOF 8
ENDMDL
MODEL 4
REMARK VINA RESULT: -8.067607296      2.119      2.814
REMARK  8 active torsions:
REMARK  status: ('A' for Active; 'I' for Inactive)
REMARK    1  A    between atoms: S1_2  and  C2_4 
REMARK    2  A    between atoms: C3_6  and  C4_7 
REMARK    3  A    between atoms: C6_11  and  N1_12 
REMARK    4  A    between atoms: C9_15  and  C10_17 
REMARK    5  A    between atoms: C10_17  and  C11_18 
REMARK       I    between atoms: C11_18  and  N2_20 
REMARK    6  A    between atoms: N2_20  and  C12_22 
REMARK    7  A    between atoms: C20_30  and  O4_31 
REMARK    8  A    between atoms: O4_31  and  C21_32 
ROOT
HETATM    1  C10 UNL     1       2.162  30.925  17.358  1.00  0.00     0.146 C 
ENDROOT
BRANCH   1   2
HETATM    2  C9  UNL     1       3.041  29.963  16.532  1.00  0.00     0.114 C 
HETATM    3  C8  UNL     1       3.705  29.034  17.464  1.00  0.00     0.064 C 
HETATM    4  C7  UNL     1       5.175  28.825  17.318  1.00  0.00     0.126 C 
HETATM    5  N1  UNL     1       5.726  29.321  16.079  1.00  0.00    -0.378 N 
HETATM    6  C24 UNL     1       5.346  30.692  15.755  1.00  0.00     0.126 C 
HETATM    7  C23 UNL     1       3.868  30.819  15.652  1.00  0.00     0.064 C 
HETATM    8  F3  UNL     1       2.077  29.266  15.755  1.00  0.00    -0.242 F 
BRANCH   5   9
HETATM    9  C6  UNL     1       6.563  28.531  15.250  1.00  0.00     0.076 A 
HETATM   10  C2  UNL     1       6.239  27.659  14.235  1.00  0.00     0.168 A 
HETATM   11  O2  UNL     1       7.356  27.142  13.740  1.00  0.00    -0.298 OA
HETATM   12  C3  UNL     1       8.400  27.600  14.342  1.00  0.00     0.120 A 
HETATM   13  C5  UNL     1       7.964  28.479  15.303  1.00  0.00     0.071 A 
BRANCH  10  14
HETATM   14  S1  UNL     1       4.627  27.303  13.700  1.00  0.00     0.072 S 
HETATM   15  C1  UNL     1       3.857  28.625  12.832  1.00  0.00     0.135 C 
HETATM   16  O1  UNL     1       3.671  26.690  14.926  1.00  0.00    -0.251 OA
ENDBRANCH  10  14
BRANCH  12  17
HETATM   17  C4  UNL     1       9.810  27.235  14.042  1.00  0.00     0.410 C 
HETATM   18  F1  UNL     1      10.502  27.118  15.235  1.00  0.00    -0.207 F 
HETATM   19  F2  UNL     1      10.399  28.237  13.285  1.00  0.00    -0.207 F 
ENDBRANCH  12  17
ENDBRANCH   5   9
ENDBRANCH   1   2
BRANCH   1  20
HETATM   20  C11 UNL     1       3.015  31.963  17.983  1.00  0.00     0.221 C 
HETATM   21  O3  UNL     1       2.879  33.164  17.624  1.00  0.00    -0.273 OA
HETATM   22  N2  UNL     1       3.981  31.658  18.974  1.00  0.00    -0.356 N 
ATOM     23  H2  UNL     1       4.113  30.696  19.284  1.00  0.00     0.162 HD
BRANCH  22  24
HETATM   24  C12 UNL     1       4.778  32.717  19.540  1.00  0.00     0.089 C 
HETATM   25  C13 UNL     1       4.620  32.654  21.032  1.00  0.00     0.030 C 
HETATM   26  C14 UNL     1       5.500  33.574  21.798  1.00  0.00    -0.009 C 
HETATM   27  C15 UNL     1       6.729  32.808  22.220  1.00  0.00     0.012 C 
HETATM   28  C22 UNL     1       6.025  34.740  21.019  1.00  0.00     0.044 C 
HETATM   29  C16 UNL     1       7.603  32.945  20.985  1.00  0.00     0.022 C 
HETATM   30  C17 UNL     1       7.096  31.854  20.029  1.00  0.00     0.014 C 
HETATM   31  C20 UNL     1       7.256  34.222  20.317  1.00  0.00     0.076 C 
HETATM   32  C18 UNL     1       6.189  32.536  19.070  1.00  0.00     0.012 C 
HETATM   33  C19 UNL     1       6.809  33.878  18.888  1.00  0.00     0.045 C 
BRANCH  31  34
HETATM   34  O4  UNL     1       8.278  35.148  20.186  1.00  0.00    -0.295 OA
BRANCH  34  35
HETATM   35  C21 UNL     1       9.334  35.363  21.026  1.00  0.00     0.373 C 
HETATM   36  N3  UNL     1       9.208  35.941  22.327  1.00  0.00    -0.032 NA
HETATM   37  O5  UNL     1      10.464  35.034  20.626  1.00  0.00    -0.242 OA
ENDBRANCH  34  35
ENDBRANCH  31  34
ENDBRANCH  22  24
ENDBRANCH   1  20
TORSDOF 8
ENDMDL
MODEL 5
REMARK VINA RESULT: -8.026130221      4.438      9.103
REMARK  8 active torsions:
REMARK  status: ('A' for Active; 'I' for Inactive)
REMARK    1  A    between atoms: S1_2  and  C2_4 
REMARK    2  A    between atoms: C3_6  and  C4_7 
REMARK    3  A    between atoms: C6_11  and  N1_12 
REMARK    4  A    between atoms: C9_15  and  C10_17 
REMARK    5  A    between atoms: C10_17  and  C11_18 
REMARK       I    between atoms: C11_18  and  N2_20 
REMARK    6  A    between atoms: N2_20  and  C12_22 
REMARK    7  A    between atoms: C20_30  and  O4_31 
REMARK    8  A    between atoms: O4_31  and  C21_32 
ROOT
HETATM    1  C10 UNL     1       2.329  33.733  15.893  1.00  0.00     0.146 C 
ENDROOT
BRANCH   1   2
HETATM    2  C9  UNL     1       3.727  33.978  16.497  1.00  0.00     0.114 C 
HETATM    3  C8  UNL     1       4.665  33.015  15.890  1.00  0.00     0.064 C 
HETATM    4  C7  UNL     1       5.562  32.241  16.796  1.00  0.00     0.126 C 
HETATM    5  N1  UNL     1       5.626  32.750  18.146  1.00  0.00    -0.378 N 
HETATM    6  C24 UNL     1       4.326  32.994  18.761  1.00  0.00     0.126 C 
HETATM    7  C23 UNL     1       3.542  33.977  17.966  1.00  0.00     0.064 C 
HETATM    8  F3  UNL     1       4.023  35.293  16.051  1.00  0.00    -0.242 F 
BRANCH   5   9
HETATM    9  C6  UNL     1       6.856  32.992  18.808  1.00  0.00     0.076 A 
HETATM   10  C2  UNL     1       7.762  32.107  19.348  1.00  0.00     0.168 A 
HETATM   11  O2  UNL     1       8.772  32.792  19.870  1.00  0.00    -0.298 OA
HETATM   12  C3  UNL     1       8.613  34.063  19.721  1.00  0.00     0.120 A 
HETATM   13  C5  UNL     1       7.424  34.250  19.060  1.00  0.00     0.071 A 
BRANCH  10  14
HETATM   14  S1  UNL     1       7.600  30.380  19.339  1.00  0.00     0.072 S 
HETATM   15  C1  UNL     1       7.601  29.673  17.729  1.00  0.00     0.135 C 
HETATM   16  O1  UNL     1       6.317  29.858  20.274  1.00  0.00    -0.251 OA
ENDBRANCH  10  14
BRANCH  12  17
HETATM   17  C4  UNL     1       9.550  35.120  20.186  1.00  0.00     0.410 C 
HETATM   18  F1  UNL     1      10.742  34.524  20.557  1.00  0.00    -0.207 F 
HETATM   19  F2  UNL     1       9.014  35.764  21.291  1.00  0.00    -0.207 F 
ENDBRANCH  12  17
ENDBRANCH   5   9
ENDBRANCH   1   2
BRANCH   1  20
HETATM   20  C11 UNL     1       2.103  32.277  15.738  1.00  0.00     0.221 C 
HETATM   21  O3  UNL     1       1.552  31.641  16.678  1.00  0.00    -0.273 OA
HETATM   22  N2  UNL     1       2.481  31.567  14.572  1.00  0.00    -0.356 N 
ATOM     23  H2  UNL     1       2.928  32.056  13.797  1.00  0.00     0.162 HD
BRANCH  22  24
HETATM   24  C12 UNL     1       2.232  30.151  14.489  1.00  0.00     0.089 C 
HETATM   25  C13 UNL     1       1.998  29.817  13.044  1.00  0.00     0.030 C 
HETATM   26  C14 UNL     1       1.883  28.365  12.744  1.00  0.00    -0.009 C 
HETATM   27  C15 UNL     1       3.236  27.865  12.306  1.00  0.00     0.012 C 
HETATM   28  C22 UNL     1       1.517  27.507  13.915  1.00  0.00     0.044 C 
HETATM   29  C16 UNL     1       3.891  27.571  13.646  1.00  0.00     0.022 C 
HETATM   30  C17 UNL     1       4.410  28.934  14.131  1.00  0.00     0.014 C 
HETATM   31  C20 UNL     1       2.823  27.210  14.609  1.00  0.00     0.076 C 
HETATM   32  C18 UNL     1       3.401  29.438  15.097  1.00  0.00     0.012 C 
HETATM   33  C19 UNL     1       2.912  28.206  15.775  1.00  0.00     0.045 C 
BRANCH  31  34
HETATM   34  O4  UNL     1       2.903  25.949  15.175  1.00  0.00    -0.295 OA
BRANCH  34  35
HETATM   35  C21 UNL     1       2.213  25.461  16.250  1.00  0.00     0.373 C 
HETATM   36  N3  UNL     1       2.706  25.497  17.591  1.00  0.00    -0.032 NA
HETATM   37  O5  UNL     1       1.096  24.960  16.038  1.00  0.00    -0.242 OA
ENDBRANCH  34  35
ENDBRANCH  31  34
ENDBRANCH  22  24
ENDBRANCH   1  20
TORSDOF 8
ENDMDL
