MODEL 1
REMARK VINA RESULT: -8.816220960      0.000      0.000
REMARK  9 active torsions:
REMARK  status: ('A' for Active; 'I' for Inactive)
REMARK    1  A    between atoms: O1_2  and  C2_3 
REMARK    2  A    between atoms: N2_14  and  C10_15 
REMARK    3  A    between atoms: N3_18  and  C13_19 
REMARK    4  A    between atoms: C13_19  and  C14_20 
REMARK    5  A    between atoms: C14_20  and  O3_21 
REMARK    6  A    between atoms: C14_20  and  C15_23 
REMARK    7  A    between atoms: C15_23  and  N4_24 
REMARK    8  A    between atoms: N4_24  and  C16_25 
REMARK    9  A    between atoms: N4_24  and  C22_34 
ROOT
HETATM    1  C10 UNL     1       6.677  28.437  18.037  1.00  0.00     0.088 C 
HETATM    2  C11 UNL     1       7.480  29.583  18.595  1.00  0.00     0.055 C 
HETATM    3  C12 UNL     1       6.658  30.655  19.263  1.00  0.00     0.274 C 
HETATM    4  N3  UNL     1       5.754  30.145  20.244  1.00  0.00     0.091 N 
HETATM    5  C26 UNL     1       5.744  28.716  20.258  1.00  0.00     0.274 C 
HETATM    6  C27 UNL     1       5.414  28.286  18.819  1.00  0.00     0.055 C 
ENDROOT
BRANCH   4   7
HETATM    7  C13 UNL     1       5.954  30.785  21.504  1.00  0.00     0.305 C 
BRANCH   7   8
HETATM    8  C14 UNL     1       4.711  31.527  21.990  1.00  0.00     0.164 C 
BRANCH   8   9
HETATM    9  O3  UNL     1       4.064  31.996  20.802  1.00  0.00    -0.392 OA
ATOM     10  H3  UNL     1       4.082  32.943  20.865  1.00  0.00     0.210 HD
ENDBRANCH   8   9
BRANCH   8  11
HETATM   11  C15 UNL     1       5.122  32.803  22.706  1.00  0.00     0.151 C 
BRANCH  11  12
HETATM   12  N4  UNL     1       5.086  33.994  21.948  1.00  0.00    -0.398 N 
BRANCH  12  13
HETATM   13  C16 UNL     1       6.372  34.365  21.489  1.00  0.00     0.083 C 
HETATM   14  C17 UNL     1       7.554  33.855  22.250  1.00  0.00     0.031 C 
HETATM   15  C18 UNL     1       8.765  34.729  21.894  1.00  0.00     0.084 C 
HETATM   16  C19 UNL     1       9.034  34.552  20.434  1.00  0.00     0.274 C 
HETATM   17  F1  UNL     1      10.008  35.453  20.054  1.00  0.00    -0.203 F 
HETATM   18  F2  UNL     1       9.550  33.300  20.155  1.00  0.00    -0.203 F 
HETATM   19  C20 UNL     1       7.817  34.814  19.580  1.00  0.00     0.244 C 
HETATM   20  F3  UNL     1       8.141  34.355  18.295  1.00  0.00    -0.243 F 
HETATM   21  C21 UNL     1       6.621  34.007  20.031  1.00  0.00     0.068 C 
ENDBRANCH  12  13
BRANCH  12  22
HETATM   22  C22 UNL     1       4.136  34.900  22.366  1.00  0.00     0.017 C 
HETATM   23  C23 UNL     1       4.858  36.165  22.873  1.00  0.00     0.037 C 
HETATM   24  C24 UNL     1       3.196  34.553  23.468  1.00  0.00     0.037 C 
HETATM   25  C25 UNL     1       3.251  35.452  21.228  1.00  0.00     0.037 C 
ENDBRANCH  12  22
ENDBRANCH  11  12
ENDBRANCH   8  11
ENDBRANCH   7   8
ENDBRANCH   4   7
BRANCH   1  26
HETATM   26  N2  UNL     1       6.481  28.506  16.592  1.00  0.00    -0.365 N 
HETATM   27  C5  UNL     1       7.579  28.188  15.732  1.00  0.00     0.058 A 
HETATM   28  C4  UNL     1       8.720  27.549  16.190  1.00  0.00     0.034 A 
HETATM   29  C6  UNL     1       7.583  28.500  14.391  1.00  0.00     0.064 A 
HETATM   30  C3  UNL     1       9.796  27.241  15.369  1.00  0.00     0.039 A 
HETATM   31  C2  UNL     1       9.757  27.572  14.040  1.00  0.00     0.070 A 
HETATM   32  C7  UNL     1       8.631  28.214  13.534  1.00  0.00     0.068 A 
HETATM   33  N1  UNL     1       6.453  29.127  13.818  1.00  0.00    -0.324 N 
HETATM   34  C8  UNL     1       5.339  29.420  14.630  1.00  0.00     0.240 C 
ATOM     35  H1  UNL     1       6.444  29.366  12.827  1.00  0.00     0.169 HD
HETATM   36  O2  UNL     1       4.438  30.189  14.168  1.00  0.00    -0.271 OA
HETATM   37  C9  UNL     1       5.224  28.845  15.988  1.00  0.00     0.226 C 
BRANCH  31  38
HETATM   38  O1  UNL     1      10.796  27.295  13.168  1.00  0.00    -0.356 OA
HETATM   39  C1  UNL     1      11.507  28.273  12.469  1.00  0.00     0.210 C 
ENDBRANCH  31  38
ENDBRANCH   1  26
TORSDOF 9
ENDMDL
MODEL 2
REMARK VINA RESULT: -8.493422448      1.230      1.625
REMARK  9 active torsions:
REMARK  status: ('A' for Active; 'I' for Inactive)
REMARK    1  A    between atoms: O1_2  and  C2_3 
REMARK    2  A    between atoms: N2_14  and  C10_15 
REMARK    3  A    between atoms: N3_18  and  C13_19 
REMARK    4  A    between atoms: C13_19  and  C14_20 
REMARK    5  A    between atoms: C14_20  and  O3_21 
REMARK    6  A    between atoms: C14_20  and  C15_23 
REMARK    7  A    between atoms: C15_23  and  N4_24 
REMARK    8  A    between atoms: N4_24  and  C16_25 
REMARK    9  A    between atoms: N4_24  and  C22_34 
ROOT
HETATM    1  C10 UNL     1       6.006  29.244  19.292  1.00  0.00     0.088 C 
HETATM    2  C11 UNL     1       6.445  30.604  19.768  1.00  0.00     0.055 C 
HETATM    3  C12 UNL     1       5.322  31.499  20.224  1.00  0.00     0.274 C 
HETATM    4  N3  UNL     1       4.459  30.882  21.180  1.00  0.00     0.091 N 
HETATM    5  C26 UNL     1       4.788  29.504  21.374  1.00  0.00     0.274 C 
HETATM    6  C27 UNL     1       4.735  28.863  19.977  1.00  0.00     0.055 C 
ENDROOT
BRANCH   4   7
HETATM    7  C13 UNL     1       4.357  31.675  22.362  1.00  0.00     0.305 C 
BRANCH   7   8
HETATM    8  C14 UNL     1       5.720  31.989  22.978  1.00  0.00     0.164 C 
BRANCH   8   9
HETATM    9  O3  UNL     1       5.789  31.192  24.164  1.00  0.00    -0.392 OA
ATOM     10  H3  UNL     1       5.924  31.810  24.873  1.00  0.00     0.210 HD
ENDBRANCH   8   9
BRANCH   8  11
HETATM   11  C15 UNL     1       5.732  33.417  23.498  1.00  0.00     0.151 C 
BRANCH  11  12
HETATM   12  N4  UNL     1       5.571  34.441  22.539  1.00  0.00    -0.398 N 
BRANCH  12  13
HETATM   13  C16 UNL     1       6.794  34.764  21.903  1.00  0.00     0.083 C 
HETATM   14  C17 UNL     1       8.060  34.393  22.605  1.00  0.00     0.031 C 
HETATM   15  C18 UNL     1       9.201  35.227  22.005  1.00  0.00     0.084 C 
HETATM   16  C19 UNL     1       9.332  34.842  20.566  1.00  0.00     0.274 C 
HETATM   17  F1  UNL     1      10.234  35.695  19.964  1.00  0.00    -0.203 F 
HETATM   18  F2  UNL     1       9.859  33.572  20.420  1.00  0.00    -0.203 F 
HETATM   19  C20 UNL     1       8.029  34.954  19.811  1.00  0.00     0.244 C 
HETATM   20  F3  UNL     1       8.241  34.317  18.580  1.00  0.00    -0.243 F 
HETATM   21  C21 UNL     1       6.910  34.200  20.493  1.00  0.00     0.068 C 
ENDBRANCH  12  13
BRANCH  12  22
HETATM   22  C22 UNL     1       4.614  35.375  22.867  1.00  0.00     0.017 C 
HETATM   23  C23 UNL     1       3.681  35.566  21.653  1.00  0.00     0.037 C 
HETATM   24  C24 UNL     1       5.009  36.761  23.243  1.00  0.00     0.037 C 
HETATM   25  C25 UNL     1       3.637  34.912  23.970  1.00  0.00     0.037 C 
ENDBRANCH  12  22
ENDBRANCH  11  12
ENDBRANCH   8  11
ENDBRANCH   7   8
ENDBRANCH   4   7
BRANCH   1  26
HETATM   26  N2  UNL     1       5.964  29.115  17.839  1.00  0.00    -0.365 N 
HETATM   27  C5  UNL     1       7.073  28.509  17.169  1.00  0.00     0.058 A 
HETATM   28  C4  UNL     1       8.045  27.788  17.844  1.00  0.00     0.034 A 
HETATM   29  C6  UNL     1       7.257  28.605  15.808  1.00  0.00     0.064 A 
HETATM   30  C3  UNL     1       9.130  27.201  17.208  1.00  0.00     0.039 A 
HETATM   31  C2  UNL     1       9.274  27.323  15.851  1.00  0.00     0.070 A 
HETATM   32  C7  UNL     1       8.322  28.038  15.130  1.00  0.00     0.068 A 
HETATM   33  N1  UNL     1       6.306  29.295  15.022  1.00  0.00    -0.324 N 
HETATM   34  C8  UNL     1       5.182  29.872  15.647  1.00  0.00     0.240 C 
ATOM     35  H1  UNL     1       6.432  29.375  14.014  1.00  0.00     0.169 HD
HETATM   36  O2  UNL     1       4.468  30.684  14.978  1.00  0.00    -0.271 OA
HETATM   37  C9  UNL     1       4.844  29.538  17.047  1.00  0.00     0.226 C 
BRANCH  31  38
HETATM   38  O1  UNL     1      10.332  26.764  15.157  1.00  0.00    -0.356 OA
HETATM   39  C1  UNL     1      10.677  27.112  13.848  1.00  0.00     0.210 C 
ENDBRANCH  31  38
ENDBRANCH   1  26
TORSDOF 9
ENDMDL
MODEL 3
REMARK VINA RESULT: -8.461408500      1.124      1.707
REMARK  9 active torsions:
REMARK  status: ('A' for Active; 'I' for Inactive)
REMARK    1  A    between atoms: O1_2  and  C2_3 
REMARK    2  A    between atoms: N2_14  and  C10_15 
REMARK    3  A    between atoms: N3_18  and  C13_19 
REMARK    4  A    between atoms: C13_19  and  C14_20 
REMARK    5  A    between atoms: C14_20  and  O3_21 
REMARK    6  A    between atoms: C14_20  and  C15_23 
REMARK    7  A    between atoms: C15_23  and  N4_24 
REMARK    8  A    between atoms: N4_24  and  C16_25 
REMARK    9  A    between atoms: N4_24  and  C22_34 
ROOT
HETATM    1  C10 UNL     1       6.469  28.691  18.083  1.00  0.00     0.088 C 
HETATM    2  C11 UNL     1       6.472  30.088  18.650  1.00  0.00     0.055 C 
HETATM    3  C12 UNL     1       5.167  30.512  19.272  1.00  0.00     0.274 C 
HETATM    4  N3  UNL     1       4.667  29.578  20.230  1.00  0.00     0.091 N 
HETATM    5  C26 UNL     1       5.458  28.388  20.267  1.00  0.00     0.274 C 
HETATM    6  C27 UNL     1       5.479  27.856  18.824  1.00  0.00     0.055 C 
ENDROOT
BRANCH   4   7
HETATM    7  C13 UNL     1       4.429  30.213  21.486  1.00  0.00     0.305 C 
BRANCH   7   8
HETATM    8  C14 UNL     1       5.720  30.558  22.223  1.00  0.00     0.164 C 
BRANCH   8   9
HETATM    9  O3  UNL     1       5.696  29.769  23.417  1.00  0.00    -0.392 OA
ATOM     10  H3  UNL     1       6.605  29.683  23.679  1.00  0.00     0.210 HD
ENDBRANCH   8   9
BRANCH   8  11
HETATM   11  C15 UNL     1       5.655  31.988  22.733  1.00  0.00     0.151 C 
BRANCH  11  12
HETATM   12  N4  UNL     1       5.732  33.011  21.762  1.00  0.00    -0.398 N 
BRANCH  12  13
HETATM   13  C16 UNL     1       7.073  33.339  21.449  1.00  0.00     0.083 C 
HETATM   14  C17 UNL     1       7.457  33.386  20.005  1.00  0.00     0.031 C 
HETATM   15  C18 UNL     1       8.987  33.284  19.914  1.00  0.00     0.084 C 
HETATM   16  C19 UNL     1       9.559  34.487  20.592  1.00  0.00     0.274 C 
HETATM   17  F1  UNL     1      10.929  34.336  20.672  1.00  0.00    -0.203 F 
HETATM   18  F2  UNL     1       9.350  35.639  19.855  1.00  0.00    -0.203 F 
HETATM   19  C20 UNL     1       9.040  34.668  21.998  1.00  0.00     0.244 C 
HETATM   20  F3  UNL     1       9.443  35.951  22.396  1.00  0.00    -0.243 F 
HETATM   21  C21 UNL     1       7.529  34.661  22.051  1.00  0.00     0.068 C 
ENDBRANCH  12  13
BRANCH  12  22
HETATM   22  C22 UNL     1       4.719  33.940  21.839  1.00  0.00     0.017 C 
HETATM   23  C23 UNL     1       3.957  33.944  20.498  1.00  0.00     0.037 C 
HETATM   24  C24 UNL     1       5.029  35.376  22.086  1.00  0.00     0.037 C 
HETATM   25  C25 UNL     1       3.612  33.579  22.853  1.00  0.00     0.037 C 
ENDBRANCH  12  22
ENDBRANCH  11  12
ENDBRANCH   8  11
ENDBRANCH   7   8
ENDBRANCH   4   7
BRANCH   1  26
HETATM   26  N2  UNL     1       6.321  28.647  16.631  1.00  0.00    -0.365 N 
HETATM   27  C5  UNL     1       7.454  28.293  15.834  1.00  0.00     0.058 A 
HETATM   28  C4  UNL     1       8.593  27.719  16.376  1.00  0.00     0.034 A 
HETATM   29  C6  UNL     1       7.497  28.504  14.474  1.00  0.00     0.064 A 
HETATM   30  C3  UNL     1       9.703  27.377  15.616  1.00  0.00     0.039 A 
HETATM   31  C2  UNL     1       9.702  27.606  14.265  1.00  0.00     0.070 A 
HETATM   32  C7  UNL     1       8.580  28.181  13.675  1.00  0.00     0.068 A 
HETATM   33  N1  UNL     1       6.374  29.058  13.819  1.00  0.00    -0.324 N 
HETATM   34  C8  UNL     1       5.227  29.383  14.570  1.00  0.00     0.240 C 
ATOM     35  H1  UNL     1       6.394  29.221  12.812  1.00  0.00     0.169 HD
HETATM   36  O2  UNL     1       4.325  30.093  14.021  1.00  0.00    -0.271 OA
HETATM   37  C9  UNL     1       5.078  28.909  15.962  1.00  0.00     0.226 C 
BRANCH  31  38
HETATM   38  O1  UNL     1      10.776  27.290  13.451  1.00  0.00    -0.356 OA
HETATM   39  C1  UNL     1      11.253  28.121  12.434  1.00  0.00     0.210 C 
ENDBRANCH  31  38
ENDBRANCH   1  26
TORSDOF 9
ENDMDL
MODEL 4
REMARK VINA RESULT: -8.446062172      1.898      2.866
REMARK  9 active torsions:
REMARK  status: ('A' for Active; 'I' for Inactive)
REMARK    1  A    between atoms: O1_2  and  C2_3 
REMARK    2  A    between atoms: N2_14  and  C10_15 
REMARK    3  A    between atoms: N3_18  and  C13_19 
REMARK    4  A    between atoms: C13_19  and  C14_20 
REMARK    5  A    between atoms: C14_20  and  O3_21 
REMARK    6  A    between atoms: C14_20  and  C15_23 
REMARK    7  A    between atoms: C15_23  and  N4_24 
REMARK    8  A    between atoms: N4_24  and  C16_25 
REMARK    9  A    between atoms: N4_24  and  C22_34 
ROOT
HETATM    1  C10 UNL     1       6.115  29.429  16.848  1.00  0.00     0.088 C 
HETATM    2  C11 UNL     1       4.811  28.997  17.468  1.00  0.00     0.055 C 
HETATM    3  C12 UNL     1       4.493  29.663  18.782  1.00  0.00     0.274 C 
HETATM    4  N3  UNL     1       4.582  31.087  18.730  1.00  0.00     0.091 N 
HETATM    5  C26 UNL     1       5.091  31.538  17.473  1.00  0.00     0.274 C 
HETATM    6  C27 UNL     1       6.438  30.819  17.287  1.00  0.00     0.055 C 
ENDROOT
BRANCH   4   7
HETATM    7  C13 UNL     1       3.365  31.691  19.167  1.00  0.00     0.305 C 
BRANCH   7   8
HETATM    8  C14 UNL     1       3.562  32.602  20.376  1.00  0.00     0.164 C 
BRANCH   8   9
HETATM    9  O3  UNL     1       3.873  33.889  19.831  1.00  0.00    -0.392 OA
ATOM     10  H3  UNL     1       3.432  34.513  20.396  1.00  0.00     0.210 HD
ENDBRANCH   8   9
BRANCH   8  11
HETATM   11  C15 UNL     1       4.828  32.206  21.118  1.00  0.00     0.151 C 
BRANCH  11  12
HETATM   12  N4  UNL     1       5.420  33.197  21.933  1.00  0.00    -0.398 N 
BRANCH  12  13
HETATM   13  C16 UNL     1       6.761  33.453  21.561  1.00  0.00     0.083 C 
HETATM   14  C17 UNL     1       7.203  33.003  20.206  1.00  0.00     0.031 C 
HETATM   15  C18 UNL     1       8.737  32.944  20.198  1.00  0.00     0.084 C 
HETATM   16  C19 UNL     1       9.242  34.334  20.420  1.00  0.00     0.274 C 
HETATM   17  F1  UNL     1      10.611  34.282  20.586  1.00  0.00    -0.203 F 
HETATM   18  F2  UNL     1       9.026  35.140  19.317  1.00  0.00    -0.203 F 
HETATM   19  C20 UNL     1       8.659  34.977  21.655  1.00  0.00     0.244 C 
HETATM   20  F3  UNL     1       9.004  36.334  21.583  1.00  0.00    -0.243 F 
HETATM   21  C21 UNL     1       7.149  34.921  21.667  1.00  0.00     0.068 C 
ENDBRANCH  12  13
BRANCH  12  22
HETATM   22  C22 UNL     1       4.980  33.188  23.238  1.00  0.00     0.017 C 
HETATM   23  C23 UNL     1       5.547  31.935  23.937  1.00  0.00     0.037 C 
HETATM   24  C24 UNL     1       3.523  33.146  23.544  1.00  0.00     0.037 C 
HETATM   25  C25 UNL     1       5.548  34.337  24.100  1.00  0.00     0.037 C 
ENDBRANCH  12  22
ENDBRANCH  11  12
ENDBRANCH   8  11
ENDBRANCH   7   8
ENDBRANCH   4   7
BRANCH   1  26
HETATM   26  N2  UNL     1       7.201  28.473  17.039  1.00  0.00    -0.365 N 
HETATM   27  C5  UNL     1       8.058  28.174  15.934  1.00  0.00     0.058 A 
HETATM   28  C4  UNL     1       8.087  28.950  14.785  1.00  0.00     0.034 A 
HETATM   29  C6  UNL     1       8.909  27.092  15.929  1.00  0.00     0.064 A 
HETATM   30  C3  UNL     1       8.907  28.667  13.702  1.00  0.00     0.039 A 
HETATM   31  C2  UNL     1       9.738  27.578  13.741  1.00  0.00     0.070 A 
HETATM   32  C7  UNL     1       9.745  26.770  14.874  1.00  0.00     0.068 A 
HETATM   33  N1  UNL     1       8.977  26.254  17.065  1.00  0.00    -0.324 N 
HETATM   34  C8  UNL     1       8.173  26.542  18.186  1.00  0.00     0.240 C 
ATOM     35  H1  UNL     1       9.602  25.448  17.073  1.00  0.00     0.169 HD
HETATM   36  O2  UNL     1       8.064  25.661  19.096  1.00  0.00    -0.271 OA
HETATM   37  C9  UNL     1       7.475  27.841  18.299  1.00  0.00     0.226 C 
BRANCH  31  38
HETATM   38  O1  UNL     1      10.580  27.240  12.695  1.00  0.00    -0.356 OA
HETATM   39  C1  UNL     1      11.698  27.991  12.322  1.00  0.00     0.210 C 
ENDBRANCH  31  38
ENDBRANCH   1  26
TORSDOF 9
ENDMDL
MODEL 5
REMARK VINA RESULT: -8.370658899      2.137      3.005
REMARK  9 active torsions:
REMARK  status: ('A' for Active; 'I' for Inactive)
REMARK    1  A    between atoms: O1_2  and  C2_3 
REMARK    2  A    between atoms: N2_14  and  C10_15 
REMARK    3  A    between atoms: N3_18  and  C13_19 
REMARK    4  A    between atoms: C13_19  and  C14_20 
REMARK    5  A    between atoms: C14_20  and  O3_21 
REMARK    6  A    between atoms: C14_20  and  C15_23 
REMARK    7  A    between atoms: C15_23  and  N4_24 
REMARK    8  A    between atoms: N4_24  and  C16_25 
REMARK    9  A    between atoms: N4_24  and  C22_34 
ROOT
HETATM    1  C10 UNL     1       5.842  29.225  16.360  1.00  0.00     0.088 C 
HETATM    2  C11 UNL     1       4.676  28.556  17.042  1.00  0.00     0.055 C 
HETATM    3  C12 UNL     1       4.076  29.349  18.174  1.00  0.00     0.274 C 
HETATM    4  N3  UNL     1       3.750  30.692  17.814  1.00  0.00     0.091 N 
HETATM    5  C26 UNL     1       4.203  31.008  16.495  1.00  0.00     0.274 C 
HETATM    6  C27 UNL     1       5.711  30.706  16.489  1.00  0.00     0.055 C 
ENDROOT
BRANCH   4   7
HETATM    7  C13 UNL     1       2.379  30.976  18.091  1.00  0.00     0.305 C 
BRANCH   7   8
HETATM    8  C14 UNL     1       2.205  32.170  19.027  1.00  0.00     0.164 C 
BRANCH   8   9
HETATM    9  O3  UNL     1       2.577  33.314  18.252  1.00  0.00    -0.392 OA
ATOM     10  H3  UNL     1       3.472  33.150  17.978  1.00  0.00     0.210 HD
ENDBRANCH   8   9
BRANCH   8  11
HETATM   11  C15 UNL     1       3.254  32.120  20.126  1.00  0.00     0.151 C 
BRANCH  11  12
HETATM   12  N4  UNL     1       3.909  33.333  20.431  1.00  0.00    -0.398 N 
BRANCH  12  13
HETATM   13  C16 UNL     1       5.314  33.221  20.298  1.00  0.00     0.083 C 
HETATM   14  C17 UNL     1       5.901  31.846  20.276  1.00  0.00     0.031 C 
HETATM   15  C18 UNL     1       7.397  31.960  20.601  1.00  0.00     0.084 C 
HETATM   16  C19 UNL     1       8.035  32.761  19.511  1.00  0.00     0.274 C 
HETATM   17  F1  UNL     1       9.343  33.021  19.865  1.00  0.00    -0.203 F 
HETATM   18  F2  UNL     1       8.099  32.053  18.324  1.00  0.00    -0.203 F 
HETATM   19  C20 UNL     1       7.353  34.089  19.287  1.00  0.00     0.244 C 
HETATM   20  F3  UNL     1       7.876  34.594  18.088  1.00  0.00    -0.243 F 
HETATM   21  C21 UNL     1       5.865  33.936  19.073  1.00  0.00     0.068 C 
ENDBRANCH  12  13
BRANCH  12  22
HETATM   22  C22 UNL     1       3.295  34.073  21.416  1.00  0.00     0.017 C 
HETATM   23  C23 UNL     1       4.368  34.528  22.427  1.00  0.00     0.037 C 
HETATM   24  C24 UNL     1       2.232  33.466  22.264  1.00  0.00     0.037 C 
HETATM   25  C25 UNL     1       2.711  35.415  20.922  1.00  0.00     0.037 C 
ENDBRANCH  12  22
ENDBRANCH  11  12
ENDBRANCH   8  11
ENDBRANCH   7   8
ENDBRANCH   4   7
BRANCH   1  26
HETATM   26  N2  UNL     1       7.141  28.701  16.771  1.00  0.00    -0.365 N 
HETATM   27  C5  UNL     1       8.084  28.328  15.762  1.00  0.00     0.058 A 
HETATM   28  C4  UNL     1       7.938  28.702  14.435  1.00  0.00     0.034 A 
HETATM   29  C6  UNL     1       9.198  27.567  16.035  1.00  0.00     0.064 A 
HETATM   30  C3  UNL     1       8.840  28.342  13.444  1.00  0.00     0.039 A 
HETATM   31  C2  UNL     1       9.936  27.581  13.762  1.00  0.00     0.070 A 
HETATM   32  C7  UNL     1      10.125  27.182  15.081  1.00  0.00     0.068 A 
HETATM   33  N1  UNL     1       9.454  27.158  17.363  1.00  0.00    -0.324 N 
HETATM   34  C8  UNL     1       8.565  27.540  18.388  1.00  0.00     0.240 C 
ATOM     35  H1  UNL     1      10.275  26.592  17.578  1.00  0.00     0.169 HD
HETATM   36  O2  UNL     1       8.671  26.977  19.523  1.00  0.00    -0.271 OA
HETATM   37  C9  UNL     1       7.536  28.574  18.145  1.00  0.00     0.226 C 
BRANCH  31  38
HETATM   38  O1  UNL     1      10.872  27.187  12.821  1.00  0.00    -0.356 OA
HETATM   39  C1  UNL     1      11.889  28.015  12.340  1.00  0.00     0.210 C 
ENDBRANCH  31  38
ENDBRANCH   1  26
TORSDOF 9
ENDMDL
