MODEL 1
REMARK VINA RESULT: -6.903484749      0.000      0.000
REMARK  9 active torsions:
REMARK  status: ('A' for Active; 'I' for Inactive)
REMARK    1  A    between atoms: O1_2  and  N1_3 
REMARK    2  A    between atoms: C2_5  and  C3_6 
REMARK    3  A    between atoms: C2_5  and  N2_18 
REMARK    4  A    between atoms: C3_6  and  C4_7 
REMARK    5  A    between atoms: C7_11  and  O2_12 
REMARK    6  A    between atoms: N2_18  and  C11_20 
REMARK    7  A    between atoms: C11_20  and  C13_22 
REMARK    8  A    between atoms: C13_22  and  O3_23 
REMARK    9  A    between atoms: N3_25  and  O4_27 
ROOT
HETATM    1  N1  UNL     1       9.037  45.991  61.892  1.00  0.00    -0.255 N 
ATOM      2  H1  UNL     1      10.030  46.219  61.928  1.00  0.00     0.195 HD
HETATM    3  C2  UNL     1       8.571  45.110  62.711  1.00  0.00     0.102 C 
ENDROOT
BRANCH   3   4
HETATM    4  C3  UNL     1       7.143  44.781  62.662  1.00  0.00     0.118 C 
BRANCH   4   5
HETATM    5  C4  UNL     1       6.831  43.409  62.216  1.00  0.00    -0.031 A 
HETATM    6  C5  UNL     1       7.522  42.756  61.236  1.00  0.00     0.031 A 
HETATM    7  C6  UNL     1       7.182  41.451  60.863  1.00  0.00     0.046 A 
HETATM    8 BR1  UNL     1       8.155  40.553  59.496  1.00  0.00    -0.048 Br
HETATM    9  C7  UNL     1       6.145  40.789  61.472  1.00  0.00     0.104 A 
HETATM   10  C9  UNL     1       5.448  41.446  62.459  1.00  0.00     0.063 A 
HETATM   11 BR2  UNL     1       4.017  40.525  63.297  1.00  0.00    -0.047 Br
HETATM   12  C10 UNL     1       5.793  42.742  62.821  1.00  0.00     0.037 A 
HETATM   13 BR3  UNL     1       4.778  43.575  64.194  1.00  0.00    -0.049 Br
BRANCH   9  14
HETATM   14  O2  UNL     1       5.848  39.503  61.070  1.00  0.00    -0.353 OA
HETATM   15  C8  UNL     1       6.310  38.324  61.650  1.00  0.00     0.210 C 
ENDBRANCH   9  14
ENDBRANCH   4   5
ENDBRANCH   3   4
BRANCH   3  16
HETATM   16  N2  UNL     1       9.452  44.495  63.627  1.00  0.00    -0.366 N 
ATOM     17  H2  UNL     1      10.006  43.709  63.285  1.00  0.00     0.161 HD
BRANCH  16  18
HETATM   18  C11 UNL     1       9.637  44.881  65.009  1.00  0.00     0.155 C 
HETATM   19  C12 UNL     1       9.243  43.837  66.001  1.00  0.00     0.041 C 
BRANCH  18  20
HETATM   20  C13 UNL     1      10.953  45.500  65.239  1.00  0.00     0.158 C 
HETATM   21  N3  UNL     1      11.267  46.658  64.866  1.00  0.00    -0.249 N 
ATOM     22  H3  UNL     1      12.219  46.938  65.103  1.00  0.00     0.196 HD
BRANCH  20  23
HETATM   23  O3  UNL     1      11.899  44.735  65.918  1.00  0.00    -0.347 OA
ATOM     24  H3  UNL     1      12.807  45.004  65.839  1.00  0.00     0.219 HD
ENDBRANCH  20  23
BRANCH  21  25
HETATM   25  O4  UNL     1      10.554  47.591  64.203  1.00  0.00    -0.288 OA
ATOM     26  H4  UNL     1      10.702  48.524  64.099  1.00  0.00     0.244 HD
ENDBRANCH  21  25
ENDBRANCH  18  20
ENDBRANCH  16  18
ENDBRANCH   3  16
BRANCH   1  27
HETATM   27  O1  UNL     1       8.254  46.623  60.986  1.00  0.00    -0.284 OA
HETATM   28  C1  UNL     1       7.898  46.188  59.710  1.00  0.00     0.237 C 
ENDBRANCH   1  27
TORSDOF 9
ENDMDL
MODEL 2
REMARK VINA RESULT: -6.896042999      1.435      2.728
REMARK  9 active torsions:
REMARK  status: ('A' for Active; 'I' for Inactive)
REMARK    1  A    between atoms: O1_2  and  N1_3 
REMARK    2  A    between atoms: C2_5  and  C3_6 
REMARK    3  A    between atoms: C2_5  and  N2_18 
REMARK    4  A    between atoms: C3_6  and  C4_7 
REMARK    5  A    between atoms: C7_11  and  O2_12 
REMARK    6  A    between atoms: N2_18  and  C11_20 
REMARK    7  A    between atoms: C11_20  and  C13_22 
REMARK    8  A    between atoms: C13_22  and  O3_23 
REMARK    9  A    between atoms: N3_25  and  O4_27 
ROOT
HETATM    1  N1  UNL     1       8.175  46.141  60.817  1.00  0.00    -0.255 N 
ATOM      2  H1  UNL     1       8.514  46.965  61.314  1.00  0.00     0.195 HD
HETATM    3  C2  UNL     1       8.686  44.991  61.097  1.00  0.00     0.102 C 
ENDROOT
BRANCH   3   4
HETATM    4  C3  UNL     1       8.199  43.806  60.384  1.00  0.00     0.118 C 
BRANCH   4   5
HETATM    5  C4  UNL     1       7.177  43.019  61.102  1.00  0.00    -0.031 A 
HETATM    6  C5  UNL     1       6.291  43.559  61.991  1.00  0.00     0.031 A 
HETATM    7  C6  UNL     1       5.340  42.761  62.633  1.00  0.00     0.046 A 
HETATM    8 BR1  UNL     1       4.112  43.527  63.868  1.00  0.00    -0.048 Br
HETATM    9  C7  UNL     1       5.268  41.411  62.390  1.00  0.00     0.104 A 
HETATM   10  C9  UNL     1       6.159  40.866  61.495  1.00  0.00     0.063 A 
HETATM   11 BR2  UNL     1       6.053  39.002  61.163  1.00  0.00    -0.047 Br
HETATM   12  C10 UNL     1       7.100  41.668  60.863  1.00  0.00     0.037 A 
HETATM   13 BR3  UNL     1       8.293  40.833  59.642  1.00  0.00    -0.049 Br
BRANCH   9  14
HETATM   14  O2  UNL     1       4.311  40.666  63.048  1.00  0.00    -0.353 OA
HETATM   15  C8  UNL     1       3.028  40.373  62.593  1.00  0.00     0.210 C 
ENDBRANCH   9  14
ENDBRANCH   4   5
ENDBRANCH   3   4
BRANCH   3  16
HETATM   16  N2  UNL     1       9.696  44.912  62.081  1.00  0.00    -0.366 N 
ATOM     17  H2  UNL     1      10.632  44.652  61.768  1.00  0.00     0.161 HD
BRANCH  16  18
HETATM   18  C11 UNL     1       9.520  45.168  63.494  1.00  0.00     0.155 C 
HETATM   19  C12 UNL     1       8.847  44.067  64.242  1.00  0.00     0.041 C 
BRANCH  18  20
HETATM   20  C13 UNL     1      10.745  45.695  64.117  1.00  0.00     0.158 C 
HETATM   21  N3  UNL     1      10.986  46.916  64.290  1.00  0.00    -0.249 N 
ATOM     22  H3  UNL     1      11.881  47.114  64.737  1.00  0.00     0.196 HD
BRANCH  20  23
HETATM   23  O3  UNL     1      11.689  44.760  64.539  1.00  0.00    -0.347 OA
ATOM     24  H3  UNL     1      11.637  44.475  65.444  1.00  0.00     0.219 HD
ENDBRANCH  20  23
BRANCH  21  25
HETATM   25  O4  UNL     1      10.257  48.007  63.981  1.00  0.00    -0.288 OA
ATOM     26  H4  UNL     1      10.257  48.879  64.359  1.00  0.00     0.244 HD
ENDBRANCH  21  25
ENDBRANCH  18  20
ENDBRANCH  16  18
ENDBRANCH   3  16
BRANCH   1  27
HETATM   27  O1  UNL     1       7.204  46.294  59.887  1.00  0.00    -0.284 OA
HETATM   28  C1  UNL     1       7.238  47.078  58.733  1.00  0.00     0.237 C 
ENDBRANCH   1  27
TORSDOF 9
ENDMDL
MODEL 3
REMARK VINA RESULT: -6.664015469      1.686      2.074
REMARK  9 active torsions:
REMARK  status: ('A' for Active; 'I' for Inactive)
REMARK    1  A    between atoms: O1_2  and  N1_3 
REMARK    2  A    between atoms: C2_5  and  C3_6 
REMARK    3  A    between atoms: C2_5  and  N2_18 
REMARK    4  A    between atoms: C3_6  and  C4_7 
REMARK    5  A    between atoms: C7_11  and  O2_12 
REMARK    6  A    between atoms: N2_18  and  C11_20 
REMARK    7  A    between atoms: C11_20  and  C13_22 
REMARK    8  A    between atoms: C13_22  and  O3_23 
REMARK    9  A    between atoms: N3_25  and  O4_27 
ROOT
HETATM    1  N1  UNL     1       9.812  45.202  62.439  1.00  0.00    -0.255 N 
ATOM      2  H1  UNL     1      10.826  45.093  62.437  1.00  0.00     0.195 HD
HETATM    3  C2  UNL     1       9.154  44.883  63.502  1.00  0.00     0.102 C 
ENDROOT
BRANCH   3   4
HETATM    4  C3  UNL     1       7.697  45.039  63.508  1.00  0.00     0.118 C 
BRANCH   4   5
HETATM    5  C4  UNL     1       6.935  43.831  63.133  1.00  0.00    -0.031 A 
HETATM    6  C5  UNL     1       7.357  42.930  62.197  1.00  0.00     0.031 A 
HETATM    7  C6  UNL     1       6.593  41.799  61.891  1.00  0.00     0.046 A 
HETATM    8 BR1  UNL     1       7.194  40.553  60.585  1.00  0.00    -0.048 Br
HETATM    9  C7  UNL     1       5.397  41.561  62.523  1.00  0.00     0.104 A 
HETATM   10  C9  UNL     1       4.972  42.467  63.465  1.00  0.00     0.063 A 
HETATM   11 BR2  UNL     1       3.320  42.131  64.335  1.00  0.00    -0.047 Br
HETATM   12  C10 UNL     1       5.738  43.588  63.761  1.00  0.00     0.037 A 
HETATM   13 BR3  UNL     1       5.074  44.788  65.076  1.00  0.00    -0.049 Br
BRANCH   9  14
HETATM   14  O2  UNL     1       4.681  40.431  62.187  1.00  0.00    -0.353 OA
HETATM   15  C8  UNL     1       4.704  39.205  62.848  1.00  0.00     0.210 C 
ENDBRANCH   9  14
ENDBRANCH   4   5
ENDBRANCH   3   4
BRANCH   3  16
HETATM   16  N2  UNL     1       9.861  44.396  64.623  1.00  0.00    -0.366 N 
ATOM     17  H2  UNL     1       9.390  43.704  65.206  1.00  0.00     0.161 HD
BRANCH  16  18
HETATM   18  C11 UNL     1      11.196  44.793  65.018  1.00  0.00     0.155 C 
HETATM   19  C12 UNL     1      11.343  46.247  65.323  1.00  0.00     0.041 C 
BRANCH  18  20
HETATM   20  C13 UNL     1      11.772  43.879  66.018  1.00  0.00     0.158 C 
HETATM   21  N3  UNL     1      12.951  43.447  65.989  1.00  0.00    -0.249 N 
ATOM     22  H3  UNL     1      13.194  42.822  66.757  1.00  0.00     0.196 HD
BRANCH  20  23
HETATM   23  O3  UNL     1      10.936  43.479  67.059  1.00  0.00    -0.347 OA
ATOM     24  H3  UNL     1      11.332  42.962  67.752  1.00  0.00     0.219 HD
ENDBRANCH  20  23
BRANCH  21  25
HETATM   25  O4  UNL     1      13.949  43.674  65.111  1.00  0.00    -0.288 OA
ATOM     26  H4  UNL     1      13.929  43.788  64.168  1.00  0.00     0.244 HD
ENDBRANCH  21  25
ENDBRANCH  18  20
ENDBRANCH  16  18
ENDBRANCH   3  16
BRANCH   1  27
HETATM   27  O1  UNL     1       9.203  45.675  61.327  1.00  0.00    -0.284 OA
HETATM   28  C1  UNL     1       9.016  45.022  60.108  1.00  0.00     0.237 C 
ENDBRANCH   1  27
TORSDOF 9
ENDMDL
MODEL 4
REMARK VINA RESULT: -6.662552032      1.820      2.238
REMARK  9 active torsions:
REMARK  status: ('A' for Active; 'I' for Inactive)
REMARK    1  A    between atoms: O1_2  and  N1_3 
REMARK    2  A    between atoms: C2_5  and  C3_6 
REMARK    3  A    between atoms: C2_5  and  N2_18 
REMARK    4  A    between atoms: C3_6  and  C4_7 
REMARK    5  A    between atoms: C7_11  and  O2_12 
REMARK    6  A    between atoms: N2_18  and  C11_20 
REMARK    7  A    between atoms: C11_20  and  C13_22 
REMARK    8  A    between atoms: C13_22  and  O3_23 
REMARK    9  A    between atoms: N3_25  and  O4_27 
ROOT
HETATM    1  N1  UNL     1       9.800  45.127  62.753  1.00  0.00    -0.255 N 
ATOM      2  H1  UNL     1      10.809  44.977  62.787  1.00  0.00     0.195 HD
HETATM    3  C2  UNL     1       9.083  44.765  63.762  1.00  0.00     0.102 C 
ENDROOT
BRANCH   3   4
HETATM    4  C3  UNL     1       7.633  44.979  63.715  1.00  0.00     0.118 C 
BRANCH   4   5
HETATM    5  C4  UNL     1       6.838  43.803  63.310  1.00  0.00    -0.031 A 
HETATM    6  C5  UNL     1       7.254  42.891  62.382  1.00  0.00     0.031 A 
HETATM    7  C6  UNL     1       6.458  41.791  62.046  1.00  0.00     0.046 A 
HETATM    8 BR1  UNL     1       7.051  40.529  60.752  1.00  0.00    -0.048 Br
HETATM    9  C7  UNL     1       5.235  41.597  62.639  1.00  0.00     0.104 A 
HETATM   10  C9  UNL     1       4.815  42.514  63.574  1.00  0.00     0.063 A 
HETATM   11 BR2  UNL     1       3.125  42.238  64.390  1.00  0.00    -0.047 Br
HETATM   12  C10 UNL     1       5.614  43.603  63.899  1.00  0.00     0.037 A 
HETATM   13 BR3  UNL     1       4.956  44.822  65.200  1.00  0.00    -0.049 Br
BRANCH   9  14
HETATM   14  O2  UNL     1       4.486  40.496  62.275  1.00  0.00    -0.353 OA
HETATM   15  C8  UNL     1       4.473  39.254  62.905  1.00  0.00     0.210 C 
ENDBRANCH   9  14
ENDBRANCH   4   5
ENDBRANCH   3   4
BRANCH   3  16
HETATM   16  N2  UNL     1       9.719  44.176  64.877  1.00  0.00    -0.366 N 
ATOM     17  H2  UNL     1       9.186  43.485  65.405  1.00  0.00     0.161 HD
BRANCH  16  18
HETATM   18  C11 UNL     1      11.060  44.468  65.336  1.00  0.00     0.155 C 
HETATM   19  C12 UNL     1      11.317  45.911  65.613  1.00  0.00     0.041 C 
BRANCH  18  20
HETATM   20  C13 UNL     1      11.499  43.537  66.388  1.00  0.00     0.158 C 
HETATM   21  N3  UNL     1      10.738  43.032  67.251  1.00  0.00    -0.249 N 
ATOM     22  H3  UNL     1      11.200  42.405  67.911  1.00  0.00     0.196 HD
BRANCH  20  23
HETATM   23  O3  UNL     1      12.852  43.206  66.411  1.00  0.00    -0.347 OA
ATOM     24  H3  UNL     1      13.184  42.810  67.209  1.00  0.00     0.219 HD
ENDBRANCH  20  23
BRANCH  21  25
HETATM   25  O4  UNL     1       9.413  43.180  67.450  1.00  0.00    -0.288 OA
ATOM     26  H4  UNL     1       8.852  42.863  68.148  1.00  0.00     0.244 HD
ENDBRANCH  21  25
ENDBRANCH  18  20
ENDBRANCH  16  18
ENDBRANCH   3  16
BRANCH   1  27
HETATM   27  O1  UNL     1       9.262  45.697  61.650  1.00  0.00    -0.284 OA
HETATM   28  C1  UNL     1       9.033  45.110  60.406  1.00  0.00     0.237 C 
ENDBRANCH   1  27
TORSDOF 9
ENDMDL
MODEL 5
REMARK VINA RESULT: -6.523468113      2.084      3.477
REMARK  9 active torsions:
REMARK  status: ('A' for Active; 'I' for Inactive)
REMARK    1  A    between atoms: O1_2  and  N1_3 
REMARK    2  A    between atoms: C2_5  and  C3_6 
REMARK    3  A    between atoms: C2_5  and  N2_18 
REMARK    4  A    between atoms: C3_6  and  C4_7 
REMARK    5  A    between atoms: C7_11  and  O2_12 
REMARK    6  A    between atoms: N2_18  and  C11_20 
REMARK    7  A    between atoms: C11_20  and  C13_22 
REMARK    8  A    between atoms: C13_22  and  O3_23 
REMARK    9  A    between atoms: N3_25  and  O4_27 
ROOT
HETATM    1  N1  UNL     1       9.251  45.753  62.294  1.00  0.00    -0.255 N 
ATOM      2  H1  UNL     1       9.599  46.609  62.726  1.00  0.00     0.195 HD
HETATM    3  C2  UNL     1       8.929  44.760  63.051  1.00  0.00     0.102 C 
ENDROOT
BRANCH   3   4
HETATM    4  C3  UNL     1       8.427  43.529  62.433  1.00  0.00     0.118 C 
BRANCH   4   5
HETATM    5  C4  UNL     1       6.985  43.276  62.620  1.00  0.00    -0.031 A 
HETATM    6  C5  UNL     1       6.174  44.055  63.395  1.00  0.00     0.031 A 
HETATM    7  C6  UNL     1       4.811  43.767  63.526  1.00  0.00     0.046 A 
HETATM    8 BR1  UNL     1       3.693  44.862  64.608  1.00  0.00    -0.048 Br
HETATM    9  C7  UNL     1       4.250  42.692  62.881  1.00  0.00     0.104 A 
HETATM   10  C9  UNL     1       5.066  41.907  62.101  1.00  0.00     0.063 A 
HETATM   11 BR2  UNL     1       4.284  40.426  61.212  1.00  0.00    -0.047 Br
HETATM   12  C10 UNL     1       6.418  42.202  61.978  1.00  0.00     0.037 A 
HETATM   13 BR3  UNL     1       7.473  41.064  60.881  1.00  0.00    -0.049 Br
BRANCH   9  14
HETATM   14  O2  UNL     1       2.901  42.450  63.042  1.00  0.00    -0.353 OA
HETATM   15  C8  UNL     1       2.315  41.613  63.987  1.00  0.00     0.210 C 
ENDBRANCH   9  14
ENDBRANCH   4   5
ENDBRANCH   3   4
BRANCH   3  16
HETATM   16  N2  UNL     1       9.069  44.894  64.450  1.00  0.00    -0.366 N 
ATOM     17  H2  UNL     1       8.411  45.512  64.927  1.00  0.00     0.161 HD
BRANCH  16  18
HETATM   18  C11 UNL     1      10.064  44.233  65.267  1.00  0.00     0.155 C 
HETATM   19  C12 UNL     1      11.143  45.130  65.774  1.00  0.00     0.041 C 
BRANCH  18  20
HETATM   20  C13 UNL     1       9.454  43.350  66.275  1.00  0.00     0.158 C 
HETATM   21  N3  UNL     1      10.075  42.842  67.242  1.00  0.00    -0.249 N 
ATOM     22  H3  UNL     1       9.506  42.253  67.850  1.00  0.00     0.196 HD
BRANCH  20  23
HETATM   23  O3  UNL     1       8.096  43.073  66.130  1.00  0.00    -0.347 OA
ATOM     24  H3  UNL     1       7.487  43.739  66.427  1.00  0.00     0.219 HD
ENDBRANCH  20  23
BRANCH  21  25
HETATM   25  O4  UNL     1      11.368  42.947  67.608  1.00  0.00    -0.288 OA
ATOM     26  H4  UNL     1      12.108  42.377  67.435  1.00  0.00     0.244 HD
ENDBRANCH  21  25
ENDBRANCH  18  20
ENDBRANCH  16  18
ENDBRANCH   3  16
BRANCH   1  27
HETATM   27  O1  UNL     1       9.144  45.699  60.946  1.00  0.00    -0.284 OA
HETATM   28  C1  UNL     1       8.074  46.117  60.154  1.00  0.00     0.237 C 
ENDBRANCH   1  27
TORSDOF 9
ENDMDL
