MODEL 1
REMARK VINA RESULT: -6.289813718      0.000      0.000
REMARK  15 active torsions:
REMARK  status: ('A' for Active; 'I' for Inactive)
REMARK    1  A    between atoms: N1_1  and  C1_5 
REMARK    2  A    between atoms: C1_5  and  C2_6 
REMARK    3  A    between atoms: C2_6  and  O1_7 
REMARK    4  A    between atoms: O1_7  and  C3_8 
REMARK    5  A    between atoms: C3_8  and  C4_10 
REMARK    6  A    between atoms: C10_23  and  C11_24 
REMARK       I    between atoms: C11_24  and  N5_26 
REMARK    7  A    between atoms: N5_26  and  N6_28 
REMARK    8  A    between atoms: N6_28  and  C12_30 
REMARK    9  A    between atoms: C12_30  and  N7_32 
REMARK   10  A    between atoms: N7_32  and  N8_34 
REMARK   11  A    between atoms: N8_34  and  C13_35 
REMARK   12  A    between atoms: C13_35  and  O4_36 
REMARK   13  A    between atoms: C13_35  and  C14_38 
REMARK   14  A    between atoms: C14_38  and  C15_39 
REMARK   15  A    between atoms: C15_39  and  C16_40 
ROOT
HETATM    1  C11 UNL     1     -15.552   5.764 -27.953  1.00  0.00     0.272 C 
HETATM    2  O3  UNL     1     -15.234   5.188 -29.023  1.00  0.00    -0.266 OA
HETATM    3  N5  UNL     1     -15.896   4.877 -26.872  1.00  0.00    -0.264 N 
ATOM      4  H5  UNL     1     -16.188   5.226 -25.959  1.00  0.00     0.190 HD
ENDROOT
BRANCH   1   5
HETATM    5  C10 UNL     1     -15.558   7.184 -27.865  1.00  0.00     0.065 C 
HETATM    6  C4  UNL     1     -16.600   7.840 -28.537  1.00  0.00     0.096 C 
HETATM    7  N2  UNL     1     -16.617   9.054 -29.121  1.00  0.00    -0.318 N 
HETATM    8  C5  UNL     1     -15.747  10.079 -29.008  1.00  0.00     0.275 C 
ATOM      9  H2  UNL     1     -17.408   9.224 -29.742  1.00  0.00     0.169 HD
HETATM   10  O2  UNL     1     -15.683  10.971 -29.867  1.00  0.00    -0.266 OA
HETATM   11  C6  UNL     1     -14.846  10.232 -27.945  1.00  0.00     0.128 A 
HETATM   12  N3  UNL     1     -14.362  11.397 -27.582  1.00  0.00    -0.295 N 
HETATM   13  C8  UNL     1     -14.347   9.229 -27.156  1.00  0.00     0.015 A 
HETATM   14  N4  UNL     1     -13.533  11.168 -26.540  1.00  0.00    -0.310 N 
ATOM     15  H3  UNL     1     -14.570  12.301 -28.006  1.00  0.00     0.187 HD
HETATM   16  C7  UNL     1     -13.496   9.858 -26.243  1.00  0.00     0.121 A 
ATOM     17  H4  UNL     1     -13.008  11.890 -26.046  1.00  0.00     0.186 HD
HETATM   18  C9  UNL     1     -14.579   7.884 -27.187  1.00  0.00     0.035 C 
BRANCH   6  19
HETATM   19  C3  UNL     1     -17.852   7.051 -28.607  1.00  0.00     0.164 C 
HETATM   20  S1  UNL     1     -18.395   6.714 -30.131  1.00  0.00    -0.050 SA
BRANCH  19  21
HETATM   21  O1  UNL     1     -18.504   6.644 -27.584  1.00  0.00    -0.337 OA
BRANCH  21  22
HETATM   22  C2  UNL     1     -19.188   6.260 -26.559  1.00  0.00     0.204 C 
BRANCH  22  23
HETATM   23  C1  UNL     1     -20.109   5.048 -26.742  1.00  0.00     0.256 C 
BRANCH  23  24
HETATM   24  N1  UNL     1     -19.314   3.833 -26.831  1.00  0.00    -0.077 N 
ATOM     25  H13 UNL     1     -18.771   3.668 -25.983  1.00  0.00     0.274 HD
ATOM     26  H12 UNL     1     -19.893   2.993 -26.801  1.00  0.00     0.274 HD
ATOM     27  H11 UNL     1     -18.726   3.864 -27.664  1.00  0.00     0.274 HD
ENDBRANCH  23  24
ENDBRANCH  22  23
ENDBRANCH  21  22
ENDBRANCH  19  21
ENDBRANCH   6  19
ENDBRANCH   1   5
BRANCH   3  28
HETATM   28  N6  UNL     1     -15.804   3.491 -27.152  1.00  0.00    -0.272 N 
ATOM     29  H6  UNL     1     -16.632   2.964 -27.432  1.00  0.00     0.189 HD
BRANCH  28  30
HETATM   30  C12 UNL     1     -14.565   2.855 -27.040  1.00  0.00     0.216 C 
HETATM   31  S2  UNL     1     -14.157   1.781 -28.188  1.00  0.00    -0.037 SA
BRANCH  30  32
HETATM   32  N7  UNL     1     -13.751   3.092 -25.929  1.00  0.00    -0.206 N 
ATOM     33  H7  UNL     1     -12.820   3.456 -26.130  1.00  0.00     0.204 HD
BRANCH  32  34
HETATM   34  N8  UNL     1     -14.038   2.902 -24.633  1.00  0.00    -0.302 NA
BRANCH  34  35
HETATM   35  C13 UNL     1     -14.309   2.727 -23.400  1.00  0.00     0.214 C 
BRANCH  35  36
HETATM   36  O4  UNL     1     -13.532   3.408 -22.433  1.00  0.00    -0.337 OA
ATOM     37  H4  UNL     1     -13.887   3.512 -21.557  1.00  0.00     0.220 HD
ENDBRANCH  35  36
BRANCH  35  38
HETATM   38  C14 UNL     1     -15.298   1.930 -22.668  1.00  0.00     0.110 C 
BRANCH  38  39
HETATM   39  C15 UNL     1     -16.528   1.600 -23.431  1.00  0.00     0.088 C 
BRANCH  39  40
HETATM   40  C16 UNL     1     -17.454   2.731 -23.423  1.00  0.00     0.113 A 
HETATM   41  N9  UNL     1     -17.112   4.001 -23.692  1.00  0.00    -0.272 N 
HETATM   42  N10 UNL     1     -18.209   4.767 -23.585  1.00  0.00    -0.227 N 
ATOM     43  H9  UNL     1     -16.177   4.327 -23.936  1.00  0.00     0.190 HD
HETATM   44  N11 UNL     1     -19.226   4.013 -23.254  1.00  0.00    -0.227 N 
ATOM     45  H10 UNL     1     -18.244   5.774 -23.738  1.00  0.00     0.210 HD
HETATM   46  N12 UNL     1     -18.757   2.729 -23.152  1.00  0.00    -0.272 N 
ATOM     47  H11 UNL     1     -20.185   4.322 -23.100  1.00  0.00     0.210 HD
ATOM     48  H12 UNL     1     -19.313   1.909 -22.909  1.00  0.00     0.190 HD
ENDBRANCH  39  40
ENDBRANCH  38  39
ENDBRANCH  35  38
ENDBRANCH  34  35
ENDBRANCH  32  34
ENDBRANCH  30  32
ENDBRANCH  28  30
ENDBRANCH   3  28
TORSDOF 15
ENDMDL
MODEL 2
REMARK VINA RESULT: -6.239351866      1.580      1.771
REMARK  15 active torsions:
REMARK  status: ('A' for Active; 'I' for Inactive)
REMARK    1  A    between atoms: N1_1  and  C1_5 
REMARK    2  A    between atoms: C1_5  and  C2_6 
REMARK    3  A    between atoms: C2_6  and  O1_7 
REMARK    4  A    between atoms: O1_7  and  C3_8 
REMARK    5  A    between atoms: C3_8  and  C4_10 
REMARK    6  A    between atoms: C10_23  and  C11_24 
REMARK       I    between atoms: C11_24  and  N5_26 
REMARK    7  A    between atoms: N5_26  and  N6_28 
REMARK    8  A    between atoms: N6_28  and  C12_30 
REMARK    9  A    between atoms: C12_30  and  N7_32 
REMARK   10  A    between atoms: N7_32  and  N8_34 
REMARK   11  A    between atoms: N8_34  and  C13_35 
REMARK   12  A    between atoms: C13_35  and  O4_36 
REMARK   13  A    between atoms: C13_35  and  C14_38 
REMARK   14  A    between atoms: C14_38  and  C15_39 
REMARK   15  A    between atoms: C15_39  and  C16_40 
ROOT
HETATM    1  C11 UNL     1     -15.558   5.440 -27.041  1.00  0.00     0.272 C 
HETATM    2  O3  UNL     1     -15.902   5.114 -25.878  1.00  0.00    -0.266 OA
HETATM    3  N5  UNL     1     -15.198   4.335 -27.893  1.00  0.00    -0.264 N 
ATOM      4  H5  UNL     1     -14.885   4.474 -28.854  1.00  0.00     0.190 HD
ENDROOT
BRANCH   1   5
HETATM    5  C10 UNL     1     -15.540   6.805 -27.439  1.00  0.00     0.065 C 
HETATM    6  C4  UNL     1     -16.381   7.148 -28.509  1.00  0.00     0.096 C 
HETATM    7  N2  UNL     1     -16.228   8.094 -29.455  1.00  0.00    -0.318 N 
HETATM    8  C5  UNL     1     -15.375   9.138 -29.503  1.00  0.00     0.275 C 
ATOM      9  H2  UNL     1     -16.852   8.008 -30.258  1.00  0.00     0.169 HD
HETATM   10  O2  UNL     1     -15.090   9.693 -30.574  1.00  0.00    -0.266 OA
HETATM   11  C6  UNL     1     -14.734   9.682 -28.379  1.00  0.00     0.128 A 
HETATM   12  N3  UNL     1     -14.309  10.923 -28.332  1.00  0.00    -0.295 N 
HETATM   13  C8  UNL     1     -14.458   9.026 -27.209  1.00  0.00     0.015 A 
HETATM   14  N4  UNL     1     -13.746  11.096 -27.116  1.00  0.00    -0.310 N 
ATOM     15  H3  UNL     1     -14.388  11.621 -29.070  1.00  0.00     0.187 HD
HETATM   16  C7  UNL     1     -13.818   9.964 -26.395  1.00  0.00     0.121 A 
ATOM     17  H4  UNL     1     -13.325  11.966 -26.790  1.00  0.00     0.186 HD
HETATM   18  C9  UNL     1     -14.719   7.738 -26.837  1.00  0.00     0.035 C 
BRANCH   6  19
HETATM   19  C3  UNL     1     -17.609   6.321 -28.587  1.00  0.00     0.164 C 
HETATM   20  S1  UNL     1     -18.813   6.737 -27.535  1.00  0.00    -0.050 SA
BRANCH  19  21
HETATM   21  O1  UNL     1     -17.765   5.340 -29.393  1.00  0.00    -0.337 OA
BRANCH  21  22
HETATM   22  C2  UNL     1     -17.887   4.354 -30.217  1.00  0.00     0.204 C 
BRANCH  22  23
HETATM   23  C1  UNL     1     -18.105   2.959 -29.619  1.00  0.00     0.256 C 
BRANCH  23  24
HETATM   24  N1  UNL     1     -17.109   2.037 -30.142  1.00  0.00    -0.077 N 
ATOM     25  H13 UNL     1     -17.523   1.153 -30.437  1.00  0.00     0.274 HD
ATOM     26  H12 UNL     1     -16.744   2.339 -31.046  1.00  0.00     0.274 HD
ATOM     27  H11 UNL     1     -16.367   1.904 -29.455  1.00  0.00     0.274 HD
ENDBRANCH  23  24
ENDBRANCH  22  23
ENDBRANCH  21  22
ENDBRANCH  19  21
ENDBRANCH   6  19
ENDBRANCH   1   5
BRANCH   3  28
HETATM   28  N6  UNL     1     -15.306   3.045 -27.317  1.00  0.00    -0.272 N 
ATOM     29  H6  UNL     1     -16.219   2.666 -27.065  1.00  0.00     0.189 HD
BRANCH  28  30
HETATM   30  C12 UNL     1     -14.145   2.299 -27.099  1.00  0.00     0.216 C 
HETATM   31  S2  UNL     1     -13.752   1.169 -28.199  1.00  0.00    -0.037 SA
BRANCH  30  32
HETATM   32  N7  UNL     1     -13.401   2.481 -25.931  1.00  0.00    -0.206 N 
ATOM     33  H7  UNL     1     -12.389   2.521 -26.050  1.00  0.00     0.204 HD
BRANCH  32  34
HETATM   34  N8  UNL     1     -13.848   2.609 -24.673  1.00  0.00    -0.302 NA
BRANCH  34  35
HETATM   35  C13 UNL     1     -14.277   2.731 -23.479  1.00  0.00     0.214 C 
BRANCH  35  36
HETATM   36  O4  UNL     1     -13.522   3.505 -22.565  1.00  0.00    -0.337 OA
ATOM     37  H4  UNL     1     -13.974   3.914 -21.835  1.00  0.00     0.220 HD
ENDBRANCH  35  36
BRANCH  35  38
HETATM   38  C14 UNL     1     -15.446   2.230 -22.750  1.00  0.00     0.110 C 
BRANCH  38  39
HETATM   39  C15 UNL     1     -16.503   1.625 -23.599  1.00  0.00     0.088 C 
BRANCH  39  40
HETATM   40  C16 UNL     1     -17.362   2.663 -24.165  1.00  0.00     0.113 A 
HETATM   41  N9  UNL     1     -17.929   2.606 -25.380  1.00  0.00    -0.272 N 
HETATM   42  N10 UNL     1     -18.641   3.728 -25.568  1.00  0.00    -0.227 N 
ATOM     43  H9  UNL     1     -17.835   1.840 -26.046  1.00  0.00     0.190 HD
HETATM   44  N11 UNL     1     -18.530   4.486 -24.508  1.00  0.00    -0.227 N 
ATOM     45  H10 UNL     1     -19.180   3.953 -26.403  1.00  0.00     0.210 HD
HETATM   46  N12 UNL     1     -17.727   3.820 -23.619  1.00  0.00    -0.272 N 
ATOM     47  H11 UNL     1     -18.961   5.401 -24.369  1.00  0.00     0.210 HD
ATOM     48  H12 UNL     1     -17.455   4.154 -22.695  1.00  0.00     0.190 HD
ENDBRANCH  39  40
ENDBRANCH  38  39
ENDBRANCH  35  38
ENDBRANCH  34  35
ENDBRANCH  32  34
ENDBRANCH  30  32
ENDBRANCH  28  30
ENDBRANCH   3  28
TORSDOF 15
ENDMDL
MODEL 3
REMARK VINA RESULT: -6.231074965      1.232      1.576
REMARK  15 active torsions:
REMARK  status: ('A' for Active; 'I' for Inactive)
REMARK    1  A    between atoms: N1_1  and  C1_5 
REMARK    2  A    between atoms: C1_5  and  C2_6 
REMARK    3  A    between atoms: C2_6  and  O1_7 
REMARK    4  A    between atoms: O1_7  and  C3_8 
REMARK    5  A    between atoms: C3_8  and  C4_10 
REMARK    6  A    between atoms: C10_23  and  C11_24 
REMARK       I    between atoms: C11_24  and  N5_26 
REMARK    7  A    between atoms: N5_26  and  N6_28 
REMARK    8  A    between atoms: N6_28  and  C12_30 
REMARK    9  A    between atoms: C12_30  and  N7_32 
REMARK   10  A    between atoms: N7_32  and  N8_34 
REMARK   11  A    between atoms: N8_34  and  C13_35 
REMARK   12  A    between atoms: C13_35  and  O4_36 
REMARK   13  A    between atoms: C13_35  and  C14_38 
REMARK   14  A    between atoms: C14_38  and  C15_39 
REMARK   15  A    between atoms: C15_39  and  C16_40 
ROOT
HETATM    1  C11 UNL     1     -15.489   5.603 -27.942  1.00  0.00     0.272 C 
HETATM    2  O3  UNL     1     -15.459   5.074 -29.081  1.00  0.00    -0.266 OA
HETATM    3  N5  UNL     1     -15.494   4.668 -26.846  1.00  0.00    -0.264 N 
ATOM      4  H5  UNL     1     -15.535   4.975 -25.875  1.00  0.00     0.190 HD
ENDROOT
BRANCH   1   5
HETATM    5  C10 UNL     1     -15.517   7.017 -27.796  1.00  0.00     0.065 C 
HETATM    6  C4  UNL     1     -16.658   7.667 -28.293  1.00  0.00     0.096 C 
HETATM    7  N2  UNL     1     -16.785   8.900 -28.818  1.00  0.00    -0.318 N 
HETATM    8  C5  UNL     1     -15.932   9.945 -28.785  1.00  0.00     0.275 C 
ATOM      9  H2  UNL     1     -17.658   9.070 -29.318  1.00  0.00     0.169 HD
HETATM   10  O2  UNL     1     -16.009  10.870 -29.607  1.00  0.00    -0.266 OA
HETATM   11  C6  UNL     1     -14.897  10.086 -27.849  1.00  0.00     0.128 A 
HETATM   12  N3  UNL     1     -14.396  11.251 -27.510  1.00  0.00    -0.295 N 
HETATM   13  C8  UNL     1     -14.270   9.070 -27.178  1.00  0.00     0.015 A 
HETATM   14  N4  UNL     1     -13.426  11.008 -26.601  1.00  0.00    -0.310 N 
ATOM     15  H3  UNL     1     -14.682  12.163 -27.863  1.00  0.00     0.187 HD
HETATM   16  C7  UNL     1     -13.316   9.690 -26.365  1.00  0.00     0.121 A 
ATOM     17  H4  UNL     1     -12.855  11.727 -26.155  1.00  0.00     0.186 HD
HETATM   18  C9  UNL     1     -14.472   7.721 -27.231  1.00  0.00     0.035 C 
BRANCH   6  19
HETATM   19  C3  UNL     1     -17.888   6.844 -28.222  1.00  0.00     0.164 C 
HETATM   20  S1  UNL     1     -18.665   6.604 -29.661  1.00  0.00    -0.050 SA
BRANCH  19  21
HETATM   21  O1  UNL     1     -18.357   6.341 -27.143  1.00  0.00    -0.337 OA
BRANCH  21  22
HETATM   22  C2  UNL     1     -18.836   5.868 -26.042  1.00  0.00     0.204 C 
BRANCH  22  23
HETATM   23  C1  UNL     1     -18.964   4.345 -25.927  1.00  0.00     0.256 C 
BRANCH  23  24
HETATM   24  N1  UNL     1     -18.119   3.859 -24.848  1.00  0.00    -0.077 N 
ATOM     25  H13 UNL     1     -18.645   3.710 -23.987  1.00  0.00     0.274 HD
ATOM     26  H12 UNL     1     -17.814   2.898 -25.002  1.00  0.00     0.274 HD
ATOM     27  H11 UNL     1     -17.332   4.493 -24.712  1.00  0.00     0.274 HD
ENDBRANCH  23  24
ENDBRANCH  22  23
ENDBRANCH  21  22
ENDBRANCH  19  21
ENDBRANCH   6  19
ENDBRANCH   1   5
BRANCH   3  28
HETATM   28  N6  UNL     1     -15.437   3.296 -27.198  1.00  0.00    -0.272 N 
ATOM     29  H6  UNL     1     -16.267   2.818 -27.548  1.00  0.00     0.189 HD
BRANCH  28  30
HETATM   30  C12 UNL     1     -14.228   2.608 -27.060  1.00  0.00     0.216 C 
HETATM   31  S2  UNL     1     -13.721   1.707 -28.313  1.00  0.00    -0.037 SA
BRANCH  30  32
HETATM   32  N7  UNL     1     -13.533   2.646 -25.850  1.00  0.00    -0.206 N 
ATOM     33  H7  UNL     1     -12.534   2.450 -25.905  1.00  0.00     0.204 HD
BRANCH  32  34
HETATM   34  N8  UNL     1     -14.011   2.907 -24.624  1.00  0.00    -0.302 NA
BRANCH  34  35
HETATM   35  C13 UNL     1     -14.467   3.159 -23.461  1.00  0.00     0.214 C 
BRANCH  35  36
HETATM   36  O4  UNL     1     -15.473   4.147 -23.329  1.00  0.00    -0.337 OA
ATOM     37  H4  UNL     1     -15.309   4.889 -22.759  1.00  0.00     0.220 HD
ENDBRANCH  35  36
BRANCH  35  38
HETATM   38  C14 UNL     1     -14.190   2.651 -22.114  1.00  0.00     0.110 C 
BRANCH  38  39
HETATM   39  C15 UNL     1     -14.703   1.284 -21.843  1.00  0.00     0.088 C 
BRANCH  39  40
HETATM   40  C16 UNL     1     -16.126   1.327 -21.512  1.00  0.00     0.113 A 
HETATM   41  N9  UNL     1     -17.108   1.569 -22.393  1.00  0.00    -0.272 N 
HETATM   42  N10 UNL     1     -18.280   1.539 -21.740  1.00  0.00    -0.227 N 
ATOM     43  H9  UNL     1     -16.985   1.746 -23.390  1.00  0.00     0.190 HD
HETATM   44  N11 UNL     1     -18.058   1.289 -20.475  1.00  0.00    -0.227 N 
ATOM     45  H10 UNL     1     -19.197   1.687 -22.162  1.00  0.00     0.210 HD
HETATM   46  N12 UNL     1     -16.702   1.152 -20.325  1.00  0.00    -0.272 N 
ATOM     47  H11 UNL     1     -18.761   1.211 -19.740  1.00  0.00     0.210 HD
ATOM     48  H12 UNL     1     -16.217   0.951 -19.451  1.00  0.00     0.190 HD
ENDBRANCH  39  40
ENDBRANCH  38  39
ENDBRANCH  35  38
ENDBRANCH  34  35
ENDBRANCH  32  34
ENDBRANCH  30  32
ENDBRANCH  28  30
ENDBRANCH   3  28
TORSDOF 15
ENDMDL
MODEL 4
REMARK VINA RESULT: -5.896805493      2.020      2.320
REMARK  15 active torsions:
REMARK  status: ('A' for Active; 'I' for Inactive)
REMARK    1  A    between atoms: N1_1  and  C1_5 
REMARK    2  A    between atoms: C1_5  and  C2_6 
REMARK    3  A    between atoms: C2_6  and  O1_7 
REMARK    4  A    between atoms: O1_7  and  C3_8 
REMARK    5  A    between atoms: C3_8  and  C4_10 
REMARK    6  A    between atoms: C10_23  and  C11_24 
REMARK       I    between atoms: C11_24  and  N5_26 
REMARK    7  A    between atoms: N5_26  and  N6_28 
REMARK    8  A    between atoms: N6_28  and  C12_30 
REMARK    9  A    between atoms: C12_30  and  N7_32 
REMARK   10  A    between atoms: N7_32  and  N8_34 
REMARK   11  A    between atoms: N8_34  and  C13_35 
REMARK   12  A    between atoms: C13_35  and  O4_36 
REMARK   13  A    between atoms: C13_35  and  C14_38 
REMARK   14  A    between atoms: C14_38  and  C15_39 
REMARK   15  A    between atoms: C15_39  and  C16_40 
ROOT
HETATM    1  C11 UNL     1     -16.300   4.567 -28.772  1.00  0.00     0.272 C 
HETATM    2  O3  UNL     1     -17.132   4.103 -27.953  1.00  0.00    -0.266 OA
HETATM    3  N5  UNL     1     -15.634   3.576 -29.577  1.00  0.00    -0.264 N 
ATOM      4  H5  UNL     1     -14.924   3.827 -30.265  1.00  0.00     0.190 HD
ENDROOT
BRANCH   1   5
HETATM    5  C10 UNL     1     -16.069   5.967 -28.860  1.00  0.00     0.065 C 
HETATM    6  C4  UNL     1     -16.626   6.616 -29.973  1.00  0.00     0.096 C 
HETATM    7  N2  UNL     1     -16.185   7.694 -30.650  1.00  0.00    -0.318 N 
HETATM    8  C5  UNL     1     -15.247   8.602 -30.312  1.00  0.00     0.275 C 
ATOM      9  H2  UNL     1     -16.629   7.846 -31.556  1.00  0.00     0.169 HD
HETATM   10  O2  UNL     1     -14.689   9.305 -31.167  1.00  0.00    -0.266 OA
HETATM   11  C6  UNL     1     -14.813   8.833 -28.999  1.00  0.00     0.128 A 
HETATM   12  N3  UNL     1     -14.292   9.973 -28.609  1.00  0.00    -0.295 N 
HETATM   13  C8  UNL     1     -14.857   7.937 -27.964  1.00  0.00     0.015 A 
HETATM   14  N4  UNL     1     -13.988   9.836 -27.299  1.00  0.00    -0.310 N 
ATOM     15  H3  UNL     1     -14.145  10.803 -29.184  1.00  0.00     0.187 HD
HETATM   16  C7  UNL     1     -14.319   8.610 -26.862  1.00  0.00     0.121 A 
ATOM     17  H4  UNL     1     -13.566  10.564 -26.722  1.00  0.00     0.186 HD
HETATM   18  C9  UNL     1     -15.311   6.650 -27.929  1.00  0.00     0.035 C 
BRANCH   6  19
HETATM   19  C3  UNL     1     -17.881   5.994 -30.457  1.00  0.00     0.164 C 
HETATM   20  S1  UNL     1     -17.825   5.384 -31.992  1.00  0.00    -0.050 SA
BRANCH  19  21
HETATM   21  O1  UNL     1     -18.958   5.919 -29.770  1.00  0.00    -0.337 OA
BRANCH  21  22
HETATM   22  C2  UNL     1     -20.050   5.880 -29.084  1.00  0.00     0.204 C 
BRANCH  22  23
HETATM   23  C1  UNL     1     -20.789   4.538 -29.014  1.00  0.00     0.256 C 
BRANCH  23  24
HETATM   24  N1  UNL     1     -19.832   3.445 -29.069  1.00  0.00    -0.077 N 
ATOM     25  H13 UNL     1     -19.980   2.846 -29.881  1.00  0.00     0.274 HD
ATOM     26  H12 UNL     1     -18.891   3.769 -29.294  1.00  0.00     0.274 HD
ATOM     27  H11 UNL     1     -19.857   2.919 -28.195  1.00  0.00     0.274 HD
ENDBRANCH  23  24
ENDBRANCH  22  23
ENDBRANCH  21  22
ENDBRANCH  19  21
ENDBRANCH   6  19
ENDBRANCH   1   5
BRANCH   3  28
HETATM   28  N6  UNL     1     -16.022   2.231 -29.355  1.00  0.00    -0.272 N 
ATOM     29  H6  UNL     1     -16.916   1.887 -29.707  1.00  0.00     0.189 HD
BRANCH  28  30
HETATM   30  C12 UNL     1     -15.164   1.383 -28.649  1.00  0.00     0.216 C 
HETATM   31  S2  UNL     1     -15.504  -0.206 -28.644  1.00  0.00    -0.037 SA
BRANCH  30  32
HETATM   32  N7  UNL     1     -14.100   1.912 -27.916  1.00  0.00    -0.206 N 
ATOM     33  H7  UNL     1     -13.176   1.809 -28.336  1.00  0.00     0.204 HD
BRANCH  32  34
HETATM   34  N8  UNL     1     -14.137   2.538 -26.730  1.00  0.00    -0.302 NA
BRANCH  34  35
HETATM   35  C13 UNL     1     -14.174   3.137 -25.607  1.00  0.00     0.214 C 
BRANCH  35  36
HETATM   36  O4  UNL     1     -13.751   2.435 -24.452  1.00  0.00    -0.337 OA
ATOM     37  H4  UNL     1     -14.391   2.250 -23.774  1.00  0.00     0.220 HD
ENDBRANCH  35  36
BRANCH  35  38
HETATM   38  C14 UNL     1     -14.580   4.475 -25.166  1.00  0.00     0.110 C 
BRANCH  38  39
HETATM   39  C15 UNL     1     -15.642   4.498 -24.129  1.00  0.00     0.088 C 
BRANCH  39  40
HETATM   40  C16 UNL     1     -16.965   4.524 -24.751  1.00  0.00     0.113 A 
HETATM   41  N9  UNL     1     -17.720   3.440 -24.986  1.00  0.00    -0.272 N 
HETATM   42  N10 UNL     1     -18.861   3.837 -25.570  1.00  0.00    -0.227 N 
ATOM     43  H9  UNL     1     -17.470   2.478 -24.758  1.00  0.00     0.190 HD
HETATM   44  N11 UNL     1     -18.838   5.138 -25.712  1.00  0.00    -0.227 N 
ATOM     45  H10 UNL     1     -19.623   3.224 -25.858  1.00  0.00     0.210 HD
HETATM   46  N12 UNL     1     -17.647   5.577 -25.196  1.00  0.00    -0.272 N 
ATOM     47  H11 UNL     1     -19.569   5.715 -26.129  1.00  0.00     0.210 HD
ATOM     48  H12 UNL     1     -17.334   6.547 -25.160  1.00  0.00     0.190 HD
ENDBRANCH  39  40
ENDBRANCH  38  39
ENDBRANCH  35  38
ENDBRANCH  34  35
ENDBRANCH  32  34
ENDBRANCH  30  32
ENDBRANCH  28  30
ENDBRANCH   3  28
TORSDOF 15
ENDMDL
MODEL 5
REMARK VINA RESULT: -5.868455889      2.588      8.296
REMARK  15 active torsions:
REMARK  status: ('A' for Active; 'I' for Inactive)
REMARK    1  A    between atoms: N1_1  and  C1_5 
REMARK    2  A    between atoms: C1_5  and  C2_6 
REMARK    3  A    between atoms: C2_6  and  O1_7 
REMARK    4  A    between atoms: O1_7  and  C3_8 
REMARK    5  A    between atoms: C3_8  and  C4_10 
REMARK    6  A    between atoms: C10_23  and  C11_24 
REMARK       I    between atoms: C11_24  and  N5_26 
REMARK    7  A    between atoms: N5_26  and  N6_28 
REMARK    8  A    between atoms: N6_28  and  C12_30 
REMARK    9  A    between atoms: C12_30  and  N7_32 
REMARK   10  A    between atoms: N7_32  and  N8_34 
REMARK   11  A    between atoms: N8_34  and  C13_35 
REMARK   12  A    between atoms: C13_35  and  O4_36 
REMARK   13  A    between atoms: C13_35  and  C14_38 
REMARK   14  A    between atoms: C14_38  and  C15_39 
REMARK   15  A    between atoms: C15_39  and  C16_40 
ROOT
HETATM    1  C11 UNL     1     -15.039   4.185 -25.686  1.00  0.00     0.272 C 
HETATM    2  O3  UNL     1     -13.839   4.406 -25.980  1.00  0.00    -0.266 OA
HETATM    3  N5  UNL     1     -15.974   5.143 -26.217  1.00  0.00    -0.264 N 
ATOM      4  H5  UNL     1     -16.976   5.081 -26.032  1.00  0.00     0.190 HD
ENDROOT
BRANCH   1   5
HETATM    5  C10 UNL     1     -15.399   3.064 -24.888  1.00  0.00     0.065 C 
HETATM    6  C4  UNL     1     -16.286   2.148 -25.473  1.00  0.00     0.096 C 
HETATM    7  N2  UNL     1     -17.220   1.366 -24.898  1.00  0.00    -0.318 N 
HETATM    8  C5  UNL     1     -17.397   1.046 -23.600  1.00  0.00     0.275 C 
ATOM      9  H2  UNL     1     -17.896   0.955 -25.542  1.00  0.00     0.169 HD
HETATM   10  O2  UNL     1     -18.488   0.634 -23.178  1.00  0.00    -0.266 OA
HETATM   11  C6  UNL     1     -16.398   1.147 -22.621  1.00  0.00     0.128 A 
HETATM   12  N3  UNL     1     -16.397   0.427 -21.524  1.00  0.00    -0.295 N 
HETATM   13  C8  UNL     1     -15.315   1.986 -22.655  1.00  0.00     0.015 A 
HETATM   14  N4  UNL     1     -15.302   0.789 -20.820  1.00  0.00    -0.310 N 
ATOM     15  H3  UNL     1     -17.090  -0.270 -21.254  1.00  0.00     0.187 HD
HETATM   16  C7  UNL     1     -14.609   1.735 -21.475  1.00  0.00     0.121 A 
ATOM     17  H4  UNL     1     -15.036   0.396 -19.917  1.00  0.00     0.186 HD
HETATM   18  C9  UNL     1     -14.934   2.897 -23.598  1.00  0.00     0.035 C 
BRANCH   6  19
HETATM   19  C3  UNL     1     -16.158   2.057 -26.947  1.00  0.00     0.164 C 
HETATM   20  S1  UNL     1     -17.557   2.291 -27.797  1.00  0.00    -0.050 SA
BRANCH  19  21
HETATM   21  O1  UNL     1     -15.063   1.809 -27.560  1.00  0.00    -0.337 OA
BRANCH  21  22
HETATM   22  C2  UNL     1     -13.965   1.586 -28.201  1.00  0.00     0.204 C 
BRANCH  22  23
HETATM   23  C1  UNL     1     -12.699   1.356 -27.369  1.00  0.00     0.256 C 
BRANCH  23  24
HETATM   24  N1  UNL     1     -11.838   0.392 -28.036  1.00  0.00    -0.077 N 
ATOM     25  H13 UNL     1     -11.269  -0.135 -27.375  1.00  0.00     0.274 HD
ATOM     26  H12 UNL     1     -12.367  -0.386 -28.430  1.00  0.00     0.274 HD
ATOM     27  H11 UNL     1     -11.271   0.864 -28.740  1.00  0.00     0.274 HD
ENDBRANCH  23  24
ENDBRANCH  22  23
ENDBRANCH  21  22
ENDBRANCH  19  21
ENDBRANCH   6  19
ENDBRANCH   1   5
BRANCH   3  28
HETATM   28  N6  UNL     1     -15.421   6.178 -27.011  1.00  0.00    -0.272 N 
ATOM     29  H6  UNL     1     -14.645   6.740 -26.661  1.00  0.00     0.189 HD
BRANCH  28  30
HETATM   30  C12 UNL     1     -15.952   6.418 -28.282  1.00  0.00     0.216 C 
HETATM   31  S2  UNL     1     -17.542   6.164 -28.499  1.00  0.00    -0.037 SA
BRANCH  30  32
HETATM   32  N7  UNL     1     -15.114   6.790 -29.335  1.00  0.00    -0.206 N 
ATOM     33  H7  UNL     1     -14.491   6.063 -29.686  1.00  0.00     0.204 HD
BRANCH  32  34
HETATM   34  N8  UNL     1     -15.023   7.982 -29.945  1.00  0.00    -0.302 NA
BRANCH  34  35
HETATM   35  C13 UNL     1     -14.935   9.111 -30.528  1.00  0.00     0.214 C 
BRANCH  35  36
HETATM   36  O4  UNL     1     -14.253   9.181 -31.767  1.00  0.00    -0.337 OA
ATOM     37  H4  UNL     1     -14.670   9.637 -32.489  1.00  0.00     0.220 HD
ENDBRANCH  35  36
BRANCH  35  38
HETATM   38  C14 UNL     1     -15.391  10.469 -30.215  1.00  0.00     0.110 C 
BRANCH  38  39
HETATM   39  C15 UNL     1     -15.975  10.638 -28.861  1.00  0.00     0.088 C 
BRANCH  39  40
HETATM   40  C16 UNL     1     -14.923  10.645 -27.846  1.00  0.00     0.113 A 
HETATM   41  N9  UNL     1     -14.442   9.551 -27.237  1.00  0.00    -0.272 N 
HETATM   42  N10 UNL     1     -13.496   9.932 -26.365  1.00  0.00    -0.227 N 
ATOM     43  H9  UNL     1     -14.744   8.592 -27.408  1.00  0.00     0.190 HD
HETATM   44  N11 UNL     1     -13.375  11.235 -26.409  1.00  0.00    -0.227 N 
ATOM     45  H10 UNL     1     -12.958   9.308 -25.765  1.00  0.00     0.210 HD
HETATM   46  N12 UNL     1     -14.270  11.689 -27.342  1.00  0.00    -0.272 N 
ATOM     47  H11 UNL     1     -12.735  11.803 -25.854  1.00  0.00     0.210 HD
ATOM     48  H12 UNL     1     -14.413  12.665 -27.606  1.00  0.00     0.190 HD
ENDBRANCH  39  40
ENDBRANCH  38  39
ENDBRANCH  35  38
ENDBRANCH  34  35
ENDBRANCH  32  34
ENDBRANCH  30  32
ENDBRANCH  28  30
ENDBRANCH   3  28
TORSDOF 15
ENDMDL
