MODEL 1
REMARK VINA RESULT: -7.127032952      0.000      0.000
REMARK  9 active torsions:
REMARK  status: ('A' for Active; 'I' for Inactive)
REMARK    1  A    between atoms: C2_2  and  O1_3 
REMARK    2  A    between atoms: O1_3  and  C3_4 
REMARK    3  A    between atoms: C3_4  and  C4_6 
REMARK       I    between atoms: C4_6  and  N1_8 
REMARK    4  A    between atoms: N1_8  and  C5_10 
REMARK    5  A    between atoms: C5_10  and  C7_13 
REMARK    6  A    between atoms: C7_13  and  C8_14 
REMARK    7  A    between atoms: C8_14  and  S1_15 
REMARK    8  A    between atoms: S1_15  and  C9_16 
REMARK       I    between atoms: N3_18  and  C11_20 
REMARK       I    between atoms: C11_20  and  N6_25 
REMARK    9  A    between atoms: N6_25  and  C13_27 
ROOT
HETATM    1  C5  UNL     1      -4.691   2.027  11.967  1.00  0.00     0.239 C 
HETATM    2  C6  UNL     1      -4.604   0.992  10.935  1.00  0.00     0.090 C 
HETATM    3  N2  UNL     1      -4.539   0.160  10.136  1.00  0.00    -0.195 NA
ENDROOT
BRANCH   1   4
HETATM    4  N1  UNL     1      -4.310   1.383  13.227  1.00  0.00    -0.330 N 
HETATM    5  C4  UNL     1      -4.822   1.825  14.474  1.00  0.00     0.318 C 
HETATM    6  O3  UNL     1      -5.626   2.785  14.557  1.00  0.00    -0.262 OA
ATOM      7  H1  UNL     1      -3.660   0.597  13.207  1.00  0.00     0.164 HD
BRANCH   5   8
HETATM    8  C3  UNL     1      -4.434   1.174  15.718  1.00  0.00     0.351 C 
HETATM    9  O2  UNL     1      -3.402   1.575  16.319  1.00  0.00    -0.254 OA
BRANCH   8  10
HETATM   10  O1  UNL     1      -5.140   0.134  16.280  1.00  0.00    -0.314 OA
BRANCH  10  11
HETATM   11  C2  UNL     1      -5.952   0.359  17.390  1.00  0.00     0.175 C 
HETATM   12  C1  UNL     1      -7.252   1.041  17.104  1.00  0.00     0.034 C 
ENDBRANCH  10  11
ENDBRANCH   8  10
ENDBRANCH   5   8
ENDBRANCH   1   4
BRANCH   1  13
HETATM   13  C7  UNL     1      -3.833   3.199  11.698  1.00  0.00     0.050 C 
HETATM   14  N3  UNL     1      -4.040   4.300  12.346  1.00  0.00    -0.195 N 
HETATM   15  C11 UNL     1      -3.259   5.466  12.144  1.00  0.00     0.687 C 
ATOM     16  H3  UNL     1      -4.795   4.329  13.031  1.00  0.00     0.184 HD
HETATM   17  N4  UNL     1      -2.263   5.775  12.903  1.00  0.00    -0.126 N 
HETATM   18  N6  UNL     1      -3.574   6.327  11.076  1.00  0.00    -0.222 N 
HETATM   19  C12 UNL     1      -1.961   4.898  13.969  1.00  0.00     0.196 C 
ATOM     20  H4  UNL     1      -1.714   6.618  12.740  1.00  0.00     0.197 HD
HETATM   21  N5  UNL     1      -1.699   4.183  14.854  1.00  0.00    -0.171 NA
ATOM     22  H6  UNL     1      -3.874   5.910  10.195  1.00  0.00     0.178 HD
BRANCH  13  23
HETATM   23  C8  UNL     1      -2.748   3.129  10.705  1.00  0.00     0.130 C 
BRANCH  23  24
HETATM   24  S1  UNL     1      -1.227   2.420  11.352  1.00  0.00    -0.164 SA
BRANCH  24  25
HETATM   25  C9  UNL     1       0.135   3.578  11.130  1.00  0.00     0.069 C 
HETATM   26  C10 UNL     1      -0.236   4.604  10.077  1.00  0.00     0.016 C 
ENDBRANCH  24  25
ENDBRANCH  23  24
ENDBRANCH  13  23
BRANCH  18  27
HETATM   27  C13 UNL     1      -3.498   7.767  11.155  1.00  0.00     0.091 C 
HETATM   28  C14 UNL     1      -2.367   8.306  10.312  1.00  0.00     0.032 C 
HETATM   29  C15 UNL     1      -4.781   8.397  10.609  1.00  0.00     0.032 C 
ENDBRANCH  18  27
ENDBRANCH   1  13
TORSDOF 9
ENDMDL
MODEL 2
REMARK VINA RESULT: -7.072353538      1.875      3.487
REMARK  9 active torsions:
REMARK  status: ('A' for Active; 'I' for Inactive)
REMARK    1  A    between atoms: C2_2  and  O1_3 
REMARK    2  A    between atoms: O1_3  and  C3_4 
REMARK    3  A    between atoms: C3_4  and  C4_6 
REMARK       I    between atoms: C4_6  and  N1_8 
REMARK    4  A    between atoms: N1_8  and  C5_10 
REMARK    5  A    between atoms: C5_10  and  C7_13 
REMARK    6  A    between atoms: C7_13  and  C8_14 
REMARK    7  A    between atoms: C8_14  and  S1_15 
REMARK    8  A    between atoms: S1_15  and  C9_16 
REMARK       I    between atoms: N3_18  and  C11_20 
REMARK       I    between atoms: C11_20  and  N6_25 
REMARK    9  A    between atoms: N6_25  and  C13_27 
ROOT
HETATM    1  C5  UNL     1      -4.418   2.289  12.089  1.00  0.00     0.239 C 
HETATM    2  C6  UNL     1      -4.647   1.274  11.059  1.00  0.00     0.090 C 
HETATM    3  N2  UNL     1      -4.832   0.457  10.262  1.00  0.00    -0.195 NA
ENDROOT
BRANCH   1   4
HETATM    4  N1  UNL     1      -4.097   1.561  13.320  1.00  0.00    -0.330 N 
HETATM    5  C4  UNL     1      -4.767   1.832  14.540  1.00  0.00     0.318 C 
HETATM    6  O3  UNL     1      -5.665   2.705  14.624  1.00  0.00    -0.262 OA
ATOM      7  H1  UNL     1      -3.375   0.842  13.298  1.00  0.00     0.164 HD
BRANCH   5   8
HETATM    8  C3  UNL     1      -4.436   1.100  15.756  1.00  0.00     0.351 C 
HETATM    9  O2  UNL     1      -3.377   1.389  16.372  1.00  0.00    -0.254 OA
BRANCH   8  10
HETATM   10  O1  UNL     1      -5.227   0.098  16.274  1.00  0.00    -0.314 OA
BRANCH  10  11
HETATM   11  C2  UNL     1      -6.012   0.339  17.399  1.00  0.00     0.175 C 
HETATM   12  C1  UNL     1      -7.290   1.074  17.143  1.00  0.00     0.034 C 
ENDBRANCH  10  11
ENDBRANCH   8  10
ENDBRANCH   5   8
ENDBRANCH   1   4
BRANCH   1  13
HETATM   13  C7  UNL     1      -3.340   3.241  11.747  1.00  0.00     0.050 C 
HETATM   14  N3  UNL     1      -3.006   3.402  10.508  1.00  0.00    -0.195 N 
HETATM   15  C11 UNL     1      -1.983   4.296  10.101  1.00  0.00     0.687 C 
ATOM     16  H3  UNL     1      -3.498   2.865   9.794  1.00  0.00     0.184 HD
HETATM   17  N4  UNL     1      -2.231   5.492   9.686  1.00  0.00    -0.126 N 
HETATM   18  N6  UNL     1      -0.641   3.873  10.150  1.00  0.00    -0.222 N 
HETATM   19  C12 UNL     1      -3.582   5.899   9.645  1.00  0.00     0.196 C 
ATOM     20  H4  UNL     1      -1.480   6.119   9.398  1.00  0.00     0.197 HD
HETATM   21  N5  UNL     1      -4.695   6.250   9.606  1.00  0.00    -0.171 NA
ATOM     22  H6  UNL     1      -0.350   3.290  10.934  1.00  0.00     0.178 HD
BRANCH  13  23
HETATM   23  C8  UNL     1      -2.646   4.005  12.797  1.00  0.00     0.130 C 
BRANCH  23  24
HETATM   24  S1  UNL     1      -3.588   5.414  13.401  1.00  0.00    -0.164 SA
BRANCH  24  25
HETATM   25  C9  UNL     1      -2.678   6.939  13.096  1.00  0.00     0.069 C 
HETATM   26  C10 UNL     1      -2.170   7.499  14.411  1.00  0.00     0.016 C 
ENDBRANCH  24  25
ENDBRANCH  23  24
ENDBRANCH  13  23
BRANCH  18  27
HETATM   27  C13 UNL     1       0.347   4.218   9.155  1.00  0.00     0.091 C 
HETATM   28  C14 UNL     1       1.716   3.711   9.539  1.00  0.00     0.032 C 
HETATM   29  C15 UNL     1       0.003   3.560   7.816  1.00  0.00     0.032 C 
ENDBRANCH  18  27
ENDBRANCH   1  13
TORSDOF 9
ENDMDL
MODEL 3
REMARK VINA RESULT: -7.025038827      1.892      3.633
REMARK  9 active torsions:
REMARK  status: ('A' for Active; 'I' for Inactive)
REMARK    1  A    between atoms: C2_2  and  O1_3 
REMARK    2  A    between atoms: O1_3  and  C3_4 
REMARK    3  A    between atoms: C3_4  and  C4_6 
REMARK       I    between atoms: C4_6  and  N1_8 
REMARK    4  A    between atoms: N1_8  and  C5_10 
REMARK    5  A    between atoms: C5_10  and  C7_13 
REMARK    6  A    between atoms: C7_13  and  C8_14 
REMARK    7  A    between atoms: C8_14  and  S1_15 
REMARK    8  A    between atoms: S1_15  and  C9_16 
REMARK       I    between atoms: N3_18  and  C11_20 
REMARK       I    between atoms: C11_20  and  N6_25 
REMARK    9  A    between atoms: N6_25  and  C13_27 
ROOT
HETATM    1  C5  UNL     1      -4.061   3.043  12.417  1.00  0.00     0.239 C 
HETATM    2  C6  UNL     1      -4.345   2.250  11.218  1.00  0.00     0.090 C 
HETATM    3  N2  UNL     1      -4.576   1.609  10.285  1.00  0.00    -0.195 NA
ENDROOT
BRANCH   1   4
HETATM    4  N1  UNL     1      -3.871   2.083  13.508  1.00  0.00    -0.330 N 
HETATM    5  C4  UNL     1      -4.693   2.100  14.664  1.00  0.00     0.318 C 
HETATM    6  O3  UNL     1      -5.620   2.933  14.806  1.00  0.00    -0.262 OA
ATOM      7  H1  UNL     1      -3.130   1.387  13.434  1.00  0.00     0.164 HD
BRANCH   5   8
HETATM    8  C3  UNL     1      -4.492   1.139  15.741  1.00  0.00     0.351 C 
HETATM    9  O2  UNL     1      -3.421   1.182  16.403  1.00  0.00    -0.254 OA
BRANCH   8  10
HETATM   10  O1  UNL     1      -5.418   0.177  16.078  1.00  0.00    -0.314 OA
BRANCH  10  11
HETATM   11  C2  UNL     1      -6.174   0.312  17.241  1.00  0.00     0.175 C 
HETATM   12  C1  UNL     1      -7.388   1.177  17.118  1.00  0.00     0.034 C 
ENDBRANCH  10  11
ENDBRANCH   8  10
ENDBRANCH   5   8
ENDBRANCH   1   4
BRANCH   1  13
HETATM   13  C7  UNL     1      -2.878   3.917  12.277  1.00  0.00     0.050 C 
HETATM   14  N3  UNL     1      -2.358   4.099  11.106  1.00  0.00    -0.195 N 
HETATM   15  C11 UNL     1      -1.225   4.923  10.891  1.00  0.00     0.687 C 
ATOM     16  H3  UNL     1      -2.782   3.631  10.305  1.00  0.00     0.184 HD
HETATM   17  N4  UNL     1      -1.321   6.150  10.505  1.00  0.00    -0.126 N 
HETATM   18  N6  UNL     1       0.062   4.392  11.106  1.00  0.00    -0.222 N 
HETATM   19  C12 UNL     1      -2.619   6.666  10.295  1.00  0.00     0.196 C 
ATOM     20  H4  UNL     1      -0.493   6.726  10.356  1.00  0.00     0.197 HD
HETATM   21  N5  UNL     1      -3.686   7.106  10.118  1.00  0.00    -0.171 NA
ATOM     22  H6  UNL     1       0.194   3.758  11.893  1.00  0.00     0.178 HD
BRANCH  13  23
HETATM   23  C8  UNL     1      -2.287   4.582  13.450  1.00  0.00     0.130 C 
BRANCH  23  24
HETATM   24  S1  UNL     1      -3.173   6.063  13.958  1.00  0.00    -0.164 SA
BRANCH  24  25
HETATM   25  C9  UNL     1      -2.101   7.503  13.812  1.00  0.00     0.069 C 
HETATM   26  C10 UNL     1      -2.074   8.252  15.131  1.00  0.00     0.016 C 
ENDBRANCH  24  25
ENDBRANCH  23  24
ENDBRANCH  13  23
BRANCH  18  27
HETATM   27  C13 UNL     1       1.205   4.695  10.277  1.00  0.00     0.091 C 
HETATM   28  C14 UNL     1       2.496   4.566  11.050  1.00  0.00     0.032 C 
HETATM   29  C15 UNL     1       1.295   3.701   9.116  1.00  0.00     0.032 C 
ENDBRANCH  18  27
ENDBRANCH   1  13
TORSDOF 9
ENDMDL
MODEL 4
REMARK VINA RESULT: -6.930666677      2.186      4.189
REMARK  9 active torsions:
REMARK  status: ('A' for Active; 'I' for Inactive)
REMARK    1  A    between atoms: C2_2  and  O1_3 
REMARK    2  A    between atoms: O1_3  and  C3_4 
REMARK    3  A    between atoms: C3_4  and  C4_6 
REMARK       I    between atoms: C4_6  and  N1_8 
REMARK    4  A    between atoms: N1_8  and  C5_10 
REMARK    5  A    between atoms: C5_10  and  C7_13 
REMARK    6  A    between atoms: C7_13  and  C8_14 
REMARK    7  A    between atoms: C8_14  and  S1_15 
REMARK    8  A    between atoms: S1_15  and  C9_16 
REMARK       I    between atoms: N3_18  and  C11_20 
REMARK       I    between atoms: C11_20  and  N6_25 
REMARK    9  A    between atoms: N6_25  and  C13_27 
ROOT
HETATM    1  C5  UNL     1      -3.985   3.469  13.898  1.00  0.00     0.239 C 
HETATM    2  C6  UNL     1      -5.058   4.462  13.989  1.00  0.00     0.090 C 
HETATM    3  N2  UNL     1      -5.914   5.234  14.076  1.00  0.00    -0.195 NA
ENDROOT
BRANCH   1   4
HETATM    4  N1  UNL     1      -4.555   2.205  14.372  1.00  0.00    -0.330 N 
HETATM    5  C4  UNL     1      -4.138   1.611  15.590  1.00  0.00     0.318 C 
HETATM    6  O3  UNL     1      -3.264   2.139  16.320  1.00  0.00    -0.262 OA
ATOM      7  H1  UNL     1      -5.270   1.741  13.811  1.00  0.00     0.164 HD
BRANCH   5   8
HETATM    8  C3  UNL     1      -4.714   0.353  16.048  1.00  0.00     0.351 C 
HETATM    9  O2  UNL     1      -4.679  -0.647  15.282  1.00  0.00    -0.254 OA
BRANCH   8  10
HETATM   10  O1  UNL     1      -5.300   0.195  17.284  1.00  0.00    -0.314 OA
BRANCH  10  11
HETATM   11  C2  UNL     1      -6.205   1.144  17.754  1.00  0.00     0.175 C 
HETATM   12  C1  UNL     1      -7.492   1.232  16.994  1.00  0.00     0.034 C 
ENDBRANCH  10  11
ENDBRANCH   8  10
ENDBRANCH   5   8
ENDBRANCH   1   4
BRANCH   1  13
HETATM   13  C7  UNL     1      -3.437   3.319  12.534  1.00  0.00     0.050 C 
HETATM   14  N3  UNL     1      -2.312   2.701  12.367  1.00  0.00    -0.195 N 
HETATM   15  C11 UNL     1      -1.723   2.517  11.091  1.00  0.00     0.687 C 
ATOM     16  H3  UNL     1      -1.830   2.332  13.186  1.00  0.00     0.184 HD
HETATM   17  N4  UNL     1      -1.866   1.429  10.411  1.00  0.00    -0.126 N 
HETATM   18  N6  UNL     1      -0.952   3.554  10.533  1.00  0.00    -0.222 N 
HETATM   19  C12 UNL     1      -2.643   0.400  10.986  1.00  0.00     0.196 C 
ATOM     20  H4  UNL     1      -1.433   1.316   9.494  1.00  0.00     0.197 HD
HETATM   21  N5  UNL     1      -3.284  -0.460  11.448  1.00  0.00    -0.171 NA
ATOM     22  H6  UNL     1      -1.265   4.514  10.674  1.00  0.00     0.178 HD
BRANCH  13  23
HETATM   23  C8  UNL     1      -4.155   3.860  11.368  1.00  0.00     0.130 C 
BRANCH  23  24
HETATM   24  S1  UNL     1      -3.834   5.605  11.074  1.00  0.00    -0.164 SA
BRANCH  24  25
HETATM   25  C9  UNL     1      -5.242   6.358  10.241  1.00  0.00     0.069 C 
HETATM   26  C10 UNL     1      -5.885   7.385  11.155  1.00  0.00     0.016 C 
ENDBRANCH  24  25
ENDBRANCH  23  24
ENDBRANCH  13  23
BRANCH  18  27
HETATM   27  C13 UNL     1       0.256   3.337   9.772  1.00  0.00     0.091 C 
HETATM   28  C14 UNL     1       0.078   3.743   8.328  1.00  0.00     0.032 C 
HETATM   29  C15 UNL     1       1.393   4.199  10.326  1.00  0.00     0.032 C 
ENDBRANCH  18  27
ENDBRANCH   1  13
TORSDOF 9
ENDMDL
MODEL 5
REMARK VINA RESULT: -6.905020240      1.908      3.743
REMARK  9 active torsions:
REMARK  status: ('A' for Active; 'I' for Inactive)
REMARK    1  A    between atoms: C2_2  and  O1_3 
REMARK    2  A    between atoms: O1_3  and  C3_4 
REMARK    3  A    between atoms: C3_4  and  C4_6 
REMARK       I    between atoms: C4_6  and  N1_8 
REMARK    4  A    between atoms: N1_8  and  C5_10 
REMARK    5  A    between atoms: C5_10  and  C7_13 
REMARK    6  A    between atoms: C7_13  and  C8_14 
REMARK    7  A    between atoms: C8_14  and  S1_15 
REMARK    8  A    between atoms: S1_15  and  C9_16 
REMARK       I    between atoms: N3_18  and  C11_20 
REMARK       I    between atoms: C11_20  and  N6_25 
REMARK    9  A    between atoms: N6_25  and  C13_27 
ROOT
HETATM    1  C5  UNL     1      -4.281   2.479  12.102  1.00  0.00     0.239 C 
HETATM    2  C6  UNL     1      -4.473   1.525  11.008  1.00  0.00     0.090 C 
HETATM    3  N2  UNL     1      -4.631   0.757  10.158  1.00  0.00    -0.195 NA
ENDROOT
BRANCH   1   4
HETATM    4  N1  UNL     1      -4.029   1.680  13.304  1.00  0.00    -0.330 N 
HETATM    5  C4  UNL     1      -4.732   1.913  14.513  1.00  0.00     0.318 C 
HETATM    6  O3  UNL     1      -5.603   2.811  14.611  1.00  0.00    -0.262 OA
ATOM      7  H1  UNL     1      -3.330   0.938  13.270  1.00  0.00     0.164 HD
BRANCH   5   8
HETATM    8  C3  UNL     1      -4.470   1.110  15.701  1.00  0.00     0.351 C 
HETATM    9  O2  UNL     1      -3.413   1.316  16.354  1.00  0.00    -0.254 OA
BRANCH   8  10
HETATM   10  O1  UNL     1      -5.323   0.127  16.152  1.00  0.00    -0.314 OA
BRANCH  10  11
HETATM   11  C2  UNL     1      -6.084   0.336  17.300  1.00  0.00     0.175 C 
HETATM   12  C1  UNL     1      -7.334   1.134  17.103  1.00  0.00     0.034 C 
ENDBRANCH  10  11
ENDBRANCH   8  10
ENDBRANCH   5   8
ENDBRANCH   1   4
BRANCH   1  13
HETATM   13  C7  UNL     1      -3.176   3.431  11.864  1.00  0.00     0.050 C 
HETATM   14  N3  UNL     1      -2.287   3.160  10.964  1.00  0.00    -0.195 N 
HETATM   15  C11 UNL     1      -1.199   4.023  10.679  1.00  0.00     0.687 C 
ATOM     16  H3  UNL     1      -2.373   2.291  10.438  1.00  0.00     0.184 HD
HETATM   17  N4  UNL     1      -1.222   4.871   9.706  1.00  0.00    -0.126 N 
HETATM   18  N6  UNL     1      -0.044   3.962  11.482  1.00  0.00    -0.222 N 
HETATM   19  C12 UNL     1      -2.389   4.919   8.913  1.00  0.00     0.196 C 
ATOM     20  H4  UNL     1      -0.428   5.483   9.518  1.00  0.00     0.197 HD
HETATM   21  N5  UNL     1      -3.347   4.971   8.248  1.00  0.00    -0.171 NA
ATOM     22  H6  UNL     1      -0.164   3.816  12.483  1.00  0.00     0.178 HD
BRANCH  13  23
HETATM   23  C8  UNL     1      -3.077   4.681  12.637  1.00  0.00     0.130 C 
BRANCH  23  24
HETATM   24  S1  UNL     1      -4.617   5.606  12.708  1.00  0.00    -0.164 SA
BRANCH  24  25
HETATM   25  C9  UNL     1      -4.837   6.553  11.192  1.00  0.00     0.069 C 
HETATM   26  C10 UNL     1      -6.144   7.322  11.258  1.00  0.00     0.016 C 
ENDBRANCH  24  25
ENDBRANCH  23  24
ENDBRANCH  13  23
BRANCH  18  27
HETATM   27  C13 UNL     1       1.299   4.095  10.969  1.00  0.00     0.091 C 
HETATM   28  C14 UNL     1       1.380   3.676   9.520  1.00  0.00     0.032 C 
HETATM   29  C15 UNL     1       1.744   5.559  11.020  1.00  0.00     0.032 C 
ENDBRANCH  18  27
ENDBRANCH   1  13
TORSDOF 9
ENDMDL
