MODEL 1
REMARK VINA RESULT: -6.887160906      0.000      0.000
REMARK  9 active torsions:
REMARK  status: ('A' for Active; 'I' for Inactive)
REMARK    1  A    between atoms: C4_4  and  C5_5 
REMARK    2  A    between atoms: C5_5  and  N1_6 
REMARK    3  A    between atoms: C6_11  and  N4_12 
REMARK    4  A    between atoms: C8_14  and  O1_15 
REMARK    5  A    between atoms: O1_15  and  C9_16 
REMARK    6  A    between atoms: C9_16  and  C10_17 
REMARK    7  A    between atoms: C10_17  and  O2_18 
REMARK    8  A    between atoms: C14_25  and  C15_26 
REMARK    9  A    between atoms: C15_26  and  O3_29 
ROOT
HETATM    1  N1  UNL     1      -4.228   5.519  10.091  1.00  0.00    -0.205 N 
HETATM    2  N2  UNL     1      -3.187   5.611  10.884  1.00  0.00    -0.211 N 
ATOM      3  H2  UNL     1      -2.679   6.471  11.093  1.00  0.00     0.210 HD
HETATM    4  N3  UNL     1      -2.905   4.443  11.359  1.00  0.00    -0.115 N 
ATOM      5  H3  UNL     1      -2.140   4.237  12.002  1.00  0.00     0.207 HD
HETATM    6  C6  UNL     1      -3.773   3.545  10.876  1.00  0.00     0.712 A 
HETATM    7  N5  UNL     1      -4.592   4.251  10.081  1.00  0.00    -0.113 N 
ATOM      8  H5  UNL     1      -5.376   3.867   9.552  1.00  0.00     0.207 HD
ENDROOT
BRANCH   1   9
HETATM    9  C5  UNL     1      -4.807   6.644   9.394  1.00  0.00     0.176 C 
BRANCH   9  10
HETATM   10  C4  UNL     1      -6.221   6.959   9.807  1.00  0.00     0.007 C 
HETATM   11  C3  UNL     1      -6.336   8.300  10.446  1.00  0.00     0.011 C 
HETATM   12  C2  UNL     1      -6.339   9.350   9.323  1.00  0.00    -0.011 C 
HETATM   13  C1  UNL     1      -6.050  10.674  10.022  1.00  0.00     0.010 C 
HETATM   14  C14 UNL     1      -7.700   9.319   8.714  1.00  0.00     0.023 C 
HETATM   15  C13 UNL     1      -8.186   7.917   8.583  1.00  0.00     0.008 C 
HETATM   16  C12 UNL     1      -7.080   6.887   8.566  1.00  0.00     0.007 C 
BRANCH  14  17
HETATM   17  C15 UNL     1      -7.805  10.105   7.428  1.00  0.00     0.054 C 
HETATM   18  C16 UNL     1      -8.964   9.531   6.612  1.00  0.00     0.045 C 
HETATM   19  C17 UNL     1      -6.581  10.001   6.572  1.00  0.00     0.045 C 
BRANCH  17  20
HETATM   20  O3  UNL     1      -8.092  11.437   7.641  1.00  0.00    -0.390 OA
ATOM     21  H3  UNL     1      -7.766  11.997   6.947  1.00  0.00     0.210 HD
ENDBRANCH  17  20
ENDBRANCH  14  17
ENDBRANCH   9  10
ENDBRANCH   1   9
BRANCH   6  22
HETATM   22  N4  UNL     1      -3.799   2.152  11.159  1.00  0.00    -0.210 N 
HETATM   23  C7  UNL     1      -4.848   1.157  11.215  1.00  0.00     0.175 C 
HETATM   24  C8  UNL     1      -3.994   0.435  12.276  1.00  0.00     0.158 C 
HETATM   25  C11 UNL     1      -2.863   1.104  11.507  1.00  0.00     0.175 C 
BRANCH  24  26
HETATM   26  O1  UNL     1      -4.112   1.003  13.507  1.00  0.00    -0.381 OA
BRANCH  26  27
HETATM   27  C9  UNL     1      -4.452   0.212  14.563  1.00  0.00     0.194 C 
BRANCH  27  28
HETATM   28  C10 UNL     1      -4.538   0.857  15.900  1.00  0.00     0.190 C 
BRANCH  28  29
HETATM   29  O2  UNL     1      -3.378   1.372  16.415  1.00  0.00    -0.399 OA
ATOM     30  H2  UNL     1      -3.449   1.868  17.221  1.00  0.00     0.209 HD
ENDBRANCH  28  29
ENDBRANCH  27  28
ENDBRANCH  26  27
ENDBRANCH  24  26
ENDBRANCH   6  22
TORSDOF 9
ENDMDL
MODEL 2
REMARK VINA RESULT: -6.500594179      1.673      2.027
REMARK  9 active torsions:
REMARK  status: ('A' for Active; 'I' for Inactive)
REMARK    1  A    between atoms: C4_4  and  C5_5 
REMARK    2  A    between atoms: C5_5  and  N1_6 
REMARK    3  A    between atoms: C6_11  and  N4_12 
REMARK    4  A    between atoms: C8_14  and  O1_15 
REMARK    5  A    between atoms: O1_15  and  C9_16 
REMARK    6  A    between atoms: C9_16  and  C10_17 
REMARK    7  A    between atoms: C10_17  and  O2_18 
REMARK    8  A    between atoms: C14_25  and  C15_26 
REMARK    9  A    between atoms: C15_26  and  O3_29 
ROOT
HETATM    1  N1  UNL     1      -4.690   5.421  10.508  1.00  0.00    -0.205 N 
HETATM    2  N2  UNL     1      -4.303   4.298   9.952  1.00  0.00    -0.211 N 
ATOM      3  H2  UNL     1      -4.215   4.138   8.948  1.00  0.00     0.210 HD
HETATM    4  N3  UNL     1      -4.050   3.427  10.871  1.00  0.00    -0.115 N 
ATOM      5  H3  UNL     1      -3.731   2.472  10.707  1.00  0.00     0.207 HD
HETATM    6  C6  UNL     1      -4.271   3.973  12.073  1.00  0.00     0.712 A 
HETATM    7  N5  UNL     1      -4.673   5.227  11.813  1.00  0.00    -0.113 N 
ATOM      8  H5  UNL     1      -4.926   5.923  12.515  1.00  0.00     0.207 HD
ENDROOT
BRANCH   1   9
HETATM    9  C5  UNL     1      -5.050   6.604   9.763  1.00  0.00     0.176 C 
BRANCH   9  10
HETATM   10  C4  UNL     1      -6.476   7.045   9.966  1.00  0.00     0.007 C 
HETATM   11  C3  UNL     1      -6.566   8.428  10.513  1.00  0.00     0.011 C 
HETATM   12  C2  UNL     1      -6.339   9.404   9.347  1.00  0.00    -0.011 C 
HETATM   13  C1  UNL     1      -6.038  10.744  10.009  1.00  0.00     0.010 C 
HETATM   14  C14 UNL     1      -7.608   9.434   8.563  1.00  0.00     0.023 C 
HETATM   15  C13 UNL     1      -8.183   8.065   8.442  1.00  0.00     0.008 C 
HETATM   16  C12 UNL     1      -7.170   6.959   8.626  1.00  0.00     0.007 C 
BRANCH  14  17
HETATM   17  C15 UNL     1      -7.482  10.145   7.236  1.00  0.00     0.054 C 
HETATM   18  C16 UNL     1      -8.558   9.596   6.298  1.00  0.00     0.045 C 
HETATM   19  C17 UNL     1      -6.164   9.911   6.565  1.00  0.00     0.045 C 
BRANCH  17  20
HETATM   20  O3  UNL     1      -7.700  11.502   7.338  1.00  0.00    -0.390 OA
ATOM     21  H3  UNL     1      -7.562  11.957   6.516  1.00  0.00     0.210 HD
ENDBRANCH  17  20
ENDBRANCH  14  17
ENDBRANCH   9  10
ENDBRANCH   1   9
BRANCH   6  22
HETATM   22  N4  UNL     1      -4.109   3.340  13.336  1.00  0.00    -0.210 N 
HETATM   23  C7  UNL     1      -4.294   1.987  13.814  1.00  0.00     0.175 C 
HETATM   24  C8  UNL     1      -4.639   2.605  15.184  1.00  0.00     0.158 C 
HETATM   25  C11 UNL     1      -3.710   3.701  14.680  1.00  0.00     0.175 C 
BRANCH  24  26
HETATM   26  O1  UNL     1      -5.917   3.071  15.232  1.00  0.00    -0.381 OA
BRANCH  26  27
HETATM   27  C9  UNL     1      -6.715   2.685  16.266  1.00  0.00     0.194 C 
BRANCH  27  28
HETATM   28  C10 UNL     1      -6.323   1.461  17.012  1.00  0.00     0.190 C 
BRANCH  28  29
HETATM   29  O2  UNL     1      -6.976   0.301  16.686  1.00  0.00    -0.399 OA
ATOM     30  H2  UNL     1      -6.649  -0.500  17.077  1.00  0.00     0.209 HD
ENDBRANCH  28  29
ENDBRANCH  27  28
ENDBRANCH  26  27
ENDBRANCH  24  26
ENDBRANCH   6  22
TORSDOF 9
ENDMDL
MODEL 3
REMARK VINA RESULT: -6.464261127      1.733      2.391
REMARK  9 active torsions:
REMARK  status: ('A' for Active; 'I' for Inactive)
REMARK    1  A    between atoms: C4_4  and  C5_5 
REMARK    2  A    between atoms: C5_5  and  N1_6 
REMARK    3  A    between atoms: C6_11  and  N4_12 
REMARK    4  A    between atoms: C8_14  and  O1_15 
REMARK    5  A    between atoms: O1_15  and  C9_16 
REMARK    6  A    between atoms: C9_16  and  C10_17 
REMARK    7  A    between atoms: C10_17  and  O2_18 
REMARK    8  A    between atoms: C14_25  and  C15_26 
REMARK    9  A    between atoms: C15_26  and  O3_29 
ROOT
HETATM    1  N1  UNL     1      -4.082   4.995  10.123  1.00  0.00    -0.205 N 
HETATM    2  N2  UNL     1      -2.831   4.708  10.396  1.00  0.00    -0.211 N 
ATOM      3  H2  UNL     1      -2.041   5.343  10.277  1.00  0.00     0.210 HD
HETATM    4  N3  UNL     1      -2.754   3.497  10.839  1.00  0.00    -0.115 N 
ATOM      5  H3  UNL     1      -1.895   3.027  11.124  1.00  0.00     0.207 HD
HETATM    6  C6  UNL     1      -3.978   2.956  10.865  1.00  0.00     0.712 A 
HETATM    7  N5  UNL     1      -4.792   3.921  10.409  1.00  0.00    -0.113 N 
ATOM      8  H5  UNL     1      -5.803   3.838  10.301  1.00  0.00     0.207 HD
ENDROOT
BRANCH   1   9
HETATM    9  C5  UNL     1      -4.518   6.272   9.608  1.00  0.00     0.176 C 
BRANCH   9  10
HETATM   10  C4  UNL     1      -5.880   6.695  10.093  1.00  0.00     0.007 C 
HETATM   11  C3  UNL     1      -5.868   8.061  10.686  1.00  0.00     0.011 C 
HETATM   12  C2  UNL     1      -5.873   9.070   9.527  1.00  0.00    -0.011 C 
HETATM   13  C1  UNL     1      -5.455  10.395  10.157  1.00  0.00     0.010 C 
HETATM   14  C14 UNL     1      -7.268   9.111   9.002  1.00  0.00     0.023 C 
HETATM   15  C13 UNL     1      -7.851   7.740   8.954  1.00  0.00     0.008 C 
HETATM   16  C12 UNL     1      -6.818   6.639   8.909  1.00  0.00     0.007 C 
BRANCH  14  17
HETATM   17  C15 UNL     1      -7.401   9.858   7.695  1.00  0.00     0.054 C 
HETATM   18  C16 UNL     1      -8.644   9.336   6.973  1.00  0.00     0.045 C 
HETATM   19  C17 UNL     1      -6.243   9.642   6.772  1.00  0.00     0.045 C 
BRANCH  17  20
HETATM   20  O3  UNL     1      -7.587  11.212   7.875  1.00  0.00    -0.390 OA
ATOM     21  H3  UNL     1      -8.371  11.534   7.446  1.00  0.00     0.210 HD
ENDBRANCH  17  20
ENDBRANCH  14  17
ENDBRANCH   9  10
ENDBRANCH   1   9
BRANCH   6  22
HETATM   22  N4  UNL     1      -4.317   1.641  11.288  1.00  0.00    -0.210 N 
HETATM   23  C7  UNL     1      -4.178   0.918  12.534  1.00  0.00     0.175 C 
HETATM   24  C8  UNL     1      -4.059  -0.362  11.684  1.00  0.00     0.158 C 
HETATM   25  C11 UNL     1      -4.923   0.451  10.730  1.00  0.00     0.175 C 
BRANCH  24  26
HETATM   26  O1  UNL     1      -2.813  -0.517  11.157  1.00  0.00    -0.381 OA
BRANCH  26  27
HETATM   27  C9  UNL     1      -2.290  -1.771  11.072  1.00  0.00     0.194 C 
BRANCH  27  28
HETATM   28  C10 UNL     1      -3.214  -2.914  11.298  1.00  0.00     0.190 C 
BRANCH  28  29
HETATM   29  O2  UNL     1      -2.707  -4.170  11.099  1.00  0.00    -0.399 OA
ATOM     30  H2  UNL     1      -3.322  -4.846  10.843  1.00  0.00     0.209 HD
ENDBRANCH  28  29
ENDBRANCH  27  28
ENDBRANCH  26  27
ENDBRANCH  24  26
ENDBRANCH   6  22
TORSDOF 9
ENDMDL
MODEL 4
REMARK VINA RESULT: -6.435798150      3.591      8.546
REMARK  9 active torsions:
REMARK  status: ('A' for Active; 'I' for Inactive)
REMARK    1  A    between atoms: C4_4  and  C5_5 
REMARK    2  A    between atoms: C5_5  and  N1_6 
REMARK    3  A    between atoms: C6_11  and  N4_12 
REMARK    4  A    between atoms: C8_14  and  O1_15 
REMARK    5  A    between atoms: O1_15  and  C9_16 
REMARK    6  A    between atoms: C9_16  and  C10_17 
REMARK    7  A    between atoms: C10_17  and  O2_18 
REMARK    8  A    between atoms: C14_25  and  C15_26 
REMARK    9  A    between atoms: C15_26  and  O3_29 
ROOT
HETATM    1  N1  UNL     1      -2.194   4.434  12.989  1.00  0.00    -0.205 N 
HETATM    2  N2  UNL     1      -0.967   3.974  13.040  1.00  0.00    -0.211 N 
ATOM      3  H2  UNL     1      -0.509   3.606  13.874  1.00  0.00     0.210 HD
HETATM    4  N3  UNL     1      -0.428   4.057  11.869  1.00  0.00    -0.115 N 
ATOM      5  H3  UNL     1       0.521   3.765  11.634  1.00  0.00     0.207 HD
HETATM    6  C6  UNL     1      -1.309   4.585  11.010  1.00  0.00     0.712 A 
HETATM    7  N5  UNL     1      -2.410   4.813  11.744  1.00  0.00    -0.113 N 
ATOM      8  H5  UNL     1      -3.280   5.215  11.393  1.00  0.00     0.207 HD
ENDROOT
BRANCH   1   9
HETATM    9  C5  UNL     1      -3.080   4.485  14.129  1.00  0.00     0.176 C 
BRANCH   9  10
HETATM   10  C4  UNL     1      -4.505   4.112  13.814  1.00  0.00     0.007 C 
HETATM   11  C3  UNL     1      -4.670   2.646  13.606  1.00  0.00     0.011 C 
HETATM   12  C2  UNL     1      -4.711   1.982  14.992  1.00  0.00    -0.011 C 
HETATM   13  C1  UNL     1      -4.472   0.500  14.725  1.00  0.00     0.010 C 
HETATM   14  C14 UNL     1      -6.070   2.242  15.549  1.00  0.00     0.023 C 
HETATM   15  C13 UNL     1      -6.503   3.636  15.248  1.00  0.00     0.008 C 
HETATM   16  C12 UNL     1      -5.360   4.583  14.967  1.00  0.00     0.007 C 
BRANCH  14  17
HETATM   17  C15 UNL     1      -6.203   1.883  17.011  1.00  0.00     0.054 C 
HETATM   18  C16 UNL     1      -7.229   0.756  17.133  1.00  0.00     0.045 C 
HETATM   19  C17 UNL     1      -6.703   3.016  17.853  1.00  0.00     0.045 C 
BRANCH  17  20
HETATM   20  O3  UNL     1      -5.026   1.407  17.549  1.00  0.00    -0.390 OA
ATOM     21  H3  UNL     1      -4.751   0.587  17.158  1.00  0.00     0.210 HD
ENDBRANCH  17  20
ENDBRANCH  14  17
ENDBRANCH   9  10
ENDBRANCH   1   9
BRANCH   6  22
HETATM   22  N4  UNL     1      -1.100   4.840   9.627  1.00  0.00    -0.210 N 
HETATM   23  C7  UNL     1      -1.098   6.038   8.815  1.00  0.00     0.175 C 
HETATM   24  C8  UNL     1      -1.579   5.150   7.650  1.00  0.00     0.158 C 
HETATM   25  C11 UNL     1      -0.806   4.090   8.424  1.00  0.00     0.175 C 
BRANCH  24  26
HETATM   26  O1  UNL     1      -2.913   4.888   7.719  1.00  0.00    -0.381 OA
BRANCH  26  27
HETATM   27  C9  UNL     1      -3.698   5.207   6.652  1.00  0.00     0.194 C 
BRANCH  27  28
HETATM   28  C10 UNL     1      -4.686   6.302   6.835  1.00  0.00     0.190 C 
BRANCH  28  29
HETATM   29  O2  UNL     1      -5.997   6.006   6.567  1.00  0.00    -0.399 OA
ATOM     30  H2  UNL     1      -6.466   5.504   7.223  1.00  0.00     0.209 HD
ENDBRANCH  28  29
ENDBRANCH  27  28
ENDBRANCH  26  27
ENDBRANCH  24  26
ENDBRANCH   6  22
TORSDOF 9
ENDMDL
MODEL 5
REMARK VINA RESULT: -6.430216011      5.140      6.211
REMARK  9 active torsions:
REMARK  status: ('A' for Active; 'I' for Inactive)
REMARK    1  A    between atoms: C4_4  and  C5_5 
REMARK    2  A    between atoms: C5_5  and  N1_6 
REMARK    3  A    between atoms: C6_11  and  N4_12 
REMARK    4  A    between atoms: C8_14  and  O1_15 
REMARK    5  A    between atoms: O1_15  and  C9_16 
REMARK    6  A    between atoms: C9_16  and  C10_17 
REMARK    7  A    between atoms: C10_17  and  O2_18 
REMARK    8  A    between atoms: C14_25  and  C15_26 
REMARK    9  A    between atoms: C15_26  and  O3_29 
ROOT
HETATM    1  N1  UNL     1      -1.188   4.616  12.265  1.00  0.00    -0.205 N 
HETATM    2  N2  UNL     1      -0.433   3.553  12.124  1.00  0.00    -0.211 N 
ATOM      3  H2  UNL     1       0.587   3.546  12.147  1.00  0.00     0.210 HD
HETATM    4  N3  UNL     1      -1.182   2.514  11.952  1.00  0.00    -0.115 N 
ATOM      5  H3  UNL     1      -0.845   1.560  11.818  1.00  0.00     0.207 HD
HETATM    6  C6  UNL     1      -2.468   2.884  11.977  1.00  0.00     0.712 A 
HETATM    7  N5  UNL     1      -2.440   4.212  12.175  1.00  0.00    -0.113 N 
ATOM      8  H5  UNL     1      -3.260   4.815  12.245  1.00  0.00     0.207 HD
ENDROOT
BRANCH   1   9
HETATM    9  C5  UNL     1      -0.668   5.947  12.476  1.00  0.00     0.176 C 
BRANCH   9  10
HETATM   10  C4  UNL     1      -1.691   7.039  12.303  1.00  0.00     0.007 C 
HETATM   11  C3  UNL     1      -2.173   7.571  13.608  1.00  0.00     0.011 C 
HETATM   12  C2  UNL     1      -1.104   8.538  14.139  1.00  0.00    -0.011 C 
HETATM   13  C1  UNL     1      -1.442   8.727  15.614  1.00  0.00     0.010 C 
HETATM   14  C14 UNL     1      -1.248   9.803  13.362  1.00  0.00     0.023 C 
HETATM   15  C13 UNL     1      -1.506   9.508  11.924  1.00  0.00     0.008 C 
HETATM   16  C12 UNL     1      -1.045   8.136  11.489  1.00  0.00     0.007 C 
BRANCH  14  17
HETATM   17  C15 UNL     1      -0.112  10.776  13.573  1.00  0.00     0.054 C 
HETATM   18  C16 UNL     1       0.151  11.496  12.250  1.00  0.00     0.045 C 
HETATM   19  C17 UNL     1       1.170  10.109  13.964  1.00  0.00     0.045 C 
BRANCH  17  20
HETATM   20  O3  UNL     1      -0.413  11.750  14.501  1.00  0.00    -0.390 OA
ATOM     21  H3  UNL     1       0.168  12.498  14.447  1.00  0.00     0.210 HD
ENDBRANCH  17  20
ENDBRANCH  14  17
ENDBRANCH   9  10
ENDBRANCH   1   9
BRANCH   6  22
HETATM   22  N4  UNL     1      -3.599   2.037  11.823  1.00  0.00    -0.210 N 
HETATM   23  C7  UNL     1      -4.418   1.276  12.743  1.00  0.00     0.175 C 
HETATM   24  C8  UNL     1      -4.653   0.286  11.585  1.00  0.00     0.158 C 
HETATM   25  C11 UNL     1      -4.441   1.543  10.753  1.00  0.00     0.175 C 
BRANCH  24  26
HETATM   26  O1  UNL     1      -3.604  -0.564  11.411  1.00  0.00    -0.381 OA
BRANCH  26  27
HETATM   27  C9  UNL     1      -3.798  -1.895  11.625  1.00  0.00     0.194 C 
BRANCH  27  28
HETATM   28  C10 UNL     1      -2.668  -2.809  11.312  1.00  0.00     0.190 C 
BRANCH  28  29
HETATM   29  O2  UNL     1      -2.934  -4.152  11.332  1.00  0.00    -0.399 OA
ATOM     30  H2  UNL     1      -2.741  -4.640  10.540  1.00  0.00     0.209 HD
ENDBRANCH  28  29
ENDBRANCH  27  28
ENDBRANCH  26  27
ENDBRANCH  24  26
ENDBRANCH   6  22
TORSDOF 9
ENDMDL
