MODEL 1
REMARK VINA RESULT: -8.635627686      0.000      0.000
REMARK  6 active torsions:
REMARK  status: ('A' for Active; 'I' for Inactive)
REMARK    1  A    between atoms: O1_2  and  C2_3 
REMARK    2  A    between atoms: N1_5  and  C4_6 
REMARK    3  A    between atoms: C11_16  and  O3_17 
REMARK    4  A    between atoms: O3_17  and  C12_18 
REMARK    5  A    between atoms: N3_26  and  C20_27 
REMARK    6  A    between atoms: C24_31  and  N4_32 
ROOT
HETATM    1  C4  UNL     1      -0.823   3.911  10.264  1.00  0.00     0.073 A 
HETATM    2  C5  UNL     1      -1.545   2.780  10.582  1.00  0.00     0.063 A 
HETATM    3  C6  UNL     1      -2.495   2.801  11.593  1.00  0.00     0.053 A 
HETATM    4  C7  UNL     1      -2.738   3.964  12.304  1.00  0.00     0.071 A 
HETATM    5  C8  UNL     1      -2.028   5.113  12.005  1.00  0.00     0.103 A 
HETATM    6  N2  UNL     1      -2.257   6.330  12.721  1.00  0.00    -0.098 NA
HETATM    7  C9  UNL     1      -1.094   5.049  10.994  1.00  0.00     0.168 A 
HETATM    8  F1  UNL     1      -0.377   6.173  10.679  1.00  0.00    -0.202 F 
HETATM    9  C10 UNL     1      -3.690   4.012  13.329  1.00  0.00     0.221 A 
HETATM   10  O2  UNL     1      -3.826   5.117  13.903  1.00  0.00    -0.284 OA
HETATM   11  C11 UNL     1      -4.416   2.895  13.657  1.00  0.00     0.136 A 
HETATM   12  C19 UNL     1      -4.134   1.738  12.908  1.00  0.00     0.132 A 
HETATM   13  N3  UNL     1      -3.214   1.732  11.934  1.00  0.00    -0.348 N 
ENDROOT
BRANCH   1  14
HETATM   14  N1  UNL     1       0.159   3.941   9.240  1.00  0.00    -0.374 N 
HETATM   15  C3  UNL     1       1.608   3.970   9.472  1.00  0.00     0.157 C 
HETATM   16  C2  UNL     1       2.177   4.805   8.327  1.00  0.00     0.170 C 
HETATM   17  C24 UNL     1       1.033   4.977   7.342  1.00  0.00     0.231 C 
HETATM   18  C23 UNL     1       0.013   3.952   7.800  1.00  0.00     0.158 C 
BRANCH  16  19
HETATM   19  O1  UNL     1       2.609   6.054   8.796  1.00  0.00    -0.387 OA
HETATM   20  C1  UNL     1       3.019   5.940  10.123  1.00  0.00     0.202 C 
ENDBRANCH  16  19
BRANCH  17  21
HETATM   21  N4  UNL     1       1.428   4.779   5.981  1.00  0.00    -0.071 N 
ATOM     22  H43 UNL     1       2.267   4.202   5.926  1.00  0.00     0.274 HD
ATOM     23  H42 UNL     1       0.771   4.166   5.498  1.00  0.00     0.274 HD
ATOM     24  H41 UNL     1       1.554   5.652   5.468  1.00  0.00     0.274 HD
ENDBRANCH  17  21
ENDBRANCH   1  14
BRANCH  13  25
HETATM   25  C20 UNL     1      -2.969   0.503  11.193  1.00  0.00     0.090 A 
HETATM   26  C21 UNL     1      -3.684  -0.738  11.505  1.00  0.00     0.028 A 
HETATM   27  C22 UNL     1      -4.133   0.072  10.329  1.00  0.00     0.028 A 
ENDBRANCH  13  25
BRANCH  11  28
HETATM   28  O3  UNL     1      -5.347   2.827  14.615  1.00  0.00    -0.340 OA
BRANCH  28  29
HETATM   29  C12 UNL     1      -5.349   2.982  15.990  1.00  0.00     0.134 C 
HETATM   30  C13 UNL     1      -4.403   1.928  16.550  1.00  0.00     0.033 C 
HETATM   31  C14 UNL     1      -5.257   0.711  16.679  1.00  0.00     0.008 C 
HETATM   32  C15 UNL     1      -6.684   1.170  16.742  1.00  0.00    -0.003 A 
HETATM   33  C16 UNL     1      -6.991   2.137  17.841  1.00  0.00    -0.007 A 
HETATM   34  C18 UNL     1      -6.733   2.613  16.489  1.00  0.00     0.024 A 
HETATM   35  C17 UNL     1      -6.073   2.330  18.998  1.00  0.00     0.011 C 
ENDBRANCH  28  29
ENDBRANCH  11  28
TORSDOF 6
ENDMDL
MODEL 2
REMARK VINA RESULT: -8.231000466      1.382      1.911
REMARK  6 active torsions:
REMARK  status: ('A' for Active; 'I' for Inactive)
REMARK    1  A    between atoms: O1_2  and  C2_3 
REMARK    2  A    between atoms: N1_5  and  C4_6 
REMARK    3  A    between atoms: C11_16  and  O3_17 
REMARK    4  A    between atoms: O3_17  and  C12_18 
REMARK    5  A    between atoms: N3_26  and  C20_27 
REMARK    6  A    between atoms: C24_31  and  N4_32 
ROOT
HETATM    1  C4  UNL     1      -1.529   4.371  10.465  1.00  0.00     0.073 A 
HETATM    2  C5  UNL     1      -2.041   3.105  10.656  1.00  0.00     0.063 A 
HETATM    3  C6  UNL     1      -2.825   2.814  11.762  1.00  0.00     0.053 A 
HETATM    4  C7  UNL     1      -3.110   3.792  12.699  1.00  0.00     0.071 A 
HETATM    5  C8  UNL     1      -2.608   5.070  12.531  1.00  0.00     0.103 A 
HETATM    6  N2  UNL     1      -2.885   6.103  13.482  1.00  0.00    -0.098 NA
HETATM    7  C9  UNL     1      -1.834   5.319  11.419  1.00  0.00     0.168 A 
HETATM    8  F1  UNL     1      -1.325   6.575  11.230  1.00  0.00    -0.202 F 
HETATM    9  C10 UNL     1      -3.898   3.524  13.825  1.00  0.00     0.221 A 
HETATM   10  O2  UNL     1      -4.090   4.485  14.604  1.00  0.00    -0.284 OA
HETATM   11  C11 UNL     1      -4.415   2.269  14.029  1.00  0.00     0.136 A 
HETATM   12  C19 UNL     1      -4.099   1.309  13.051  1.00  0.00     0.132 A 
HETATM   13  N3  UNL     1      -3.340   1.605  11.987  1.00  0.00    -0.348 N 
ENDROOT
BRANCH   1  14
HETATM   14  N1  UNL     1      -0.721   4.721   9.351  1.00  0.00    -0.374 N 
HETATM   15  C3  UNL     1      -1.013   5.811   8.415  1.00  0.00     0.157 C 
HETATM   16  C2  UNL     1      -0.492   5.326   7.064  1.00  0.00     0.170 C 
HETATM   17  C24 UNL     1       0.326   4.083   7.366  1.00  0.00     0.231 C 
HETATM   18  C23 UNL     1       0.516   4.141   8.871  1.00  0.00     0.158 C 
BRANCH  16  19
HETATM   19  O1  UNL     1      -1.558   5.013   6.209  1.00  0.00    -0.387 OA
HETATM   20  C1  UNL     1      -2.705   5.689   6.621  1.00  0.00     0.202 C 
ENDBRANCH  16  19
BRANCH  17  21
HETATM   21  N4  UNL     1       1.573   4.044   6.664  1.00  0.00    -0.071 N 
ATOM     22  H43 UNL     1       1.422   4.053   5.656  1.00  0.00     0.274 HD
ATOM     23  H42 UNL     1       2.074   4.927   6.766  1.00  0.00     0.274 HD
ATOM     24  H41 UNL     1       2.162   3.258   6.936  1.00  0.00     0.274 HD
ENDBRANCH  17  21
ENDBRANCH   1  14
BRANCH  13  25
HETATM   25  C20 UNL     1      -3.049   0.567  11.007  1.00  0.00     0.090 A 
HETATM   26  C21 UNL     1      -3.393  -0.838  11.252  1.00  0.00     0.028 A 
HETATM   27  C22 UNL     1      -4.284  -0.025  10.365  1.00  0.00     0.028 A 
ENDBRANCH  13  25
BRANCH  11  28
HETATM   28  O3  UNL     1      -5.177   1.903  15.065  1.00  0.00    -0.340 OA
BRANCH  28  29
HETATM   29  C12 UNL     1      -5.080   2.019  16.440  1.00  0.00     0.134 C 
HETATM   30  C13 UNL     1      -5.595   0.711  17.027  1.00  0.00     0.033 C 
HETATM   31  C14 UNL     1      -7.071   0.911  17.108  1.00  0.00     0.008 C 
HETATM   32  C15 UNL     1      -7.323   2.390  17.118  1.00  0.00    -0.003 A 
HETATM   33  C16 UNL     1      -6.638   3.143  18.214  1.00  0.00    -0.007 A 
HETATM   34  C18 UNL     1      -6.058   3.091  16.878  1.00  0.00     0.024 A 
HETATM   35  C17 UNL     1      -6.077   2.455  19.409  1.00  0.00     0.011 C 
ENDBRANCH  28  29
ENDBRANCH  11  28
TORSDOF 6
ENDMDL
MODEL 3
REMARK VINA RESULT: -7.901941209      1.200      1.639
REMARK  6 active torsions:
REMARK  status: ('A' for Active; 'I' for Inactive)
REMARK    1  A    between atoms: O1_2  and  C2_3 
REMARK    2  A    between atoms: N1_5  and  C4_6 
REMARK    3  A    between atoms: C11_16  and  O3_17 
REMARK    4  A    between atoms: O3_17  and  C12_18 
REMARK    5  A    between atoms: N3_26  and  C20_27 
REMARK    6  A    between atoms: C24_31  and  N4_32 
ROOT
HETATM    1  C4  UNL     1      -0.419   4.642  10.934  1.00  0.00     0.073 A 
HETATM    2  C5  UNL     1      -1.192   3.501  10.982  1.00  0.00     0.063 A 
HETATM    3  C6  UNL     1      -2.205   3.366  11.920  1.00  0.00     0.053 A 
HETATM    4  C7  UNL     1      -2.459   4.378  12.830  1.00  0.00     0.071 A 
HETATM    5  C8  UNL     1      -1.698   5.533  12.803  1.00  0.00     0.103 A 
HETATM    6  N2  UNL     1      -1.936   6.596  13.730  1.00  0.00    -0.098 NA
HETATM    7  C9  UNL     1      -0.702   5.627  11.856  1.00  0.00     0.168 A 
HETATM    8  F1  UNL     1       0.067   6.759  11.809  1.00  0.00    -0.202 F 
HETATM    9  C10 UNL     1      -3.475   4.266  13.788  1.00  0.00     0.221 A 
HETATM   10  O2  UNL     1      -3.614   5.244  14.558  1.00  0.00    -0.284 OA
HETATM   11  C11 UNL     1      -4.253   3.138  13.848  1.00  0.00     0.136 A 
HETATM   12  C19 UNL     1      -3.957   2.138  12.904  1.00  0.00     0.132 A 
HETATM   13  N3  UNL     1      -2.976   2.282  12.003  1.00  0.00    -0.348 N 
ENDROOT
BRANCH   1  14
HETATM   14  N1  UNL     1       0.629   4.829   9.995  1.00  0.00    -0.374 N 
HETATM   15  C3  UNL     1       0.441   5.269   8.608  1.00  0.00     0.157 C 
HETATM   16  C2  UNL     1       1.532   4.555   7.813  1.00  0.00     0.170 C 
HETATM   17  C24 UNL     1       2.464   3.954   8.851  1.00  0.00     0.231 C 
HETATM   18  C23 UNL     1       2.059   4.650  10.137  1.00  0.00     0.158 C 
BRANCH  16  19
HETATM   19  O1  UNL     1       0.977   3.546   7.013  1.00  0.00    -0.387 OA
HETATM   20  C1  UNL     1       1.008   3.936   5.676  1.00  0.00     0.202 C 
ENDBRANCH  16  19
BRANCH  17  21
HETATM   21  N4  UNL     1       3.849   4.147   8.543  1.00  0.00    -0.071 N 
ATOM     22  H43 UNL     1       4.282   3.270   8.255  1.00  0.00     0.274 HD
ATOM     23  H42 UNL     1       3.958   4.679   7.680  1.00  0.00     0.274 HD
ATOM     24  H41 UNL     1       4.372   4.578   9.305  1.00  0.00     0.274 HD
ENDBRANCH  17  21
ENDBRANCH   1  14
BRANCH  13  25
HETATM   25  C20 UNL     1      -2.720   1.211  11.050  1.00  0.00     0.090 A 
HETATM   26  C21 UNL     1      -3.135  -0.170  11.317  1.00  0.00     0.028 A 
HETATM   27  C22 UNL     1      -3.971   0.665  10.398  1.00  0.00     0.028 A 
ENDBRANCH  13  25
BRANCH  11  28
HETATM   28  O3  UNL     1      -5.246   2.925  14.718  1.00  0.00    -0.340 OA
BRANCH  28  29
HETATM   29  C12 UNL     1      -5.386   3.041  16.089  1.00  0.00     0.134 C 
HETATM   30  C13 UNL     1      -4.393   2.069  16.714  1.00  0.00     0.033 C 
HETATM   31  C14 UNL     1      -5.129   0.771  16.742  1.00  0.00     0.008 C 
HETATM   32  C15 UNL     1      -6.595   1.087  16.683  1.00  0.00    -0.003 A 
HETATM   33  C16 UNL     1      -7.094   1.988  17.767  1.00  0.00    -0.007 A 
HETATM   34  C18 UNL     1      -6.765   2.525  16.453  1.00  0.00     0.024 A 
HETATM   35  C17 UNL     1      -6.307   2.238  19.006  1.00  0.00     0.011 C 
ENDBRANCH  28  29
ENDBRANCH  11  28
TORSDOF 6
ENDMDL
MODEL 4
REMARK VINA RESULT: -7.830061463      0.903      1.262
REMARK  6 active torsions:
REMARK  status: ('A' for Active; 'I' for Inactive)
REMARK    1  A    between atoms: O1_2  and  C2_3 
REMARK    2  A    between atoms: N1_5  and  C4_6 
REMARK    3  A    between atoms: C11_16  and  O3_17 
REMARK    4  A    between atoms: O3_17  and  C12_18 
REMARK    5  A    between atoms: N3_26  and  C20_27 
REMARK    6  A    between atoms: C24_31  and  N4_32 
ROOT
HETATM    1  C4  UNL     1      -0.544   4.291  10.644  1.00  0.00     0.073 A 
HETATM    2  C5  UNL     1      -1.427   3.283  10.967  1.00  0.00     0.063 A 
HETATM    3  C6  UNL     1      -2.314   3.423  12.025  1.00  0.00     0.053 A 
HETATM    4  C7  UNL     1      -2.328   4.583  12.779  1.00  0.00     0.071 A 
HETATM    5  C8  UNL     1      -1.454   5.611  12.476  1.00  0.00     0.103 A 
HETATM    6  N2  UNL     1      -1.445   6.823  13.236  1.00  0.00    -0.098 NA
HETATM    7  C9  UNL     1      -0.589   5.431  11.417  1.00  0.00     0.168 A 
HETATM    8  F1  UNL     1       0.287   6.433  11.098  1.00  0.00    -0.202 F 
HETATM    9  C10 UNL     1      -3.212   4.750  13.852  1.00  0.00     0.221 A 
HETATM   10  O2  UNL     1      -3.137   5.841  14.463  1.00  0.00    -0.284 OA
HETATM   11  C11 UNL     1      -4.096   3.756  14.186  1.00  0.00     0.136 A 
HETATM   12  C19 UNL     1      -4.044   2.596  13.392  1.00  0.00     0.132 A 
HETATM   13  N3  UNL     1      -3.183   2.475  12.373  1.00  0.00    -0.348 N 
ENDROOT
BRANCH   1  14
HETATM   14  N1  UNL     1       0.382   4.197   9.572  1.00  0.00    -0.374 N 
HETATM   15  C3  UNL     1       1.819   3.947   9.729  1.00  0.00     0.157 C 
HETATM   16  C2  UNL     1       2.483   4.725   8.595  1.00  0.00     0.170 C 
HETATM   17  C24 UNL     1       1.351   5.157   7.680  1.00  0.00     0.231 C 
HETATM   18  C23 UNL     1       0.178   4.313   8.144  1.00  0.00     0.158 C 
BRANCH  16  19
HETATM   19  O1  UNL     1       3.160   5.845   9.098  1.00  0.00    -0.387 OA
HETATM   20  C1  UNL     1       3.579   5.594  10.402  1.00  0.00     0.202 C 
ENDBRANCH  16  19
BRANCH  17  21
HETATM   21  N4  UNL     1       1.642   4.965   6.292  1.00  0.00    -0.071 N 
ATOM     22  H43 UNL     1       1.081   4.207   5.905  1.00  0.00     0.274 HD
ATOM     23  H42 UNL     1       1.284   5.740   5.735  1.00  0.00     0.274 HD
ATOM     24  H41 UNL     1       2.634   4.812   6.109  1.00  0.00     0.274 HD
ENDBRANCH  17  21
ENDBRANCH   1  14
BRANCH  13  25
HETATM   25  C20 UNL     1      -3.178   1.249  11.586  1.00  0.00     0.090 A 
HETATM   26  C21 UNL     1      -4.052   0.119  11.918  1.00  0.00     0.028 A 
HETATM   27  C22 UNL     1      -4.450   1.028  10.797  1.00  0.00     0.028 A 
ENDBRANCH  13  25
BRANCH  11  28
HETATM   28  O3  UNL     1      -4.981   3.807  15.188  1.00  0.00    -0.340 OA
BRANCH  28  29
HETATM   29  C12 UNL     1      -6.097   3.073  15.546  1.00  0.00     0.134 C 
HETATM   30  C13 UNL     1      -6.748   3.806  16.712  1.00  0.00     0.033 C 
HETATM   31  C14 UNL     1      -6.019   3.293  17.909  1.00  0.00     0.008 C 
HETATM   32  C15 UNL     1      -5.415   1.972  17.533  1.00  0.00    -0.003 A 
HETATM   33  C16 UNL     1      -6.386   0.947  17.041  1.00  0.00    -0.007 A 
HETATM   34  C18 UNL     1      -5.614   1.746  16.098  1.00  0.00     0.024 A 
HETATM   35  C17 UNL     1      -7.852   1.081  17.264  1.00  0.00     0.011 C 
ENDBRANCH  28  29
ENDBRANCH  11  28
TORSDOF 6
ENDMDL
MODEL 5
REMARK VINA RESULT: -7.774575381      2.158      3.390
REMARK  6 active torsions:
REMARK  status: ('A' for Active; 'I' for Inactive)
REMARK    1  A    between atoms: O1_2  and  C2_3 
REMARK    2  A    between atoms: N1_5  and  C4_6 
REMARK    3  A    between atoms: C11_16  and  O3_17 
REMARK    4  A    between atoms: O3_17  and  C12_18 
REMARK    5  A    between atoms: N3_26  and  C20_27 
REMARK    6  A    between atoms: C24_31  and  N4_32 
ROOT
HETATM    1  C4  UNL     1      -1.966   5.050   9.659  1.00  0.00     0.073 A 
HETATM    2  C5  UNL     1      -3.040   5.639  10.294  1.00  0.00     0.063 A 
HETATM    3  C6  UNL     1      -3.680   5.004  11.348  1.00  0.00     0.053 A 
HETATM    4  C7  UNL     1      -3.250   3.763  11.785  1.00  0.00     0.071 A 
HETATM    5  C8  UNL     1      -2.175   3.151  11.166  1.00  0.00     0.103 A 
HETATM    6  N2  UNL     1      -1.708   1.868  11.595  1.00  0.00    -0.098 NA
HETATM    7  C9  UNL     1      -1.568   3.815  10.123  1.00  0.00     0.168 A 
HETATM    8  F1  UNL     1      -0.502   3.230   9.493  1.00  0.00    -0.202 F 
HETATM    9  C10 UNL     1      -3.879   3.100  12.846  1.00  0.00     0.221 A 
HETATM   10  O2  UNL     1      -3.406   1.983  13.156  1.00  0.00    -0.284 OA
HETATM   11  C11 UNL     1      -4.949   3.672  13.488  1.00  0.00     0.136 A 
HETATM   12  C19 UNL     1      -5.349   4.933  13.008  1.00  0.00     0.132 A 
HETATM   13  N3  UNL     1      -4.721   5.535  11.989  1.00  0.00    -0.348 N 
ENDROOT
BRANCH   1  14
HETATM   14  N1  UNL     1      -1.278   5.657   8.576  1.00  0.00    -0.374 N 
HETATM   15  C3  UNL     1      -1.477   5.318   7.163  1.00  0.00     0.157 C 
HETATM   16  C2  UNL     1      -0.107   5.500   6.514  1.00  0.00     0.170 C 
HETATM   17  C24 UNL     1       0.745   6.208   7.553  1.00  0.00     0.231 C 
HETATM   18  C23 UNL     1      -0.270   6.696   8.570  1.00  0.00     0.158 C 
BRANCH  16  19
HETATM   19  O1  UNL     1       0.453   4.256   6.189  1.00  0.00    -0.387 OA
HETATM   20  C1  UNL     1       0.980   4.301   4.900  1.00  0.00     0.202 C 
ENDBRANCH  16  19
BRANCH  17  21
HETATM   21  N4  UNL     1       1.525   7.277   7.009  1.00  0.00    -0.071 N 
ATOM     22  H43 UNL     1       0.925   8.012   6.637  1.00  0.00     0.274 HD
ATOM     23  H42 UNL     1       1.991   7.800   7.750  1.00  0.00     0.274 HD
ATOM     24  H41 UNL     1       2.196   6.966   6.306  1.00  0.00     0.274 HD
ENDBRANCH  17  21
ENDBRANCH   1  14
BRANCH  13  25
HETATM   25  C20 UNL     1      -5.181   6.842  11.539  1.00  0.00     0.090 A 
HETATM   26  C21 UNL     1      -6.107   6.983  10.411  1.00  0.00     0.028 A 
HETATM   27  C22 UNL     1      -6.650   7.091  11.802  1.00  0.00     0.028 A 
ENDBRANCH  13  25
BRANCH  11  28
HETATM   28  O3  UNL     1      -5.622   3.132  14.508  1.00  0.00    -0.340 OA
BRANCH  28  29
HETATM   29  C12 UNL     1      -5.583   3.263  15.885  1.00  0.00     0.134 C 
HETATM   30  C13 UNL     1      -4.390   2.449  16.368  1.00  0.00     0.033 C 
HETATM   31  C14 UNL     1      -4.932   1.066  16.510  1.00  0.00     0.008 C 
HETATM   32  C15 UNL     1      -6.420   1.182  16.658  1.00  0.00    -0.003 A 
HETATM   33  C16 UNL     1      -6.880   2.037  17.796  1.00  0.00    -0.007 A 
HETATM   34  C18 UNL     1      -6.814   2.578  16.445  1.00  0.00     0.024 A 
HETATM   35  C17 UNL     1      -5.968   2.421  18.908  1.00  0.00     0.011 C 
ENDBRANCH  28  29
ENDBRANCH  11  28
TORSDOF 6
ENDMDL
