MODEL 1
REMARK VINA RESULT: -8.001076637      0.000      0.000
REMARK  11 active torsions:
REMARK  status: ('A' for Active; 'I' for Inactive)
REMARK    1  A    between atoms: O1_2  and  C2_3 
REMARK    2  A    between atoms: C5_6  and  O2_7 
REMARK    3  A    between atoms: O2_7  and  C6_8 
REMARK    4  A    between atoms: C6_8  and  C7_9 
REMARK    5  A    between atoms: C7_9  and  O3_10 
REMARK    6  A    between atoms: O3_10  and  C8_11 
REMARK    7  A    between atoms: C8_11  and  C9_12 
REMARK    8  A    between atoms: C9_12  and  N1_13 
REMARK    9  A    between atoms: C11_18  and  C12_19 
REMARK   10  A    between atoms: C12_19  and  C13_20 
REMARK   11  A    between atoms: C17_24  and  C18_25 
ROOT
HETATM    1  C2  UNL     1      15.426   5.939  19.949  1.00  0.00     0.068 A 
HETATM    2  C3  UNL     1      16.725   6.331  19.915  1.00  0.00     0.039 A 
HETATM    3  C4  UNL     1      17.506   6.333  21.066  1.00  0.00     0.040 A 
HETATM    4  C5  UNL     1      17.005   5.941  22.290  1.00  0.00     0.075 A 
HETATM    5  C11 UNL     1      15.657   5.542  22.289  1.00  0.00    -0.018 A 
HETATM    6  C20 UNL     1      14.888   5.541  21.152  1.00  0.00     0.047 A 
ENDROOT
BRANCH   5   7
HETATM    7  C12 UNL     1      15.034   5.121  23.546  1.00  0.00     0.080 C 
BRANCH   7   8
HETATM    8  C13 UNL     1      14.211   6.192  24.151  1.00  0.00    -0.053 A 
HETATM    9  C14 UNL     1      12.831   5.979  24.246  1.00  0.00     0.007 A 
HETATM   10  C15 UNL     1      11.982   6.907  24.806  1.00  0.00     0.002 A 
HETATM   11  C16 UNL     1      12.514   8.099  25.295  1.00  0.00     0.015 A 
HETATM   12  C17 UNL     1      13.864   8.338  25.215  1.00  0.00     0.005 A 
HETATM   13  C19 UNL     1      14.688   7.377  24.644  1.00  0.00     0.022 A 
BRANCH  12  14
HETATM   14  C18 UNL     1      14.415   9.589  25.729  1.00  0.00     0.120 C 
HETATM   15  N4  UNL     1      14.054  10.714  25.242  1.00  0.00    -0.387 N 
ATOM     16  H42 UNL     1      13.370  10.715  24.485  1.00  0.00     0.157 HD
ATOM     17  H41 UNL     1      14.439  11.588  25.601  1.00  0.00     0.157 HD
HETATM   18  N5  UNL     1      15.367   9.588  26.783  1.00  0.00    -0.082 NA
ENDBRANCH  12  14
ENDBRANCH   7   8
ENDBRANCH   5   7
BRANCH   4  19
HETATM   19  O2  UNL     1      17.708   5.917  23.460  1.00  0.00    -0.348 OA
BRANCH  19  20
HETATM   20  C6  UNL     1      18.638   6.733  24.027  1.00  0.00     0.201 C 
BRANCH  20  21
HETATM   21  C7  UNL     1      18.190   8.108  24.432  1.00  0.00     0.194 C 
BRANCH  21  22
HETATM   22  O3  UNL     1      19.215   8.680  25.182  1.00  0.00    -0.387 OA
BRANCH  22  23
HETATM   23  C8  UNL     1      20.321   9.038  24.460  1.00  0.00     0.187 C 
BRANCH  23  24
HETATM   24  C9  UNL     1      21.635   8.647  25.076  1.00  0.00     0.148 C 
BRANCH  24  25
HETATM   25  N1  UNL     1      21.458   7.576  26.037  1.00  0.00    -0.365 N 
HETATM   26  C10 UNL     1      22.435   6.905  26.526  1.00  0.00     0.197 C 
HETATM   27  N2  UNL     1      23.761   7.203  26.124  1.00  0.00    -0.067 NA
HETATM   28  N3  UNL     1      22.221   5.874  27.456  1.00  0.00    -0.067 NA
ATOM     29  H1  UNL     1      20.512   7.346  26.339  1.00  0.00     0.161 HD
ENDBRANCH  24  25
ENDBRANCH  23  24
ENDBRANCH  22  23
ENDBRANCH  21  22
ENDBRANCH  20  21
ENDBRANCH  19  20
ENDBRANCH   4  19
BRANCH   1  30
HETATM   30  O1  UNL     1      14.631   5.929  18.809  1.00  0.00    -0.356 OA
HETATM   31  C1  UNL     1      14.558   7.012  17.908  1.00  0.00     0.210 C 
ENDBRANCH   1  30
TORSDOF 11
ENDMDL
MODEL 2
REMARK VINA RESULT: -7.970895044      2.225      6.381
REMARK  11 active torsions:
REMARK  status: ('A' for Active; 'I' for Inactive)
REMARK    1  A    between atoms: O1_2  and  C2_3 
REMARK    2  A    between atoms: C5_6  and  O2_7 
REMARK    3  A    between atoms: O2_7  and  C6_8 
REMARK    4  A    between atoms: C6_8  and  C7_9 
REMARK    5  A    between atoms: C7_9  and  O3_10 
REMARK    6  A    between atoms: O3_10  and  C8_11 
REMARK    7  A    between atoms: C8_11  and  C9_12 
REMARK    8  A    between atoms: C9_12  and  N1_13 
REMARK    9  A    between atoms: C11_18  and  C12_19 
REMARK   10  A    between atoms: C12_19  and  C13_20 
REMARK   11  A    between atoms: C17_24  and  C18_25 
ROOT
HETATM    1  C2  UNL     1      18.545   5.179  21.719  1.00  0.00     0.068 A 
HETATM    2  C3  UNL     1      17.389   4.482  21.861  1.00  0.00     0.039 A 
HETATM    3  C4  UNL     1      16.421   4.874  22.781  1.00  0.00     0.040 A 
HETATM    4  C5  UNL     1      16.586   5.981  23.588  1.00  0.00     0.075 A 
HETATM    5  C11 UNL     1      17.794   6.679  23.415  1.00  0.00    -0.018 A 
HETATM    6  C20 UNL     1      18.748   6.290  22.507  1.00  0.00     0.047 A 
ENDROOT
BRANCH   5   7
HETATM    7  C12 UNL     1      18.062   7.860  24.238  1.00  0.00     0.080 C 
BRANCH   7   8
HETATM    8  C13 UNL     1      19.509   8.151  24.346  1.00  0.00    -0.053 A 
HETATM    9  C14 UNL     1      20.047   9.116  23.487  1.00  0.00     0.007 A 
HETATM   10  C15 UNL     1      21.377   9.469  23.520  1.00  0.00     0.002 A 
HETATM   11  C16 UNL     1      22.218   8.844  24.440  1.00  0.00     0.015 A 
HETATM   12  C17 UNL     1      21.720   7.893  25.296  1.00  0.00     0.005 A 
HETATM   13  C19 UNL     1      20.372   7.564  25.233  1.00  0.00     0.022 A 
BRANCH  12  14
HETATM   14  C18 UNL     1      22.606   7.242  26.258  1.00  0.00     0.120 C 
HETATM   15  N4  UNL     1      22.133   6.615  27.266  1.00  0.00    -0.387 N 
ATOM     16  H42 UNL     1      21.119   6.580  27.381  1.00  0.00     0.157 HD
ATOM     17  H41 UNL     1      22.751   6.160  27.938  1.00  0.00     0.157 HD
HETATM   18  N5  UNL     1      24.017   7.290  26.099  1.00  0.00    -0.082 NA
ENDBRANCH  12  14
ENDBRANCH   7   8
ENDBRANCH   5   7
BRANCH   4  19
HETATM   19  O2  UNL     1      15.684   6.426  24.511  1.00  0.00    -0.348 OA
BRANCH  19  20
HETATM   20  C6  UNL     1      14.325   6.427  24.588  1.00  0.00     0.201 C 
BRANCH  20  21
HETATM   21  C7  UNL     1      13.707   7.061  25.801  1.00  0.00     0.194 C 
BRANCH  21  22
HETATM   22  O3  UNL     1      14.473   8.177  26.130  1.00  0.00    -0.387 OA
BRANCH  22  23
HETATM   23  C8  UNL     1      14.004   9.360  25.628  1.00  0.00     0.187 C 
BRANCH  23  24
HETATM   24  C9  UNL     1      15.049  10.421  25.424  1.00  0.00     0.148 C 
BRANCH  24  25
HETATM   25  N1  UNL     1      15.382  11.068  26.678  1.00  0.00    -0.365 N 
HETATM   26  C10 UNL     1      16.551  11.018  27.203  1.00  0.00     0.197 C 
HETATM   27  N2  UNL     1      17.584  10.303  26.546  1.00  0.00    -0.067 NA
HETATM   28  N3  UNL     1      16.834  11.658  28.421  1.00  0.00    -0.067 NA
ATOM     29  H1  UNL     1      14.653  11.587  27.166  1.00  0.00     0.161 HD
ENDBRANCH  24  25
ENDBRANCH  23  24
ENDBRANCH  22  23
ENDBRANCH  21  22
ENDBRANCH  20  21
ENDBRANCH  19  20
ENDBRANCH   4  19
BRANCH   1  30
HETATM   30  O1  UNL     1      19.523   4.803  20.806  1.00  0.00    -0.356 OA
HETATM   31  C1  UNL     1      20.712   5.532  20.602  1.00  0.00     0.210 C 
ENDBRANCH   1  30
TORSDOF 11
ENDMDL
MODEL 3
REMARK VINA RESULT: -7.958163451      1.108      1.403
REMARK  11 active torsions:
REMARK  status: ('A' for Active; 'I' for Inactive)
REMARK    1  A    between atoms: O1_2  and  C2_3 
REMARK    2  A    between atoms: C5_6  and  O2_7 
REMARK    3  A    between atoms: O2_7  and  C6_8 
REMARK    4  A    between atoms: C6_8  and  C7_9 
REMARK    5  A    between atoms: C7_9  and  O3_10 
REMARK    6  A    between atoms: O3_10  and  C8_11 
REMARK    7  A    between atoms: C8_11  and  C9_12 
REMARK    8  A    between atoms: C9_12  and  N1_13 
REMARK    9  A    between atoms: C11_18  and  C12_19 
REMARK   10  A    between atoms: C12_19  and  C13_20 
REMARK   11  A    between atoms: C17_24  and  C18_25 
ROOT
HETATM    1  C2  UNL     1      15.931   6.233  19.974  1.00  0.00     0.068 A 
HETATM    2  C3  UNL     1      16.985   7.088  19.995  1.00  0.00     0.039 A 
HETATM    3  C4  UNL     1      17.663   7.365  21.178  1.00  0.00     0.040 A 
HETATM    4  C5  UNL     1      17.302   6.790  22.379  1.00  0.00     0.075 A 
HETATM    5  C11 UNL     1      16.207   5.911  22.321  1.00  0.00    -0.018 A 
HETATM    6  C20 UNL     1      15.539   5.639  21.152  1.00  0.00     0.047 A 
ENDROOT
BRANCH   5   7
HETATM    7  C12 UNL     1      15.744   5.263  23.549  1.00  0.00     0.080 C 
BRANCH   7   8
HETATM    8  C13 UNL     1      14.639   6.007  24.194  1.00  0.00    -0.053 A 
HETATM    9  C14 UNL     1      13.409   5.354  24.337  1.00  0.00     0.007 A 
HETATM   10  C15 UNL     1      12.325   5.955  24.937  1.00  0.00     0.002 A 
HETATM   11  C16 UNL     1      12.455   7.257  25.417  1.00  0.00     0.015 A 
HETATM   12  C17 UNL     1      13.648   7.924  25.291  1.00  0.00     0.005 A 
HETATM   13  C19 UNL     1      14.720   7.284  24.680  1.00  0.00     0.022 A 
BRANCH  12  14
HETATM   14  C18 UNL     1      13.779   9.288  25.797  1.00  0.00     0.120 C 
HETATM   15  N4  UNL     1      12.864  10.155  25.589  1.00  0.00    -0.387 N 
ATOM     16  H42 UNL     1      12.039   9.869  25.061  1.00  0.00     0.157 HD
ATOM     17  H41 UNL     1      12.955  11.108  25.942  1.00  0.00     0.157 HD
HETATM   18  N5  UNL     1      14.927   9.686  26.532  1.00  0.00    -0.082 NA
ENDBRANCH  12  14
ENDBRANCH   7   8
ENDBRANCH   5   7
BRANCH   4  19
HETATM   19  O2  UNL     1      17.917   7.012  23.577  1.00  0.00    -0.348 OA
BRANCH  19  20
HETATM   20  C6  UNL     1      19.056   7.654  23.956  1.00  0.00     0.201 C 
BRANCH  20  21
HETATM   21  C7  UNL     1      18.949   8.634  25.088  1.00  0.00     0.194 C 
BRANCH  21  22
HETATM   22  O3  UNL     1      20.098   8.507  25.865  1.00  0.00    -0.387 OA
BRANCH  22  23
HETATM   23  C8  UNL     1      20.908   7.460  25.521  1.00  0.00     0.187 C 
BRANCH  23  24
HETATM   24  C9  UNL     1      21.982   7.132  26.520  1.00  0.00     0.148 C 
BRANCH  24  25
HETATM   25  N1  UNL     1      22.816   8.288  26.781  1.00  0.00    -0.365 N 
HETATM   26  C10 UNL     1      24.017   8.398  26.345  1.00  0.00     0.197 C 
HETATM   27  N2  UNL     1      24.579   7.354  25.568  1.00  0.00    -0.067 NA
HETATM   28  N3  UNL     1      24.794   9.536  26.619  1.00  0.00    -0.067 NA
ATOM     29  H1  UNL     1      22.430   9.050  27.337  1.00  0.00     0.161 HD
ENDBRANCH  24  25
ENDBRANCH  23  24
ENDBRANCH  22  23
ENDBRANCH  21  22
ENDBRANCH  20  21
ENDBRANCH  19  20
ENDBRANCH   4  19
BRANCH   1  30
HETATM   30  O1  UNL     1      15.242   5.944  18.802  1.00  0.00    -0.356 OA
HETATM   31  C1  UNL     1      13.837   6.003  18.696  1.00  0.00     0.210 C 
ENDBRANCH   1  30
TORSDOF 11
ENDMDL
MODEL 4
REMARK VINA RESULT: -7.906458696      2.557      3.094
REMARK  11 active torsions:
REMARK  status: ('A' for Active; 'I' for Inactive)
REMARK    1  A    between atoms: O1_2  and  C2_3 
REMARK    2  A    between atoms: C5_6  and  O2_7 
REMARK    3  A    between atoms: O2_7  and  C6_8 
REMARK    4  A    between atoms: C6_8  and  C7_9 
REMARK    5  A    between atoms: C7_9  and  O3_10 
REMARK    6  A    between atoms: O3_10  and  C8_11 
REMARK    7  A    between atoms: C8_11  and  C9_12 
REMARK    8  A    between atoms: C9_12  and  N1_13 
REMARK    9  A    between atoms: C11_18  and  C12_19 
REMARK   10  A    between atoms: C12_19  and  C13_20 
REMARK   11  A    between atoms: C17_24  and  C18_25 
ROOT
HETATM    1  C2  UNL     1      15.438   5.974  19.960  1.00  0.00     0.068 A 
HETATM    2  C3  UNL     1      16.550   6.700  19.679  1.00  0.00     0.039 A 
HETATM    3  C4  UNL     1      17.445   7.060  20.682  1.00  0.00     0.040 A 
HETATM    4  C5  UNL     1      17.250   6.699  22.000  1.00  0.00     0.075 A 
HETATM    5  C11 UNL     1      16.089   5.949  22.254  1.00  0.00    -0.018 A 
HETATM    6  C20 UNL     1      15.207   5.595  21.262  1.00  0.00     0.047 A 
ENDROOT
BRANCH   5   7
HETATM    7  C12 UNL     1      15.792   5.532  23.625  1.00  0.00     0.080 C 
BRANCH   7   8
HETATM    8  C13 UNL     1      14.589   6.203  24.168  1.00  0.00    -0.053 A 
HETATM    9  C14 UNL     1      13.456   5.417  24.407  1.00  0.00     0.007 A 
HETATM   10  C15 UNL     1      12.294   5.944  24.924  1.00  0.00     0.002 A 
HETATM   11  C16 UNL     1      12.243   7.305  25.219  1.00  0.00     0.015 A 
HETATM   12  C17 UNL     1      13.337   8.103  24.995  1.00  0.00     0.005 A 
HETATM   13  C19 UNL     1      14.493   7.534  24.472  1.00  0.00     0.022 A 
BRANCH  12  14
HETATM   14  C18 UNL     1      13.278   9.528  25.306  1.00  0.00     0.120 C 
HETATM   15  N4  UNL     1      12.311  10.011  25.988  1.00  0.00    -0.387 N 
ATOM     16  H42 UNL     1      11.582   9.374  26.310  1.00  0.00     0.157 HD
ATOM     17  H41 UNL     1      12.270  11.007  26.206  1.00  0.00     0.157 HD
HETATM   18  N5  UNL     1      14.293  10.415  24.858  1.00  0.00    -0.082 NA
ENDBRANCH  12  14
ENDBRANCH   7   8
ENDBRANCH   5   7
BRANCH   4  19
HETATM   19  O2  UNL     1      18.081   7.015  23.035  1.00  0.00    -0.348 OA
BRANCH  19  20
HETATM   20  C6  UNL     1      19.276   7.658  23.133  1.00  0.00     0.201 C 
BRANCH  20  21
HETATM   21  C7  UNL     1      19.245   9.157  23.216  1.00  0.00     0.194 C 
BRANCH  21  22
HETATM   22  O3  UNL     1      19.704   9.517  24.481  1.00  0.00    -0.387 OA
BRANCH  22  23
HETATM   23  C8  UNL     1      18.858   9.202  25.508  1.00  0.00     0.187 C 
BRANCH  23  24
HETATM   24  C9  UNL     1      17.484   9.805  25.408  1.00  0.00     0.148 C 
BRANCH  24  25
HETATM   25  N1  UNL     1      17.420  11.067  26.118  1.00  0.00    -0.365 N 
HETATM   26  C10 UNL     1      16.839  11.204  27.252  1.00  0.00     0.197 C 
HETATM   27  N2  UNL     1      16.222  10.084  27.863  1.00  0.00    -0.067 NA
HETATM   28  N3  UNL     1      16.799  12.445  27.909  1.00  0.00    -0.067 NA
ATOM     29  H1  UNL     1      17.858  11.885  25.695  1.00  0.00     0.161 HD
ENDBRANCH  24  25
ENDBRANCH  23  24
ENDBRANCH  22  23
ENDBRANCH  21  22
ENDBRANCH  20  21
ENDBRANCH  19  20
ENDBRANCH   4  19
BRANCH   1  30
HETATM   30  O1  UNL     1      14.533   5.605  18.971  1.00  0.00    -0.356 OA
HETATM   31  C1  UNL     1      14.154   6.456  17.913  1.00  0.00     0.210 C 
ENDBRANCH   1  30
TORSDOF 11
ENDMDL
MODEL 5
REMARK VINA RESULT: -7.873148707      1.092      1.327
REMARK  11 active torsions:
REMARK  status: ('A' for Active; 'I' for Inactive)
REMARK    1  A    between atoms: O1_2  and  C2_3 
REMARK    2  A    between atoms: C5_6  and  O2_7 
REMARK    3  A    between atoms: O2_7  and  C6_8 
REMARK    4  A    between atoms: C6_8  and  C7_9 
REMARK    5  A    between atoms: C7_9  and  O3_10 
REMARK    6  A    between atoms: O3_10  and  C8_11 
REMARK    7  A    between atoms: C8_11  and  C9_12 
REMARK    8  A    between atoms: C9_12  and  N1_13 
REMARK    9  A    between atoms: C11_18  and  C12_19 
REMARK   10  A    between atoms: C12_19  and  C13_20 
REMARK   11  A    between atoms: C17_24  and  C18_25 
ROOT
HETATM    1  C2  UNL     1      15.495   5.695  19.638  1.00  0.00     0.068 A 
HETATM    2  C3  UNL     1      16.292   6.734  19.281  1.00  0.00     0.039 A 
HETATM    3  C4  UNL     1      17.068   7.401  20.224  1.00  0.00     0.040 A 
HETATM    4  C5  UNL     1      17.067   7.043  21.557  1.00  0.00     0.075 A 
HETATM    5  C11 UNL     1      16.231   5.963  21.890  1.00  0.00    -0.018 A 
HETATM    6  C20 UNL     1      15.466   5.307  20.958  1.00  0.00     0.047 A 
ENDROOT
BRANCH   5   7
HETATM    7  C12 UNL     1      16.156   5.520  23.283  1.00  0.00     0.080 C 
BRANCH   7   8
HETATM    8  C13 UNL     1      15.003   6.111  23.999  1.00  0.00    -0.053 A 
HETATM    9  C14 UNL     1      13.841   5.339  24.113  1.00  0.00     0.007 A 
HETATM   10  C15 UNL     1      12.721   5.793  24.773  1.00  0.00     0.002 A 
HETATM   11  C16 UNL     1      12.744   7.064  25.346  1.00  0.00     0.015 A 
HETATM   12  C17 UNL     1      13.869   7.845  25.250  1.00  0.00     0.005 A 
HETATM   13  C19 UNL     1      14.979   7.352  24.577  1.00  0.00     0.022 A 
BRANCH  12  14
HETATM   14  C18 UNL     1      13.887   9.175  25.853  1.00  0.00     0.120 C 
HETATM   15  N4  UNL     1      12.844   9.915  25.842  1.00  0.00    -0.387 N 
ATOM     16  H42 UNL     1      11.999   9.551  25.402  1.00  0.00     0.157 HD
ATOM     17  H41 UNL     1      12.857  10.844  26.263  1.00  0.00     0.157 HD
HETATM   18  N5  UNL     1      15.064   9.682  26.465  1.00  0.00    -0.082 NA
ENDBRANCH  12  14
ENDBRANCH   7   8
ENDBRANCH   5   7
BRANCH   4  19
HETATM   19  O2  UNL     1      17.799   7.648  22.537  1.00  0.00    -0.348 OA
BRANCH  19  20
HETATM   20  C6  UNL     1      18.194   8.928  22.775  1.00  0.00     0.201 C 
BRANCH  20  21
HETATM   21  C7  UNL     1      17.890   9.500  24.130  1.00  0.00     0.194 C 
BRANCH  21  22
HETATM   22  O3  UNL     1      18.451   8.650  25.080  1.00  0.00    -0.387 OA
BRANCH  22  23
HETATM   23  C8  UNL     1      19.770   8.891  25.356  1.00  0.00     0.187 C 
BRANCH  23  24
HETATM   24  C9  UNL     1      20.634   7.665  25.445  1.00  0.00     0.148 C 
BRANCH  24  25
HETATM   25  N1  UNL     1      22.038   8.024  25.493  1.00  0.00    -0.365 N 
HETATM   26  C10 UNL     1      22.897   7.399  26.212  1.00  0.00     0.197 C 
HETATM   27  N2  UNL     1      22.480   6.302  27.007  1.00  0.00    -0.067 NA
HETATM   28  N3  UNL     1      24.249   7.779  26.231  1.00  0.00    -0.067 NA
ATOM     29  H1  UNL     1      22.357   8.810  24.929  1.00  0.00     0.161 HD
ENDBRANCH  24  25
ENDBRANCH  23  24
ENDBRANCH  22  23
ENDBRANCH  21  22
ENDBRANCH  20  21
ENDBRANCH  19  20
ENDBRANCH   4  19
BRANCH   1  30
HETATM   30  O1  UNL     1      14.713   5.016  18.710  1.00  0.00    -0.356 OA
HETATM   31  C1  UNL     1      13.802   5.661  17.848  1.00  0.00     0.210 C 
ENDBRANCH   1  30
TORSDOF 11
ENDMDL
