MODEL 1
REMARK VINA RESULT: -8.110615625      0.000      0.000
REMARK  14 active torsions:
REMARK  status: ('A' for Active; 'I' for Inactive)
REMARK    1  A    between atoms: N1_1  and  C1_5 
REMARK    2  A    between atoms: C1_5  and  C2_6 
REMARK    3  A    between atoms: C2_6  and  C3_7 
REMARK    4  A    between atoms: C3_7  and  N2_8 
REMARK    5  A    between atoms: N2_8  and  C4_11 
REMARK    6  A    between atoms: C4_11  and  C5_12 
REMARK    7  A    between atoms: C5_12  and  C6_13 
REMARK    8  A    between atoms: C6_13  and  N3_14 
REMARK    9  A    between atoms: N3_14  and  C7_17 
REMARK   10  A    between atoms: C7_17  and  C8_18 
REMARK   11  A    between atoms: C8_18  and  N4_19 
REMARK   12  A    between atoms: N4_19  and  C9_21 
REMARK   13  A    between atoms: C11_23  and  C12_24 
REMARK   14  A    between atoms: N5_32  and  O1_33 
ROOT
HETATM    1  N4  UNL     1      16.233   6.673  24.403  1.00  0.00    -0.375 N 
ATOM      2  H4  UNL     1      16.292   6.442  25.395  1.00  0.00     0.161 HD
ENDROOT
BRANCH   1   3
HETATM    3  C8  UNL     1      15.174   6.154  23.621  1.00  0.00     0.148 C 
BRANCH   3   4
HETATM    4  C7  UNL     1      13.932   5.727  24.282  1.00  0.00     0.251 C 
BRANCH   4   5
HETATM    5  N3  UNL     1      12.749   6.515  24.051  1.00  0.00    -0.074 N 
ATOM      6  H32 UNL     1      11.953   5.937  23.782  1.00  0.00     0.277 HD
ATOM      7  H31 UNL     1      12.824   7.073  23.200  1.00  0.00     0.277 HD
BRANCH   5   8
HETATM    8  C6  UNL     1      12.454   7.342  25.223  1.00  0.00     0.234 C 
BRANCH   8   9
HETATM    9  C5  UNL     1      12.872   8.750  25.055  1.00  0.00     0.055 C 
BRANCH   9  10
HETATM   10  C4  UNL     1      14.051   9.251  25.758  1.00  0.00     0.233 C 
BRANCH  10  11
HETATM   11  N2  UNL     1      14.533  10.574  25.401  1.00  0.00    -0.075 N 
ATOM     12  H22 UNL     1      14.011  11.309  25.878  1.00  0.00     0.277 HD
ATOM     13  H21 UNL     1      14.296  10.818  24.440  1.00  0.00     0.277 HD
BRANCH  11  14
HETATM   14  C3  UNL     1      15.951  10.675  25.647  1.00  0.00     0.233 C 
BRANCH  14  15
HETATM   15  C2  UNL     1      16.399  10.459  27.052  1.00  0.00     0.055 C 
BRANCH  15  16
HETATM   16  C1  UNL     1      16.807  11.780  27.668  1.00  0.00     0.231 C 
BRANCH  16  17
HETATM   17  N1  UNL     1      15.672  12.564  28.069  1.00  0.00    -0.079 N 
ATOM     18  H13 UNL     1      14.802  12.048  27.939  1.00  0.00     0.274 HD
ATOM     19  H12 UNL     1      15.642  12.678  29.082  1.00  0.00     0.274 HD
ATOM     20  H11 UNL     1      15.641  13.467  27.596  1.00  0.00     0.274 HD
ENDBRANCH  16  17
ENDBRANCH  15  16
ENDBRANCH  14  15
ENDBRANCH  11  14
ENDBRANCH  10  11
ENDBRANCH   9  10
ENDBRANCH   8   9
ENDBRANCH   5   8
ENDBRANCH   4   5
ENDBRANCH   3   4
ENDBRANCH   1   3
BRANCH   1  21
HETATM   21  C9  UNL     1      17.124   7.436  23.868  1.00  0.00     0.101 A 
HETATM   22  C10 UNL     1      18.380   7.441  24.437  1.00  0.00     0.060 A 
HETATM   23  C11 UNL     1      19.372   8.249  23.863  1.00  0.00    -0.020 A 
HETATM   24  C21 UNL     1      19.003   8.983  22.762  1.00  0.00     0.029 A 
HETATM   25  C22 UNL     1      17.754   8.976  22.198  1.00  0.00     0.090 A 
HETATM   26  N6  UNL     1      16.828   8.175  22.791  1.00  0.00    -0.353 N 
ATOM     27  H6  UNL     1      15.885   8.136  22.406  1.00  0.00     0.166 HD
BRANCH  23  28
HETATM   28  C12 UNL     1      20.735   8.277  24.388  1.00  0.00    -0.007 A 
HETATM   29  C13 UNL     1      21.782   8.932  23.792  1.00  0.00     0.027 A 
HETATM   30  C14 UNL     1      23.038   8.921  24.401  1.00  0.00    -0.006 A 
HETATM   31  C15 UNL     1      24.108   9.586  23.832  1.00  0.00     0.014 A 
HETATM   32  C19 UNL     1      23.260   8.264  25.592  1.00  0.00     0.072 A 
HETATM   33  C16 UNL     1      25.358   9.589  24.442  1.00  0.00     0.001 A 
HETATM   34  C17 UNL     1      25.573   8.930  25.637  1.00  0.00     0.002 A 
HETATM   35  C18 UNL     1      24.519   8.268  26.207  1.00  0.00     0.033 A 
HETATM   36  N5  UNL     1      22.219   7.627  26.156  1.00  0.00    -0.234 N 
HETATM   37  C20 UNL     1      20.995   7.618  25.597  1.00  0.00     0.135 A 
BRANCH  36  38
HETATM   38  O1  UNL     1      22.478   6.968  27.356  1.00  0.00    -0.283 OA
ATOM     39  H1  UNL     1      21.729   6.572  27.786  1.00  0.00     0.245 HD
ENDBRANCH  36  38
ENDBRANCH  23  28
ENDBRANCH   1  21
TORSDOF 14
ENDMDL
MODEL 2
REMARK VINA RESULT: -7.869445171      1.690      2.080
REMARK  14 active torsions:
REMARK  status: ('A' for Active; 'I' for Inactive)
REMARK    1  A    between atoms: N1_1  and  C1_5 
REMARK    2  A    between atoms: C1_5  and  C2_6 
REMARK    3  A    between atoms: C2_6  and  C3_7 
REMARK    4  A    between atoms: C3_7  and  N2_8 
REMARK    5  A    between atoms: N2_8  and  C4_11 
REMARK    6  A    between atoms: C4_11  and  C5_12 
REMARK    7  A    between atoms: C5_12  and  C6_13 
REMARK    8  A    between atoms: C6_13  and  N3_14 
REMARK    9  A    between atoms: N3_14  and  C7_17 
REMARK   10  A    between atoms: C7_17  and  C8_18 
REMARK   11  A    between atoms: C8_18  and  N4_19 
REMARK   12  A    between atoms: N4_19  and  C9_21 
REMARK   13  A    between atoms: C11_23  and  C12_24 
REMARK   14  A    between atoms: N5_32  and  O1_33 
ROOT
HETATM    1  N4  UNL     1      15.506   6.205  24.395  1.00  0.00    -0.375 N 
ATOM      2  H4  UNL     1      15.602   6.520  25.360  1.00  0.00     0.161 HD
ENDROOT
BRANCH   1   3
HETATM    3  C8  UNL     1      14.389   5.423  24.017  1.00  0.00     0.148 C 
BRANCH   3   4
HETATM    4  C7  UNL     1      13.124   5.572  24.751  1.00  0.00     0.251 C 
BRANCH   4   5
HETATM    5  N3  UNL     1      13.019   6.665  25.682  1.00  0.00    -0.074 N 
ATOM      6  H32 UNL     1      13.934   7.026  25.950  1.00  0.00     0.277 HD
ATOM      7  H31 UNL     1      12.706   6.353  26.602  1.00  0.00     0.277 HD
BRANCH   5   8
HETATM    8  C6  UNL     1      12.155   7.714  25.137  1.00  0.00     0.234 C 
BRANCH   8   9
HETATM    9  C5  UNL     1      12.713   9.072  25.319  1.00  0.00     0.055 C 
BRANCH   9  10
HETATM   10  C4  UNL     1      14.108   9.243  25.715  1.00  0.00     0.233 C 
BRANCH  10  11
HETATM   11  N2  UNL     1      14.740  10.515  25.417  1.00  0.00    -0.075 N 
ATOM     12  H22 UNL     1      14.254  11.294  25.862  1.00  0.00     0.277 HD
ATOM     13  H21 UNL     1      14.604  10.788  24.444  1.00  0.00     0.277 HD
BRANCH  11  14
HETATM   14  C3  UNL     1      16.137  10.480  25.775  1.00  0.00     0.233 C 
BRANCH  14  15
HETATM   15  C2  UNL     1      16.450  10.487  27.232  1.00  0.00     0.055 C 
BRANCH  15  16
HETATM   16  C1  UNL     1      16.809  11.891  27.671  1.00  0.00     0.231 C 
BRANCH  16  17
HETATM   17  N1  UNL     1      15.661  12.627  28.125  1.00  0.00    -0.079 N 
ATOM     18  H13 UNL     1      14.992  12.771  27.368  1.00  0.00     0.274 HD
ATOM     19  H12 UNL     1      15.083  12.062  28.746  1.00  0.00     0.274 HD
ATOM     20  H11 UNL     1      15.919  13.511  28.563  1.00  0.00     0.274 HD
ENDBRANCH  16  17
ENDBRANCH  15  16
ENDBRANCH  14  15
ENDBRANCH  11  14
ENDBRANCH  10  11
ENDBRANCH   9  10
ENDBRANCH   8   9
ENDBRANCH   5   8
ENDBRANCH   4   5
ENDBRANCH   3   4
ENDBRANCH   1   3
BRANCH   1  21
HETATM   21  C9  UNL     1      16.404   6.520  23.525  1.00  0.00     0.101 A 
HETATM   22  C10 UNL     1      17.599   7.021  23.998  1.00  0.00     0.060 A 
HETATM   23  C11 UNL     1      18.598   7.355  23.072  1.00  0.00    -0.020 A 
HETATM   24  C21 UNL     1      18.297   7.154  21.748  1.00  0.00     0.029 A 
HETATM   25  C22 UNL     1      17.110   6.656  21.280  1.00  0.00     0.090 A 
HETATM   26  N6  UNL     1      16.174   6.346  22.217  1.00  0.00    -0.353 N 
ATOM     27  H6  UNL     1      15.274   5.971  21.916  1.00  0.00     0.166 HD
BRANCH  23  28
HETATM   28  C12 UNL     1      19.902   7.855  23.501  1.00  0.00    -0.007 A 
HETATM   29  C13 UNL     1      20.394   7.741  24.776  1.00  0.00     0.027 A 
HETATM   30  C14 UNL     1      21.671   8.225  25.068  1.00  0.00    -0.006 A 
HETATM   31  C15 UNL     1      22.199   8.110  26.340  1.00  0.00     0.014 A 
HETATM   32  C19 UNL     1      22.458   8.819  24.105  1.00  0.00     0.072 A 
HETATM   33  C16 UNL     1      23.475   8.578  26.632  1.00  0.00     0.001 A 
HETATM   34  C17 UNL     1      24.260   9.171  25.662  1.00  0.00     0.002 A 
HETATM   35  C18 UNL     1      23.744   9.289  24.398  1.00  0.00     0.033 A 
HETATM   36  N5  UNL     1      21.953   8.920  22.863  1.00  0.00    -0.234 N 
HETATM   37  C20 UNL     1      20.727   8.465  22.547  1.00  0.00     0.135 A 
BRANCH  36  38
HETATM   38  O1  UNL     1      22.771   9.531  21.915  1.00  0.00    -0.283 OA
ATOM     39  H1  UNL     1      22.415  10.301  21.488  1.00  0.00     0.245 HD
ENDBRANCH  36  38
ENDBRANCH  23  28
ENDBRANCH   1  21
TORSDOF 14
ENDMDL
MODEL 3
REMARK VINA RESULT: -7.449930857      3.088      5.925
REMARK  14 active torsions:
REMARK  status: ('A' for Active; 'I' for Inactive)
REMARK    1  A    between atoms: N1_1  and  C1_5 
REMARK    2  A    between atoms: C1_5  and  C2_6 
REMARK    3  A    between atoms: C2_6  and  C3_7 
REMARK    4  A    between atoms: C3_7  and  N2_8 
REMARK    5  A    between atoms: N2_8  and  C4_11 
REMARK    6  A    between atoms: C4_11  and  C5_12 
REMARK    7  A    between atoms: C5_12  and  C6_13 
REMARK    8  A    between atoms: C6_13  and  N3_14 
REMARK    9  A    between atoms: N3_14  and  C7_17 
REMARK   10  A    between atoms: C7_17  and  C8_18 
REMARK   11  A    between atoms: C8_18  and  N4_19 
REMARK   12  A    between atoms: N4_19  and  C9_21 
REMARK   13  A    between atoms: C11_23  and  C12_24 
REMARK   14  A    between atoms: N5_32  and  O1_33 
ROOT
HETATM    1  N4  UNL     1      13.592   9.695  26.038  1.00  0.00    -0.375 N 
ATOM      2  H4  UNL     1      13.077  10.002  26.864  1.00  0.00     0.161 HD
ENDROOT
BRANCH   1   3
HETATM    3  C8  UNL     1      12.914   9.014  24.999  1.00  0.00     0.148 C 
BRANCH   3   4
HETATM    4  C7  UNL     1      12.243   7.740  25.290  1.00  0.00     0.251 C 
BRANCH   4   5
HETATM    5  N3  UNL     1      13.057   6.650  25.761  1.00  0.00    -0.074 N 
ATOM      6  H32 UNL     1      12.602   6.129  26.510  1.00  0.00     0.277 HD
ATOM      7  H31 UNL     1      13.871   6.979  26.279  1.00  0.00     0.277 HD
BRANCH   5   8
HETATM    8  C6  UNL     1      13.436   5.780  24.644  1.00  0.00     0.234 C 
BRANCH   8   9
HETATM    9  C5  UNL     1      14.850   5.940  24.243  1.00  0.00     0.055 C 
BRANCH   9  10
HETATM   10  C4  UNL     1      15.263   5.630  22.876  1.00  0.00     0.233 C 
BRANCH  10  11
HETATM   11  N2  UNL     1      16.003   4.401  22.661  1.00  0.00    -0.075 N 
ATOM     12  H22 UNL     1      15.750   3.954  21.780  1.00  0.00     0.277 HD
ATOM     13  H21 UNL     1      15.705   3.662  23.297  1.00  0.00     0.277 HD
BRANCH  11  14
HETATM   14  C3  UNL     1      17.423   4.646  22.751  1.00  0.00     0.233 C 
BRANCH  14  15
HETATM   15  C2  UNL     1      18.269   4.048  21.680  1.00  0.00     0.055 C 
BRANCH  15  16
HETATM   16  C1  UNL     1      17.724   2.689  21.297  1.00  0.00     0.231 C 
BRANCH  16  17
HETATM   17  N1  UNL     1      18.059   1.679  22.262  1.00  0.00    -0.079 N 
ATOM     18  H13 UNL     1      18.551   2.080  23.060  1.00  0.00     0.274 HD
ATOM     19  H12 UNL     1      17.227   1.336  22.741  1.00  0.00     0.274 HD
ATOM     20  H11 UNL     1      18.589   0.912  21.848  1.00  0.00     0.274 HD
ENDBRANCH  16  17
ENDBRANCH  15  16
ENDBRANCH  14  15
ENDBRANCH  11  14
ENDBRANCH  10  11
ENDBRANCH   9  10
ENDBRANCH   8   9
ENDBRANCH   5   8
ENDBRANCH   4   5
ENDBRANCH   3   4
ENDBRANCH   1   3
BRANCH   1  21
HETATM   21  C9  UNL     1      14.856   9.928  25.947  1.00  0.00     0.101 A 
HETATM   22  C10 UNL     1      15.553   9.277  24.950  1.00  0.00     0.060 A 
HETATM   23  C11 UNL     1      16.926   9.527  24.820  1.00  0.00    -0.020 A 
HETATM   24  C21 UNL     1      17.474  10.415  25.712  1.00  0.00     0.029 A 
HETATM   25  C22 UNL     1      16.781  11.061  26.701  1.00  0.00     0.090 A 
HETATM   26  N6  UNL     1      15.452  10.786  26.786  1.00  0.00    -0.353 N 
ATOM     27  H6  UNL     1      14.894  11.244  27.507  1.00  0.00     0.166 HD
BRANCH  23  28
HETATM   28  C12 UNL     1      17.720   8.904  23.764  1.00  0.00    -0.007 A 
HETATM   29  C13 UNL     1      17.294   8.732  22.471  1.00  0.00     0.027 A 
HETATM   30  C14 UNL     1      18.151   8.154  21.534  1.00  0.00    -0.006 A 
HETATM   31  C15 UNL     1      17.754   7.984  20.221  1.00  0.00     0.014 A 
HETATM   32  C19 UNL     1      19.423   7.745  21.870  1.00  0.00     0.072 A 
HETATM   33  C16 UNL     1      18.609   7.420  19.280  1.00  0.00     0.001 A 
HETATM   34  C17 UNL     1      19.884   7.013  19.624  1.00  0.00     0.002 A 
HETATM   35  C18 UNL     1      20.285   7.178  20.923  1.00  0.00     0.033 A 
HETATM   36  N5  UNL     1      19.818   7.921  23.144  1.00  0.00    -0.234 N 
HETATM   37  C20 UNL     1      19.019   8.476  24.073  1.00  0.00     0.135 A 
BRANCH  36  38
HETATM   38  O1  UNL     1      21.106   7.492  23.453  1.00  0.00    -0.283 OA
ATOM     39  H1  UNL     1      21.318   6.597  23.216  1.00  0.00     0.245 HD
ENDBRANCH  36  38
ENDBRANCH  23  28
ENDBRANCH   1  21
TORSDOF 14
ENDMDL
MODEL 4
REMARK VINA RESULT: -7.377636794      2.803      6.404
REMARK  14 active torsions:
REMARK  status: ('A' for Active; 'I' for Inactive)
REMARK    1  A    between atoms: N1_1  and  C1_5 
REMARK    2  A    between atoms: C1_5  and  C2_6 
REMARK    3  A    between atoms: C2_6  and  C3_7 
REMARK    4  A    between atoms: C3_7  and  N2_8 
REMARK    5  A    between atoms: N2_8  and  C4_11 
REMARK    6  A    between atoms: C4_11  and  C5_12 
REMARK    7  A    between atoms: C5_12  and  C6_13 
REMARK    8  A    between atoms: C6_13  and  N3_14 
REMARK    9  A    between atoms: N3_14  and  C7_17 
REMARK   10  A    between atoms: C7_17  and  C8_18 
REMARK   11  A    between atoms: C8_18  and  N4_19 
REMARK   12  A    between atoms: N4_19  and  C9_21 
REMARK   13  A    between atoms: C11_23  and  C12_24 
REMARK   14  A    between atoms: N5_32  and  O1_33 
ROOT
HETATM    1  N4  UNL     1      13.604   8.904  25.848  1.00  0.00    -0.375 N 
ATOM      2  H4  UNL     1      12.681   9.293  26.041  1.00  0.00     0.161 HD
ENDROOT
BRANCH   1   3
HETATM    3  C8  UNL     1      14.764   9.631  26.206  1.00  0.00     0.148 C 
BRANCH   3   4
HETATM    4  C7  UNL     1      15.181  10.775  25.382  1.00  0.00     0.251 C 
BRANCH   4   5
HETATM    5  N3  UNL     1      16.351  11.504  25.796  1.00  0.00    -0.074 N 
ATOM      6  H32 UNL     1      16.156  12.121  26.585  1.00  0.00     0.277 HD
ATOM      7  H31 UNL     1      16.620  12.213  25.114  1.00  0.00     0.277 HD
BRANCH   5   8
HETATM    8  C6  UNL     1      17.449  10.579  26.085  1.00  0.00     0.234 C 
BRANCH   8   9
HETATM    9  C5  UNL     1      18.128  10.091  24.865  1.00  0.00     0.055 C 
BRANCH   9  10
HETATM   10  C4  UNL     1      19.127   9.030  24.958  1.00  0.00     0.233 C 
BRANCH  10  11
HETATM   11  N2  UNL     1      20.294   9.130  24.101  1.00  0.00    -0.075 N 
ATOM     12  H22 UNL     1      20.525  10.100  23.885  1.00  0.00     0.277 HD
ATOM     13  H21 UNL     1      20.099   8.806  23.155  1.00  0.00     0.277 HD
BRANCH  11  14
HETATM   14  C3  UNL     1      21.412   8.431  24.689  1.00  0.00     0.233 C 
BRANCH  14  15
HETATM   15  C2  UNL     1      21.090   7.446  25.760  1.00  0.00     0.055 C 
BRANCH  15  16
HETATM   16  C1  UNL     1      22.343   7.110  26.539  1.00  0.00     0.231 C 
BRANCH  16  17
HETATM   17  N1  UNL     1      22.120   6.065  27.500  1.00  0.00    -0.079 N 
ATOM     18  H13 UNL     1      22.983   5.564  27.708  1.00  0.00     0.274 HD
ATOM     19  H12 UNL     1      21.929   6.450  28.425  1.00  0.00     0.274 HD
ATOM     20  H11 UNL     1      21.382   5.424  27.208  1.00  0.00     0.274 HD
ENDBRANCH  16  17
ENDBRANCH  15  16
ENDBRANCH  14  15
ENDBRANCH  11  14
ENDBRANCH  10  11
ENDBRANCH   9  10
ENDBRANCH   8   9
ENDBRANCH   5   8
ENDBRANCH   4   5
ENDBRANCH   3   4
ENDBRANCH   1   3
BRANCH   1  21
HETATM   21  C9  UNL     1      13.708   7.752  25.278  1.00  0.00     0.101 A 
HETATM   22  C10 UNL     1      14.858   7.501  24.559  1.00  0.00     0.060 A 
HETATM   23  C11 UNL     1      15.003   6.249  23.944  1.00  0.00    -0.020 A 
HETATM   24  C21 UNL     1      13.969   5.361  24.111  1.00  0.00     0.029 A 
HETATM   25  C22 UNL     1      12.827   5.613  24.826  1.00  0.00     0.090 A 
HETATM   26  N6  UNL     1      12.735   6.841  25.404  1.00  0.00    -0.353 N 
ATOM     27  H6  UNL     1      11.904   7.074  25.948  1.00  0.00     0.166 HD
BRANCH  23  28
HETATM   28  C12 UNL     1      16.209   5.897  23.199  1.00  0.00    -0.007 A 
HETATM   29  C13 UNL     1      16.568   4.617  22.862  1.00  0.00     0.027 A 
HETATM   30  C14 UNL     1      17.727   4.399  22.116  1.00  0.00    -0.006 A 
HETATM   31  C15 UNL     1      18.104   3.121  21.750  1.00  0.00     0.014 A 
HETATM   32  C19 UNL     1      18.531   5.441  21.706  1.00  0.00     0.072 A 
HETATM   33  C16 UNL     1      19.252   2.901  20.995  1.00  0.00     0.001 A 
HETATM   34  C17 UNL     1      20.052   3.949  20.585  1.00  0.00     0.002 A 
HETATM   35  C18 UNL     1      19.685   5.219  20.944  1.00  0.00     0.033 A 
HETATM   36  N5  UNL     1      18.160   6.687  22.049  1.00  0.00    -0.234 N 
HETATM   37  C20 UNL     1      17.049   6.933  22.767  1.00  0.00     0.135 A 
BRANCH  36  38
HETATM   38  O1  UNL     1      18.996   7.716  21.624  1.00  0.00    -0.283 OA
ATOM     39  H1  UNL     1      18.635   8.308  20.974  1.00  0.00     0.245 HD
ENDBRANCH  36  38
ENDBRANCH  23  28
ENDBRANCH   1  21
TORSDOF 14
ENDMDL
MODEL 5
REMARK VINA RESULT: -7.316870977      2.927      5.743
REMARK  14 active torsions:
REMARK  status: ('A' for Active; 'I' for Inactive)
REMARK    1  A    between atoms: N1_1  and  C1_5 
REMARK    2  A    between atoms: C1_5  and  C2_6 
REMARK    3  A    between atoms: C2_6  and  C3_7 
REMARK    4  A    between atoms: C3_7  and  N2_8 
REMARK    5  A    between atoms: N2_8  and  C4_11 
REMARK    6  A    between atoms: C4_11  and  C5_12 
REMARK    7  A    between atoms: C5_12  and  C6_13 
REMARK    8  A    between atoms: C6_13  and  N3_14 
REMARK    9  A    between atoms: N3_14  and  C7_17 
REMARK   10  A    between atoms: C7_17  and  C8_18 
REMARK   11  A    between atoms: C8_18  and  N4_19 
REMARK   12  A    between atoms: N4_19  and  C9_21 
REMARK   13  A    between atoms: C11_23  and  C12_24 
REMARK   14  A    between atoms: N5_32  and  O1_33 
ROOT
HETATM    1  N4  UNL     1      13.753  10.522  25.126  1.00  0.00    -0.375 N 
ATOM      2  H4  UNL     1      13.402  11.244  24.495  1.00  0.00     0.161 HD
ENDROOT
BRANCH   1   3
HETATM    3  C8  UNL     1      12.873   9.530  25.619  1.00  0.00     0.148 C 
BRANCH   3   4
HETATM    4  C7  UNL     1      12.672   8.296  24.846  1.00  0.00     0.251 C 
BRANCH   4   5
HETATM    5  N3  UNL     1      12.520   7.067  25.580  1.00  0.00    -0.074 N 
ATOM      6  H32 UNL     1      11.728   6.519  25.245  1.00  0.00     0.277 HD
ATOM      7  H31 UNL     1      12.198   7.231  26.534  1.00  0.00     0.277 HD
BRANCH   5   8
HETATM    8  C6  UNL     1      13.768   6.300  25.549  1.00  0.00     0.234 C 
BRANCH   8   9
HETATM    9  C5  UNL     1      14.012   5.649  24.243  1.00  0.00     0.055 C 
BRANCH   9  10
HETATM   10  C4  UNL     1      15.339   5.704  23.635  1.00  0.00     0.233 C 
BRANCH  10  11
HETATM   11  N2  UNL     1      15.779   4.546  22.879  1.00  0.00    -0.075 N 
ATOM     12  H22 UNL     1      15.302   3.695  23.176  1.00  0.00     0.277 HD
ATOM     13  H21 UNL     1      16.733   4.277  23.117  1.00  0.00     0.277 HD
BRANCH  11  14
HETATM   14  C3  UNL     1      15.624   4.781  21.463  1.00  0.00     0.233 C 
BRANCH  14  15
HETATM   15  C2  UNL     1      15.984   3.652  20.560  1.00  0.00     0.055 C 
BRANCH  15  16
HETATM   16  C1  UNL     1      17.286   3.028  21.013  1.00  0.00     0.231 C 
BRANCH  16  17
HETATM   17  N1  UNL     1      17.134   1.639  21.348  1.00  0.00    -0.079 N 
ATOM     18  H13 UNL     1      16.609   1.524  22.215  1.00  0.00     0.274 HD
ATOM     19  H12 UNL     1      16.493   1.173  20.707  1.00  0.00     0.274 HD
ATOM     20  H11 UNL     1      18.030   1.154  21.393  1.00  0.00     0.274 HD
ENDBRANCH  16  17
ENDBRANCH  15  16
ENDBRANCH  14  15
ENDBRANCH  11  14
ENDBRANCH  10  11
ENDBRANCH   9  10
ENDBRANCH   8   9
ENDBRANCH   5   8
ENDBRANCH   4   5
ENDBRANCH   3   4
ENDBRANCH   1   3
BRANCH   1  21
HETATM   21  C9  UNL     1      14.995  10.519  25.470  1.00  0.00     0.101 A 
HETATM   22  C10 UNL     1      15.881   9.855  24.647  1.00  0.00     0.060 A 
HETATM   23  C11 UNL     1      17.240   9.853  24.990  1.00  0.00    -0.020 A 
HETATM   24  C21 UNL     1      17.583  10.522  26.139  1.00  0.00     0.029 A 
HETATM   25  C22 UNL     1      16.702  11.181  26.955  1.00  0.00     0.090 A 
HETATM   26  N6  UNL     1      15.395  11.156  26.578  1.00  0.00    -0.353 N 
ATOM     27  H6  UNL     1      14.702  11.634  27.154  1.00  0.00     0.166 HD
BRANCH  23  28
HETATM   28  C12 UNL     1      18.241   9.203  24.147  1.00  0.00    -0.007 A 
HETATM   29  C13 UNL     1      18.055   8.004  23.507  1.00  0.00     0.027 A 
HETATM   30  C14 UNL     1      19.069   7.492  22.695  1.00  0.00    -0.006 A 
HETATM   31  C15 UNL     1      18.903   6.293  22.026  1.00  0.00     0.014 A 
HETATM   32  C19 UNL     1      20.261   8.159  22.518  1.00  0.00     0.072 A 
HETATM   33  C16 UNL     1      19.906   5.786  21.206  1.00  0.00     0.001 A 
HETATM   34  C17 UNL     1      21.098   6.460  21.031  1.00  0.00     0.002 A 
HETATM   35  C18 UNL     1      21.270   7.648  21.691  1.00  0.00     0.033 A 
HETATM   36  N5  UNL     1      20.421   9.331  23.157  1.00  0.00    -0.234 N 
HETATM   37  C20 UNL     1      19.465   9.855  23.945  1.00  0.00     0.135 A 
BRANCH  36  38
HETATM   38  O1  UNL     1      21.639   9.977  22.961  1.00  0.00    -0.283 OA
ATOM     39  H1  UNL     1      21.881  10.624  23.614  1.00  0.00     0.245 HD
ENDBRANCH  36  38
ENDBRANCH  23  28
ENDBRANCH   1  21
TORSDOF 14
ENDMDL
