MODEL 1
REMARK VINA RESULT: -9.282288912      0.000      0.000
REMARK  7 active torsions:
REMARK  status: ('A' for Active; 'I' for Inactive)
REMARK    1  A    between atoms: O1_1  and  C1_3 
REMARK    2  A    between atoms: C1_3  and  C2_4 
REMARK    3  A    between atoms: C1_3  and  C8_12 
REMARK    4  A    between atoms: C2_4  and  C3_5 
REMARK    5  A    between atoms: C11_15  and  N2_16 
REMARK    6  A    between atoms: C15_22  and  N4_23 
REMARK    7  A    between atoms: N4_23  and  C16_25 
ROOT
HETATM    1  N2  UNL     1      -4.901   6.646  10.552  1.00  0.00     0.102 N 
HETATM    2  C12 UNL     1      -4.717   5.261  10.147  1.00  0.00     0.315 C 
HETATM    3  C13 UNL     1      -4.232   4.624  11.400  1.00  0.00     0.011 A 
HETATM    4  C14 UNL     1      -3.567   3.427  11.662  1.00  0.00     0.117 A 
HETATM    5  N3  UNL     1      -3.254   3.077  12.937  1.00  0.00    -0.201 N 
ATOM      6  H3  UNL     1      -2.766   2.195  13.095  1.00  0.00     0.183 HD
HETATM    7  C15 UNL     1      -3.557   3.837  13.994  1.00  0.00     0.678 A 
HETATM    8  N5  UNL     1      -4.210   5.014  13.724  1.00  0.00    -0.193 N 
ATOM      9  H5  UNL     1      -4.457   5.622  14.505  1.00  0.00     0.184 HD
HETATM   10  C22 UNL     1      -4.536   5.400  12.494  1.00  0.00     0.064 A 
HETATM   11  C23 UNL     1      -5.231   6.617  11.950  1.00  0.00     0.331 C 
ENDROOT
BRANCH   1  12
HETATM   12  C11 UNL     1      -5.820   7.331   9.706  1.00  0.00     0.224 C 
HETATM   13  C10 UNL     1      -6.882   6.492   9.064  1.00  0.00     0.036 C 
HETATM   14  C9  UNL     1      -7.746   7.330   8.183  1.00  0.00     0.009 C 
HETATM   15  C8  UNL     1      -7.178   8.714   7.931  1.00  0.00     0.015 C 
HETATM   16  C25 UNL     1      -6.922   9.463   9.195  1.00  0.00     0.009 C 
HETATM   17  C24 UNL     1      -6.452   8.544  10.315  1.00  0.00     0.036 C 
BRANCH  15  18
HETATM   18  C1  UNL     1      -8.081   9.499   7.010  1.00  0.00     0.126 C 
BRANCH  18  19
HETATM   19  O1  UNL     1      -7.818   9.093   5.689  1.00  0.00    -0.395 OA
ATOM     20  H1  UNL     1      -8.248   9.695   5.094  1.00  0.00     0.210 HD
ENDBRANCH  18  19
BRANCH  18  21
HETATM   21  C2  UNL     1      -9.540   9.325   7.284  1.00  0.00     0.072 C 
BRANCH  21  22
HETATM   22  C3  UNL     1     -10.201  10.627   6.998  1.00  0.00    -0.040 A 
HETATM   23  C4  UNL     1     -10.846  10.738   5.770  1.00  0.00     0.010 A 
HETATM   24  C5  UNL     1     -11.498  11.873   5.366  1.00  0.00     0.018 A 
HETATM   25  C6  UNL     1     -11.482  12.936   6.272  1.00  0.00     0.087 A 
HETATM   26  N1  UNL     1     -10.856  12.820   7.460  1.00  0.00    -0.375 N 
HETATM   27  C7  UNL     1     -10.213  11.694   7.848  1.00  0.00     0.094 A 
ATOM     28  H1  UNL     1     -10.866  13.617   8.095  1.00  0.00     0.164 HD
ENDBRANCH  21  22
ENDBRANCH  18  21
ENDBRANCH  15  18
ENDBRANCH   1  12
BRANCH   7  29
HETATM   29  N4  UNL     1      -3.288   3.502  15.197  1.00  0.00    -0.221 N 
ATOM     30  H4  UNL     1      -2.337   3.673  15.524  1.00  0.00     0.178 HD
BRANCH  29  31
HETATM   31  C16 UNL     1      -4.203   2.905  16.134  1.00  0.00     0.099 C 
HETATM   32  C17 UNL     1      -4.268   1.419  16.031  1.00  0.00     0.031 C 
HETATM   33  C18 UNL     1      -5.570   0.766  16.272  1.00  0.00     0.081 C 
HETATM   34  C19 UNL     1      -6.673   1.664  16.757  1.00  0.00     0.243 C 
HETATM   35  F1  UNL     1      -6.286   2.212  17.965  1.00  0.00    -0.206 F 
HETATM   36  F2  UNL     1      -7.847   0.986  16.811  1.00  0.00    -0.206 F 
HETATM   37  C20 UNL     1      -6.703   2.818  15.744  1.00  0.00     0.081 C 
HETATM   38  C21 UNL     1      -5.497   3.638  16.042  1.00  0.00     0.031 C 
ENDBRANCH  29  31
ENDBRANCH   7  29
TORSDOF 7
ENDMDL
MODEL 2
REMARK VINA RESULT: -9.020100336      1.127      1.669
REMARK  7 active torsions:
REMARK  status: ('A' for Active; 'I' for Inactive)
REMARK    1  A    between atoms: O1_1  and  C1_3 
REMARK    2  A    between atoms: C1_3  and  C2_4 
REMARK    3  A    between atoms: C1_3  and  C8_12 
REMARK    4  A    between atoms: C2_4  and  C3_5 
REMARK    5  A    between atoms: C11_15  and  N2_16 
REMARK    6  A    between atoms: C15_22  and  N4_23 
REMARK    7  A    between atoms: N4_23  and  C16_25 
ROOT
HETATM    1  N2  UNL     1      -5.656   7.740   9.975  1.00  0.00     0.102 N 
HETATM    2  C12 UNL     1      -4.896   6.644   9.394  1.00  0.00     0.315 C 
HETATM    3  C13 UNL     1      -4.526   5.843  10.590  1.00  0.00     0.011 A 
HETATM    4  C14 UNL     1      -3.557   4.866  10.819  1.00  0.00     0.117 A 
HETATM    5  N3  UNL     1      -3.452   4.270  12.035  1.00  0.00    -0.201 N 
ATOM      6  H3  UNL     1      -2.732   3.561  12.170  1.00  0.00     0.183 HD
HETATM    7  C15 UNL     1      -4.250   4.573  13.063  1.00  0.00     0.678 A 
HETATM    8  N5  UNL     1      -5.199   5.537  12.829  1.00  0.00    -0.193 N 
ATOM      9  H5  UNL     1      -5.826   5.797  13.590  1.00  0.00     0.184 HD
HETATM   10  C22 UNL     1      -5.340   6.149  11.656  1.00  0.00     0.064 A 
HETATM   11  C23 UNL     1      -6.276   7.217  11.161  1.00  0.00     0.331 C 
ENDROOT
BRANCH   1  12
HETATM   12  C11 UNL     1      -6.531   8.344   9.026  1.00  0.00     0.224 C 
HETATM   13  C10 UNL     1      -7.920   7.787   8.959  1.00  0.00     0.036 C 
HETATM   14  C9  UNL     1      -8.711   8.486   7.904  1.00  0.00     0.009 C 
HETATM   15  C8  UNL     1      -7.858   9.350   6.994  1.00  0.00     0.015 C 
HETATM   16  C25 UNL     1      -7.070  10.367   7.748  1.00  0.00     0.009 C 
HETATM   17  C24 UNL     1      -6.602   9.837   9.097  1.00  0.00     0.036 C 
BRANCH  15  18
HETATM   18  C1  UNL     1      -8.710  10.003   5.932  1.00  0.00     0.126 C 
BRANCH  18  19
HETATM   19  O1  UNL     1      -8.526   9.298   4.728  1.00  0.00    -0.395 OA
ATOM     20  H1  UNL     1      -7.603   9.093   4.634  1.00  0.00     0.210 HD
ENDBRANCH  18  19
BRANCH  18  21
HETATM   21  C2  UNL     1     -10.170  10.037   6.249  1.00  0.00     0.072 C 
BRANCH  21  22
HETATM   22  C3  UNL     1     -10.559  11.467   6.390  1.00  0.00    -0.040 A 
HETATM   23  C4  UNL     1     -11.151  12.059   5.279  1.00  0.00     0.010 A 
HETATM   24  C5  UNL     1     -11.562  13.366   5.258  1.00  0.00     0.018 A 
HETATM   25  C6  UNL     1     -11.350  14.088   6.435  1.00  0.00     0.087 A 
HETATM   26  N1  UNL     1     -10.776  13.505   7.506  1.00  0.00    -0.375 N 
HETATM   27  C7  UNL     1     -10.373  12.213   7.516  1.00  0.00     0.094 A 
ATOM     28  H1  UNL     1     -10.639  14.064   8.348  1.00  0.00     0.164 HD
ENDBRANCH  21  22
ENDBRANCH  18  21
ENDBRANCH  15  18
ENDBRANCH   1  12
BRANCH   7  29
HETATM   29  N4  UNL     1      -4.172   3.999  14.202  1.00  0.00    -0.221 N 
ATOM     30  H4  UNL     1      -3.256   3.980  14.649  1.00  0.00     0.178 HD
BRANCH  29  31
HETATM   31  C16 UNL     1      -5.259   3.377  14.912  1.00  0.00     0.099 C 
HETATM   32  C17 UNL     1      -5.922   4.285  15.890  1.00  0.00     0.031 C 
HETATM   33  C18 UNL     1      -6.428   3.697  17.146  1.00  0.00     0.081 C 
HETATM   34  C19 UNL     1      -6.363   2.198  17.240  1.00  0.00     0.243 C 
HETATM   35  F1  UNL     1      -7.136   1.667  16.225  1.00  0.00    -0.206 F 
HETATM   36  F2  UNL     1      -6.725   1.785  18.481  1.00  0.00    -0.206 F 
HETATM   37  C20 UNL     1      -4.905   1.855  16.904  1.00  0.00     0.081 C 
HETATM   38  C21 UNL     1      -4.776   2.069  15.436  1.00  0.00     0.031 C 
ENDBRANCH  29  31
ENDBRANCH   7  29
TORSDOF 7
ENDMDL
MODEL 3
REMARK VINA RESULT: -8.988737230      1.533      2.543
REMARK  7 active torsions:
REMARK  status: ('A' for Active; 'I' for Inactive)
REMARK    1  A    between atoms: O1_1  and  C1_3 
REMARK    2  A    between atoms: C1_3  and  C2_4 
REMARK    3  A    between atoms: C1_3  and  C8_12 
REMARK    4  A    between atoms: C2_4  and  C3_5 
REMARK    5  A    between atoms: C11_15  and  N2_16 
REMARK    6  A    between atoms: C15_22  and  N4_23 
REMARK    7  A    between atoms: N4_23  and  C16_25 
ROOT
HETATM    1  N2  UNL     1      -6.161   7.883   9.558  1.00  0.00     0.102 N 
HETATM    2  C12 UNL     1      -5.377   6.760   9.069  1.00  0.00     0.315 C 
HETATM    3  C13 UNL     1      -4.946   6.098  10.329  1.00  0.00     0.011 A 
HETATM    4  C14 UNL     1      -3.937   5.183  10.626  1.00  0.00     0.117 A 
HETATM    5  N3  UNL     1      -3.777   4.719  11.893  1.00  0.00    -0.201 N 
ATOM      6  H3  UNL     1      -3.029   4.052  12.077  1.00  0.00     0.183 HD
HETATM    7  C15 UNL     1      -4.559   5.099  12.908  1.00  0.00     0.678 A 
HETATM    8  N5  UNL     1      -5.548   6.000  12.606  1.00  0.00    -0.193 N 
ATOM      9  H5  UNL     1      -6.164   6.316  13.356  1.00  0.00     0.184 HD
HETATM   10  C22 UNL     1      -5.742   6.484  11.382  1.00  0.00     0.064 A 
HETATM   11  C23 UNL     1      -6.730   7.463  10.810  1.00  0.00     0.331 C 
ENDROOT
BRANCH   1  12
HETATM   12  C11 UNL     1      -7.083   8.356   8.580  1.00  0.00     0.224 C 
HETATM   13  C10 UNL     1      -6.547   8.525   7.192  1.00  0.00     0.036 C 
HETATM   14  C9  UNL     1      -7.606   9.058   6.286  1.00  0.00     0.009 C 
HETATM   15  C8  UNL     1      -8.831   9.558   7.029  1.00  0.00     0.015 C 
HETATM   16  C25 UNL     1      -9.435   8.510   7.901  1.00  0.00     0.009 C 
HETATM   17  C24 UNL     1      -8.377   7.606   8.521  1.00  0.00     0.036 C 
BRANCH  15  18
HETATM   18  C1  UNL     1      -9.849  10.111   6.061  1.00  0.00     0.126 C 
BRANCH  18  19
HETATM   19  O1  UNL     1     -11.124   9.968   6.639  1.00  0.00    -0.395 OA
ATOM     20  H1  UNL     1     -11.120  10.385   7.493  1.00  0.00     0.210 HD
ENDBRANCH  18  19
BRANCH  18  21
HETATM   21  C2  UNL     1      -9.643  11.549   5.706  1.00  0.00     0.072 C 
BRANCH  21  22
HETATM   22  C3  UNL     1      -9.375  12.283   6.972  1.00  0.00    -0.040 A 
HETATM   23  C4  UNL     1      -8.044  12.594   7.237  1.00  0.00     0.010 A 
HETATM   24  C5  UNL     1      -7.642  13.266   8.361  1.00  0.00     0.018 A 
HETATM   25  C6  UNL     1      -8.659  13.629   9.247  1.00  0.00     0.087 A 
HETATM   26  N1  UNL     1      -9.945  13.324   8.982  1.00  0.00    -0.375 N 
HETATM   27  C7  UNL     1     -10.331  12.659   7.868  1.00  0.00     0.094 A 
ATOM     28  H1  UNL     1     -10.660  13.607   9.652  1.00  0.00     0.164 HD
ENDBRANCH  21  22
ENDBRANCH  18  21
ENDBRANCH  15  18
ENDBRANCH   1  12
BRANCH   7  29
HETATM   29  N4  UNL     1      -4.429   4.647  14.097  1.00  0.00    -0.221 N 
ATOM     30  H4  UNL     1      -3.569   4.882  14.590  1.00  0.00     0.178 HD
BRANCH  29  31
HETATM   31  C16 UNL     1      -5.387   3.837  14.802  1.00  0.00     0.099 C 
HETATM   32  C17 UNL     1      -6.088   4.567  15.896  1.00  0.00     0.031 C 
HETATM   33  C18 UNL     1      -6.439   3.814  17.116  1.00  0.00     0.081 C 
HETATM   34  C19 UNL     1      -6.192   2.332  17.064  1.00  0.00     0.243 C 
HETATM   35  F1  UNL     1      -6.961   1.800  16.047  1.00  0.00    -0.206 F 
HETATM   36  F2  UNL     1      -6.421   1.771  18.278  1.00  0.00    -0.206 F 
HETATM   37  C20 UNL     1      -4.728   2.201  16.620  1.00  0.00     0.081 C 
HETATM   38  C21 UNL     1      -4.721   2.556  15.174  1.00  0.00     0.031 C 
ENDBRANCH  29  31
ENDBRANCH   7  29
TORSDOF 7
ENDMDL
MODEL 4
REMARK VINA RESULT: -8.715136151      1.116      1.361
REMARK  7 active torsions:
REMARK  status: ('A' for Active; 'I' for Inactive)
REMARK    1  A    between atoms: O1_1  and  C1_3 
REMARK    2  A    between atoms: C1_3  and  C2_4 
REMARK    3  A    between atoms: C1_3  and  C8_12 
REMARK    4  A    between atoms: C2_4  and  C3_5 
REMARK    5  A    between atoms: C11_15  and  N2_16 
REMARK    6  A    between atoms: C15_22  and  N4_23 
REMARK    7  A    between atoms: N4_23  and  C16_25 
ROOT
HETATM    1  N2  UNL     1      -4.231   6.335  10.452  1.00  0.00     0.102 N 
HETATM    2  C12 UNL     1      -4.422   4.919  10.181  1.00  0.00     0.315 C 
HETATM    3  C13 UNL     1      -4.073   4.293  11.483  1.00  0.00     0.011 A 
HETATM    4  C14 UNL     1      -3.728   2.993  11.853  1.00  0.00     0.117 A 
HETATM    5  N3  UNL     1      -3.472   2.690  13.152  1.00  0.00    -0.201 N 
ATOM      6  H3  UNL     1      -3.221   1.731  13.388  1.00  0.00     0.183 HD
HETATM    7  C15 UNL     1      -3.534   3.595  14.134  1.00  0.00     0.678 A 
HETATM    8  N5  UNL     1      -3.872   4.871  13.760  1.00  0.00    -0.193 N 
ATOM      9  H5  UNL     1      -3.929   5.590  14.481  1.00  0.00     0.184 HD
HETATM   10  C22 UNL     1      -4.131   5.216  12.501  1.00  0.00     0.064 A 
HETATM   11  C23 UNL     1      -4.509   6.518  11.851  1.00  0.00     0.331 C 
ENDROOT
BRANCH   1  12
HETATM   12  C11 UNL     1      -4.973   7.155   9.554  1.00  0.00     0.224 C 
HETATM   13  C10 UNL     1      -4.805   6.860   8.095  1.00  0.00     0.036 C 
HETATM   14  C9  UNL     1      -5.608   7.813   7.275  1.00  0.00     0.009 C 
HETATM   15  C8  UNL     1      -6.140   8.987   8.076  1.00  0.00     0.015 C 
HETATM   16  C25 UNL     1      -6.963   8.555   9.242  1.00  0.00     0.009 C 
HETATM   17  C24 UNL     1      -6.432   7.272   9.869  1.00  0.00     0.036 C 
BRANCH  15  18
HETATM   18  C1  UNL     1      -6.914   9.929   7.186  1.00  0.00     0.126 C 
BRANCH  18  19
HETATM   19  O1  UNL     1      -6.036  10.935   6.743  1.00  0.00    -0.395 OA
ATOM     20  H1  UNL     1      -5.438  11.149   7.450  1.00  0.00     0.210 HD
ENDBRANCH  18  19
BRANCH  18  21
HETATM   21  C2  UNL     1      -7.535   9.277   5.992  1.00  0.00     0.072 C 
BRANCH  21  22
HETATM   22  C3  UNL     1      -8.928   9.789   5.884  1.00  0.00    -0.040 A 
HETATM   23  C4  UNL     1      -9.275  10.387   4.676  1.00  0.00     0.010 A 
HETATM   24  C5  UNL     1     -10.519  10.904   4.427  1.00  0.00     0.018 A 
HETATM   25  C6  UNL     1     -11.440  10.799   5.472  1.00  0.00     0.087 A 
HETATM   26  N1  UNL     1     -11.095  10.219   6.639  1.00  0.00    -0.375 N 
HETATM   27  C7  UNL     1      -9.863   9.711   6.874  1.00  0.00     0.094 A 
ATOM     28  H1  UNL     1     -11.795  10.160   7.378  1.00  0.00     0.164 HD
ENDBRANCH  21  22
ENDBRANCH  18  21
ENDBRANCH  15  18
ENDBRANCH   1  12
BRANCH   7  29
HETATM   29  N4  UNL     1      -3.318   3.311  15.361  1.00  0.00    -0.221 N 
ATOM     30  H4  UNL     1      -2.383   3.500  15.722  1.00  0.00     0.178 HD
BRANCH  29  31
HETATM   31  C16 UNL     1      -4.273   2.749  16.279  1.00  0.00     0.099 C 
HETATM   32  C17 UNL     1      -4.325   1.259  16.239  1.00  0.00     0.031 C 
HETATM   33  C18 UNL     1      -5.633   0.608  16.447  1.00  0.00     0.081 C 
HETATM   34  C19 UNL     1      -6.763   1.518  16.841  1.00  0.00     0.243 C 
HETATM   35  F1  UNL     1      -6.435   2.121  18.041  1.00  0.00    -0.206 F 
HETATM   36  F2  UNL     1      -7.934   0.834  16.870  1.00  0.00    -0.206 F 
HETATM   37  C20 UNL     1      -6.752   2.626  15.778  1.00  0.00     0.081 C 
HETATM   38  C21 UNL     1      -5.565   3.467  16.096  1.00  0.00     0.031 C 
ENDBRANCH  29  31
ENDBRANCH   7  29
TORSDOF 7
ENDMDL
MODEL 5
REMARK VINA RESULT: -8.656263609      7.000     10.332
REMARK  7 active torsions:
REMARK  status: ('A' for Active; 'I' for Inactive)
REMARK    1  A    between atoms: O1_1  and  C1_3 
REMARK    2  A    between atoms: C1_3  and  C2_4 
REMARK    3  A    between atoms: C1_3  and  C8_12 
REMARK    4  A    between atoms: C2_4  and  C3_5 
REMARK    5  A    between atoms: C11_15  and  N2_16 
REMARK    6  A    between atoms: C15_22  and  N4_23 
REMARK    7  A    between atoms: N4_23  and  C16_25 
ROOT
HETATM    1  N2  UNL     1      -0.322   3.280  11.427  1.00  0.00     0.102 N 
HETATM    2  C12 UNL     1      -1.277   2.473  10.684  1.00  0.00     0.315 C 
HETATM    3  C13 UNL     1      -2.517   2.620  11.491  1.00  0.00     0.011 A 
HETATM    4  C14 UNL     1      -3.702   1.889  11.555  1.00  0.00     0.117 A 
HETATM    5  N3  UNL     1      -4.704   2.270  12.391  1.00  0.00    -0.201 N 
ATOM      6  H3  UNL     1      -5.557   1.713  12.415  1.00  0.00     0.183 HD
HETATM    7  C15 UNL     1      -4.618   3.344  13.183  1.00  0.00     0.678 A 
HETATM    8  N5  UNL     1      -3.447   4.055  13.113  1.00  0.00    -0.193 N 
ATOM      9  H5  UNL     1      -3.344   4.880  13.704  1.00  0.00     0.184 HD
HETATM   10  C22 UNL     1      -2.439   3.721  12.312  1.00  0.00     0.064 A 
HETATM   11  C23 UNL     1      -1.083   4.321  12.063  1.00  0.00     0.331 C 
ENDROOT
BRANCH   1  12
HETATM   12  C11 UNL     1       0.763   3.709  10.610  1.00  0.00     0.224 C 
HETATM   13  C10 UNL     1       0.512   3.735   9.134  1.00  0.00     0.036 C 
HETATM   14  C9  UNL     1       1.739   4.168   8.404  1.00  0.00     0.009 C 
HETATM   15  C8  UNL     1       2.978   4.188   9.279  1.00  0.00     0.015 C 
HETATM   16  C25 UNL     1       2.812   5.053  10.482  1.00  0.00     0.009 C 
HETATM   17  C24 UNL     1       1.390   5.004  11.026  1.00  0.00     0.036 C 
BRANCH  15  18
HETATM   18  C1  UNL     1       4.188   4.602   8.477  1.00  0.00     0.126 C 
BRANCH  18  19
HETATM   19  O1  UNL     1       4.428   5.967   8.721  1.00  0.00    -0.395 OA
ATOM     20  H1  UNL     1       4.444   6.426   7.889  1.00  0.00     0.210 HD
ENDBRANCH  18  19
BRANCH  18  21
HETATM   21  C2  UNL     1       5.430   3.834   8.796  1.00  0.00     0.072 C 
BRANCH  21  22
HETATM   22  C3  UNL     1       5.472   2.661   7.881  1.00  0.00    -0.040 A 
HETATM   23  C4  UNL     1       4.900   2.837   6.625  1.00  0.00     0.010 A 
HETATM   24  C5  UNL     1       4.863   1.850   5.675  1.00  0.00     0.018 A 
HETATM   25  C6  UNL     1       5.440   0.632   6.043  1.00  0.00     0.087 A 
HETATM   26  N1  UNL     1       5.991   0.471   7.262  1.00  0.00    -0.375 N 
HETATM   27  C7  UNL     1       6.022   1.453   8.193  1.00  0.00     0.094 A 
ATOM     28  H1  UNL     1       6.403  -0.432   7.494  1.00  0.00     0.164 HD
ENDBRANCH  21  22
ENDBRANCH  18  21
ENDBRANCH  15  18
ENDBRANCH   1  12
BRANCH   7  29
HETATM   29  N4  UNL     1      -5.566   3.721  13.953  1.00  0.00    -0.221 N 
ATOM     30  H4  UNL     1      -5.967   4.642  13.777  1.00  0.00     0.178 HD
BRANCH  29  31
HETATM   31  C16 UNL     1      -6.118   2.966  15.046  1.00  0.00     0.099 C 
HETATM   32  C17 UNL     1      -6.463   3.804  16.230  1.00  0.00     0.031 C 
HETATM   33  C18 UNL     1      -6.276   3.216  17.570  1.00  0.00     0.081 C 
HETATM   34  C19 UNL     1      -5.903   1.760  17.601  1.00  0.00     0.243 C 
HETATM   35  F1  UNL     1      -6.920   1.040  17.002  1.00  0.00    -0.206 F 
HETATM   36  F2  UNL     1      -5.627   1.369  18.871  1.00  0.00    -0.206 F 
HETATM   37  C20 UNL     1      -4.686   1.655  16.672  1.00  0.00     0.081 C 
HETATM   38  C21 UNL     1      -5.228   1.796  15.293  1.00  0.00     0.031 C 
ENDBRANCH  29  31
ENDBRANCH   7  29
TORSDOF 7
ENDMDL
