MODEL 1
REMARK VINA RESULT: -3.774842681      0.000      0.000
REMARK  2 active torsions:
REMARK  status: ('A' for Active; 'I' for Inactive)
REMARK    1  A    between atoms: O1_1  and  C1_3 
REMARK    2  A    between atoms: C7_10  and  O3_11 
ROOT
HETATM    1  C1  UNL     1      19.724   9.715  22.050  1.00  0.00     0.171 C 
HETATM    2  C2  UNL     1      20.259   9.218  20.699  1.00  0.00     0.202 C 
HETATM    3  O2  UNL     1      20.501  10.418  19.989  1.00  0.00    -0.383 OA
HETATM    4  C3  UNL     1      19.303  10.864  19.523  1.00  0.00     0.128 C 
HETATM    5  C4  UNL     1      19.291  12.377  19.366  1.00  0.00     0.033 C 
HETATM    6  C5  UNL     1      18.250  12.436  20.463  1.00  0.00     0.012 C 
HETATM    7  C6  UNL     1      18.184  10.919  20.471  1.00  0.00     0.046 C 
HETATM    8  C7  UNL     1      18.348  10.257  21.780  1.00  0.00     0.155 C 
ENDROOT
BRANCH   1   9
HETATM    9  O1  UNL     1      20.621  10.730  22.444  1.00  0.00    -0.391 OA
ATOM     10  H1  UNL     1      20.820  11.202  21.644  1.00  0.00     0.210 HD
ENDBRANCH   1   9
BRANCH   8  11
HETATM   11  O3  UNL     1      17.973  11.111  22.836  1.00  0.00    -0.392 OA
ATOM     12  H3  UNL     1      18.081  10.652  23.661  1.00  0.00     0.210 HD
ENDBRANCH   8  11
TORSDOF 2
ENDMDL
MODEL 2
REMARK VINA RESULT: -3.759263412      7.551      9.089
REMARK  2 active torsions:
REMARK  status: ('A' for Active; 'I' for Inactive)
REMARK    1  A    between atoms: O1_1  and  C1_3 
REMARK    2  A    between atoms: C7_10  and  O3_11 
ROOT
HETATM    1  C1  UNL     1      13.418  12.993  25.509  1.00  0.00     0.171 C 
HETATM    2  C2  UNL     1      12.229  13.738  26.134  1.00  0.00     0.202 C 
HETATM    3  O2  UNL     1      12.834  14.504  27.158  1.00  0.00    -0.383 OA
HETATM    4  C3  UNL     1      13.061  13.672  28.210  1.00  0.00     0.128 C 
HETATM    5  C4  UNL     1      14.247  14.132  29.043  1.00  0.00     0.033 C 
HETATM    6  C5  UNL     1      14.976  12.876  28.616  1.00  0.00     0.012 C 
HETATM    7  C6  UNL     1      13.713  12.386  27.929  1.00  0.00     0.046 C 
HETATM    8  C7  UNL     1      13.847  11.967  26.521  1.00  0.00     0.155 C 
ENDROOT
BRANCH   1   9
HETATM    9  O1  UNL     1      14.404  13.982  25.314  1.00  0.00    -0.391 OA
ATOM     10  H1  UNL     1      15.182  13.504  25.054  1.00  0.00     0.210 HD
ENDBRANCH   1   9
BRANCH   8  11
HETATM   11  O3  UNL     1      15.163  11.556  26.232  1.00  0.00    -0.392 OA
ATOM     12  H3  UNL     1      15.137  10.709  25.802  1.00  0.00     0.210 HD
ENDBRANCH   8  11
TORSDOF 2
ENDMDL
MODEL 3
REMARK VINA RESULT: -3.709555709      3.807      5.152
REMARK  2 active torsions:
REMARK  status: ('A' for Active; 'I' for Inactive)
REMARK    1  A    between atoms: O1_1  and  C1_3 
REMARK    2  A    between atoms: C7_10  and  O3_11 
ROOT
HETATM    1  C1  UNL     1      15.839  13.623  25.179  1.00  0.00     0.171 C 
HETATM    2  C2  UNL     1      15.483  12.133  25.287  1.00  0.00     0.202 C 
HETATM    3  O2  UNL     1      16.427  11.516  24.432  1.00  0.00    -0.383 OA
HETATM    4  C3  UNL     1      15.990  11.683  23.155  1.00  0.00     0.128 C 
HETATM    5  C4  UNL     1      17.147  11.702  22.166  1.00  0.00     0.033 C 
HETATM    6  C5  UNL     1      16.812  13.149  21.873  1.00  0.00     0.012 C 
HETATM    7  C6  UNL     1      15.578  13.033  22.750  1.00  0.00     0.046 C 
HETATM    8  C7  UNL     1      15.415  14.055  23.802  1.00  0.00     0.155 C 
ENDROOT
BRANCH   1   9
HETATM    9  O1  UNL     1      17.240  13.673  25.337  1.00  0.00    -0.391 OA
ATOM     10  H1  UNL     1      17.501  14.495  24.938  1.00  0.00     0.210 HD
ENDBRANCH   1   9
BRANCH   8  11
HETATM   11  O3  UNL     1      16.087  15.247  23.466  1.00  0.00    -0.392 OA
ATOM     12  H3  UNL     1      15.494  15.814  22.987  1.00  0.00     0.210 HD
ENDBRANCH   8  11
TORSDOF 2
ENDMDL
MODEL 4
REMARK VINA RESULT: -3.689296934      8.005      9.398
REMARK  2 active torsions:
REMARK  status: ('A' for Active; 'I' for Inactive)
REMARK    1  A    between atoms: O1_1  and  C1_3 
REMARK    2  A    between atoms: C7_10  and  O3_11 
ROOT
HETATM    1  C1  UNL     1      24.713  17.469  18.255  1.00  0.00     0.171 C 
HETATM    2  C2  UNL     1      25.948  18.022  17.528  1.00  0.00     0.202 C 
HETATM    3  O2  UNL     1      25.482  18.217  16.207  1.00  0.00    -0.383 OA
HETATM    4  C3  UNL     1      25.476  17.004  15.593  1.00  0.00     0.128 C 
HETATM    5  C4  UNL     1      24.421  16.934  14.499  1.00  0.00     0.033 C 
HETATM    6  C5  UNL     1      23.699  15.892  15.325  1.00  0.00     0.012 C 
HETATM    7  C6  UNL     1      24.855  15.883  16.310  1.00  0.00     0.046 C 
HETATM    8  C7  UNL     1      24.512  16.073  17.733  1.00  0.00     0.155 C 
ENDROOT
BRANCH   1   9
HETATM    9  O1  UNL     1      23.658  18.327  17.880  1.00  0.00    -0.391 OA
ATOM     10  H1  UNL     1      23.267  17.914  17.119  1.00  0.00     0.210 HD
ENDBRANCH   1   9
BRANCH   8  11
HETATM   11  O3  UNL     1      23.190  15.667  18.000  1.00  0.00    -0.392 OA
ATOM     12  H3  UNL     1      22.933  15.986  18.857  1.00  0.00     0.210 HD
ENDBRANCH   8  11
TORSDOF 2
ENDMDL
MODEL 5
REMARK VINA RESULT: -3.590895767      6.591      7.958
REMARK  2 active torsions:
REMARK  status: ('A' for Active; 'I' for Inactive)
REMARK    1  A    between atoms: O1_1  and  C1_3 
REMARK    2  A    between atoms: C7_10  and  O3_11 
ROOT
HETATM    1  C1  UNL     1      15.909  18.990  22.099  1.00  0.00     0.171 C 
HETATM    2  C2  UNL     1      16.039  18.414  20.681  1.00  0.00     0.202 C 
HETATM    3  O2  UNL     1      15.458  17.130  20.802  1.00  0.00    -0.383 OA
HETATM    4  C3  UNL     1      16.382  16.317  21.380  1.00  0.00     0.128 C 
HETATM    5  C4  UNL     1      15.725  15.190  22.163  1.00  0.00     0.033 C 
HETATM    6  C5  UNL     1      16.292  15.798  23.428  1.00  0.00     0.012 C 
HETATM    7  C6  UNL     1      17.056  16.809  22.589  1.00  0.00     0.046 C 
HETATM    8  C7  UNL     1      16.888  18.229  22.950  1.00  0.00     0.155 C 
ENDROOT
BRANCH   1   9
HETATM    9  O1  UNL     1      14.574  18.730  22.474  1.00  0.00    -0.391 OA
ATOM     10  H1  UNL     1      14.438  19.245  23.260  1.00  0.00     0.210 HD
ENDBRANCH   1   9
BRANCH   8  11
HETATM   11  O3  UNL     1      16.531  18.374  24.305  1.00  0.00    -0.392 OA
ATOM     12  H3  UNL     1      16.130  17.569  24.609  1.00  0.00     0.210 HD
ENDBRANCH   8  11
TORSDOF 2
ENDMDL
