MODEL 1
REMARK VINA RESULT: -7.120604582      0.000      0.000
REMARK  6 active torsions:
REMARK  status: ('A' for Active; 'I' for Inactive)
REMARK    1  A    between atoms: C3_3  and  C4_4 
REMARK    2  A    between atoms: C4_4  and  C5_5 
REMARK    3  A    between atoms: C7_7  and  C8_8 
REMARK    4  A    between atoms: C9_9  and  C10_10 
REMARK    5  A    between atoms: C15_15  and  N1_16 
REMARK    6  A    between atoms: N1_16  and  C16_18 
ROOT
HETATM    1  C8  UNL     1      77.564  33.908 -11.300  1.00  0.00     0.041 C 
HETATM    2  C9  UNL     1      76.922  32.679 -11.875  1.00  0.00     0.010 C 
HETATM    3  C14 UNL     1      76.761  31.538 -10.930  1.00  0.00     0.082 C 
HETATM    4  C15 UNL     1      76.574  31.942  -9.516  1.00  0.00     0.074 C 
HETATM    5  N2  UNL     1      77.269  32.931  -9.117  1.00  0.00    -0.371 N 
ATOM      6  H2  UNL     1      77.160  33.232  -8.149  1.00  0.00     0.161 HD
HETATM    7  C23 UNL     1      78.203  33.655  -9.951  1.00  0.00     0.031 C 
HETATM    8  C24 UNL     1      78.396  35.021  -9.276  1.00  0.00     0.039 C 
HETATM    9  C25 UNL     1      79.554  33.036 -10.009  1.00  0.00     0.039 C 
ENDROOT
BRANCH   4  10
HETATM   10  N1  UNL     1      75.686  31.273  -8.677  1.00  0.00    -0.375 N 
ATOM     11  H1  UNL     1      76.096  30.913  -7.814  1.00  0.00     0.161 HD
BRANCH  10  12
HETATM   12  C16 UNL     1      74.277  31.012  -8.840  1.00  0.00     0.082 C 
HETATM   13  C17 UNL     1      73.449  32.172  -8.314  1.00  0.00     0.025 C 
HETATM   14  C18 UNL     1      72.064  31.821  -7.884  1.00  0.00     0.002 C 
HETATM   15  C19 UNL     1      72.101  31.361  -6.465  1.00  0.00     0.000 C 
HETATM   16  C20 UNL     1      73.383  30.697  -6.105  1.00  0.00     0.000 C 
HETATM   17  C21 UNL     1      73.680  29.472  -6.924  1.00  0.00     0.002 C 
HETATM   18  C22 UNL     1      73.794  29.695  -8.381  1.00  0.00     0.025 C 
ENDBRANCH  10  12
ENDBRANCH   4  10
BRANCH   2  19
HETATM   19  C10 UNL     1      77.488  32.225 -13.188  1.00  0.00    -0.047 C 
HETATM   20  C11 UNL     1      78.443  31.064 -13.037  1.00  0.00     0.015 C 
HETATM   21  C12 UNL     1      78.345  33.382 -13.729  1.00  0.00     0.015 C 
HETATM   22  C13 UNL     1      76.510  31.881 -14.243  1.00  0.00     0.015 C 
ENDBRANCH   2  19
BRANCH   1  23
HETATM   23  C7  UNL     1      76.541  34.984 -11.013  1.00  0.00    -0.017 C 
HETATM   24  C5  UNL     1      76.532  36.177 -11.524  1.00  0.00    -0.084 C 
HETATM   25  C6  UNL     1      77.489  36.753 -12.472  1.00  0.00     0.043 C 
BRANCH  24  26
HETATM   26  C4  UNL     1      75.415  37.107 -11.106  1.00  0.00     0.060 C 
BRANCH  26  27
HETATM   27  C3  UNL     1      75.634  37.401  -9.656  1.00  0.00    -0.027 C 
HETATM   28  C2  UNL     1      76.411  38.403  -9.317  1.00  0.00    -0.035 C 
HETATM   29  C1  UNL     1      76.637  38.708  -7.875  1.00  0.00     0.036 C 
ENDBRANCH  26  27
ENDBRANCH  24  26
ENDBRANCH   1  23
TORSDOF 6
ENDMDL
MODEL 2
REMARK VINA RESULT: -7.014685370      0.757      1.314
REMARK  6 active torsions:
REMARK  status: ('A' for Active; 'I' for Inactive)
REMARK    1  A    between atoms: C3_3  and  C4_4 
REMARK    2  A    between atoms: C4_4  and  C5_5 
REMARK    3  A    between atoms: C7_7  and  C8_8 
REMARK    4  A    between atoms: C9_9  and  C10_10 
REMARK    5  A    between atoms: C15_15  and  N1_16 
REMARK    6  A    between atoms: N1_16  and  C16_18 
ROOT
HETATM    1  C8  UNL     1      77.595  33.379 -11.392  1.00  0.00     0.041 C 
HETATM    2  C9  UNL     1      76.822  32.235 -11.980  1.00  0.00     0.010 C 
HETATM    3  C14 UNL     1      76.546  31.103 -11.050  1.00  0.00     0.082 C 
HETATM    4  C15 UNL     1      76.413  31.502  -9.629  1.00  0.00     0.074 C 
HETATM    5  N2  UNL     1      77.212  32.405  -9.222  1.00  0.00    -0.371 N 
ATOM      6  H2  UNL     1      77.142  32.701  -8.248  1.00  0.00     0.161 HD
HETATM    7  C23 UNL     1      78.212  33.039 -10.052  1.00  0.00     0.031 C 
HETATM    8  C24 UNL     1      78.554  34.365  -9.358  1.00  0.00     0.039 C 
HETATM    9  C25 UNL     1      79.489  32.279 -10.131  1.00  0.00     0.039 C 
ENDROOT
BRANCH   4  10
HETATM   10  N1  UNL     1      75.465  30.919  -8.792  1.00  0.00    -0.375 N 
ATOM     11  H1  UNL     1      75.261  29.938  -8.989  1.00  0.00     0.161 HD
BRANCH  10  12
HETATM   12  C16 UNL     1      74.727  31.488  -7.691  1.00  0.00     0.082 C 
HETATM   13  C17 UNL     1      74.248  30.401  -6.744  1.00  0.00     0.025 C 
HETATM   14  C18 UNL     1      73.040  30.745  -5.940  1.00  0.00     0.002 C 
HETATM   15  C19 UNL     1      71.821  30.421  -6.737  1.00  0.00     0.000 C 
HETATM   16  C20 UNL     1      72.033  30.561  -8.203  1.00  0.00     0.000 C 
HETATM   17  C21 UNL     1      72.423  31.950  -8.627  1.00  0.00     0.002 C 
HETATM   18  C22 UNL     1      73.677  32.466  -8.037  1.00  0.00     0.025 C 
ENDBRANCH  10  12
ENDBRANCH   4  10
BRANCH   2  19
HETATM   19  C10 UNL     1      77.327  31.744 -13.304  1.00  0.00    -0.047 C 
HETATM   20  C11 UNL     1      78.035  30.414 -13.197  1.00  0.00     0.015 C 
HETATM   21  C12 UNL     1      78.407  32.737 -13.766  1.00  0.00     0.015 C 
HETATM   22  C13 UNL     1      76.332  31.649 -14.394  1.00  0.00     0.015 C 
ENDBRANCH   2  19
BRANCH   1  23
HETATM   23  C7  UNL     1      76.694  34.553 -11.080  1.00  0.00    -0.017 C 
HETATM   24  C5  UNL     1      76.800  35.744 -11.585  1.00  0.00    -0.084 C 
HETATM   25  C6  UNL     1      77.795  36.225 -12.548  1.00  0.00     0.043 C 
BRANCH  24  26
HETATM   26  C4  UNL     1      75.794  36.782 -11.141  1.00  0.00     0.060 C 
BRANCH  26  27
HETATM   27  C3  UNL     1      76.434  37.535 -10.018  1.00  0.00    -0.027 C 
HETATM   28  C2  UNL     1      75.671  38.150  -9.144  1.00  0.00    -0.035 C 
HETATM   29  C1  UNL     1      76.296  38.903  -8.019  1.00  0.00     0.036 C 
ENDBRANCH  26  27
ENDBRANCH  24  26
ENDBRANCH   1  23
TORSDOF 6
ENDMDL
MODEL 3
REMARK VINA RESULT: -6.976526285      2.183      6.951
REMARK  6 active torsions:
REMARK  status: ('A' for Active; 'I' for Inactive)
REMARK    1  A    between atoms: C3_3  and  C4_4 
REMARK    2  A    between atoms: C4_4  and  C5_5 
REMARK    3  A    between atoms: C7_7  and  C8_8 
REMARK    4  A    between atoms: C9_9  and  C10_10 
REMARK    5  A    between atoms: C15_15  and  N1_16 
REMARK    6  A    between atoms: N1_16  and  C16_18 
ROOT
HETATM    1  C8  UNL     1      77.319  31.145  -9.459  1.00  0.00     0.041 C 
HETATM    2  C9  UNL     1      76.067  31.863  -9.875  1.00  0.00     0.010 C 
HETATM    3  C14 UNL     1      76.225  33.320 -10.146  1.00  0.00     0.082 C 
HETATM    4  C15 UNL     1      77.564  33.703 -10.654  1.00  0.00     0.074 C 
HETATM    5  N2  UNL     1      78.556  33.100 -10.132  1.00  0.00    -0.371 N 
ATOM      6  H2  UNL     1      79.490  33.343 -10.463  1.00  0.00     0.161 HD
HETATM    7  C23 UNL     1      78.443  32.094  -9.100  1.00  0.00     0.031 C 
HETATM    8  C24 UNL     1      79.751  31.290  -9.153  1.00  0.00     0.039 C 
HETATM    9  C25 UNL     1      78.366  32.656  -7.724  1.00  0.00     0.039 C 
ENDROOT
BRANCH   4  10
HETATM   10  N1  UNL     1      77.720  34.668 -11.645  1.00  0.00    -0.375 N 
ATOM     11  H1  UNL     1      77.668  34.317 -12.602  1.00  0.00     0.161 HD
BRANCH  10  12
HETATM   12  C16 UNL     1      77.945  36.088 -11.527  1.00  0.00     0.082 C 
HETATM   13  C17 UNL     1      78.211  36.473 -10.082  1.00  0.00     0.025 C 
HETATM   14  C18 UNL     1      77.882  37.885  -9.729  1.00  0.00     0.002 C 
HETATM   15  C19 UNL     1      76.440  37.967  -9.359  1.00  0.00     0.000 C 
HETATM   16  C20 UNL     1      75.600  36.969 -10.075  1.00  0.00     0.000 C 
HETATM   17  C21 UNL     1      75.632  37.113 -11.570  1.00  0.00     0.002 C 
HETATM   18  C22 UNL     1      76.965  36.968 -12.195  1.00  0.00     0.025 C 
ENDBRANCH  10  12
ENDBRANCH   4  10
BRANCH   2  19
HETATM   19  C10 UNL     1      74.868  31.593  -9.015  1.00  0.00    -0.047 C 
HETATM   20  C11 UNL     1      75.229  30.917  -7.713  1.00  0.00     0.015 C 
HETATM   21  C12 UNL     1      73.998  30.574  -9.770  1.00  0.00     0.015 C 
HETATM   22  C13 UNL     1      74.005  32.754  -8.706  1.00  0.00     0.015 C 
ENDBRANCH   2  19
BRANCH   1  23
HETATM   23  C7  UNL     1      77.892  30.329 -10.596  1.00  0.00    -0.017 C 
HETATM   24  C5  UNL     1      77.699  29.061 -10.790  1.00  0.00    -0.084 C 
HETATM   25  C6  UNL     1      76.905  28.139  -9.973  1.00  0.00     0.043 C 
BRANCH  24  26
HETATM   26  C4  UNL     1      78.363  28.430 -11.992  1.00  0.00     0.060 C 
BRANCH  26  27
HETATM   27  C3  UNL     1      79.837  28.594 -11.793  1.00  0.00    -0.027 C 
HETATM   28  C2  UNL     1      80.463  27.794 -10.961  1.00  0.00    -0.035 C 
HETATM   29  C1  UNL     1      81.931  27.947 -10.753  1.00  0.00     0.036 C 
ENDBRANCH  26  27
ENDBRANCH  24  26
ENDBRANCH   1  23
TORSDOF 6
ENDMDL
MODEL 4
REMARK VINA RESULT: -6.792368087      1.878      6.795
REMARK  6 active torsions:
REMARK  status: ('A' for Active; 'I' for Inactive)
REMARK    1  A    between atoms: C3_3  and  C4_4 
REMARK    2  A    between atoms: C4_4  and  C5_5 
REMARK    3  A    between atoms: C7_7  and  C8_8 
REMARK    4  A    between atoms: C9_9  and  C10_10 
REMARK    5  A    between atoms: C15_15  and  N1_16 
REMARK    6  A    between atoms: N1_16  and  C16_18 
ROOT
HETATM    1  C8  UNL     1      77.247  31.121  -9.476  1.00  0.00     0.041 C 
HETATM    2  C9  UNL     1      75.998  31.866  -9.849  1.00  0.00     0.010 C 
HETATM    3  C14 UNL     1      76.175  33.323 -10.111  1.00  0.00     0.082 C 
HETATM    4  C15 UNL     1      77.506  33.686 -10.653  1.00  0.00     0.074 C 
HETATM    5  N2  UNL     1      78.501  33.060 -10.165  1.00  0.00    -0.371 N 
ATOM      6  H2  UNL     1      79.429  33.288 -10.520  1.00  0.00     0.161 HD
HETATM    7  C23 UNL     1      78.398  32.045  -9.140  1.00  0.00     0.031 C 
HETATM    8  C24 UNL     1      79.689  31.218  -9.238  1.00  0.00     0.039 C 
HETATM    9  C25 UNL     1      78.371  32.595  -7.758  1.00  0.00     0.039 C 
ENDROOT
BRANCH   4  10
HETATM   10  N1  UNL     1      77.652  34.658 -11.639  1.00  0.00    -0.375 N 
ATOM     11  H1  UNL     1      77.570  34.316 -12.597  1.00  0.00     0.161 HD
BRANCH  10  12
HETATM   12  C16 UNL     1      77.901  36.073 -11.514  1.00  0.00     0.082 C 
HETATM   13  C17 UNL     1      78.167  36.447 -10.066  1.00  0.00     0.025 C 
HETATM   14  C18 UNL     1      77.862  37.863  -9.709  1.00  0.00     0.002 C 
HETATM   15  C19 UNL     1      76.419  37.970  -9.346  1.00  0.00     0.000 C 
HETATM   16  C20 UNL     1      75.566  36.989 -10.069  1.00  0.00     0.000 C 
HETATM   17  C21 UNL     1      75.608  37.139 -11.564  1.00  0.00     0.002 C 
HETATM   18  C22 UNL     1      76.940  36.973 -12.182  1.00  0.00     0.025 C 
ENDBRANCH  10  12
ENDBRANCH   4  10
BRANCH   2  19
HETATM   19  C10 UNL     1      74.819  31.610  -8.958  1.00  0.00    -0.047 C 
HETATM   20  C11 UNL     1      75.202  30.902  -7.679  1.00  0.00     0.015 C 
HETATM   21  C12 UNL     1      73.902  30.624  -9.703  1.00  0.00     0.015 C 
HETATM   22  C13 UNL     1      73.994  32.784  -8.603  1.00  0.00     0.015 C 
ENDBRANCH   2  19
BRANCH   1  23
HETATM   23  C7  UNL     1      77.772  30.306 -10.636  1.00  0.00    -0.017 C 
HETATM   24  C5  UNL     1      77.523  29.051 -10.854  1.00  0.00    -0.084 C 
HETATM   25  C6  UNL     1      76.700  28.146 -10.047  1.00  0.00     0.043 C 
BRANCH  24  26
HETATM   26  C4  UNL     1      78.147  28.418 -12.078  1.00  0.00     0.060 C 
BRANCH  26  27
HETATM   27  C3  UNL     1      77.627  29.179 -13.256  1.00  0.00    -0.027 C 
HETATM   28  C2  UNL     1      76.422  28.917 -13.705  1.00  0.00    -0.035 C 
HETATM   29  C1  UNL     1      75.891  29.668 -14.879  1.00  0.00     0.036 C 
ENDBRANCH  26  27
ENDBRANCH  24  26
ENDBRANCH   1  23
TORSDOF 6
ENDMDL
MODEL 5
REMARK VINA RESULT: -6.775546662      1.939      6.134
REMARK  6 active torsions:
REMARK  status: ('A' for Active; 'I' for Inactive)
REMARK    1  A    between atoms: C3_3  and  C4_4 
REMARK    2  A    between atoms: C4_4  and  C5_5 
REMARK    3  A    between atoms: C7_7  and  C8_8 
REMARK    4  A    between atoms: C9_9  and  C10_10 
REMARK    5  A    between atoms: C15_15  and  N1_16 
REMARK    6  A    between atoms: N1_16  and  C16_18 
ROOT
HETATM    1  C8  UNL     1      78.025  32.020 -11.589  1.00  0.00     0.041 C 
HETATM    2  C9  UNL     1      79.264  32.444 -10.855  1.00  0.00     0.010 C 
HETATM    3  C14 UNL     1      80.117  33.441 -11.561  1.00  0.00     0.082 C 
HETATM    4  C15 UNL     1      79.368  34.363 -12.448  1.00  0.00     0.074 C 
HETATM    5  N2  UNL     1      78.409  33.850 -13.109  1.00  0.00    -0.371 N 
ATOM      6  H2  UNL     1      77.875  34.461 -13.727  1.00  0.00     0.161 HD
HETATM    7  C23 UNL     1      78.028  32.457 -13.038  1.00  0.00     0.031 C 
HETATM    8  C24 UNL     1      76.577  32.394 -13.536  1.00  0.00     0.039 C 
HETATM    9  C25 UNL     1      78.810  31.579 -13.950  1.00  0.00     0.039 C 
ENDROOT
BRANCH   4  10
HETATM   10  N1  UNL     1      79.701  35.711 -12.548  1.00  0.00    -0.375 N 
ATOM     11  H1  UNL     1      80.340  35.943 -13.309  1.00  0.00     0.161 HD
BRANCH  10  12
HETATM   12  C16 UNL     1      79.280  36.830 -11.740  1.00  0.00     0.082 C 
HETATM   13  C17 UNL     1      78.894  36.373 -10.344  1.00  0.00     0.025 C 
HETATM   14  C18 UNL     1      77.928  37.257  -9.629  1.00  0.00     0.002 C 
HETATM   15  C19 UNL     1      76.541  36.865 -10.011  1.00  0.00     0.000 C 
HETATM   16  C20 UNL     1      76.453  36.316 -11.391  1.00  0.00     0.000 C 
HETATM   17  C21 UNL     1      76.896  37.282 -12.454  1.00  0.00     0.002 C 
HETATM   18  C22 UNL     1      78.295  37.747 -12.347  1.00  0.00     0.025 C 
ENDBRANCH  10  12
ENDBRANCH   4  10
BRANCH   2  19
HETATM   19  C10 UNL     1      80.085  31.319 -10.298  1.00  0.00    -0.047 C 
HETATM   20  C11 UNL     1      79.370  29.989 -10.370  1.00  0.00     0.015 C 
HETATM   21  C12 UNL     1      80.265  31.597  -8.797  1.00  0.00     0.015 C 
HETATM   22  C13 UNL     1      81.437  31.144 -10.871  1.00  0.00     0.015 C 
ENDBRANCH   2  19
BRANCH   1  23
HETATM   23  C7  UNL     1      76.791  32.685 -11.020  1.00  0.00    -0.017 C 
HETATM   24  C5  UNL     1      76.190  32.351  -9.920  1.00  0.00    -0.084 C 
HETATM   25  C6  UNL     1      76.550  31.275  -8.992  1.00  0.00     0.043 C 
BRANCH  24  26
HETATM   26  C4  UNL     1      74.967  33.146  -9.524  1.00  0.00     0.060 C 
BRANCH  26  27
HETATM   27  C3  UNL     1      74.031  32.180  -8.869  1.00  0.00    -0.027 C 
HETATM   28  C2  UNL     1      73.435  32.525  -7.751  1.00  0.00    -0.035 C 
HETATM   29  C1  UNL     1      72.499  31.571  -7.089  1.00  0.00     0.036 C 
ENDBRANCH  26  27
ENDBRANCH  24  26
ENDBRANCH   1  23
TORSDOF 6
ENDMDL
