MODEL 1
REMARK VINA RESULT: -6.402128056      0.000      0.000
REMARK  5 active torsions:
REMARK  status: ('A' for Active; 'I' for Inactive)
REMARK    1  A    between atoms: C3_3  and  C4_4 
REMARK    2  A    between atoms: C14_17  and  C16_19 
REMARK    3  A    between atoms: C16_19  and  S1_21 
REMARK    4  A    between atoms: S1_21  and  S2_22 
REMARK    5  A    between atoms: S2_22  and  C18_23 
ROOT
HETATM    1  C1  UNL     1      79.790  34.357 -10.099  1.00  0.00     0.045 C 
HETATM    2  C2  UNL     1      79.659  34.518 -11.549  1.00  0.00    -0.066 C 
HETATM    3  C3  UNL     1      79.092  35.583 -12.114  1.00  0.00    -0.028 C 
HETATM    4  C11 UNL     1      78.978  35.682 -13.596  1.00  0.00     0.041 C 
HETATM    5  C12 UNL     1      78.719  34.384 -14.278  1.00  0.00     0.006 C 
HETATM    6  C13 UNL     1      78.955  33.181 -13.388  1.00  0.00     0.015 C 
HETATM    7  C14 UNL     1      80.170  33.477 -12.513  1.00  0.00    -0.007 C 
HETATM    8  C15 UNL     1      81.327  34.020 -13.315  1.00  0.00     0.021 C 
ENDROOT
BRANCH   3   9
HETATM    9  C4  UNL     1      78.559  36.675 -11.265  1.00  0.00     0.047 A 
HETATM   10  N1  UNL     1      79.197  37.826 -10.941  1.00  0.00    -0.363 N 
HETATM   11  C5  UNL     1      78.402  38.606 -10.168  1.00  0.00     0.118 A 
ATOM     12  H1  UNL     1      80.141  38.071 -11.236  1.00  0.00     0.165 HD
HETATM   13  C6  UNL     1      77.201  37.966  -9.966  1.00  0.00     0.054 A 
HETATM   14  C7  UNL     1      77.321  36.762 -10.659  1.00  0.00    -0.001 A 
HETATM   15  N2  UNL     1      75.914  38.049  -9.347  1.00  0.00    -0.383 N 
HETATM   16  C8  UNL     1      76.059  36.028 -10.483  1.00  0.00     0.063 C 
HETATM   17  C9  UNL     1      75.074  37.118 -10.074  1.00  0.00     0.127 C 
HETATM   18  C10 UNL     1      75.534  38.906  -8.219  1.00  0.00     0.149 C 
ENDBRANCH   3   9
BRANCH   7  19
HETATM   19  C16 UNL     1      80.667  32.237 -11.816  1.00  0.00     0.067 C 
HETATM   20  C17 UNL     1      82.015  31.857 -12.331  1.00  0.00     0.023 C 
BRANCH  19  21
HETATM   21  S1  UNL     1      79.538  30.856 -11.847  1.00  0.00    -0.091 SA
BRANCH  21  22
HETATM   22  S2  UNL     1      78.766  30.353  -9.993  1.00  0.00    -0.088 SA
BRANCH  22  23
HETATM   23  C18 UNL     1      77.402  31.311  -9.393  1.00  0.00     0.007 C 
HETATM   24  C19 UNL     1      77.704  32.168  -8.197  1.00  0.00     0.027 C 
HETATM   25  C20 UNL     1      76.230  30.413  -8.945  1.00  0.00     0.027 C 
HETATM   26  C21 UNL     1      76.792  32.173 -10.524  1.00  0.00     0.027 C 
ENDBRANCH  22  23
ENDBRANCH  21  22
ENDBRANCH  19  21
ENDBRANCH   7  19
TORSDOF 5
ENDMDL
MODEL 2
REMARK VINA RESULT: -6.400182227      4.189      7.582
REMARK  5 active torsions:
REMARK  status: ('A' for Active; 'I' for Inactive)
REMARK    1  A    between atoms: C3_3  and  C4_4 
REMARK    2  A    between atoms: C14_17  and  C16_19 
REMARK    3  A    between atoms: C16_19  and  S1_21 
REMARK    4  A    between atoms: S1_21  and  S2_22 
REMARK    5  A    between atoms: S2_22  and  C18_23 
ROOT
HETATM    1  C1  UNL     1      74.249  33.229  -9.045  1.00  0.00     0.045 C 
HETATM    2  C2  UNL     1      75.054  32.023  -9.251  1.00  0.00    -0.066 C 
HETATM    3  C3  UNL     1      74.720  30.832  -8.759  1.00  0.00    -0.028 C 
HETATM    4  C11 UNL     1      75.588  29.645  -8.994  1.00  0.00     0.041 C 
HETATM    5  C12 UNL     1      77.047  29.946  -9.003  1.00  0.00     0.006 C 
HETATM    6  C13 UNL     1      77.353  31.425  -9.108  1.00  0.00     0.015 C 
HETATM    7  C14 UNL     1      76.331  32.049 -10.054  1.00  0.00    -0.007 C 
HETATM    8  C15 UNL     1      76.174  31.252 -11.325  1.00  0.00     0.021 C 
ENDROOT
BRANCH   3   9
HETATM    9  C4  UNL     1      73.481  30.684  -7.959  1.00  0.00     0.047 A 
HETATM   10  N1  UNL     1      73.306  31.059  -6.668  1.00  0.00    -0.363 N 
HETATM   11  C5  UNL     1      72.040  30.795  -6.265  1.00  0.00     0.118 A 
ATOM     12  H1  UNL     1      74.027  31.480  -6.082  1.00  0.00     0.165 HD
HETATM   13  C6  UNL     1      71.343  30.229  -7.308  1.00  0.00     0.054 A 
HETATM   14  C7  UNL     1      72.262  30.168  -8.355  1.00  0.00    -0.001 A 
HETATM   15  N2  UNL     1      70.084  29.697  -7.730  1.00  0.00    -0.383 N 
HETATM   16  C8  UNL     1      71.573  29.569  -9.508  1.00  0.00     0.063 C 
HETATM   17  C9  UNL     1      70.097  29.771  -9.177  1.00  0.00     0.127 C 
HETATM   18  C10 UNL     1      69.009  29.195  -6.868  1.00  0.00     0.149 C 
ENDBRANCH   3   9
BRANCH   7  19
HETATM   19  C16 UNL     1      76.730  33.444 -10.461  1.00  0.00     0.067 C 
HETATM   20  C17 UNL     1      76.914  33.520 -11.940  1.00  0.00     0.023 C 
BRANCH  19  21
HETATM   21  S1  UNL     1      78.139  34.106  -9.589  1.00  0.00    -0.091 SA
BRANCH  21  22
HETATM   22  S2  UNL     1      78.659  36.027 -10.156  1.00  0.00    -0.088 SA
BRANCH  22  23
HETATM   23  C18 UNL     1      77.340  37.169 -10.465  1.00  0.00     0.007 C 
HETATM   24  C19 UNL     1      75.964  36.644 -10.173  1.00  0.00     0.027 C 
HETATM   25  C20 UNL     1      77.291  37.591 -11.949  1.00  0.00     0.027 C 
HETATM   26  C21 UNL     1      77.573  38.500  -9.712  1.00  0.00     0.027 C 
ENDBRANCH  22  23
ENDBRANCH  21  22
ENDBRANCH  19  21
ENDBRANCH   7  19
TORSDOF 5
ENDMDL
MODEL 3
REMARK VINA RESULT: -6.121230563      2.279      3.329
REMARK  5 active torsions:
REMARK  status: ('A' for Active; 'I' for Inactive)
REMARK    1  A    between atoms: C3_3  and  C4_4 
REMARK    2  A    between atoms: C14_17  and  C16_19 
REMARK    3  A    between atoms: C16_19  and  S1_21 
REMARK    4  A    between atoms: S1_21  and  S2_22 
REMARK    5  A    between atoms: S2_22  and  C18_23 
ROOT
HETATM    1  C1  UNL     1      77.996  32.503  -8.688  1.00  0.00     0.045 C 
HETATM    2  C2  UNL     1      77.920  32.278 -10.133  1.00  0.00    -0.066 C 
HETATM    3  C3  UNL     1      77.976  33.263 -11.028  1.00  0.00    -0.028 C 
HETATM    4  C11 UNL     1      77.881  32.968 -12.485  1.00  0.00     0.041 C 
HETATM    5  C12 UNL     1      76.958  31.849 -12.825  1.00  0.00     0.006 C 
HETATM    6  C13 UNL     1      76.559  31.017 -11.624  1.00  0.00     0.015 C 
HETATM    7  C14 UNL     1      77.778  30.892 -10.714  1.00  0.00    -0.007 C 
HETATM    8  C15 UNL     1      79.020  30.508 -11.479  1.00  0.00     0.021 C 
ENDROOT
BRANCH   3   9
HETATM    9  C4  UNL     1      78.122  34.666 -10.574  1.00  0.00     0.047 A 
HETATM   10  N1  UNL     1      79.287  35.323 -10.355  1.00  0.00    -0.363 N 
HETATM   11  C5  UNL     1      79.045  36.600  -9.970  1.00  0.00     0.118 A 
ATOM     12  H1  UNL     1      80.215  34.915 -10.464  1.00  0.00     0.165 HD
HETATM   13  C6  UNL     1      77.686  36.809  -9.928  1.00  0.00     0.054 A 
HETATM   14  C7  UNL     1      77.129  35.589 -10.308  1.00  0.00    -0.001 A 
HETATM   15  N2  UNL     1      76.649  37.758  -9.661  1.00  0.00    -0.383 N 
HETATM   16  C8  UNL     1      75.667  35.748 -10.286  1.00  0.00     0.063 C 
HETATM   17  C9  UNL     1      75.479  37.260 -10.356  1.00  0.00     0.127 C 
HETATM   18  C10 UNL     1      76.762  38.979  -8.857  1.00  0.00     0.149 C 
ENDBRANCH   3   9
BRANCH   7  19
HETATM   19  C16 UNL     1      77.575  29.840  -9.655  1.00  0.00     0.067 C 
HETATM   20  C17 UNL     1      78.337  28.604  -9.999  1.00  0.00     0.023 C 
BRANCH  19  21
HETATM   21  S1  UNL     1      75.870  29.476  -9.276  1.00  0.00    -0.091 SA
BRANCH  21  22
HETATM   22  S2  UNL     1      75.084  30.613  -7.735  1.00  0.00    -0.088 SA
BRANCH  22  23
HETATM   23  C18 UNL     1      73.615  31.541  -8.077  1.00  0.00     0.007 C 
HETATM   24  C19 UNL     1      72.762  31.846  -6.879  1.00  0.00     0.027 C 
HETATM   25  C20 UNL     1      72.677  30.786  -9.043  1.00  0.00     0.027 C 
HETATM   26  C21 UNL     1      73.950  32.847  -8.837  1.00  0.00     0.027 C 
ENDBRANCH  22  23
ENDBRANCH  21  22
ENDBRANCH  19  21
ENDBRANCH   7  19
TORSDOF 5
ENDMDL
MODEL 4
REMARK VINA RESULT: -5.887432121      4.144      7.571
REMARK  5 active torsions:
REMARK  status: ('A' for Active; 'I' for Inactive)
REMARK    1  A    between atoms: C3_3  and  C4_4 
REMARK    2  A    between atoms: C14_17  and  C16_19 
REMARK    3  A    between atoms: C16_19  and  S1_21 
REMARK    4  A    between atoms: S1_21  and  S2_22 
REMARK    5  A    between atoms: S2_22  and  C18_23 
ROOT
HETATM    1  C1  UNL     1      74.310  33.358  -8.984  1.00  0.00     0.045 C 
HETATM    2  C2  UNL     1      75.233  32.228  -9.111  1.00  0.00    -0.066 C 
HETATM    3  C3  UNL     1      74.978  31.020  -8.612  1.00  0.00    -0.028 C 
HETATM    4  C11 UNL     1      75.965  29.915  -8.765  1.00  0.00     0.041 C 
HETATM    5  C12 UNL     1      77.388  30.349  -8.689  1.00  0.00     0.006 C 
HETATM    6  C13 UNL     1      77.563  31.848  -8.810  1.00  0.00     0.015 C 
HETATM    7  C14 UNL     1      76.552  32.358  -9.833  1.00  0.00    -0.007 C 
HETATM    8  C15 UNL     1      76.551  31.528 -11.092  1.00  0.00     0.021 C 
ENDROOT
BRANCH   3   9
HETATM    9  C4  UNL     1      73.709  30.772  -7.889  1.00  0.00     0.047 A 
HETATM   10  N1  UNL     1      73.463  31.033  -6.581  1.00  0.00    -0.363 N 
HETATM   11  C5  UNL     1      72.188  30.702  -6.264  1.00  0.00     0.118 A 
ATOM     12  H1  UNL     1      74.142  31.424  -5.928  1.00  0.00     0.165 HD
HETATM   13  C6  UNL     1      71.558  30.206  -7.382  1.00  0.00     0.054 A 
HETATM   14  C7  UNL     1      72.526  30.258  -8.384  1.00  0.00    -0.001 A 
HETATM   15  N2  UNL     1      70.337  29.677  -7.906  1.00  0.00    -0.383 N 
HETATM   16  C8  UNL     1      71.910  29.739  -9.614  1.00  0.00     0.063 C 
HETATM   17  C9  UNL     1      70.415  29.872  -9.340  1.00  0.00     0.127 C 
HETATM   18  C10 UNL     1      69.240  29.075  -7.142  1.00  0.00     0.149 C 
ENDBRANCH   3   9
BRANCH   7  19
HETATM   19  C16 UNL     1      76.847  33.777 -10.246  1.00  0.00     0.067 C 
HETATM   20  C17 UNL     1      76.604  33.952 -11.708  1.00  0.00     0.023 C 
BRANCH  19  21
HETATM   21  S1  UNL     1      78.459  34.376  -9.772  1.00  0.00    -0.091 SA
BRANCH  21  22
HETATM   22  S2  UNL     1      78.715  36.414 -10.034  1.00  0.00    -0.088 SA
BRANCH  22  23
HETATM   23  C18 UNL     1      78.682  37.030 -11.695  1.00  0.00     0.007 C 
HETATM   24  C19 UNL     1      79.173  36.070 -12.739  1.00  0.00     0.027 C 
HETATM   25  C20 UNL     1      79.578  38.276 -11.856  1.00  0.00     0.027 C 
HETATM   26  C21 UNL     1      77.270  37.542 -12.066  1.00  0.00     0.027 C 
ENDBRANCH  22  23
ENDBRANCH  21  22
ENDBRANCH  19  21
ENDBRANCH   7  19
TORSDOF 5
ENDMDL
MODEL 5
REMARK VINA RESULT: -5.851884884      5.787      9.615
REMARK  5 active torsions:
REMARK  status: ('A' for Active; 'I' for Inactive)
REMARK    1  A    between atoms: C3_3  and  C4_4 
REMARK    2  A    between atoms: C14_17  and  C16_19 
REMARK    3  A    between atoms: C16_19  and  S1_21 
REMARK    4  A    between atoms: S1_21  and  S2_22 
REMARK    5  A    between atoms: S2_22  and  C18_23 
ROOT
HETATM    1  C1  UNL     1      73.191  29.894 -10.083  1.00  0.00     0.045 C 
HETATM    2  C2  UNL     1      73.287  30.362  -8.699  1.00  0.00    -0.066 C 
HETATM    3  C3  UNL     1      72.537  29.875  -7.712  1.00  0.00    -0.028 C 
HETATM    4  C11 UNL     1      72.675  30.403  -6.327  1.00  0.00     0.041 C 
HETATM    5  C12 UNL     1      72.957  31.864  -6.252  1.00  0.00     0.006 C 
HETATM    6  C13 UNL     1      73.380  32.460  -7.579  1.00  0.00     0.015 C 
HETATM    7  C14 UNL     1      74.263  31.438  -8.292  1.00  0.00    -0.007 C 
HETATM    8  C15 UNL     1      75.325  30.874  -7.382  1.00  0.00     0.021 C 
ENDROOT
BRANCH   3   9
HETATM    9  C4  UNL     1      71.548  28.809  -7.993  1.00  0.00     0.047 A 
HETATM   10  N1  UNL     1      71.820  27.508  -8.260  1.00  0.00    -0.363 N 
HETATM   11  C5  UNL     1      70.673  26.811  -8.444  1.00  0.00     0.118 A 
ATOM     12  H1  UNL     1      72.757  27.109  -8.316  1.00  0.00     0.165 HD
HETATM   13  C6  UNL     1      69.601  27.661  -8.297  1.00  0.00     0.054 A 
HETATM   14  C7  UNL     1      70.169  28.902  -8.017  1.00  0.00    -0.001 A 
HETATM   15  N2  UNL     1      68.174  27.768  -8.315  1.00  0.00    -0.383 N 
HETATM   16  C8  UNL     1      69.067  29.861  -7.846  1.00  0.00     0.063 C 
HETATM   17  C9  UNL     1      67.866  28.965  -7.558  1.00  0.00     0.127 C 
HETATM   18  C10 UNL     1      67.231  26.849  -8.960  1.00  0.00     0.149 C 
ENDBRANCH   3   9
BRANCH   7  19
HETATM   19  C16 UNL     1      74.977  32.048  -9.470  1.00  0.00     0.067 C 
HETATM   20  C17 UNL     1      76.402  31.608  -9.497  1.00  0.00     0.023 C 
BRANCH  19  21
HETATM   21  S1  UNL     1      74.835  33.822  -9.598  1.00  0.00    -0.091 SA
BRANCH  21  22
HETATM   22  S2  UNL     1      76.331  34.712 -10.718  1.00  0.00    -0.088 SA
BRANCH  22  23
HETATM   23  C18 UNL     1      76.440  36.479 -10.671  1.00  0.00     0.007 C 
HETATM   24  C19 UNL     1      76.691  37.137 -11.998  1.00  0.00     0.027 C 
HETATM   25  C20 UNL     1      77.604  36.952  -9.774  1.00  0.00     0.027 C 
HETATM   26  C21 UNL     1      75.188  37.093 -10.001  1.00  0.00     0.027 C 
ENDBRANCH  22  23
ENDBRANCH  21  22
ENDBRANCH  19  21
ENDBRANCH   7  19
TORSDOF 5
ENDMDL
