MODEL 1
REMARK VINA RESULT: -6.232856134      0.000      0.000
REMARK  3 active torsions:
REMARK  status: ('A' for Active; 'I' for Inactive)
REMARK    1  A    between atoms: C1_2  and  C2_3 
REMARK    2  A    between atoms: C2_3  and  N1_4 
REMARK    3  A    between atoms: N1_4  and  C3_7 
ROOT
HETATM    1  C3  UNL     1     -19.879  13.906  -4.906  1.00  0.00     0.190 C 
HETATM    2  C4  UNL     1     -20.551  15.057  -4.175  1.00  0.00     0.067 C 
HETATM    3  C5  UNL     1     -20.441  16.101  -5.156  1.00  0.00     0.213 C 
HETATM    4  C6  UNL     1     -20.753  17.438  -5.417  1.00  0.00     0.265 C 
HETATM    5  N2  UNL     1     -20.310  17.624  -6.824  1.00  0.00    -0.071 N 
ATOM      6  H21 UNL     1     -19.908  18.552  -6.959  1.00  0.00     0.277 HD
ATOM      7  H22 UNL     1     -21.112  17.695  -7.451  1.00  0.00     0.277 HD
HETATM    8  C7  UNL     1     -19.378  16.580  -7.282  1.00  0.00     0.265 C 
HETATM    9  C8  UNL     1     -19.881  15.170  -7.106  1.00  0.00     0.213 C 
HETATM   10  C9  UNL     1     -19.080  14.302  -6.141  1.00  0.00     0.067 C 
HETATM   11  N3  UNL     1     -21.059  15.395  -6.297  1.00  0.00    -0.063 N 
ATOM     12  H31 UNL     1     -21.833  15.875  -6.755  1.00  0.00     0.278 HD
ATOM     13  H32 UNL     1     -21.609  14.567  -6.066  1.00  0.00     0.278 HD
ENDROOT
BRANCH   1  14
HETATM   14  N1  UNL     1     -20.636  12.723  -5.051  1.00  0.00    -0.065 N 
ATOM     15  H12 UNL     1     -21.578  12.899  -5.397  1.00  0.00     0.278 HD
ATOM     16  H11 UNL     1     -20.893  12.309  -4.155  1.00  0.00     0.278 HD
BRANCH  14  17
HETATM   17  C2  UNL     1     -19.892  11.816  -5.892  1.00  0.00     0.301 C 
BRANCH  17  18
HETATM   18  C1  UNL     1     -20.293  10.338  -5.601  1.00  0.00     0.258 C 
HETATM   19  O1  UNL     1     -19.935   9.816  -4.699  1.00  0.00    -0.305 OA
ENDBRANCH  17  18
ENDBRANCH  14  17
ENDBRANCH   1  14
TORSDOF 3
ENDMDL
MODEL 2
REMARK VINA RESULT: -5.951736942      3.109      5.144
REMARK  3 active torsions:
REMARK  status: ('A' for Active; 'I' for Inactive)
REMARK    1  A    between atoms: C1_2  and  C2_3 
REMARK    2  A    between atoms: C2_3  and  N1_4 
REMARK    3  A    between atoms: N1_4  and  C3_7 
ROOT
HETATM    1  C3  UNL     1     -19.878  16.218  -4.730  1.00  0.00     0.190 C 
HETATM    2  C4  UNL     1     -18.732  16.148  -5.727  1.00  0.00     0.067 C 
HETATM    3  C5  UNL     1     -18.786  14.762  -6.102  1.00  0.00     0.213 C 
HETATM    4  C6  UNL     1     -18.197  13.794  -6.919  1.00  0.00     0.265 C 
HETATM    5  N2  UNL     1     -19.048  12.595  -6.697  1.00  0.00    -0.071 N 
ATOM      6  H21 UNL     1     -18.483  11.745  -6.691  1.00  0.00     0.277 HD
ATOM      7  H22 UNL     1     -19.628  12.406  -7.515  1.00  0.00     0.277 HD
HETATM    8  C7  UNL     1     -19.871  12.685  -5.480  1.00  0.00     0.265 C 
HETATM    9  C8  UNL     1     -20.728  13.922  -5.394  1.00  0.00     0.213 C 
HETATM   10  C9  UNL     1     -20.399  14.871  -4.246  1.00  0.00     0.067 C 
HETATM   11  N3  UNL     1     -20.208  14.698  -6.498  1.00  0.00    -0.063 N 
ATOM     12  H31 UNL     1     -20.397  14.334  -7.431  1.00  0.00     0.278 HD
ATOM     13  H32 UNL     1     -20.665  15.594  -6.670  1.00  0.00     0.278 HD
ENDROOT
BRANCH   1  14
HETATM   14  N1  UNL     1     -20.882  17.176  -4.990  1.00  0.00    -0.065 N 
ATOM     15  H12 UNL     1     -21.293  17.556  -4.138  1.00  0.00     0.278 HD
ATOM     16  H11 UNL     1     -21.729  16.763  -5.379  1.00  0.00     0.278 HD
BRANCH  14  17
HETATM   17  C2  UNL     1     -20.317  18.197  -5.840  1.00  0.00     0.301 C 
BRANCH  17  18
HETATM   18  C1  UNL     1     -21.082  19.544  -5.669  1.00  0.00     0.258 C 
HETATM   19  O1  UNL     1     -22.150  19.564  -5.397  1.00  0.00    -0.305 OA
ENDBRANCH  17  18
ENDBRANCH  14  17
ENDBRANCH   1  14
TORSDOF 3
ENDMDL
MODEL 3
REMARK VINA RESULT: -5.925002426      1.196      1.895
REMARK  3 active torsions:
REMARK  status: ('A' for Active; 'I' for Inactive)
REMARK    1  A    between atoms: C1_2  and  C2_3 
REMARK    2  A    between atoms: C2_3  and  N1_4 
REMARK    3  A    between atoms: N1_4  and  C3_7 
ROOT
HETATM    1  C3  UNL     1     -20.309  14.208  -6.267  1.00  0.00     0.190 C 
HETATM    2  C4  UNL     1     -18.860  14.638  -6.429  1.00  0.00     0.067 C 
HETATM    3  C5  UNL     1     -18.956  16.034  -6.103  1.00  0.00     0.213 C 
HETATM    4  C6  UNL     1     -18.214  17.209  -5.959  1.00  0.00     0.265 C 
HETATM    5  N2  UNL     1     -19.216  18.187  -5.458  1.00  0.00    -0.071 N 
ATOM      6  H21 UNL     1     -19.052  19.112  -5.857  1.00  0.00     0.277 HD
ATOM      7  H22 UNL     1     -19.056  18.398  -4.472  1.00  0.00     0.277 HD
HETATM    8  C7  UNL     1     -20.607  17.759  -5.683  1.00  0.00     0.265 C 
HETATM    9  C8  UNL     1     -20.937  16.392  -5.141  1.00  0.00     0.213 C 
HETATM   10  C9  UNL     1     -21.317  15.346  -6.183  1.00  0.00     0.067 C 
HETATM   11  N3  UNL     1     -19.620  15.906  -4.790  1.00  0.00    -0.063 N 
ATOM     12  H31 UNL     1     -19.163  16.376  -4.009  1.00  0.00     0.278 HD
ATOM     13  H32 UNL     1     -19.584  14.983  -4.358  1.00  0.00     0.278 HD
ENDROOT
BRANCH   1  14
HETATM   14  N1  UNL     1     -20.554  13.140  -5.376  1.00  0.00    -0.065 N 
ATOM     15  H12 UNL     1     -21.546  12.927  -5.281  1.00  0.00     0.278 HD
ATOM     16  H11 UNL     1     -20.373  13.390  -4.404  1.00  0.00     0.278 HD
BRANCH  14  17
HETATM   17  C2  UNL     1     -19.779  12.004  -5.814  1.00  0.00     0.301 C 
BRANCH  17  18
HETATM   18  C1  UNL     1     -20.499  10.670  -5.451  1.00  0.00     0.258 C 
HETATM   19  O1  UNL     1     -19.997   9.895  -4.849  1.00  0.00    -0.305 OA
ENDBRANCH  17  18
ENDBRANCH  14  17
ENDBRANCH   1  14
TORSDOF 3
ENDMDL
MODEL 4
REMARK VINA RESULT: -5.859908652      1.614      2.239
REMARK  3 active torsions:
REMARK  status: ('A' for Active; 'I' for Inactive)
REMARK    1  A    between atoms: C1_2  and  C2_3 
REMARK    2  A    between atoms: C2_3  and  N1_4 
REMARK    3  A    between atoms: N1_4  and  C3_7 
ROOT
HETATM    1  C3  UNL     1     -20.251  13.430  -6.123  1.00  0.00     0.190 C 
HETATM    2  C4  UNL     1     -18.754  13.639  -6.288  1.00  0.00     0.067 C 
HETATM    3  C5  UNL     1     -18.600  14.950  -5.722  1.00  0.00     0.213 C 
HETATM    4  C6  UNL     1     -17.664  15.942  -5.419  1.00  0.00     0.265 C 
HETATM    5  N2  UNL     1     -18.471  16.965  -4.702  1.00  0.00    -0.071 N 
ATOM      6  H21 UNL     1     -18.161  17.907  -4.945  1.00  0.00     0.277 HD
ATOM      7  H22 UNL     1     -18.252  16.967  -3.706  1.00  0.00     0.277 HD
HETATM    8  C7  UNL     1     -19.920  16.819  -4.920  1.00  0.00     0.265 C 
HETATM    9  C8  UNL     1     -20.465  15.451  -4.604  1.00  0.00     0.213 C 
HETATM   10  C9  UNL     1     -21.046  14.685  -5.788  1.00  0.00     0.067 C 
HETATM   11  N3  UNL     1     -19.243  14.700  -4.416  1.00  0.00    -0.063 N 
ATOM     12  H31 UNL     1     -18.692  14.940  -3.592  1.00  0.00     0.278 HD
ATOM     13  H32 UNL     1     -19.355  13.721  -4.151  1.00  0.00     0.278 HD
ENDROOT
BRANCH   1  14
HETATM   14  N1  UNL     1     -20.652  12.275  -5.417  1.00  0.00    -0.065 N 
ATOM     15  H12 UNL     1     -21.637  12.052  -5.555  1.00  0.00     0.278 HD
ATOM     16  H11 UNL     1     -20.684  12.422  -4.408  1.00  0.00     0.278 HD
BRANCH  14  17
HETATM   17  C2  UNL     1     -19.776  11.191  -5.795  1.00  0.00     0.301 C 
BRANCH  17  18
HETATM   18  C1  UNL     1     -20.546   9.836  -5.804  1.00  0.00     0.258 C 
HETATM   19  O1  UNL     1     -21.589   9.769  -5.454  1.00  0.00    -0.305 OA
ENDBRANCH  17  18
ENDBRANCH  14  17
ENDBRANCH   1  14
TORSDOF 3
ENDMDL
MODEL 5
REMARK VINA RESULT: -5.844217477      3.261      4.298
REMARK  3 active torsions:
REMARK  status: ('A' for Active; 'I' for Inactive)
REMARK    1  A    between atoms: C1_2  and  C2_3 
REMARK    2  A    between atoms: C2_3  and  N1_4 
REMARK    3  A    between atoms: N1_4  and  C3_7 
ROOT
HETATM    1  C3  UNL     1     -20.186  15.511  -6.359  1.00  0.00     0.190 C 
HETATM    2  C4  UNL     1     -20.309  14.907  -4.969  1.00  0.00     0.067 C 
HETATM    3  C5  UNL     1     -19.160  15.478  -4.324  1.00  0.00     0.213 C 
HETATM    4  C6  UNL     1     -18.462  15.539  -3.115  1.00  0.00     0.265 C 
HETATM    5  N2  UNL     1     -17.388  16.530  -3.389  1.00  0.00    -0.071 N 
ATOM      6  H21 UNL     1     -16.520  16.263  -2.924  1.00  0.00     0.277 HD
ATOM      7  H22 UNL     1     -17.574  17.409  -2.906  1.00  0.00     0.277 HD
HETATM    8  C7  UNL     1     -17.164  16.760  -4.826  1.00  0.00     0.265 C 
HETATM    9  C8  UNL     1     -18.399  17.144  -5.599  1.00  0.00     0.213 C 
HETATM   10  C9  UNL     1     -18.840  16.151  -6.670  1.00  0.00     0.067 C 
HETATM   11  N3  UNL     1     -19.430  16.901  -4.615  1.00  0.00    -0.063 N 
ATOM     12  H31 UNL     1     -19.440  17.528  -3.811  1.00  0.00     0.278 HD
ATOM     13  H32 UNL     1     -20.384  17.126  -4.900  1.00  0.00     0.278 HD
ENDROOT
BRANCH   1  14
HETATM   14  N1  UNL     1     -21.302  16.235  -6.832  1.00  0.00    -0.065 N 
ATOM     15  H12 UNL     1     -21.452  16.115  -7.834  1.00  0.00     0.278 HD
ATOM     16  H11 UNL     1     -21.146  17.242  -6.836  1.00  0.00     0.278 HD
BRANCH  14  17
HETATM   17  C2  UNL     1     -22.451  15.852  -6.047  1.00  0.00     0.301 C 
BRANCH  17  18
HETATM   18  C1  UNL     1     -23.003  17.069  -5.245  1.00  0.00     0.258 C 
HETATM   19  O1  UNL     1     -22.444  18.017  -5.188  1.00  0.00    -0.305 OA
ENDBRANCH  17  18
ENDBRANCH  14  17
ENDBRANCH   1  14
TORSDOF 3
ENDMDL
