MODEL 1
REMARK VINA RESULT: -6.577775840      0.000      0.000
REMARK  5 active torsions:
REMARK  status: ('A' for Active; 'I' for Inactive)
REMARK    1  A    between atoms: N3_4  and  C2_6 
REMARK    2  A    between atoms: C2_6  and  C3_7 
REMARK    3  A    between atoms: C3_7  and  O1_8 
REMARK    4  A    between atoms: O1_8  and  C4_9 
REMARK    5  A    between atoms: N4_12  and  N5_13 
ROOT
HETATM    1  C4  UNL     1     -20.711  15.666  -5.886  1.00  0.00     0.137 C 
HETATM    2  C5  UNL     1     -22.121  15.837  -6.472  1.00  0.00     0.049 C 
HETATM    3  C6  UNL     1     -22.745  16.620  -5.314  1.00  0.00     0.115 C 
HETATM    4  N4  UNL     1     -21.718  17.534  -4.860  1.00  0.00    -0.235 NA
HETATM    5  C7  UNL     1     -20.473  17.107  -5.425  1.00  0.00     0.144 C 
ENDROOT
BRANCH   1   6
HETATM    6  O1  UNL     1     -20.841  14.903  -4.763  1.00  0.00    -0.383 OA
BRANCH   6   7
HETATM    7  C3  UNL     1     -19.868  13.972  -4.524  1.00  0.00     0.187 C 
BRANCH   7   8
HETATM    8  C2  UNL     1     -19.781  12.966  -5.642  1.00  0.00     0.148 C 
BRANCH   8   9
HETATM    9  N3  UNL     1     -20.795  11.951  -5.391  1.00  0.00    -0.365 N 
HETATM   10  C1  UNL     1     -20.574  10.700  -5.632  1.00  0.00     0.197 C 
HETATM   11  N1  UNL     1     -21.582   9.732  -5.377  1.00  0.00    -0.067 NA
HETATM   12  N2  UNL     1     -19.336  10.272  -6.151  1.00  0.00    -0.067 NA
ATOM     13  H3  UNL     1     -21.700  12.233  -5.015  1.00  0.00     0.161 HD
ENDBRANCH   8   9
ENDBRANCH   7   8
ENDBRANCH   6   7
ENDBRANCH   1   6
BRANCH   4  14
HETATM   14  N5  UNL     1     -22.031  18.799  -5.374  1.00  0.00    -0.363 NA
ATOM     15  H52 UNL     1     -22.992  19.026  -5.117  1.00  0.00     0.171 HD
ATOM     16  H51 UNL     1     -21.419  19.473  -4.914  1.00  0.00     0.171 HD
ENDBRANCH   4  14
TORSDOF 5
ENDMDL
MODEL 2
REMARK VINA RESULT: -6.276152534      1.197      1.607
REMARK  5 active torsions:
REMARK  status: ('A' for Active; 'I' for Inactive)
REMARK    1  A    between atoms: N3_4  and  C2_6 
REMARK    2  A    between atoms: C2_6  and  C3_7 
REMARK    3  A    between atoms: C3_7  and  O1_8 
REMARK    4  A    between atoms: O1_8  and  C4_9 
REMARK    5  A    between atoms: N4_12  and  N5_13 
ROOT
HETATM    1  C4  UNL     1     -19.625  15.895  -4.876  1.00  0.00     0.137 C 
HETATM    2  C5  UNL     1     -18.822  17.064  -5.469  1.00  0.00     0.049 C 
HETATM    3  C6  UNL     1     -19.867  17.560  -6.472  1.00  0.00     0.115 C 
HETATM    4  N4  UNL     1     -21.143  17.445  -5.798  1.00  0.00    -0.235 NA
HETATM    5  C7  UNL     1     -20.955  16.619  -4.643  1.00  0.00     0.144 C 
ENDROOT
BRANCH   1   6
HETATM    6  O1  UNL     1     -19.827  15.004  -5.888  1.00  0.00    -0.383 OA
BRANCH   6   7
HETATM    7  C3  UNL     1     -20.685  13.967  -5.645  1.00  0.00     0.187 C 
BRANCH   7   8
HETATM    8  C2  UNL     1     -19.944  12.665  -5.491  1.00  0.00     0.148 C 
BRANCH   8   9
HETATM    9  N3  UNL     1     -20.940  11.616  -5.318  1.00  0.00    -0.365 N 
HETATM   10  C1  UNL     1     -20.683  10.384  -5.610  1.00  0.00     0.197 C 
HETATM   11  N1  UNL     1     -21.675   9.383  -5.430  1.00  0.00    -0.067 NA
HETATM   12  N2  UNL     1     -19.422  10.008  -6.112  1.00  0.00    -0.067 NA
ATOM     13  H3  UNL     1     -21.862  11.861  -4.957  1.00  0.00     0.161 HD
ENDBRANCH   8   9
ENDBRANCH   7   8
ENDBRANCH   6   7
ENDBRANCH   1   6
BRANCH   4  14
HETATM   14  N5  UNL     1     -21.506  18.730  -5.374  1.00  0.00    -0.363 NA
ATOM     15  H52 UNL     1     -20.721  19.361  -5.537  1.00  0.00     0.171 HD
ATOM     16  H51 UNL     1     -22.279  19.038  -5.966  1.00  0.00     0.171 HD
ENDBRANCH   4  14
TORSDOF 5
ENDMDL
MODEL 3
REMARK VINA RESULT: -6.228046765      1.867      5.758
REMARK  5 active torsions:
REMARK  status: ('A' for Active; 'I' for Inactive)
REMARK    1  A    between atoms: N3_4  and  C2_6 
REMARK    2  A    between atoms: C2_6  and  C3_7 
REMARK    3  A    between atoms: C3_7  and  O1_8 
REMARK    4  A    between atoms: O1_8  and  C4_9 
REMARK    5  A    between atoms: N4_12  and  N5_13 
ROOT
HETATM    1  C4  UNL     1     -18.676  14.893  -5.825  1.00  0.00     0.137 C 
HETATM    2  C5  UNL     1     -19.497  14.316  -4.661  1.00  0.00     0.049 C 
HETATM    3  C6  UNL     1     -20.484  13.483  -5.482  1.00  0.00     0.115 C 
HETATM    4  N4  UNL     1     -19.709  12.906  -6.560  1.00  0.00    -0.235 NA
HETATM    5  C7  UNL     1     -18.459  13.603  -6.621  1.00  0.00     0.144 C 
ENDROOT
BRANCH   1   6
HETATM    6  O1  UNL     1     -19.524  15.675  -6.553  1.00  0.00    -0.383 OA
BRANCH   6   7
HETATM    7  C3  UNL     1     -19.063  16.903  -6.941  1.00  0.00     0.187 C 
BRANCH   7   8
HETATM    8  C2  UNL     1     -19.875  18.014  -6.329  1.00  0.00     0.148 C 
BRANCH   8   9
HETATM    9  N3  UNL     1     -21.115  17.426  -5.841  1.00  0.00    -0.365 N 
HETATM   10  C1  UNL     1     -22.085  18.160  -5.404  1.00  0.00     0.197 C 
HETATM   11  N1  UNL     1     -23.283  17.557  -4.933  1.00  0.00    -0.067 NA
HETATM   12  N2  UNL     1     -21.977  19.564  -5.384  1.00  0.00    -0.067 NA
ATOM     13  H3  UNL     1     -21.220  16.412  -5.843  1.00  0.00     0.161 HD
ENDBRANCH   8   9
ENDBRANCH   7   8
ENDBRANCH   6   7
ENDBRANCH   1   6
BRANCH   4  14
HETATM   14  N5  UNL     1     -19.460  11.569  -6.224  1.00  0.00    -0.363 NA
ATOM     15  H52 UNL     1     -19.228  11.520  -5.232  1.00  0.00     0.171 HD
ATOM     16  H51 UNL     1     -20.329  11.054  -6.365  1.00  0.00     0.171 HD
ENDBRANCH   4  14
TORSDOF 5
ENDMDL
MODEL 4
REMARK VINA RESULT: -6.111477765      1.551      6.146
REMARK  5 active torsions:
REMARK  status: ('A' for Active; 'I' for Inactive)
REMARK    1  A    between atoms: N3_4  and  C2_6 
REMARK    2  A    between atoms: C2_6  and  C3_7 
REMARK    3  A    between atoms: C3_7  and  O1_8 
REMARK    4  A    between atoms: O1_8  and  C4_9 
REMARK    5  A    between atoms: N4_12  and  N5_13 
ROOT
HETATM    1  C4  UNL     1     -20.700  14.345  -5.865  1.00  0.00     0.137 C 
HETATM    2  C5  UNL     1     -19.823  14.241  -7.123  1.00  0.00     0.049 C 
HETATM    3  C6  UNL     1     -18.716  13.356  -6.547  1.00  0.00     0.115 C 
HETATM    4  N4  UNL     1     -19.385  12.395  -5.696  1.00  0.00    -0.235 NA
HETATM    5  C7  UNL     1     -20.720  12.864  -5.473  1.00  0.00     0.144 C 
ENDROOT
BRANCH   1   6
HETATM    6  O1  UNL     1     -19.959  14.998  -4.924  1.00  0.00    -0.383 OA
BRANCH   6   7
HETATM    7  C3  UNL     1     -20.598  15.950  -4.177  1.00  0.00     0.187 C 
BRANCH   7   8
HETATM    8  C2  UNL     1     -21.377  16.900  -5.048  1.00  0.00     0.148 C 
BRANCH   8   9
HETATM    9  N3  UNL     1     -20.445  17.912  -5.527  1.00  0.00    -0.365 N 
HETATM   10  C1  UNL     1     -20.808  19.142  -5.691  1.00  0.00     0.197 C 
HETATM   11  N1  UNL     1     -19.877  20.107  -6.160  1.00  0.00    -0.067 NA
HETATM   12  N2  UNL     1     -22.127  19.550  -5.412  1.00  0.00    -0.067 NA
ATOM     13  H3  UNL     1     -19.484  17.645  -5.738  1.00  0.00     0.161 HD
ENDBRANCH   8   9
ENDBRANCH   7   8
ENDBRANCH   6   7
ENDBRANCH   1   6
BRANCH   4  14
HETATM   14  N5  UNL     1     -19.448  11.187  -6.403  1.00  0.00    -0.363 NA
ATOM     15  H52 UNL     1     -19.328  10.417  -5.745  1.00  0.00     0.171 HD
ATOM     16  H51 UNL     1     -20.387  11.115  -6.797  1.00  0.00     0.171 HD
ENDBRANCH   4  14
TORSDOF 5
ENDMDL
MODEL 5
REMARK VINA RESULT: -6.070542169      1.808      2.254
REMARK  5 active torsions:
REMARK  status: ('A' for Active; 'I' for Inactive)
REMARK    1  A    between atoms: N3_4  and  C2_6 
REMARK    2  A    between atoms: C2_6  and  C3_7 
REMARK    3  A    between atoms: C3_7  and  O1_8 
REMARK    4  A    between atoms: O1_8  and  C4_9 
REMARK    5  A    between atoms: N4_12  and  N5_13 
ROOT
HETATM    1  C4  UNL     1     -20.467  16.028  -5.420  1.00  0.00     0.137 C 
HETATM    2  C5  UNL     1     -19.648  16.960  -6.327  1.00  0.00     0.049 C 
HETATM    3  C6  UNL     1     -19.403  15.984  -7.480  1.00  0.00     0.115 C 
HETATM    4  N4  UNL     1     -20.639  15.246  -7.638  1.00  0.00    -0.235 NA
HETATM    5  C7  UNL     1     -21.436  15.475  -6.470  1.00  0.00     0.144 C 
ENDROOT
BRANCH   1   6
HETATM    6  O1  UNL     1     -19.642  15.005  -5.059  1.00  0.00    -0.383 OA
BRANCH   6   7
HETATM    7  C3  UNL     1     -20.231  13.857  -4.605  1.00  0.00     0.187 C 
BRANCH   7   8
HETATM    8  C2  UNL     1     -19.820  12.665  -5.428  1.00  0.00     0.148 C 
BRANCH   8   9
HETATM    9  N3  UNL     1     -20.852  11.650  -5.267  1.00  0.00    -0.365 N 
HETATM   10  C1  UNL     1     -20.652  10.420  -5.611  1.00  0.00     0.197 C 
HETATM   11  N1  UNL     1     -21.678   9.452  -5.442  1.00  0.00    -0.067 NA
HETATM   12  N2  UNL     1     -19.420  10.015  -6.159  1.00  0.00    -0.067 NA
ATOM     13  H3  UNL     1     -21.755  11.916  -4.873  1.00  0.00     0.161 HD
ENDBRANCH   8   9
ENDBRANCH   7   8
ENDBRANCH   6   7
ENDBRANCH   1   6
BRANCH   4  14
HETATM   14  N5  UNL     1     -21.306  15.784  -8.746  1.00  0.00    -0.363 NA
ATOM     15  H52 UNL     1     -21.229  15.127  -9.523  1.00  0.00     0.171 HD
ATOM     16  H51 UNL     1     -22.293  15.860  -8.500  1.00  0.00     0.171 HD
ENDBRANCH   4  14
TORSDOF 5
ENDMDL
