MODEL 1
REMARK VINA RESULT: -7.028395219      0.000      0.000
REMARK  4 active torsions:
REMARK  status: ('A' for Active; 'I' for Inactive)
REMARK    1  A    between atoms: O1_2  and  C2_3 
REMARK    2  A    between atoms: C12_19  and  N4_20 
REMARK    3  A    between atoms: N4_20  and  C13_22 
REMARK    4  A    between atoms: C17_27  and  O4_28 
ROOT
HETATM    1  C2  UNL     1      -4.203   6.183  10.103  1.00  0.00     0.102 A 
HETATM    2  C3  UNL     1      -4.675   6.266  11.386  1.00  0.00     0.057 A 
HETATM    3  C4  UNL     1      -4.694   5.113  12.166  1.00  0.00     0.046 A 
HETATM    4  C5  UNL     1      -5.155   5.164  13.438  1.00  0.00     0.259 A 
HETATM    5  O2  UNL     1      -5.565   6.272  13.891  1.00  0.00    -0.267 OA
HETATM    6  N1  UNL     1      -5.209   4.077  14.289  1.00  0.00    -0.316 N 
HETATM    7  C6  UNL     1      -5.915   4.296  15.503  1.00  0.00     0.159 C 
HETATM    8  C7  UNL     1      -4.763   2.928  13.800  1.00  0.00     0.064 A 
HETATM    9  C8  UNL     1      -4.278   2.824  12.470  1.00  0.00     0.003 A 
HETATM   10  C9  UNL     1      -3.842   1.617  11.982  1.00  0.00     0.017 A 
HETATM   11  C10 UNL     1      -3.863   0.509  12.778  1.00  0.00     0.033 A 
HETATM   12  C11 UNL     1      -4.304   0.568  14.060  1.00  0.00     0.064 A 
HETATM   13  N2  UNL     1      -4.355  -0.320  15.064  1.00  0.00    -0.298 N 
ATOM     14  H2  UNL     1      -4.093  -1.303  14.987  1.00  0.00     0.187 HD
HETATM   15  N3  UNL     1      -4.783   0.248  16.145  1.00  0.00    -0.284 N 
ATOM     16  H3  UNL     1      -4.906  -0.221  17.042  1.00  0.00     0.188 HD
HETATM   17  C12 UNL     1      -5.049   1.582  15.904  1.00  0.00     0.137 A 
HETATM   18  C14 UNL     1      -4.762   1.786  14.599  1.00  0.00     0.065 A 
HETATM   19  C15 UNL     1      -4.252   3.936  11.662  1.00  0.00    -0.005 A 
HETATM   20  C16 UNL     1      -3.776   3.827  10.383  1.00  0.00     0.053 A 
HETATM   21  C17 UNL     1      -3.754   4.971   9.598  1.00  0.00     0.102 A 
ENDROOT
BRANCH  17  22
HETATM   22  N4  UNL     1      -5.351   2.267  16.886  1.00  0.00    -0.319 N 
ATOM     23  H4  UNL     1      -4.863   3.160  16.963  1.00  0.00     0.169 HD
BRANCH  22  24
HETATM   24  C13 UNL     1      -6.267   1.994  17.907  1.00  0.00     0.354 C 
HETATM   25  O3  UNL     1      -7.292   1.316  17.640  1.00  0.00    -0.283 OA
ENDBRANCH  22  24
ENDBRANCH  17  22
BRANCH  21  26
HETATM   26  O4  UNL     1      -3.275   4.873   8.304  1.00  0.00    -0.353 OA
HETATM   27  C18 UNL     1      -1.895   4.969   8.055  1.00  0.00     0.210 C 
ENDBRANCH  21  26
BRANCH   1  28
HETATM   28  O1  UNL     1      -4.175   7.307   9.312  1.00  0.00    -0.353 OA
HETATM   29  C1  UNL     1      -5.328   7.788   8.670  1.00  0.00     0.210 C 
ENDBRANCH   1  28
TORSDOF 4
ENDMDL
MODEL 2
REMARK VINA RESULT: -6.813822043      1.112      1.247
REMARK  4 active torsions:
REMARK  status: ('A' for Active; 'I' for Inactive)
REMARK    1  A    between atoms: O1_2  and  C2_3 
REMARK    2  A    between atoms: C12_19  and  N4_20 
REMARK    3  A    between atoms: N4_20  and  C13_22 
REMARK    4  A    between atoms: C17_27  and  O4_28 
ROOT
HETATM    1  C2  UNL     1      -4.934   7.124  11.094  1.00  0.00     0.102 A 
HETATM    2  C3  UNL     1      -5.256   6.825  12.391  1.00  0.00     0.057 A 
HETATM    3  C4  UNL     1      -5.101   5.513  12.831  1.00  0.00     0.046 A 
HETATM    4  C5  UNL     1      -5.411   5.186  14.108  1.00  0.00     0.259 A 
HETATM    5  O2  UNL     1      -5.839   6.093  14.880  1.00  0.00    -0.267 OA
HETATM    6  N1  UNL     1      -5.287   3.916  14.637  1.00  0.00    -0.316 N 
HETATM    7  C6  UNL     1      -5.858   3.742  15.927  1.00  0.00     0.159 C 
HETATM    8  C7  UNL     1      -4.824   2.983  13.817  1.00  0.00     0.064 A 
HETATM    9  C8  UNL     1      -4.494   3.276  12.468  1.00  0.00     0.003 A 
HETATM   10  C9  UNL     1      -4.036   2.286  11.634  1.00  0.00     0.017 A 
HETATM   11  C10 UNL     1      -3.885   1.012  12.101  1.00  0.00     0.033 A 
HETATM   12  C11 UNL     1      -4.174   0.693  13.388  1.00  0.00     0.064 A 
HETATM   13  N2  UNL     1      -4.043  -0.425  14.117  1.00  0.00    -0.298 N 
ATOM     14  H2  UNL     1      -3.725  -1.324  13.754  1.00  0.00     0.187 HD
HETATM   15  N3  UNL     1      -4.379  -0.202  15.346  1.00  0.00    -0.284 N 
ATOM     16  H3  UNL     1      -4.362  -0.897  16.092  1.00  0.00     0.188 HD
HETATM   17  C12 UNL     1      -4.764   1.116  15.499  1.00  0.00     0.137 A 
HETATM   18  C14 UNL     1      -4.649   1.678  14.276  1.00  0.00     0.065 A 
HETATM   19  C15 UNL     1      -4.641   4.556  11.989  1.00  0.00    -0.005 A 
HETATM   20  C16 UNL     1      -4.314   4.830  10.688  1.00  0.00     0.053 A 
HETATM   21  C17 UNL     1      -4.466   6.135  10.241  1.00  0.00     0.102 A 
ENDROOT
BRANCH  17  22
HETATM   22  N4  UNL     1      -4.994   1.490  16.653  1.00  0.00    -0.319 N 
ATOM     23  H4  UNL     1      -4.569   2.379  16.918  1.00  0.00     0.169 HD
BRANCH  22  24
HETATM   24  C13 UNL     1      -5.754   0.868  17.650  1.00  0.00     0.354 C 
HETATM   25  O3  UNL     1      -6.189  -0.295  17.447  1.00  0.00    -0.283 OA
ENDBRANCH  22  24
ENDBRANCH  17  22
BRANCH  21  26
HETATM   26  O4  UNL     1      -4.138   6.423   8.928  1.00  0.00    -0.353 OA
HETATM   27  C18 UNL     1      -3.424   5.488   8.159  1.00  0.00     0.210 C 
ENDBRANCH  21  26
BRANCH   1  28
HETATM   28  O1  UNL     1      -5.079   8.411  10.635  1.00  0.00    -0.353 OA
HETATM   29  C1  UNL     1      -6.170   9.213  11.010  1.00  0.00     0.210 C 
ENDBRANCH   1  28
TORSDOF 4
ENDMDL
MODEL 3
REMARK VINA RESULT: -6.686540465      4.807      7.655
REMARK  4 active torsions:
REMARK  status: ('A' for Active; 'I' for Inactive)
REMARK    1  A    between atoms: O1_2  and  C2_3 
REMARK    2  A    between atoms: C12_19  and  N4_20 
REMARK    3  A    between atoms: N4_20  and  C13_22 
REMARK    4  A    between atoms: C17_27  and  O4_28 
ROOT
HETATM    1  C2  UNL     1      -4.260   3.024  12.731  1.00  0.00     0.102 A 
HETATM    2  C3  UNL     1      -3.118   3.384  12.067  1.00  0.00     0.057 A 
HETATM    3  C4  UNL     1      -2.471   4.558  12.443  1.00  0.00     0.046 A 
HETATM    4  C5  UNL     1      -1.339   4.941  11.806  1.00  0.00     0.259 A 
HETATM    5  O2  UNL     1      -0.892   4.213  10.872  1.00  0.00    -0.267 OA
HETATM    6  N1  UNL     1      -0.625   6.085  12.109  1.00  0.00    -0.316 N 
HETATM    7  C6  UNL     1       0.410   6.411  11.191  1.00  0.00     0.159 C 
HETATM    8  C7  UNL     1      -1.102   6.827  13.099  1.00  0.00     0.064 A 
HETATM    9  C8  UNL     1      -2.289   6.471  13.791  1.00  0.00     0.003 A 
HETATM   10  C9  UNL     1      -2.772   7.269  14.798  1.00  0.00     0.017 A 
HETATM   11  C10 UNL     1      -2.106   8.407  15.148  1.00  0.00     0.033 A 
HETATM   12  C11 UNL     1      -0.959   8.776  14.524  1.00  0.00     0.064 A 
HETATM   13  N2  UNL     1      -0.078   9.769  14.715  1.00  0.00    -0.298 N 
ATOM     14  H2  UNL     1      -0.183  10.517  15.400  1.00  0.00     0.187 HD
HETATM   15  N3  UNL     1       0.923   9.644  13.905  1.00  0.00    -0.284 N 
ATOM     16  H3  UNL     1       1.722  10.276  13.861  1.00  0.00     0.188 HD
HETATM   17  C12 UNL     1       0.750   8.528  13.109  1.00  0.00     0.137 A 
HETATM   18  C14 UNL     1      -0.431   7.987  13.484  1.00  0.00     0.065 A 
HETATM   19  C15 UNL     1      -2.965   5.325  13.445  1.00  0.00    -0.005 A 
HETATM   20  C16 UNL     1      -4.106   4.986  14.122  1.00  0.00     0.053 A 
HETATM   21  C17 UNL     1      -4.758   3.818  13.754  1.00  0.00     0.102 A 
ENDROOT
BRANCH  17  22
HETATM   22  N4  UNL     1       1.694   8.227  12.373  1.00  0.00    -0.319 N 
ATOM     23  H4  UNL     1       1.436   7.821  11.473  1.00  0.00     0.169 HD
BRANCH  22  24
HETATM   24  C13 UNL     1       3.069   8.362  12.598  1.00  0.00     0.354 C 
HETATM   25  O3  UNL     1       3.542   8.003  13.707  1.00  0.00    -0.283 OA
ENDBRANCH  22  24
ENDBRANCH  17  22
BRANCH  21  26
HETATM   26  O4  UNL     1      -5.911   3.466  14.432  1.00  0.00    -0.353 OA
HETATM   27  C18 UNL     1      -5.827   2.775  15.653  1.00  0.00     0.210 C 
ENDBRANCH  21  26
BRANCH   1  28
HETATM   28  O1  UNL     1      -4.918   1.870  12.378  1.00  0.00    -0.353 OA
HETATM   29  C1  UNL     1      -4.297   0.612  12.451  1.00  0.00     0.210 C 
ENDBRANCH   1  28
TORSDOF 4
ENDMDL
MODEL 4
REMARK VINA RESULT: -6.673516769      4.210      5.700
REMARK  4 active torsions:
REMARK  status: ('A' for Active; 'I' for Inactive)
REMARK    1  A    between atoms: O1_2  and  C2_3 
REMARK    2  A    between atoms: C12_19  and  N4_20 
REMARK    3  A    between atoms: N4_20  and  C13_22 
REMARK    4  A    between atoms: C17_27  and  O4_28 
ROOT
HETATM    1  C2  UNL     1       0.076   8.901  13.331  1.00  0.00     0.102 A 
HETATM    2  C3  UNL     1       0.080   7.665  12.741  1.00  0.00     0.057 A 
HETATM    3  C4  UNL     1      -0.944   6.775  13.050  1.00  0.00     0.046 A 
HETATM    4  C5  UNL     1      -0.967   5.546  12.482  1.00  0.00     0.259 A 
HETATM    5  O2  UNL     1      -0.044   5.232  11.675  1.00  0.00    -0.267 OA
HETATM    6  N1  UNL     1      -1.943   4.596  12.722  1.00  0.00    -0.316 N 
HETATM    7  C6  UNL     1      -1.672   3.306  12.192  1.00  0.00     0.159 C 
HETATM    8  C7  UNL     1      -2.908   4.949  13.560  1.00  0.00     0.064 A 
HETATM    9  C8  UNL     1      -2.922   6.223  14.185  1.00  0.00     0.003 A 
HETATM   10  C9  UNL     1      -3.923   6.554  15.065  1.00  0.00     0.017 A 
HETATM   11  C10 UNL     1      -4.919   5.661  15.337  1.00  0.00     0.033 A 
HETATM   12  C11 UNL     1      -4.952   4.438  14.748  1.00  0.00     0.064 A 
HETATM   13  N2  UNL     1      -5.831   3.426  14.765  1.00  0.00    -0.298 N 
ATOM     14  H2  UNL     1      -6.675   3.396  15.337  1.00  0.00     0.187 HD
HETATM   15  N3  UNL     1      -5.455   2.491  13.954  1.00  0.00    -0.284 N 
ATOM     16  H3  UNL     1      -5.960   1.620  13.792  1.00  0.00     0.188 HD
HETATM   17  C12 UNL     1      -4.269   2.846  13.341  1.00  0.00     0.137 A 
HETATM   18  C14 UNL     1      -3.943   4.059  13.842  1.00  0.00     0.065 A 
HETATM   19  C15 UNL     1      -1.924   7.129  13.917  1.00  0.00    -0.005 A 
HETATM   20  C16 UNL     1      -1.950   8.358  14.520  1.00  0.00     0.053 A 
HETATM   21  C17 UNL     1      -0.931   9.251  14.218  1.00  0.00     0.102 A 
ENDROOT
BRANCH  17  22
HETATM   22  N4  UNL     1      -3.863   2.092  12.452  1.00  0.00    -0.319 N 
ATOM     23  H4  UNL     1      -2.849   2.019  12.368  1.00  0.00     0.169 HD
BRANCH  22  24
HETATM   24  C13 UNL     1      -4.597   1.323  11.541  1.00  0.00     0.354 C 
HETATM   25  O3  UNL     1      -5.684   1.775  11.100  1.00  0.00    -0.283 OA
ENDBRANCH  22  24
ENDBRANCH  17  22
BRANCH  21  26
HETATM   26  O4  UNL     1      -0.948  10.496  14.822  1.00  0.00    -0.353 OA
HETATM   27  C18 UNL     1      -1.669  11.552  14.239  1.00  0.00     0.210 C 
ENDBRANCH  21  26
BRANCH   1  28
HETATM   28  O1  UNL     1       1.077   9.798  13.044  1.00  0.00    -0.353 OA
HETATM   29  C1  UNL     1       2.353   9.694  13.623  1.00  0.00     0.210 C 
ENDBRANCH   1  28
TORSDOF 4
ENDMDL
MODEL 5
REMARK VINA RESULT: -6.606708669      1.568      3.373
REMARK  4 active torsions:
REMARK  status: ('A' for Active; 'I' for Inactive)
REMARK    1  A    between atoms: O1_2  and  C2_3 
REMARK    2  A    between atoms: C12_19  and  N4_20 
REMARK    3  A    between atoms: N4_20  and  C13_22 
REMARK    4  A    between atoms: C17_27  and  O4_28 
ROOT
HETATM    1  C2  UNL     1      -3.101   4.615   9.835  1.00  0.00     0.102 A 
HETATM    2  C3  UNL     1      -3.175   3.445  10.541  1.00  0.00     0.057 A 
HETATM    3  C4  UNL     1      -3.830   3.448  11.769  1.00  0.00     0.046 A 
HETATM    4  C5  UNL     1      -3.920   2.306  12.491  1.00  0.00     0.259 A 
HETATM    5  O2  UNL     1      -3.400   1.251  12.026  1.00  0.00    -0.267 OA
HETATM    6  N1  UNL     1      -4.552   2.208  13.716  1.00  0.00    -0.316 N 
HETATM    7  C6  UNL     1      -4.356   0.977  14.400  1.00  0.00     0.159 C 
HETATM    8  C7  UNL     1      -5.104   3.321  14.180  1.00  0.00     0.064 A 
HETATM    9  C8  UNL     1      -5.028   4.543  13.464  1.00  0.00     0.003 A 
HETATM   10  C9  UNL     1      -5.589   5.686  13.978  1.00  0.00     0.017 A 
HETATM   11  C10 UNL     1      -6.234   5.651  15.181  1.00  0.00     0.033 A 
HETATM   12  C11 UNL     1      -6.343   4.499  15.891  1.00  0.00     0.064 A 
HETATM   13  N2  UNL     1      -6.975   4.167  17.025  1.00  0.00    -0.298 N 
ATOM     14  H2  UNL     1      -7.479   4.821  17.625  1.00  0.00     0.187 HD
HETATM   15  N3  UNL     1      -6.856   2.899  17.252  1.00  0.00    -0.284 N 
ATOM     16  H3  UNL     1      -7.253   2.408  18.053  1.00  0.00     0.188 HD
HETATM   17  C12 UNL     1      -6.113   2.308  16.248  1.00  0.00     0.137 A 
HETATM   18  C14 UNL     1      -5.779   3.305  15.400  1.00  0.00     0.065 A 
HETATM   19  C15 UNL     1      -4.381   4.588  12.251  1.00  0.00    -0.005 A 
HETATM   20  C16 UNL     1      -4.319   5.771  11.565  1.00  0.00     0.053 A 
HETATM   21  C17 UNL     1      -3.668   5.777  10.339  1.00  0.00     0.102 A 
ENDROOT
BRANCH  17  22
HETATM   22  N4  UNL     1      -6.026   1.077  16.282  1.00  0.00    -0.319 N 
ATOM     23  H4  UNL     1      -5.857   0.625  15.383  1.00  0.00     0.169 HD
BRANCH  22  24
HETATM   24  C13 UNL     1      -6.128   0.212  17.378  1.00  0.00     0.354 C 
HETATM   25  O3  UNL     1      -5.434   0.443  18.401  1.00  0.00    -0.283 OA
ENDBRANCH  22  24
ENDBRANCH  17  22
BRANCH  21  26
HETATM   26  O4  UNL     1      -3.600   6.967   9.637  1.00  0.00    -0.353 OA
HETATM   27  C18 UNL     1      -4.749   7.483   9.014  1.00  0.00     0.210 C 
ENDBRANCH  21  26
BRANCH   1  28
HETATM   28  O1  UNL     1      -2.459   4.640   8.619  1.00  0.00    -0.353 OA
HETATM   29  C1  UNL     1      -1.094   4.952   8.510  1.00  0.00     0.210 C 
ENDBRANCH   1  28
TORSDOF 4
ENDMDL
