MODEL 1
REMARK VINA RESULT: -6.600908904      0.000      0.000
REMARK  8 active torsions:
REMARK  status: ('A' for Active; 'I' for Inactive)
REMARK    1  A    between atoms: C2_2  and  S1_3 
REMARK    2  A    between atoms: S1_3  and  C3_4 
REMARK    3  A    between atoms: C3_4  and  C7_9 
REMARK    4  A    between atoms: N3_13  and  C9_14 
REMARK    5  A    between atoms: C10_16  and  C11_17 
REMARK    6  A    between atoms: C11_17  and  O2_18 
REMARK    7  A    between atoms: C12_20  and  O3_21 
REMARK    8  A    between atoms: C13_23  and  O4_24 
ROOT
HETATM    1  C3  UNL     1      -2.540   5.933  12.529  1.00  0.00     0.029 C 
HETATM    2  C4  UNL     1      -3.432   6.833  12.262  1.00  0.00     0.036 C 
HETATM    3  C5  UNL     1      -3.198   8.260  11.908  1.00  0.00     0.062 C 
HETATM    4  C6  UNL     1      -4.849   6.475  12.343  1.00  0.00     0.096 C 
HETATM    5  N1  UNL     1      -5.990   6.219  12.418  1.00  0.00    -0.192 NA
ENDROOT
BRANCH   1   6
HETATM    6  S1  UNL     1      -0.781   6.063  12.571  1.00  0.00    -0.128 SA
BRANCH   6   7
HETATM    7  C2  UNL     1      -0.011   5.687  11.010  1.00  0.00     0.075 C 
HETATM    8  C1  UNL     1       0.297   4.177  10.921  1.00  0.00     0.016 C 
ENDBRANCH   6   7
ENDBRANCH   1   6
BRANCH   1   9
HETATM    9  C7  UNL     1      -3.076   4.554  12.779  1.00  0.00     0.016 A 
HETATM   10  C8  UNL     1      -3.434   4.142  14.042  1.00  0.00     0.121 A 
HETATM   11  N2  UNL     1      -3.830   2.864  13.921  1.00  0.00    -0.307 N 
HETATM   12  N3  UNL     1      -3.724   2.506  12.660  1.00  0.00    -0.271 N 
ATOM     13  H2  UNL     1      -4.159   2.270  14.682  1.00  0.00     0.186 HD
HETATM   14  C14 UNL     1      -3.255   3.530  11.900  1.00  0.00     0.127 A 
BRANCH  12  15
HETATM   15  C9  UNL     1      -4.066   1.198  12.176  1.00  0.00     0.275 C 
HETATM   16  O1  UNL     1      -2.903   0.545  11.733  1.00  0.00    -0.352 OA
HETATM   17  C10 UNL     1      -3.380  -0.547  10.992  1.00  0.00     0.179 C 
HETATM   18  C12 UNL     1      -4.690  -0.157  10.393  1.00  0.00     0.182 C 
HETATM   19  C13 UNL     1      -4.801   1.304  10.833  1.00  0.00     0.199 C 
BRANCH  17  20
HETATM   20  C11 UNL     1      -3.485  -1.700  11.963  1.00  0.00     0.198 C 
BRANCH  20  21
HETATM   21  O2  UNL     1      -2.807  -2.825  11.574  1.00  0.00    -0.398 OA
ATOM     22  H2  UNL     1      -3.082  -3.619  12.018  1.00  0.00     0.209 HD
ENDBRANCH  20  21
ENDBRANCH  17  20
BRANCH  18  23
HETATM   23  O3  UNL     1      -4.640  -0.153   8.997  1.00  0.00    -0.390 OA
ATOM     24  H3  UNL     1      -4.840  -1.008   8.635  1.00  0.00     0.210 HD
ENDBRANCH  18  23
BRANCH  19  25
HETATM   25  O4  UNL     1      -6.095   1.730  10.991  1.00  0.00    -0.388 OA
ATOM     26  H4  UNL     1      -6.443   2.108  10.193  1.00  0.00     0.210 HD
ENDBRANCH  19  25
ENDBRANCH  12  15
ENDBRANCH   1   9
TORSDOF 8
ENDMDL
MODEL 2
REMARK VINA RESULT: -6.542987391      2.891      4.168
REMARK  8 active torsions:
REMARK  status: ('A' for Active; 'I' for Inactive)
REMARK    1  A    between atoms: C2_2  and  S1_3 
REMARK    2  A    between atoms: S1_3  and  C3_4 
REMARK    3  A    between atoms: C3_4  and  C7_9 
REMARK    4  A    between atoms: N3_13  and  C9_14 
REMARK    5  A    between atoms: C10_16  and  C11_17 
REMARK    6  A    between atoms: C11_17  and  O2_18 
REMARK    7  A    between atoms: C12_20  and  O3_21 
REMARK    8  A    between atoms: C13_23  and  O4_24 
ROOT
HETATM    1  C3  UNL     1      -5.153   3.751  14.989  1.00  0.00     0.029 C 
HETATM    2  C4  UNL     1      -4.239   4.640  14.762  1.00  0.00     0.036 C 
HETATM    3  C5  UNL     1      -4.230   6.061  15.207  1.00  0.00     0.062 C 
HETATM    4  C6  UNL     1      -3.080   4.276  13.946  1.00  0.00     0.096 C 
HETATM    5  N1  UNL     1      -2.152   4.015  13.280  1.00  0.00    -0.192 NA
ENDROOT
BRANCH   1   6
HETATM    6  S1  UNL     1      -6.671   3.891  15.877  1.00  0.00    -0.128 SA
BRANCH   6   7
HETATM    7  C2  UNL     1      -7.132   2.393  16.722  1.00  0.00     0.075 C 
HETATM    8  C1  UNL     1      -6.458   2.339  18.110  1.00  0.00     0.016 C 
ENDBRANCH   6   7
ENDBRANCH   1   6
BRANCH   1   9
HETATM    9  C7  UNL     1      -4.848   2.375  14.475  1.00  0.00     0.016 A 
HETATM   10  C8  UNL     1      -4.443   1.367  15.319  1.00  0.00     0.121 A 
HETATM   11  N2  UNL     1      -4.220   0.294  14.543  1.00  0.00    -0.307 N 
HETATM   12  N3  UNL     1      -4.471   0.617  13.293  1.00  0.00    -0.271 N 
ATOM     13  H2  UNL     1      -3.907  -0.621  14.868  1.00  0.00     0.186 HD
HETATM   14  C14 UNL     1      -4.869   1.913  13.195  1.00  0.00     0.127 A 
BRANCH  12  15
HETATM   15  C9  UNL     1      -4.335  -0.298  12.194  1.00  0.00     0.275 C 
HETATM   16  O1  UNL     1      -3.156  -1.047  12.353  1.00  0.00    -0.352 OA
HETATM   17  C10 UNL     1      -2.953  -1.642  11.099  1.00  0.00     0.179 C 
HETATM   18  C12 UNL     1      -3.517  -0.730  10.062  1.00  0.00     0.182 C 
HETATM   19  C13 UNL     1      -3.960   0.461  10.915  1.00  0.00     0.199 C 
BRANCH  17  20
HETATM   20  C11 UNL     1      -3.642  -2.985  11.155  1.00  0.00     0.198 C 
BRANCH  20  21
HETATM   21  O2  UNL     1      -2.793  -4.057  11.067  1.00  0.00    -0.398 OA
ATOM     22  H2  UNL     1      -2.553  -4.434  11.905  1.00  0.00     0.209 HD
ENDBRANCH  20  21
ENDBRANCH  17  20
BRANCH  18  23
HETATM   23  O3  UNL     1      -2.529  -0.257   9.195  1.00  0.00    -0.390 OA
ATOM     24  H3  UNL     1      -2.276   0.635   9.402  1.00  0.00     0.210 HD
ENDBRANCH  18  23
BRANCH  19  25
HETATM   25  O4  UNL     1      -5.031   1.138  10.391  1.00  0.00    -0.388 OA
ATOM     26  H4  UNL     1      -4.765   1.752   9.716  1.00  0.00     0.210 HD
ENDBRANCH  19  25
ENDBRANCH  12  15
ENDBRANCH   1   9
TORSDOF 8
ENDMDL
MODEL 3
REMARK VINA RESULT: -6.519809463      2.832      4.110
REMARK  8 active torsions:
REMARK  status: ('A' for Active; 'I' for Inactive)
REMARK    1  A    between atoms: C2_2  and  S1_3 
REMARK    2  A    between atoms: S1_3  and  C3_4 
REMARK    3  A    between atoms: C3_4  and  C7_9 
REMARK    4  A    between atoms: N3_13  and  C9_14 
REMARK    5  A    between atoms: C10_16  and  C11_17 
REMARK    6  A    between atoms: C11_17  and  O2_18 
REMARK    7  A    between atoms: C12_20  and  O3_21 
REMARK    8  A    between atoms: C13_23  and  O4_24 
ROOT
HETATM    1  C3  UNL     1      -3.338   6.901  12.023  1.00  0.00     0.029 C 
HETATM    2  C4  UNL     1      -4.240   7.705  11.555  1.00  0.00     0.036 C 
HETATM    3  C5  UNL     1      -4.043   9.095  11.062  1.00  0.00     0.062 C 
HETATM    4  C6  UNL     1      -5.635   7.265  11.522  1.00  0.00     0.096 C 
HETATM    5  N1  UNL     1      -6.762   6.944  11.503  1.00  0.00    -0.192 NA
ENDROOT
BRANCH   1   6
HETATM    6  S1  UNL     1      -1.605   7.151  12.241  1.00  0.00    -0.128 SA
BRANCH   6   7
HETATM    7  C2  UNL     1      -1.219   8.262  13.578  1.00  0.00     0.075 C 
HETATM    8  C1  UNL     1      -2.150   7.989  14.779  1.00  0.00     0.016 C 
ENDBRANCH   6   7
ENDBRANCH   1   6
BRANCH   1   9
HETATM    9  C7  UNL     1      -3.826   5.527  12.375  1.00  0.00     0.016 A 
HETATM   10  C8  UNL     1      -3.880   4.523  11.436  1.00  0.00     0.121 A 
HETATM   11  N2  UNL     1      -4.392   3.451  12.062  1.00  0.00    -0.307 N 
HETATM   12  N3  UNL     1      -4.641   3.771  13.313  1.00  0.00    -0.271 N 
ATOM     13  H2  UNL     1      -4.560   2.538  11.637  1.00  0.00     0.186 HD
HETATM   14  C14 UNL     1      -4.304   5.063  13.562  1.00  0.00     0.127 A 
BRANCH  12  15
HETATM   15  C9  UNL     1      -5.196   2.855  14.271  1.00  0.00     0.275 C 
HETATM   16  O1  UNL     1      -4.885   3.294  15.570  1.00  0.00    -0.352 OA
HETATM   17  C10 UNL     1      -5.168   2.187  16.385  1.00  0.00     0.179 C 
HETATM   18  C12 UNL     1      -4.932   0.953  15.580  1.00  0.00     0.182 C 
HETATM   19  C13 UNL     1      -4.403   1.542  14.271  1.00  0.00     0.199 C 
BRANCH  17  20
HETATM   20  C11 UNL     1      -6.603   2.348  16.829  1.00  0.00     0.198 C 
BRANCH  20  21
HETATM   21  O2  UNL     1      -7.308   1.175  16.890  1.00  0.00    -0.398 OA
ATOM     22  H2  UNL     1      -7.598   0.850  16.045  1.00  0.00     0.209 HD
ENDBRANCH  20  21
ENDBRANCH  17  20
BRANCH  18  23
HETATM   23  O3  UNL     1      -3.903   0.174  16.115  1.00  0.00    -0.390 OA
ATOM     24  H3  UNL     1      -3.223   0.002  15.474  1.00  0.00     0.210 HD
ENDBRANCH  18  23
BRANCH  19  25
HETATM   25  O4  UNL     1      -4.689   0.773  13.172  1.00  0.00    -0.388 OA
ATOM     26  H4  UNL     1      -4.258  -0.072  13.209  1.00  0.00     0.210 HD
ENDBRANCH  19  25
ENDBRANCH  12  15
ENDBRANCH   1   9
TORSDOF 8
ENDMDL
MODEL 4
REMARK VINA RESULT: -6.482418635      3.117      4.388
REMARK  8 active torsions:
REMARK  status: ('A' for Active; 'I' for Inactive)
REMARK    1  A    between atoms: C2_2  and  S1_3 
REMARK    2  A    between atoms: S1_3  and  C3_4 
REMARK    3  A    between atoms: C3_4  and  C7_9 
REMARK    4  A    between atoms: N3_13  and  C9_14 
REMARK    5  A    between atoms: C10_16  and  C11_17 
REMARK    6  A    between atoms: C11_17  and  O2_18 
REMARK    7  A    between atoms: C12_20  and  O3_21 
REMARK    8  A    between atoms: C13_23  and  O4_24 
ROOT
HETATM    1  C3  UNL     1      -3.074   6.200  11.998  1.00  0.00     0.029 C 
HETATM    2  C4  UNL     1      -2.797   5.697  10.836  1.00  0.00     0.036 C 
HETATM    3  C5  UNL     1      -1.797   6.195   9.853  1.00  0.00     0.062 C 
HETATM    4  C6  UNL     1      -3.549   4.533  10.368  1.00  0.00     0.096 C 
HETATM    5  N1  UNL     1      -4.150   3.612   9.962  1.00  0.00    -0.192 NA
ENDROOT
BRANCH   1   6
HETATM    6  S1  UNL     1      -2.395   7.610  12.811  1.00  0.00    -0.128 SA
BRANCH   6   7
HETATM    7  C2  UNL     1      -1.941   7.293  14.504  1.00  0.00     0.075 C 
HETATM    8  C1  UNL     1      -1.892   8.618  15.296  1.00  0.00     0.016 C 
ENDBRANCH   6   7
ENDBRANCH   1   6
BRANCH   1   9
HETATM    9  C7  UNL     1      -4.082   5.432  12.803  1.00  0.00     0.016 A 
HETATM   10  C8  UNL     1      -5.310   5.969  13.114  1.00  0.00     0.121 A 
HETATM   11  N2  UNL     1      -5.941   5.051  13.864  1.00  0.00    -0.307 N 
HETATM   12  N3  UNL     1      -5.152   4.009  14.010  1.00  0.00    -0.271 N 
ATOM     13  H2  UNL     1      -6.878   5.146  14.257  1.00  0.00     0.186 HD
HETATM   14  C14 UNL     1      -3.972   4.197  13.363  1.00  0.00     0.127 A 
BRANCH  12  15
HETATM   15  C9  UNL     1      -5.514   2.838  14.759  1.00  0.00     0.275 C 
HETATM   16  O1  UNL     1      -5.207   3.039  16.117  1.00  0.00    -0.352 OA
HETATM   17  C10 UNL     1      -5.279   1.756  16.680  1.00  0.00     0.179 C 
HETATM   18  C12 UNL     1      -4.902   0.770  15.626  1.00  0.00     0.182 C 
HETATM   19  C13 UNL     1      -4.534   1.695  14.464  1.00  0.00     0.199 C 
BRANCH  17  20
HETATM   20  C11 UNL     1      -6.698   1.593  17.174  1.00  0.00     0.198 C 
BRANCH  20  21
HETATM   21  O2  UNL     1      -7.289   0.414  16.805  1.00  0.00    -0.398 OA
ATOM     22  H2  UNL     1      -7.155  -0.299  17.418  1.00  0.00     0.209 HD
ENDBRANCH  20  21
ENDBRANCH  17  20
BRANCH  18  23
HETATM   23  O3  UNL     1      -3.742   0.069  15.963  1.00  0.00    -0.390 OA
ATOM     24  H3  UNL     1      -2.960   0.521  15.671  1.00  0.00     0.210 HD
ENDBRANCH  18  23
BRANCH  19  25
HETATM   25  O4  UNL     1      -4.757   1.137  13.231  1.00  0.00    -0.388 OA
ATOM     26  H4  UNL     1      -3.952   1.037  12.737  1.00  0.00     0.210 HD
ENDBRANCH  19  25
ENDBRANCH  12  15
ENDBRANCH   1   9
TORSDOF 8
ENDMDL
MODEL 5
REMARK VINA RESULT: -6.455030570      3.170      4.817
REMARK  8 active torsions:
REMARK  status: ('A' for Active; 'I' for Inactive)
REMARK    1  A    between atoms: C2_2  and  S1_3 
REMARK    2  A    between atoms: S1_3  and  C3_4 
REMARK    3  A    between atoms: C3_4  and  C7_9 
REMARK    4  A    between atoms: N3_13  and  C9_14 
REMARK    5  A    between atoms: C10_16  and  C11_17 
REMARK    6  A    between atoms: C11_17  and  O2_18 
REMARK    7  A    between atoms: C12_20  and  O3_21 
REMARK    8  A    between atoms: C13_23  and  O4_24 
ROOT
HETATM    1  C3  UNL     1      -4.179   6.935  11.576  1.00  0.00     0.029 C 
HETATM    2  C4  UNL     1      -3.250   7.635  12.144  1.00  0.00     0.036 C 
HETATM    3  C5  UNL     1      -2.904   9.059  11.881  1.00  0.00     0.062 C 
HETATM    4  C6  UNL     1      -2.383   6.996  13.135  1.00  0.00     0.096 C 
HETATM    5  N1  UNL     1      -1.664   6.503  13.917  1.00  0.00    -0.192 NA
ENDROOT
BRANCH   1   6
HETATM    6  S1  UNL     1      -5.335   7.393  10.324  1.00  0.00    -0.128 SA
BRANCH   6   7
HETATM    7  C2  UNL     1      -6.611   8.487  10.913  1.00  0.00     0.075 C 
HETATM    8  C1  UNL     1      -7.620   7.704  11.782  1.00  0.00     0.016 C 
ENDBRANCH   6   7
ENDBRANCH   1   6
BRANCH   1   9
HETATM    9  C7  UNL     1      -4.342   5.540  12.104  1.00  0.00     0.016 A 
HETATM   10  C8  UNL     1      -3.897   4.449  11.395  1.00  0.00     0.121 A 
HETATM   11  N2  UNL     1      -4.230   3.368  12.120  1.00  0.00    -0.307 N 
HETATM   12  N3  UNL     1      -4.844   3.766  13.213  1.00  0.00    -0.271 N 
ATOM     13  H2  UNL     1      -4.037   2.399  11.866  1.00  0.00     0.186 HD
HETATM   14  C14 UNL     1      -4.941   5.121  13.252  1.00  0.00     0.127 A 
BRANCH  12  15
HETATM   15  C9  UNL     1      -5.338   2.866  14.218  1.00  0.00     0.275 C 
HETATM   16  O1  UNL     1      -5.134   3.430  15.489  1.00  0.00    -0.352 OA
HETATM   17  C10 UNL     1      -5.331   2.360  16.377  1.00  0.00     0.179 C 
HETATM   18  C12 UNL     1      -4.926   1.105  15.678  1.00  0.00     0.182 C 
HETATM   19  C13 UNL     1      -4.407   1.653  14.347  1.00  0.00     0.199 C 
BRANCH  17  20
HETATM   20  C11 UNL     1      -6.793   2.391  16.755  1.00  0.00     0.198 C 
BRANCH  20  21
HETATM   21  O2  UNL     1      -7.389   1.159  16.797  1.00  0.00    -0.398 OA
ATOM     22  H2  UNL     1      -7.373   0.746  17.653  1.00  0.00     0.209 HD
ENDBRANCH  20  21
ENDBRANCH  17  20
BRANCH  18  23
HETATM   23  O3  UNL     1      -3.843   0.488  16.308  1.00  0.00    -0.390 OA
ATOM     24  H3  UNL     1      -3.294   0.021  15.689  1.00  0.00     0.210 HD
ENDBRANCH  18  23
BRANCH  19  25
HETATM   25  O4  UNL     1      -4.558   0.780  13.301  1.00  0.00    -0.388 OA
ATOM     26  H4  UNL     1      -3.874   0.885  12.651  1.00  0.00     0.210 HD
ENDBRANCH  19  25
ENDBRANCH  12  15
ENDBRANCH   1   9
TORSDOF 8
ENDMDL
