MODEL 1
REMARK VINA RESULT: -5.804558480      0.000      0.000
REMARK  1 active torsions:
REMARK  status: ('A' for Active; 'I' for Inactive)
REMARK    1  A    between atoms: C8_12  and  O1_13 
ROOT
HETATM    1  C1  UNL     1     -29.318 -18.910   9.222  1.00  0.00     0.036 C 
HETATM    2  C2  UNL     1     -29.733 -17.547   9.715  1.00  0.00     0.126 A 
HETATM    3  N1  UNL     1     -29.367 -16.500   8.829  1.00  0.00    -0.333 N 
ATOM      4  H1  UNL     1     -29.660 -16.471   7.852  1.00  0.00     0.180 HD
HETATM    5  N2  UNL     1     -28.671 -15.641   9.339  1.00  0.00    -0.328 N 
ATOM      6  H2  UNL     1     -28.318 -14.818   8.851  1.00  0.00     0.180 HD
HETATM    7  C3  UNL     1     -28.421 -15.933  10.687  1.00  0.00     0.073 A 
HETATM    8  C4  UNL     1     -28.870 -14.850  11.640  1.00  0.00     0.035 C 
HETATM    9  C5  UNL     1     -27.849 -13.781  11.414  1.00  0.00     0.003 C 
HETATM   10  C6  UNL     1     -26.606 -14.477  10.880  1.00  0.00     0.003 C 
HETATM   11  C7  UNL     1     -26.933 -15.974  10.975  1.00  0.00     0.035 C 
HETATM   12  C8  UNL     1     -29.114 -17.201  11.029  1.00  0.00     0.171 A 
ENDROOT
BRANCH  12  13
HETATM   13  O1  UNL     1     -30.098 -16.991  12.015  1.00  0.00    -0.391 OA
ATOM     14  H1  UNL     1     -30.634 -16.233  11.809  1.00  0.00     0.210 HD
ENDBRANCH  12  13
TORSDOF 1
ENDMDL
MODEL 2
REMARK VINA RESULT: -5.437665286      1.456      3.708
REMARK  1 active torsions:
REMARK  status: ('A' for Active; 'I' for Inactive)
REMARK    1  A    between atoms: C8_12  and  O1_13 
ROOT
HETATM    1  C1  UNL     1     -27.382 -14.071  10.469  1.00  0.00     0.036 C 
HETATM    2  C2  UNL     1     -27.779 -15.240  11.335  1.00  0.00     0.126 A 
HETATM    3  N1  UNL     1     -27.020 -16.410  11.074  1.00  0.00    -0.333 N 
ATOM      4  H1  UNL     1     -26.002 -16.437  11.136  1.00  0.00     0.180 HD
HETATM    5  N2  UNL     1     -27.692 -17.378  10.768  1.00  0.00    -0.328 N 
ATOM      6  H2  UNL     1     -27.312 -18.298  10.548  1.00  0.00     0.180 HD
HETATM    7  C3  UNL     1     -29.057 -17.058  10.759  1.00  0.00     0.073 A 
HETATM    8  C4  UNL     1     -29.890 -17.913  11.686  1.00  0.00     0.035 C 
HETATM    9  C5  UNL     1     -29.927 -19.223  10.965  1.00  0.00     0.003 C 
HETATM   10  C6  UNL     1     -29.695 -18.914   9.494  1.00  0.00     0.003 C 
HETATM   11  C7  UNL     1     -29.690 -17.381   9.420  1.00  0.00     0.035 C 
HETATM   12  C8  UNL     1     -29.207 -15.632  11.145  1.00  0.00     0.171 A 
ENDROOT
BRANCH  12  13
HETATM   13  O1  UNL     1     -29.934 -15.507  12.346  1.00  0.00    -0.391 OA
ATOM     14  H1  UNL     1     -30.766 -15.961  12.293  1.00  0.00     0.210 HD
ENDBRANCH  12  13
TORSDOF 1
ENDMDL
MODEL 3
REMARK VINA RESULT: -5.341043858      1.969      3.888
REMARK  1 active torsions:
REMARK  status: ('A' for Active; 'I' for Inactive)
REMARK    1  A    between atoms: C8_12  and  O1_13 
ROOT
HETATM    1  C1  UNL     1     -26.203 -14.707  11.184  1.00  0.00     0.036 C 
HETATM    2  C2  UNL     1     -26.949 -15.310  10.021  1.00  0.00     0.126 A 
HETATM    3  N1  UNL     1     -28.313 -14.922   9.974  1.00  0.00    -0.333 N 
ATOM      4  H1  UNL     1     -28.613 -13.947   9.935  1.00  0.00     0.180 HD
HETATM    5  N2  UNL     1     -29.094 -15.856   9.984  1.00  0.00    -0.328 N 
ATOM      6  H2  UNL     1     -30.109 -15.762   9.955  1.00  0.00     0.180 HD
HETATM    7  C3  UNL     1     -28.412 -17.079  10.042  1.00  0.00     0.073 A 
HETATM    8  C4  UNL     1     -28.728 -18.010   8.893  1.00  0.00     0.035 C 
HETATM    9  C5  UNL     1     -30.111 -18.471   9.227  1.00  0.00     0.003 C 
HETATM   10  C6  UNL     1     -30.266 -18.318  10.733  1.00  0.00     0.003 C 
HETATM   11  C7  UNL     1     -28.870 -17.911  11.223  1.00  0.00     0.035 C 
HETATM   12  C8  UNL     1     -26.953 -16.802  10.056  1.00  0.00     0.171 A 
ENDROOT
BRANCH  12  13
HETATM   13  O1  UNL     1     -26.324 -17.340   8.915  1.00  0.00    -0.391 OA
ATOM     14  H1  UNL     1     -26.103 -16.658   8.291  1.00  0.00     0.210 HD
ENDBRANCH  12  13
TORSDOF 1
ENDMDL
MODEL 4
REMARK VINA RESULT: -5.252836003      2.331      2.799
REMARK  1 active torsions:
REMARK  status: ('A' for Active; 'I' for Inactive)
REMARK    1  A    between atoms: C8_12  and  O1_13 
ROOT
HETATM    1  C1  UNL     1     -31.674 -19.360  10.804  1.00  0.00     0.036 C 
HETATM    2  C2  UNL     1     -30.170 -19.255  10.809  1.00  0.00     0.126 A 
HETATM    3  N1  UNL     1     -29.646 -18.830  12.057  1.00  0.00    -0.333 N 
ATOM      4  H1  UNL     1     -29.827 -19.321  12.933  1.00  0.00     0.180 HD
HETATM    5  N2  UNL     1     -28.962 -17.825  11.990  1.00  0.00    -0.328 N 
ATOM      6  H2  UNL     1     -28.507 -17.380  12.787  1.00  0.00     0.180 HD
HETATM    7  C3  UNL     1     -28.882 -17.359  10.670  1.00  0.00     0.073 A 
HETATM    8  C4  UNL     1     -27.470 -17.258  10.142  1.00  0.00     0.035 C 
HETATM    9  C5  UNL     1     -26.943 -16.062  10.868  1.00  0.00     0.003 C 
HETATM   10  C6  UNL     1     -28.151 -15.219  11.248  1.00  0.00     0.003 C 
HETATM   11  C7  UNL     1     -29.336 -15.916  10.565  1.00  0.00     0.035 C 
HETATM   12  C8  UNL     1     -29.661 -18.278   9.801  1.00  0.00     0.171 A 
ENDROOT
BRANCH  12  13
HETATM   13  O1  UNL     1     -28.829 -18.909   8.855  1.00  0.00    -0.391 OA
ATOM     14  H1  UNL     1     -28.473 -18.281   8.238  1.00  0.00     0.210 HD
ENDBRANCH  12  13
TORSDOF 1
ENDMDL
MODEL 5
REMARK VINA RESULT: -5.163163357      2.183      3.768
REMARK  1 active torsions:
REMARK  status: ('A' for Active; 'I' for Inactive)
REMARK    1  A    between atoms: C8_12  and  O1_13 
ROOT
HETATM    1  C1  UNL     1     -28.227 -12.822  11.467  1.00  0.00     0.036 C 
HETATM    2  C2  UNL     1     -29.114 -14.011  11.200  1.00  0.00     0.126 A 
HETATM    3  N1  UNL     1     -29.737 -14.515  12.371  1.00  0.00    -0.333 N 
ATOM      4  H1  UNL     1     -30.326 -13.944  12.977  1.00  0.00     0.180 HD
HETATM    5  N2  UNL     1     -29.505 -15.690  12.588  1.00  0.00    -0.328 N 
ATOM      6  H2  UNL     1     -29.870 -16.214  13.383  1.00  0.00     0.180 HD
HETATM    7  C3  UNL     1     -28.669 -16.227  11.599  1.00  0.00     0.073 A 
HETATM    8  C4  UNL     1     -29.260 -17.417  10.879  1.00  0.00     0.035 C 
HETATM    9  C5  UNL     1     -29.165 -18.495  11.910  1.00  0.00     0.003 C 
HETATM   10  C6  UNL     1     -28.040 -18.094  12.852  1.00  0.00     0.003 C 
HETATM   11  C7  UNL     1     -27.424 -16.845  12.206  1.00  0.00     0.035 C 
HETATM   12  C8  UNL     1     -28.366 -15.161  10.611  1.00  0.00     0.171 A 
ENDROOT
BRANCH  12  13
HETATM   13  O1  UNL     1     -28.867 -15.495   9.336  1.00  0.00    -0.391 OA
ATOM     14  H1  UNL     1     -29.735 -15.134   9.203  1.00  0.00     0.210 HD
ENDBRANCH  12  13
TORSDOF 1
ENDMDL
