MODEL 1
REMARK VINA RESULT: -7.391691843      0.000      0.000
REMARK  7 active torsions:
REMARK  status: ('A' for Active; 'I' for Inactive)
REMARK       I    between atoms: C2_4  and  N2_5 
REMARK       I    between atoms: C2_4  and  N3_16 
REMARK    1  A    between atoms: N2_5  and  C3_7 
REMARK    2  A    between atoms: C3_7  and  C4_8 
REMARK    3  A    between atoms: C5_9  and  C6_10 
REMARK    4  A    between atoms: C6_10  and  C7_11 
REMARK       I    between atoms: N3_16  and  C12_18 
REMARK    5  A    between atoms: C12_18  and  C13_20 
REMARK    6  A    between atoms: C13_20  and  C14_21 
REMARK    7  A    between atoms: C13_20  and  N4_23 
ROOT
HETATM    1  C1  UNL     1       8.152 -11.695   1.201  1.00  0.00     0.165 C 
HETATM    2  N1  UNL     1       7.644 -11.376  -0.108  1.00  0.00    -0.231 N 
ATOM      3  H1  UNL     1       6.655 -11.153  -0.207  1.00  0.00     0.177 HD
HETATM    4  C2  UNL     1       8.389 -11.363  -1.159  1.00  0.00     0.676 C 
HETATM    5  N2  UNL     1       7.724 -11.021  -2.400  1.00  0.00    -0.223 N 
ATOM      6  H2  UNL     1       7.895 -10.129  -2.865  1.00  0.00     0.178 HD
HETATM    7  N3  UNL     1       9.778 -11.662  -1.120  1.00  0.00    -0.158 N 
ATOM      8  H3  UNL     1      10.204 -11.897  -0.224  1.00  0.00     0.187 HD
HETATM    9  C12 UNL     1      10.584 -11.646  -2.265  1.00  0.00     0.259 C 
HETATM   10  O1  UNL     1      10.008 -11.355  -3.360  1.00  0.00    -0.270 OA
ENDROOT
BRANCH   5  11
HETATM   11  C3  UNL     1       6.831 -11.972  -2.944  1.00  0.00     0.165 C 
BRANCH  11  12
HETATM   12  C4  UNL     1       5.414 -11.601  -2.819  1.00  0.00    -0.011 C 
HETATM   13  C5  UNL     1       4.727 -11.681  -1.715  1.00  0.00    -0.029 C 
BRANCH  13  14
HETATM   14  C6  UNL     1       3.299 -11.308  -1.600  1.00  0.00     0.031 C 
BRANCH  14  15
HETATM   15  C7  UNL     1       2.362 -12.269  -2.261  1.00  0.00    -0.011 C 
HETATM   16  C8  UNL     1       1.882 -11.580  -3.543  1.00  0.00     0.005 C 
HETATM   17  C9  UNL     1       0.715 -10.751  -3.113  1.00  0.00     0.000 C 
HETATM   18  C10 UNL     1       0.009 -11.609  -2.087  1.00  0.00     0.000 C 
HETATM   19  C11 UNL     1       1.094 -12.378  -1.416  1.00  0.00     0.005 C 
ENDBRANCH  14  15
ENDBRANCH  13  14
ENDBRANCH  11  12
ENDBRANCH   5  11
BRANCH   9  20
HETATM   20  C13 UNL     1      12.028 -11.929  -2.366  1.00  0.00     0.186 C 
BRANCH  20  21
HETATM   21  C14 UNL     1      12.504 -13.070  -1.509  1.00  0.00     0.120 C 
HETATM   22 BR1  UNL     1      12.302 -14.787  -2.359  1.00  0.00    -0.094 Br
ENDBRANCH  20  21
BRANCH  20  23
HETATM   23  N4  UNL     1      12.827 -10.760  -2.236  1.00  0.00    -0.353 N 
HETATM   24  C15 UNL     1      12.887  -9.823  -1.436  1.00  0.00     0.197 C 
HETATM   25  N5  UNL     1      13.870  -8.801  -1.663  1.00  0.00    -0.067 NA
HETATM   26  N6  UNL     1      12.077  -9.642  -0.296  1.00  0.00    -0.067 NA
ATOM     27  H4  UNL     1      13.516 -10.677  -2.983  1.00  0.00     0.162 HD
ENDBRANCH  20  23
ENDBRANCH   9  20
TORSDOF 7
ENDMDL
MODEL 2
REMARK VINA RESULT: -7.199147206      7.770     10.930
REMARK  7 active torsions:
REMARK  status: ('A' for Active; 'I' for Inactive)
REMARK       I    between atoms: C2_4  and  N2_5 
REMARK       I    between atoms: C2_4  and  N3_16 
REMARK    1  A    between atoms: N2_5  and  C3_7 
REMARK    2  A    between atoms: C3_7  and  C4_8 
REMARK    3  A    between atoms: C5_9  and  C6_10 
REMARK    4  A    between atoms: C6_10  and  C7_11 
REMARK       I    between atoms: N3_16  and  C12_18 
REMARK    5  A    between atoms: C12_18  and  C13_20 
REMARK    6  A    between atoms: C13_20  and  C14_21 
REMARK    7  A    between atoms: C13_20  and  N4_23 
ROOT
HETATM    1  C1  UNL     1       0.734  -7.577   0.870  1.00  0.00     0.165 C 
HETATM    2  N1  UNL     1       1.764  -8.308   1.561  1.00  0.00    -0.231 N 
ATOM      3  H1  UNL     1       2.678  -8.401   1.120  1.00  0.00     0.177 HD
HETATM    4  C2  UNL     1       1.577  -8.849   2.715  1.00  0.00     0.676 C 
HETATM    5  N2  UNL     1       2.715  -9.549   3.276  1.00  0.00    -0.223 N 
ATOM      6  H2  UNL     1       3.224  -9.176   4.078  1.00  0.00     0.178 HD
HETATM    7  N3  UNL     1       0.338  -8.775   3.407  1.00  0.00    -0.158 N 
ATOM      8  H3  UNL     1      -0.436  -8.272   2.974  1.00  0.00     0.187 HD
HETATM    9  C12 UNL     1       0.139  -9.366   4.661  1.00  0.00     0.259 C 
HETATM   10  O1  UNL     1       1.129  -9.989   5.158  1.00  0.00    -0.270 OA
ENDROOT
BRANCH   5  11
HETATM   11  C3  UNL     1       3.092 -10.769   2.671  1.00  0.00     0.165 C 
BRANCH  11  12
HETATM   12  C4  UNL     1       3.425 -10.652   1.244  1.00  0.00    -0.011 C 
HETATM   13  C5  UNL     1       3.028 -11.487   0.325  1.00  0.00    -0.029 C 
BRANCH  13  14
HETATM   14  C6  UNL     1       3.370 -11.362  -1.110  1.00  0.00     0.031 C 
BRANCH  14  15
HETATM   15  C7  UNL     1       2.620 -12.303  -1.999  1.00  0.00    -0.011 C 
HETATM   16  C8  UNL     1       2.243 -11.497  -3.248  1.00  0.00     0.005 C 
HETATM   17  C9  UNL     1       0.957 -10.824  -2.889  1.00  0.00     0.000 C 
HETATM   18  C10 UNL     1       0.212 -11.858  -2.075  1.00  0.00     0.000 C 
HETATM   19  C11 UNL     1       1.271 -12.618  -1.355  1.00  0.00     0.005 C 
ENDBRANCH  14  15
ENDBRANCH  13  14
ENDBRANCH  11  12
ENDBRANCH   5  11
BRANCH   9  20
HETATM   20  C13 UNL     1      -1.083  -9.362   5.486  1.00  0.00     0.186 C 
BRANCH  20  21
HETATM   21  C14 UNL     1      -1.580 -10.728   5.877  1.00  0.00     0.120 C 
HETATM   22 BR1  UNL     1      -1.953 -11.856   4.361  1.00  0.00    -0.094 Br
ENDBRANCH  20  21
BRANCH  20  23
HETATM   23  N4  UNL     1      -2.104  -8.528   4.952  1.00  0.00    -0.353 N 
HETATM   24  C15 UNL     1      -3.078  -7.929   5.414  1.00  0.00     0.197 C 
HETATM   25  N5  UNL     1      -3.895  -7.166   4.511  1.00  0.00    -0.067 NA
HETATM   26  N6  UNL     1      -3.487  -7.910   6.763  1.00  0.00    -0.067 NA
ATOM     27  H4  UNL     1      -2.007  -8.393   3.946  1.00  0.00     0.162 HD
ENDBRANCH  20  23
ENDBRANCH   9  20
TORSDOF 7
ENDMDL
MODEL 3
REMARK VINA RESULT: -7.100085345      7.695     10.700
REMARK  7 active torsions:
REMARK  status: ('A' for Active; 'I' for Inactive)
REMARK       I    between atoms: C2_4  and  N2_5 
REMARK       I    between atoms: C2_4  and  N3_16 
REMARK    1  A    between atoms: N2_5  and  C3_7 
REMARK    2  A    between atoms: C3_7  and  C4_8 
REMARK    3  A    between atoms: C5_9  and  C6_10 
REMARK    4  A    between atoms: C6_10  and  C7_11 
REMARK       I    between atoms: N3_16  and  C12_18 
REMARK    5  A    between atoms: C12_18  and  C13_20 
REMARK    6  A    between atoms: C13_20  and  C14_21 
REMARK    7  A    between atoms: C13_20  and  N4_23 
ROOT
HETATM    1  C1  UNL     1       0.726  -7.526   0.892  1.00  0.00     0.165 C 
HETATM    2  N1  UNL     1       1.790  -8.252   1.536  1.00  0.00    -0.231 N 
ATOM      3  H1  UNL     1       2.733  -8.178   1.157  1.00  0.00     0.177 HD
HETATM    4  C2  UNL     1       1.597  -8.993   2.572  1.00  0.00     0.676 C 
HETATM    5  N2  UNL     1       2.772  -9.657   3.102  1.00  0.00    -0.223 N 
ATOM      6  H2  UNL     1       3.188  -9.371   3.988  1.00  0.00     0.178 HD
HETATM    7  N3  UNL     1       0.320  -9.161   3.172  1.00  0.00    -0.158 N 
ATOM      8  H3  UNL     1      -0.480  -8.674   2.765  1.00  0.00     0.187 HD
HETATM    9  C12 UNL     1       0.115  -9.967   4.297  1.00  0.00     0.259 C 
HETATM   10  O1  UNL     1       1.139 -10.560   4.764  1.00  0.00    -0.270 OA
ENDROOT
BRANCH   5  11
HETATM   11  C3  UNL     1       3.320 -10.715   2.342  1.00  0.00     0.165 C 
BRANCH  11  12
HETATM   12  C4  UNL     1       3.194 -10.536   0.888  1.00  0.00    -0.011 C 
HETATM   13  C5  UNL     1       3.460 -11.460   0.008  1.00  0.00    -0.029 C 
BRANCH  13  14
HETATM   14  C6  UNL     1       3.333 -11.270  -1.455  1.00  0.00     0.031 C 
BRANCH  14  15
HETATM   15  C7  UNL     1       2.447 -12.273  -2.125  1.00  0.00    -0.011 C 
HETATM   16  C8  UNL     1       2.030 -11.645  -3.459  1.00  0.00     0.005 C 
HETATM   17  C9  UNL     1       0.828 -10.818  -3.129  1.00  0.00     0.000 C 
HETATM   18  C10 UNL     1       0.079 -11.645  -2.107  1.00  0.00     0.000 C 
HETATM   19  C11 UNL     1       1.136 -12.368  -1.347  1.00  0.00     0.005 C 
ENDBRANCH  14  15
ENDBRANCH  13  14
ENDBRANCH  11  12
ENDBRANCH   5  11
BRANCH   9  20
HETATM   20  C13 UNL     1      -1.146 -10.224   5.018  1.00  0.00     0.186 C 
BRANCH  20  21
HETATM   21  C14 UNL     1      -1.193  -9.667   6.415  1.00  0.00     0.120 C 
HETATM   22 BR1  UNL     1      -0.600  -7.837   6.518  1.00  0.00    -0.094 Br
ENDBRANCH  20  21
BRANCH  20  23
HETATM   23  N4  UNL     1      -1.555 -11.583   4.943  1.00  0.00    -0.353 N 
HETATM   24  C15 UNL     1      -2.454 -12.198   4.364  1.00  0.00     0.197 C 
HETATM   25  N5  UNL     1      -2.532 -13.620   4.554  1.00  0.00    -0.067 NA
HETATM   26  N6  UNL     1      -3.437 -11.645   3.518  1.00  0.00    -0.067 NA
ATOM     27  H4  UNL     1      -0.962 -12.197   5.502  1.00  0.00     0.162 HD
ENDBRANCH  20  23
ENDBRANCH   9  20
TORSDOF 7
ENDMDL
MODEL 4
REMARK VINA RESULT: -7.099383512      1.594      2.594
REMARK  7 active torsions:
REMARK  status: ('A' for Active; 'I' for Inactive)
REMARK       I    between atoms: C2_4  and  N2_5 
REMARK       I    between atoms: C2_4  and  N3_16 
REMARK    1  A    between atoms: N2_5  and  C3_7 
REMARK    2  A    between atoms: C3_7  and  C4_8 
REMARK    3  A    between atoms: C5_9  and  C6_10 
REMARK    4  A    between atoms: C6_10  and  C7_11 
REMARK       I    between atoms: N3_16  and  C12_18 
REMARK    5  A    between atoms: C12_18  and  C13_20 
REMARK    6  A    between atoms: C13_20  and  C14_21 
REMARK    7  A    between atoms: C13_20  and  N4_23 
ROOT
HETATM    1  C1  UNL     1       6.309 -11.652  -3.893  1.00  0.00     0.165 C 
HETATM    2  N1  UNL     1       5.908 -11.800  -2.518  1.00  0.00    -0.231 N 
ATOM      3  H1  UNL     1       4.916 -11.910  -2.307  1.00  0.00     0.177 HD
HETATM    4  C2  UNL     1       6.750 -11.800  -1.544  1.00  0.00     0.676 C 
HETATM    5  N2  UNL     1       6.185 -11.960  -0.219  1.00  0.00    -0.223 N 
ATOM      6  H2  UNL     1       6.316 -12.821   0.312  1.00  0.00     0.178 HD
HETATM    7  N3  UNL     1       8.150 -11.652  -1.739  1.00  0.00    -0.158 N 
ATOM      8  H3  UNL     1       8.504 -11.541  -2.689  1.00  0.00     0.187 HD
HETATM    9  C12 UNL     1       9.063 -11.651  -0.676  1.00  0.00     0.259 C 
HETATM   10  O1  UNL     1       8.575 -11.783   0.490  1.00  0.00    -0.270 OA
ENDROOT
BRANCH   5  11
HETATM   11  C3  UNL     1       5.446 -10.878   0.309  1.00  0.00     0.165 C 
BRANCH  11  12
HETATM   12  C4  UNL     1       4.022 -11.174   0.525  1.00  0.00    -0.011 C 
HETATM   13  C5  UNL     1       3.130 -11.231  -0.423  1.00  0.00    -0.029 C 
BRANCH  13  14
HETATM   14  C6  UNL     1       1.698 -11.528  -0.195  1.00  0.00     0.031 C 
BRANCH  14  15
HETATM   15  C7  UNL     1       1.049 -12.294  -1.305  1.00  0.00    -0.011 C 
HETATM   16  C8  UNL     1       2.160 -12.599  -2.315  1.00  0.00     0.005 C 
HETATM   17  C9  UNL     1       2.215 -11.390  -3.193  1.00  0.00     0.000 C 
HETATM   18  C10 UNL     1       0.767 -10.984  -3.356  1.00  0.00     0.000 C 
HETATM   19  C11 UNL     1       0.116 -11.356  -2.068  1.00  0.00     0.005 C 
ENDBRANCH  14  15
ENDBRANCH  13  14
ENDBRANCH  11  12
ENDBRANCH   5  11
BRANCH   9  20
HETATM   20  C13 UNL     1      10.530 -11.512  -0.736  1.00  0.00     0.186 C 
BRANCH  20  21
HETATM   21  C14 UNL     1      11.290 -12.779  -0.449  1.00  0.00     0.120 C 
HETATM   22 BR1  UNL     1      11.601 -13.843  -2.025  1.00  0.00    -0.094 Br
ENDBRANCH  20  21
BRANCH  20  23
HETATM   23  N4  UNL     1      11.007 -10.395   0.002  1.00  0.00    -0.353 N 
HETATM   24  C15 UNL     1      11.916  -9.573  -0.140  1.00  0.00     0.197 C 
HETATM   25  N5  UNL     1      12.075  -8.559   0.866  1.00  0.00    -0.067 NA
HETATM   26  N6  UNL     1      12.837  -9.520  -1.206  1.00  0.00    -0.067 NA
ATOM     27  H4  UNL     1      10.467 -10.233   0.853  1.00  0.00     0.162 HD
ENDBRANCH  20  23
ENDBRANCH   9  20
TORSDOF 7
ENDMDL
MODEL 5
REMARK VINA RESULT: -7.094201187      4.046      8.744
REMARK  7 active torsions:
REMARK  status: ('A' for Active; 'I' for Inactive)
REMARK       I    between atoms: C2_4  and  N2_5 
REMARK       I    between atoms: C2_4  and  N3_16 
REMARK    1  A    between atoms: N2_5  and  C3_7 
REMARK    2  A    between atoms: C3_7  and  C4_8 
REMARK    3  A    between atoms: C5_9  and  C6_10 
REMARK    4  A    between atoms: C6_10  and  C7_11 
REMARK       I    between atoms: N3_16  and  C12_18 
REMARK    5  A    between atoms: C12_18  and  C13_20 
REMARK    6  A    between atoms: C13_20  and  C14_21 
REMARK    7  A    between atoms: C13_20  and  N4_23 
ROOT
HETATM    1  C1  UNL     1       5.657 -10.746   4.366  1.00  0.00     0.165 C 
HETATM    2  N1  UNL     1       6.549 -11.257   3.358  1.00  0.00    -0.231 N 
ATOM      3  H1  UNL     1       7.515 -11.457   3.615  1.00  0.00     0.177 HD
HETATM    4  C2  UNL     1       6.175 -11.473   2.144  1.00  0.00     0.676 C 
HETATM    5  N2  UNL     1       7.194 -11.990   1.252  1.00  0.00    -0.223 N 
ATOM      6  H2  UNL     1       7.164 -12.952   0.915  1.00  0.00     0.178 HD
HETATM    7  N3  UNL     1       4.851 -11.224   1.692  1.00  0.00    -0.158 N 
ATOM      8  H3  UNL     1       4.167 -10.859   2.354  1.00  0.00     0.187 HD
HETATM    9  C12 UNL     1       4.450 -11.459   0.371  1.00  0.00     0.259 C 
HETATM   10  O1  UNL     1       5.338 -11.905  -0.421  1.00  0.00    -0.270 OA
ENDROOT
BRANCH   5  11
HETATM   11  C3  UNL     1       8.229 -11.109   0.866  1.00  0.00     0.165 C 
BRANCH  11  12
HETATM   12  C4  UNL     1       9.246 -11.723  -0.001  1.00  0.00    -0.011 C 
HETATM   13  C5  UNL     1       9.166 -11.783  -1.300  1.00  0.00    -0.029 C 
BRANCH  13  14
HETATM   14  C6  UNL     1      10.194 -12.405  -2.164  1.00  0.00     0.031 C 
BRANCH  14  15
HETATM   15  C7  UNL     1      11.224 -13.193  -1.417  1.00  0.00    -0.011 C 
HETATM   16  C8  UNL     1      12.548 -12.443  -1.602  1.00  0.00     0.005 C 
HETATM   17  C9  UNL     1      13.100 -12.962  -2.891  1.00  0.00     0.000 C 
HETATM   18  C10 UNL     1      12.750 -14.433  -2.878  1.00  0.00     0.000 C 
HETATM   19  C11 UNL     1      11.455 -14.515  -2.146  1.00  0.00     0.005 C 
ENDBRANCH  14  15
ENDBRANCH  13  14
ENDBRANCH  11  12
ENDBRANCH   5  11
BRANCH   9  20
HETATM   20  C13 UNL     1       3.118 -11.251  -0.227  1.00  0.00     0.186 C 
BRANCH  20  21
HETATM   21  C14 UNL     1       3.009 -11.657  -1.672  1.00  0.00     0.120 C 
HETATM   22 BR1  UNL     1       1.548 -12.868  -2.006  1.00  0.00    -0.094 Br
ENDBRANCH  20  21
BRANCH  20  23
HETATM   23  N4  UNL     1       2.597  -9.953   0.029  1.00  0.00    -0.353 N 
HETATM   24  C15 UNL     1       1.468  -9.471   0.159  1.00  0.00     0.197 C 
HETATM   25  N5  UNL     1       1.361  -8.062   0.420  1.00  0.00    -0.067 NA
HETATM   26  N6  UNL     1       0.245 -10.167   0.077  1.00  0.00    -0.067 NA
ATOM     27  H4  UNL     1       3.332  -9.253   0.131  1.00  0.00     0.162 HD
ENDBRANCH  20  23
ENDBRANCH   9  20
TORSDOF 7
ENDMDL
