MODEL 1
REMARK VINA RESULT: -4.207875589      0.000      0.000
REMARK  1 active torsions:
REMARK  status: ('A' for Active; 'I' for Inactive)
REMARK    1  A    between atoms: N1_2  and  C2_4 
ROOT
HETATM    1  C2  UNL     1      -0.862 -23.658  -5.680  1.00  0.00     0.177 C 
HETATM    2  N2  UNL     1      -1.069 -22.793  -6.605  1.00  0.00    -0.377 N 
ATOM      3  H21 UNL     1      -2.036 -22.540  -6.809  1.00  0.00     0.158 HD
ATOM      4  H22 UNL     1      -0.327 -22.347  -7.143  1.00  0.00     0.158 HD
HETATM    5  C3  UNL     1      -1.907 -24.286  -4.922  1.00  0.00     0.136 C 
HETATM    6  N3  UNL     1      -2.755 -24.797  -4.327  1.00  0.00    -0.188 NA
ENDROOT
BRANCH   1   7
HETATM    7  N1  UNL     1       0.494 -24.013  -5.393  1.00  0.00    -0.372 N 
HETATM    8  C1  UNL     1       1.489 -22.985  -5.569  1.00  0.00     0.148 C 
ATOM      9  H1  UNL     1       0.745 -24.951  -5.079  1.00  0.00     0.161 HD
ENDBRANCH   1   7
TORSDOF 1
ENDMDL
MODEL 2
REMARK VINA RESULT: -4.207478673      1.122      3.161
REMARK  1 active torsions:
REMARK  status: ('A' for Active; 'I' for Inactive)
REMARK    1  A    between atoms: N1_2  and  C2_4 
ROOT
HETATM    1  C2  UNL     1      -0.459 -23.352  -5.747  1.00  0.00     0.177 C 
HETATM    2  N2  UNL     1      -1.175 -22.766  -6.636  1.00  0.00    -0.377 N 
ATOM      3  H21 UNL     1      -0.697 -22.175  -7.316  1.00  0.00     0.158 HD
ATOM      4  H22 UNL     1      -2.188 -22.857  -6.701  1.00  0.00     0.158 HD
HETATM    5  C3  UNL     1       0.968 -23.223  -5.656  1.00  0.00     0.136 C 
HETATM    6  N3  UNL     1       2.114 -23.102  -5.582  1.00  0.00    -0.188 NA
ENDROOT
BRANCH   1   7
HETATM    7  N1  UNL     1      -1.129 -24.181  -4.793  1.00  0.00    -0.372 N 
HETATM    8  C1  UNL     1      -2.556 -24.324  -4.941  1.00  0.00     0.148 C 
ATOM      9  H1  UNL     1      -0.620 -24.649  -4.043  1.00  0.00     0.161 HD
ENDBRANCH   1   7
TORSDOF 1
ENDMDL
MODEL 3
REMARK VINA RESULT: -4.188032891      1.391      3.357
REMARK  1 active torsions:
REMARK  status: ('A' for Active; 'I' for Inactive)
REMARK    1  A    between atoms: N1_2  and  C2_4 
ROOT
HETATM    1  C2  UNL     1      -0.464 -23.419  -5.678  1.00  0.00     0.177 C 
HETATM    2  N2  UNL     1      -1.110 -24.186  -4.878  1.00  0.00    -0.377 N 
ATOM      3  H21 UNL     1      -0.577 -24.688  -4.169  1.00  0.00     0.158 HD
ATOM      4  H22 UNL     1      -2.121 -24.321  -4.911  1.00  0.00     0.158 HD
HETATM    5  C3  UNL     1       0.958 -23.229  -5.632  1.00  0.00     0.136 C 
HETATM    6  N3  UNL     1       2.104 -23.093  -5.597  1.00  0.00    -0.188 NA
ENDROOT
BRANCH   1   7
HETATM    7  N1  UNL     1      -1.212 -22.714  -6.674  1.00  0.00    -0.372 N 
HETATM    8  C1  UNL     1      -2.584 -23.117  -6.867  1.00  0.00     0.148 C 
ATOM      9  H1  UNL     1      -0.795 -21.961  -7.221  1.00  0.00     0.161 HD
ENDBRANCH   1   7
TORSDOF 1
ENDMDL
MODEL 4
REMARK VINA RESULT: -3.953674131      1.006      2.037
REMARK  1 active torsions:
REMARK  status: ('A' for Active; 'I' for Inactive)
REMARK    1  A    between atoms: N1_2  and  C2_4 
ROOT
HETATM    1  C2  UNL     1      -1.235 -24.010  -5.295  1.00  0.00     0.177 C 
HETATM    2  N2  UNL     1      -1.771 -24.583  -4.280  1.00  0.00    -0.377 N 
ATOM      3  H21 UNL     1      -2.780 -24.492  -4.161  1.00  0.00     0.158 HD
ATOM      4  H22 UNL     1      -1.248 -25.121  -3.589  1.00  0.00     0.158 HD
HETATM    5  C3  UNL     1      -1.972 -23.252  -6.267  1.00  0.00     0.136 C 
HETATM    6  N3  UNL     1      -2.570 -22.632  -7.037  1.00  0.00    -0.188 NA
ENDROOT
BRANCH   1   7
HETATM    7  N1  UNL     1       0.180 -24.137  -5.462  1.00  0.00    -0.372 N 
HETATM    8  C1  UNL     1       0.930 -22.916  -5.624  1.00  0.00     0.148 C 
ATOM      9  H1  UNL     1       0.637 -25.049  -5.466  1.00  0.00     0.161 HD
ENDBRANCH   1   7
TORSDOF 1
ENDMDL
MODEL 5
REMARK VINA RESULT: -3.907621614      4.069      4.666
REMARK  1 active torsions:
REMARK  status: ('A' for Active; 'I' for Inactive)
REMARK    1  A    between atoms: N1_2  and  C2_4 
ROOT
HETATM    1  C2  UNL     1      -3.517 -25.441  -3.530  1.00  0.00     0.177 C 
HETATM    2  N2  UNL     1      -2.525 -25.300  -2.730  1.00  0.00    -0.377 N 
ATOM      3  H21 UNL     1      -1.655 -25.779  -2.963  1.00  0.00     0.158 HD
ATOM      4  H22 UNL     1      -2.555 -24.739  -1.878  1.00  0.00     0.158 HD
HETATM    5  C3  UNL     1      -3.474 -26.230  -4.728  1.00  0.00     0.136 C 
HETATM    6  N3  UNL     1      -3.434 -26.879  -5.683  1.00  0.00    -0.188 NA
ENDROOT
BRANCH   1   7
HETATM    7  N1  UNL     1      -4.737 -24.768  -3.203  1.00  0.00    -0.372 N 
HETATM    8  C1  UNL     1      -5.142 -23.691  -4.073  1.00  0.00     0.148 C 
ATOM      9  H1  UNL     1      -5.294 -25.037  -2.392  1.00  0.00     0.161 HD
ENDBRANCH   1   7
TORSDOF 1
ENDMDL
