MODEL 1
REMARK VINA RESULT: -5.331829401      0.000      0.000
REMARK  3 active torsions:
REMARK  status: ('A' for Active; 'I' for Inactive)
REMARK    1  A    between atoms: C1_4  and  O1_5 
REMARK    2  A    between atoms: C1_4  and  N2_7 
REMARK    3  A    between atoms: C2_9  and  O2_10 
ROOT
HETATM    1  N1  UNL     1       2.110 -21.980  -6.630  1.00  0.00    -0.365 N 
ATOM      2  H11 UNL     1       1.913 -21.989  -7.632  1.00  0.00     0.159 HD
ATOM      3  H12 UNL     1       3.037 -21.734  -6.285  1.00  0.00     0.159 HD
HETATM    4  C1  UNL     1       1.205 -22.272  -5.746  1.00  0.00     0.215 C 
ENDROOT
BRANCH   4   5
HETATM    5  O1  UNL     1       1.470 -22.258  -4.395  1.00  0.00    -0.333 OA
ATOM      6  H1  UNL     1       0.804 -22.048  -3.751  1.00  0.00     0.220 HD
ENDBRANCH   4   5
BRANCH   4   7
HETATM    7  N2  UNL     1      -0.088 -22.614  -6.226  1.00  0.00    -0.314 N 
HETATM    8  C2  UNL     1      -0.649 -23.747  -5.958  1.00  0.00     0.226 C 
ATOM      9  H2  UNL     1      -0.592 -21.940  -6.803  1.00  0.00     0.170 HD
BRANCH   8  10
HETATM   10  O2  UNL     1       0.014 -24.674  -5.182  1.00  0.00    -0.356 OA
ATOM     11  H2  UNL     1       0.339 -25.475  -5.576  1.00  0.00     0.218 HD
ENDBRANCH   8  10
ENDBRANCH   4   7
TORSDOF 3
ENDMDL
MODEL 2
REMARK VINA RESULT: -5.270984275      1.291      1.291
REMARK  3 active torsions:
REMARK  status: ('A' for Active; 'I' for Inactive)
REMARK    1  A    between atoms: C1_4  and  O1_5 
REMARK    2  A    between atoms: C1_4  and  N2_7 
REMARK    3  A    between atoms: C2_9  and  O2_10 
ROOT
HETATM    1  N1  UNL     1       1.407 -22.138  -6.477  1.00  0.00    -0.365 N 
ATOM      2  H11 UNL     1       1.177 -22.539  -7.386  1.00  0.00     0.159 HD
ATOM      3  H12 UNL     1       1.868 -21.231  -6.411  1.00  0.00     0.159 HD
HETATM    4  C1  UNL     1       1.132 -22.747  -5.363  1.00  0.00     0.215 C 
ENDROOT
BRANCH   4   5
HETATM    5  O1  UNL     1       1.442 -22.206  -4.136  1.00  0.00    -0.333 OA
ATOM      6  H1  UNL     1       2.242 -22.425  -3.674  1.00  0.00     0.220 HD
ENDBRANCH   4   5
BRANCH   4   7
HETATM    7  N2  UNL     1       0.490 -24.012  -5.455  1.00  0.00    -0.314 N 
HETATM    8  C2  UNL     1      -0.731 -24.141  -5.859  1.00  0.00     0.226 C 
ATOM      9  H2  UNL     1       1.012 -24.848  -5.192  1.00  0.00     0.170 HD
BRANCH   8  10
HETATM   10  O2  UNL     1      -1.457 -23.025  -6.217  1.00  0.00    -0.356 OA
ATOM     11  H2  UNL     1      -1.199 -22.516  -6.977  1.00  0.00     0.218 HD
ENDBRANCH   8  10
ENDBRANCH   4   7
TORSDOF 3
ENDMDL
MODEL 3
REMARK VINA RESULT: -5.155692655      1.678      1.678
REMARK  3 active torsions:
REMARK  status: ('A' for Active; 'I' for Inactive)
REMARK    1  A    between atoms: C1_4  and  O1_5 
REMARK    2  A    between atoms: C1_4  and  N2_7 
REMARK    3  A    between atoms: C2_9  and  O2_10 
ROOT
HETATM    1  N1  UNL     1       2.685 -23.385  -5.484  1.00  0.00    -0.365 N 
ATOM      2  H11 UNL     1       2.910 -24.345  -5.220  1.00  0.00     0.159 HD
ATOM      3  H12 UNL     1       3.426 -22.713  -5.681  1.00  0.00     0.159 HD
HETATM    4  C1  UNL     1       1.460 -22.966  -5.587  1.00  0.00     0.215 C 
ENDROOT
BRANCH   4   5
HETATM    5  O1  UNL     1       1.156 -21.671  -5.943  1.00  0.00    -0.333 OA
ATOM      6  H1  UNL     1       0.709 -21.076  -5.354  1.00  0.00     0.220 HD
ENDBRANCH   4   5
BRANCH   4   7
HETATM    7  N2  UNL     1       0.427 -23.903  -5.313  1.00  0.00    -0.314 N 
HETATM    8  C2  UNL     1      -0.765 -23.780  -5.798  1.00  0.00     0.226 C 
ATOM      9  H2  UNL     1       0.633 -24.701  -4.712  1.00  0.00     0.170 HD
BRANCH   8  10
HETATM   10  O2  UNL     1      -1.068 -22.708  -6.610  1.00  0.00    -0.356 OA
ATOM     11  H2  UNL     1      -0.935 -21.822  -6.294  1.00  0.00     0.218 HD
ENDBRANCH   8  10
ENDBRANCH   4   7
TORSDOF 3
ENDMDL
MODEL 4
REMARK VINA RESULT: -4.943839539      1.847      3.128
REMARK  3 active torsions:
REMARK  status: ('A' for Active; 'I' for Inactive)
REMARK    1  A    between atoms: C1_4  and  O1_5 
REMARK    2  A    between atoms: C1_4  and  N2_7 
REMARK    3  A    between atoms: C2_9  and  O2_10 
ROOT
HETATM    1  N1  UNL     1      -1.545 -24.151  -4.764  1.00  0.00    -0.365 N 
ATOM      2  H11 UNL     1      -1.231 -24.732  -3.986  1.00  0.00     0.159 HD
ATOM      3  H12 UNL     1      -2.537 -23.956  -4.899  1.00  0.00     0.159 HD
HETATM    4  C1  UNL     1      -0.716 -23.628  -5.615  1.00  0.00     0.215 C 
ENDROOT
BRANCH   4   5
HETATM    5  O1  UNL     1      -1.140 -22.842  -6.663  1.00  0.00    -0.333 OA
ATOM      6  H1  UNL     1      -0.540 -22.308  -7.170  1.00  0.00     0.220 HD
ENDBRANCH   4   5
BRANCH   4   7
HETATM    7  N2  UNL     1       0.667 -23.898  -5.427  1.00  0.00    -0.314 N 
HETATM    8  C2  UNL     1       1.576 -22.991  -5.571  1.00  0.00     0.226 C 
ATOM      9  H2  UNL     1       0.952 -24.843  -5.169  1.00  0.00     0.170 HD
BRANCH   8  10
HETATM   10  O2  UNL     1       1.214 -21.707  -5.922  1.00  0.00    -0.356 OA
ATOM     11  H2  UNL     1       1.748 -20.972  -5.642  1.00  0.00     0.218 HD
ENDBRANCH   8  10
ENDBRANCH   4   7
TORSDOF 3
ENDMDL
MODEL 5
REMARK VINA RESULT: -4.805993746      1.588      2.858
REMARK  3 active torsions:
REMARK  status: ('A' for Active; 'I' for Inactive)
REMARK    1  A    between atoms: C1_4  and  O1_5 
REMARK    2  A    between atoms: C1_4  and  N2_7 
REMARK    3  A    between atoms: C2_9  and  O2_10 
ROOT
HETATM    1  N1  UNL     1      -1.103 -23.009  -6.631  1.00  0.00    -0.365 N 
ATOM      2  H11 UNL     1      -0.454 -22.680  -7.346  1.00  0.00     0.159 HD
ATOM      3  H12 UNL     1      -2.102 -22.824  -6.713  1.00  0.00     0.159 HD
HETATM    4  C1  UNL     1      -0.705 -23.676  -5.591  1.00  0.00     0.215 C 
ENDROOT
BRANCH   4   5
HETATM    5  O1  UNL     1      -1.581 -24.121  -4.626  1.00  0.00    -0.333 OA
ATOM      6  H1  UNL     1      -1.517 -24.989  -4.246  1.00  0.00     0.220 HD
ENDBRANCH   4   5
BRANCH   4   7
HETATM    7  N2  UNL     1       0.688 -23.934  -5.477  1.00  0.00    -0.314 N 
HETATM    8  C2  UNL     1       1.577 -23.007  -5.618  1.00  0.00     0.226 C 
ATOM      9  H2  UNL     1       0.997 -24.885  -5.277  1.00  0.00     0.170 HD
BRANCH   8  10
HETATM   10  O2  UNL     1       1.184 -21.714  -5.890  1.00  0.00    -0.356 OA
ATOM     11  H2  UNL     1       1.827 -21.014  -5.893  1.00  0.00     0.218 HD
ENDBRANCH   8  10
ENDBRANCH   4   7
TORSDOF 3
ENDMDL
