MODEL 1
REMARK VINA RESULT: -6.246811980      0.000      0.000
REMARK  4 active torsions:
REMARK  status: ('A' for Active; 'I' for Inactive)
REMARK    1  A    between atoms: C2_2  and  C4_4 
REMARK    2  A    between atoms: C4_4  and  C5_5 
REMARK    3  A    between atoms: C9_12  and  O4_13 
REMARK    4  A    between atoms: C10_15  and  O5_16 
ROOT
HETATM    1  C5  UNL     1      -3.095  -0.394  21.336  1.00  0.00     0.157 C 
HETATM    2  O1  UNL     1      -2.126  -1.297  20.909  1.00  0.00    -0.343 OA
HETATM    3  C6  UNL     1      -2.811  -2.373  20.355  1.00  0.00     0.217 C 
HETATM    4  C7  UNL     1      -2.997  -2.138  18.870  1.00  0.00     0.241 C 
HETATM    5  O2  UNL     1      -1.708  -2.419  18.412  1.00  0.00    -0.361 OA
HETATM    6  C8  UNL     1      -1.334  -3.529  19.155  1.00  0.00     0.341 C 
HETATM    7  O3  UNL     1      -1.996  -3.477  20.362  1.00  0.00    -0.326 OA
HETATM    8  C9  UNL     1      -4.091  -2.523  21.096  1.00  0.00     0.214 C 
HETATM    9  C10 UNL     1      -4.095  -1.308  22.005  1.00  0.00     0.181 C 
ENDROOT
BRANCH   1  10
HETATM   10  C4  UNL     1      -2.430   0.533  22.327  1.00  0.00     0.038 C 
BRANCH  10  11
HETATM   11  C2  UNL     1      -1.415  -0.168  23.192  1.00  0.00    -0.020 C 
HETATM   12  C1  UNL     1      -0.120   0.611  23.086  1.00  0.00     0.009 C 
HETATM   13  C3  UNL     1      -1.830  -0.207  24.641  1.00  0.00     0.009 C 
ENDBRANCH  10  11
ENDBRANCH   1  10
BRANCH   9  14
HETATM   14  O5  UNL     1      -5.361  -0.725  22.058  1.00  0.00    -0.390 OA
ATOM     15  H5  UNL     1      -6.025  -1.361  22.295  1.00  0.00     0.210 HD
ENDBRANCH   9  14
BRANCH   8  16
HETATM   16  O4  UNL     1      -4.136  -3.678  21.882  1.00  0.00    -0.387 OA
ATOM     17  H4  UNL     1      -4.932  -3.747  22.395  1.00  0.00     0.210 HD
ENDBRANCH   8  16
TORSDOF 4
ENDMDL
MODEL 2
REMARK VINA RESULT: -6.145665304      2.404      3.873
REMARK  4 active torsions:
REMARK  status: ('A' for Active; 'I' for Inactive)
REMARK    1  A    between atoms: C2_2  and  C4_4 
REMARK    2  A    between atoms: C4_4  and  C5_5 
REMARK    3  A    between atoms: C9_12  and  O4_13 
REMARK    4  A    between atoms: C10_15  and  O5_16 
ROOT
HETATM    1  C5  UNL     1      -2.109  -0.152  24.255  1.00  0.00     0.157 C 
HETATM    2  O1  UNL     1      -2.685  -0.901  23.233  1.00  0.00    -0.343 OA
HETATM    3  C6  UNL     1      -2.195  -0.379  22.041  1.00  0.00     0.217 C 
HETATM    4  C7  UNL     1      -0.938  -1.128  21.644  1.00  0.00     0.241 C 
HETATM    5  O2  UNL     1      -1.497  -2.315  21.169  1.00  0.00    -0.361 OA
HETATM    6  C8  UNL     1      -2.608  -1.889  20.457  1.00  0.00     0.341 C 
HETATM    7  O3  UNL     1      -3.049  -0.710  21.019  1.00  0.00    -0.326 OA
HETATM    8  C9  UNL     1      -1.979   1.078  22.241  1.00  0.00     0.214 C 
HETATM    9  C10 UNL     1      -2.252   1.255  23.723  1.00  0.00     0.181 C 
ENDROOT
BRANCH   1  10
HETATM   10  C4  UNL     1      -2.948  -0.373  25.492  1.00  0.00     0.038 C 
BRANCH  10  11
HETATM   11  C2  UNL     1      -4.284   0.319  25.424  1.00  0.00    -0.020 C 
HETATM   12  C1  UNL     1      -5.347  -0.733  25.662  1.00  0.00     0.009 C 
HETATM   13  C3  UNL     1      -4.428   1.387  26.479  1.00  0.00     0.009 C 
ENDBRANCH  10  11
ENDBRANCH   1  10
BRANCH   9  14
HETATM   14  O5  UNL     1      -1.322   2.116  24.306  1.00  0.00    -0.390 OA
ATOM     15  H5  UNL     1      -1.516   3.023  24.103  1.00  0.00     0.210 HD
ENDBRANCH   9  14
BRANCH   8  16
HETATM   16  O4  UNL     1      -2.874   1.868  21.516  1.00  0.00    -0.387 OA
ATOM     17  H4  UNL     1      -2.541   2.740  21.339  1.00  0.00     0.210 HD
ENDBRANCH   8  16
TORSDOF 4
ENDMDL
MODEL 3
REMARK VINA RESULT: -6.124472647      1.698      4.464
REMARK  4 active torsions:
REMARK  status: ('A' for Active; 'I' for Inactive)
REMARK    1  A    between atoms: C2_2  and  C4_4 
REMARK    2  A    between atoms: C4_4  and  C5_5 
REMARK    3  A    between atoms: C9_12  and  O4_13 
REMARK    4  A    between atoms: C10_15  and  O5_16 
ROOT
HETATM    1  C5  UNL     1      -3.410  -1.407  21.018  1.00  0.00     0.157 C 
HETATM    2  O1  UNL     1      -2.562  -0.308  21.116  1.00  0.00    -0.343 OA
HETATM    3  C6  UNL     1      -2.893   0.337  22.303  1.00  0.00     0.217 C 
HETATM    4  C7  UNL     1      -2.032  -0.206  23.425  1.00  0.00     0.241 C 
HETATM    5  O2  UNL     1      -0.823   0.430  23.140  1.00  0.00    -0.361 OA
HETATM    6  C8  UNL     1      -1.209   1.713  22.780  1.00  0.00     0.341 C 
HETATM    7  O3  UNL     1      -2.474   1.642  22.238  1.00  0.00    -0.326 OA
HETATM    8  C9  UNL     1      -4.350   0.148  22.528  1.00  0.00     0.214 C 
HETATM    9  C10 UNL     1      -4.739  -0.808  21.416  1.00  0.00     0.181 C 
ENDROOT
BRANCH   1  10
HETATM   10  C4  UNL     1      -3.401  -1.845  19.571  1.00  0.00     0.038 C 
BRANCH  10  11
HETATM   11  C2  UNL     1      -2.065  -2.384  19.132  1.00  0.00    -0.020 C 
HETATM   12  C1  UNL     1      -1.729  -3.547  20.043  1.00  0.00     0.009 C 
HETATM   13  C3  UNL     1      -2.092  -2.886  17.711  1.00  0.00     0.009 C 
ENDBRANCH  10  11
ENDBRANCH   1  10
BRANCH   9  14
HETATM   14  O5  UNL     1      -5.619  -1.786  21.878  1.00  0.00    -0.390 OA
ATOM     15  H5  UNL     1      -6.388  -1.397  22.278  1.00  0.00     0.210 HD
ENDBRANCH   9  14
BRANCH   8  16
HETATM   16  O4  UNL     1      -5.083   1.329  22.388  1.00  0.00    -0.387 OA
ATOM     17  H4  UNL     1      -5.462   1.630  23.205  1.00  0.00     0.210 HD
ENDBRANCH   8  16
TORSDOF 4
ENDMDL
MODEL 4
REMARK VINA RESULT: -6.118219935      2.406      5.026
REMARK  4 active torsions:
REMARK  status: ('A' for Active; 'I' for Inactive)
REMARK    1  A    between atoms: C2_2  and  C4_4 
REMARK    2  A    between atoms: C4_4  and  C5_5 
REMARK    3  A    between atoms: C9_12  and  O4_13 
REMARK    4  A    between atoms: C10_15  and  O5_16 
ROOT
HETATM    1  C5  UNL     1      -3.175  -0.638  21.969  1.00  0.00     0.157 C 
HETATM    2  O1  UNL     1      -3.334  -1.305  23.181  1.00  0.00    -0.343 OA
HETATM    3  C6  UNL     1      -3.848  -0.374  24.076  1.00  0.00     0.217 C 
HETATM    4  C7  UNL     1      -5.362  -0.433  24.045  1.00  0.00     0.241 C 
HETATM    5  O2  UNL     1      -5.579  -1.604  24.773  1.00  0.00    -0.361 OA
HETATM    6  C8  UNL     1      -4.656  -1.520  25.805  1.00  0.00     0.341 C 
HETATM    7  O3  UNL     1      -3.580  -0.785  25.357  1.00  0.00    -0.326 OA
HETATM    8  C9  UNL     1      -3.300   0.957  23.708  1.00  0.00     0.214 C 
HETATM    9  C10 UNL     1      -2.560   0.668  22.415  1.00  0.00     0.181 C 
ENDROOT
BRANCH   1  10
HETATM   10  C4  UNL     1      -2.216  -1.456  21.136  1.00  0.00     0.038 C 
BRANCH  10  11
HETATM   11  C2  UNL     1      -2.913  -2.485  20.285  1.00  0.00    -0.020 C 
HETATM   12  C1  UNL     1      -3.910  -1.748  19.415  1.00  0.00     0.009 C 
HETATM   13  C3  UNL     1      -1.955  -3.226  19.386  1.00  0.00     0.009 C 
ENDBRANCH  10  11
ENDBRANCH   1  10
BRANCH   9  14
HETATM   14  O5  UNL     1      -2.774   1.677  21.476  1.00  0.00    -0.390 OA
ATOM     15  H5  UNL     1      -3.539   2.196  21.695  1.00  0.00     0.210 HD
ENDBRANCH   9  14
BRANCH   8  16
HETATM   16  O4  UNL     1      -2.393   1.454  24.648  1.00  0.00    -0.387 OA
ATOM     17  H4  UNL     1      -1.645   0.884  24.779  1.00  0.00     0.210 HD
ENDBRANCH   8  16
TORSDOF 4
ENDMDL
MODEL 5
REMARK VINA RESULT: -6.061985310      1.043      1.115
REMARK  4 active torsions:
REMARK  status: ('A' for Active; 'I' for Inactive)
REMARK    1  A    between atoms: C2_2  and  C4_4 
REMARK    2  A    between atoms: C4_4  and  C5_5 
REMARK    3  A    between atoms: C9_12  and  O4_13 
REMARK    4  A    between atoms: C10_15  and  O5_16 
ROOT
HETATM    1  C5  UNL     1      -4.126  -0.670  22.132  1.00  0.00     0.157 C 
HETATM    2  O1  UNL     1      -3.062  -1.329  21.523  1.00  0.00    -0.343 OA
HETATM    3  C6  UNL     1      -3.593  -2.478  20.946  1.00  0.00     0.217 C 
HETATM    4  C7  UNL     1      -4.000  -2.181  19.517  1.00  0.00     0.241 C 
HETATM    5  O2  UNL     1      -2.747  -2.165  18.902  1.00  0.00    -0.361 OA
HETATM    6  C8  UNL     1      -2.081  -3.228  19.494  1.00  0.00     0.341 C 
HETATM    7  O3  UNL     1      -2.588  -3.396  20.764  1.00  0.00    -0.326 OA
HETATM    8  C9  UNL     1      -4.721  -2.933  21.801  1.00  0.00     0.214 C 
HETATM    9  C10 UNL     1      -4.845  -1.811  22.814  1.00  0.00     0.181 C 
ENDROOT
BRANCH   1  10
HETATM   10  C4  UNL     1      -3.533   0.298  23.129  1.00  0.00     0.038 C 
BRANCH  10  11
HETATM   11  C2  UNL     1      -2.036   0.174  23.245  1.00  0.00    -0.020 C 
HETATM   12  C1  UNL     1      -1.447   1.535  22.934  1.00  0.00     0.009 C 
HETATM   13  C3  UNL     1      -1.602  -0.226  24.633  1.00  0.00     0.009 C 
ENDBRANCH  10  11
ENDBRANCH   1  10
BRANCH   9  14
HETATM   14  O5  UNL     1      -6.182  -1.497  23.056  1.00  0.00    -0.390 OA
ATOM     15  H5  UNL     1      -6.567  -1.036  22.319  1.00  0.00     0.210 HD
ENDBRANCH   9  14
BRANCH   8  16
HETATM   16  O4  UNL     1      -4.449  -4.126  22.476  1.00  0.00    -0.387 OA
ATOM     17  H4  UNL     1      -4.924  -4.869  22.123  1.00  0.00     0.210 HD
ENDBRANCH   8  16
TORSDOF 4
ENDMDL
