MODEL 1
REMARK VINA RESULT: -5.833903034      0.000      0.000
REMARK  4 active torsions:
REMARK  status: ('A' for Active; 'I' for Inactive)
REMARK    1  A    between atoms: O1_2  and  C2_3 
REMARK    2  A    between atoms: C3_4  and  O2_5 
REMARK    3  A    between atoms: C8_13  and  O5_14 
REMARK    4  A    between atoms: C8_13  and  O6_16 
ROOT
HETATM    1  C2  UNL     1      -1.853   0.056  22.346  1.00  0.00     0.214 C 
HETATM    2  C3  UNL     1      -3.201  -0.558  22.351  1.00  0.00     0.184 C 
HETATM    3  C4  UNL     1      -3.973  -0.627  23.599  1.00  0.00     0.184 C 
HETATM    4  O3  UNL     1      -4.147  -1.953  24.073  1.00  0.00    -0.356 OA
HETATM    5  C5  UNL     1      -4.764  -1.667  25.293  1.00  0.00     0.339 C 
HETATM    6  O4  UNL     1      -4.010  -0.645  25.857  1.00  0.00    -0.359 OA
HETATM    7  C6  UNL     1      -3.401   0.028  24.799  1.00  0.00     0.161 C 
HETATM    8  C7  UNL     1      -1.932  -0.298  24.833  1.00  0.00     0.106 C 
HETATM    9  C8  UNL     1      -1.245   0.376  23.659  1.00  0.00     0.192 C 
ENDROOT
BRANCH   9  10
HETATM   10  O5  UNL     1       0.094  -0.073  23.776  1.00  0.00    -0.363 OA
ATOM     11  H5  UNL     1       0.174  -0.879  24.272  1.00  0.00     0.213 HD
ENDBRANCH   9  10
BRANCH   9  12
HETATM   12  O6  UNL     1      -1.217   1.723  23.988  1.00  0.00    -0.358 OA
HETATM   13  C9  UNL     1      -1.136   2.605  22.960  1.00  0.00     0.205 C 
ENDBRANCH   9  12
BRANCH   1  14
HETATM   14  O1  UNL     1      -0.900  -0.718  21.644  1.00  0.00    -0.383 OA
HETATM   15  C1  UNL     1      -1.404  -1.781  20.981  1.00  0.00     0.202 C 
ENDBRANCH   1  14
BRANCH   2  16
HETATM   16  O2  UNL     1      -4.027   0.094  21.400  1.00  0.00    -0.390 OA
ATOM     17  H2  UNL     1      -4.870   0.293  21.789  1.00  0.00     0.210 HD
ENDBRANCH   2  16
TORSDOF 4
ENDMDL
MODEL 2
REMARK VINA RESULT: -5.790797485      1.541      3.940
REMARK  4 active torsions:
REMARK  status: ('A' for Active; 'I' for Inactive)
REMARK    1  A    between atoms: O1_2  and  C2_3 
REMARK    2  A    between atoms: C3_4  and  O2_5 
REMARK    3  A    between atoms: C8_13  and  O5_14 
REMARK    4  A    between atoms: C8_13  and  O6_16 
ROOT
HETATM    1  C2  UNL     1      -3.473  -1.177  21.484  1.00  0.00     0.214 C 
HETATM    2  C3  UNL     1      -2.109  -0.600  21.521  1.00  0.00     0.184 C 
HETATM    3  C4  UNL     1      -1.614   0.036  22.749  1.00  0.00     0.184 C 
HETATM    4  O3  UNL     1      -1.432   1.437  22.617  1.00  0.00    -0.356 OA
HETATM    5  C5  UNL     1      -1.111   1.739  23.942  1.00  0.00     0.339 C 
HETATM    6  O4  UNL     1      -2.048   1.063  24.712  1.00  0.00    -0.359 OA
HETATM    7  C6  UNL     1      -2.476  -0.025  23.952  1.00  0.00     0.161 C 
HETATM    8  C7  UNL     1      -3.887   0.254  23.508  1.00  0.00     0.106 C 
HETATM    9  C8  UNL     1      -4.367  -0.888  22.630  1.00  0.00     0.192 C 
ENDROOT
BRANCH   9  10
HETATM   10  O5  UNL     1      -5.659  -0.460  22.233  1.00  0.00    -0.363 OA
ATOM     11  H5  UNL     1      -5.692   0.462  22.008  1.00  0.00     0.213 HD
ENDBRANCH   9  10
BRANCH   9  12
HETATM   12  O6  UNL     1      -4.576  -1.946  23.503  1.00  0.00    -0.358 OA
HETATM   13  C9  UNL     1      -5.423  -2.922  23.092  1.00  0.00     0.205 C 
ENDBRANCH   9  12
BRANCH   1  14
HETATM   14  O1  UNL     1      -4.190  -0.818  20.319  1.00  0.00    -0.383 OA
HETATM   15  C1  UNL     1      -4.177  -1.741  19.333  1.00  0.00     0.202 C 
ENDBRANCH   1  14
BRANCH   2  16
HETATM   16  O2  UNL     1      -1.160  -1.592  21.166  1.00  0.00    -0.390 OA
ATOM     17  H2  UNL     1      -0.303  -1.195  21.067  1.00  0.00     0.210 HD
ENDBRANCH   2  16
TORSDOF 4
ENDMDL
MODEL 3
REMARK VINA RESULT: -5.724778024      1.439      3.463
REMARK  4 active torsions:
REMARK  status: ('A' for Active; 'I' for Inactive)
REMARK    1  A    between atoms: O1_2  and  C2_3 
REMARK    2  A    between atoms: C3_4  and  O2_5 
REMARK    3  A    between atoms: C8_13  and  O5_14 
REMARK    4  A    between atoms: C8_13  and  O6_16 
ROOT
HETATM    1  C2  UNL     1      -2.727   0.045  24.496  1.00  0.00     0.214 C 
HETATM    2  C3  UNL     1      -3.911  -0.822  24.283  1.00  0.00     0.184 C 
HETATM    3  C4  UNL     1      -4.330  -1.170  22.919  1.00  0.00     0.184 C 
HETATM    4  O3  UNL     1      -5.575  -0.595  22.555  1.00  0.00    -0.356 OA
HETATM    5  C5  UNL     1      -5.608  -0.985  21.215  1.00  0.00     0.339 C 
HETATM    6  O4  UNL     1      -4.346  -0.692  20.713  1.00  0.00    -0.359 OA
HETATM    7  C6  UNL     1      -3.472  -0.721  21.799  1.00  0.00     0.161 C 
HETATM    8  C7  UNL     1      -3.057   0.697  22.091  1.00  0.00     0.106 C 
HETATM    9  C8  UNL     1      -2.145   0.707  23.305  1.00  0.00     0.192 C 
ENDROOT
BRANCH   9  10
HETATM   10  O5  UNL     1      -1.899   2.089  23.503  1.00  0.00    -0.363 OA
ATOM     11  H5  UNL     1      -1.425   2.489  22.783  1.00  0.00     0.213 HD
ENDBRANCH   9  10
BRANCH   9  12
HETATM   12  O6  UNL     1      -0.946   0.175  22.855  1.00  0.00    -0.358 OA
HETATM   13  C9  UNL     1       0.186   0.615  23.460  1.00  0.00     0.205 C 
ENDBRANCH   9  12
BRANCH   1  14
HETATM   14  O1  UNL     1      -2.958   1.064  25.448  1.00  0.00    -0.383 OA
HETATM   15  C1  UNL     1      -4.241   1.193  25.848  1.00  0.00     0.202 C 
ENDBRANCH   1  14
BRANCH   2  16
HETATM   16  O2  UNL     1      -3.740  -2.045  24.981  1.00  0.00    -0.390 OA
ATOM     17  H2  UNL     1      -2.844  -2.345  24.887  1.00  0.00     0.210 HD
ENDBRANCH   2  16
TORSDOF 4
ENDMDL
MODEL 4
REMARK VINA RESULT: -5.701560377      1.033      1.160
REMARK  4 active torsions:
REMARK  status: ('A' for Active; 'I' for Inactive)
REMARK    1  A    between atoms: O1_2  and  C2_3 
REMARK    2  A    between atoms: C3_4  and  O2_5 
REMARK    3  A    between atoms: C8_13  and  O5_14 
REMARK    4  A    between atoms: C8_13  and  O6_16 
ROOT
HETATM    1  C2  UNL     1      -2.744  -0.635  21.570  1.00  0.00     0.214 C 
HETATM    2  C3  UNL     1      -3.928  -1.290  22.172  1.00  0.00     0.184 C 
HETATM    3  C4  UNL     1      -4.332  -0.958  23.546  1.00  0.00     0.184 C 
HETATM    4  O3  UNL     1      -4.162  -2.036  24.452  1.00  0.00    -0.356 OA
HETATM    5  C5  UNL     1      -4.484  -1.373  25.638  1.00  0.00     0.339 C 
HETATM    6  O4  UNL     1      -3.787  -0.172  25.591  1.00  0.00    -0.359 OA
HETATM    7  C6  UNL     1      -3.586   0.117  24.242  1.00  0.00     0.161 C 
HETATM    8  C7  UNL     1      -2.124  -0.084  23.943  1.00  0.00     0.106 C 
HETATM    9  C8  UNL     1      -1.880   0.170  22.466  1.00  0.00     0.192 C 
ENDROOT
BRANCH   9  10
HETATM   10  O5  UNL     1      -0.501  -0.124  22.319  1.00  0.00    -0.363 OA
ATOM     11  H5  UNL     1      -0.265  -0.364  21.430  1.00  0.00     0.213 HD
ENDBRANCH   9  10
BRANCH   9  12
HETATM   12  O6  UNL     1      -1.987   1.544  22.317  1.00  0.00    -0.358 OA
HETATM   13  C9  UNL     1      -1.109   2.307  23.016  1.00  0.00     0.205 C 
ENDBRANCH   9  12
BRANCH   1  14
HETATM   14  O1  UNL     1      -1.891  -1.547  20.907  1.00  0.00    -0.383 OA
HETATM   15  C1  UNL     1      -2.510  -2.394  20.056  1.00  0.00     0.202 C 
ENDBRANCH   1  14
BRANCH   2  16
HETATM   16  O2  UNL     1      -5.065  -1.072  21.352  1.00  0.00    -0.390 OA
ATOM     17  H2  UNL     1      -5.328  -1.890  20.945  1.00  0.00     0.210 HD
ENDBRANCH   2  16
TORSDOF 4
ENDMDL
MODEL 5
REMARK VINA RESULT: -5.650003832      1.678      3.923
REMARK  4 active torsions:
REMARK  status: ('A' for Active; 'I' for Inactive)
REMARK    1  A    between atoms: O1_2  and  C2_3 
REMARK    2  A    between atoms: C3_4  and  O2_5 
REMARK    3  A    between atoms: C8_13  and  O5_14 
REMARK    4  A    between atoms: C8_13  and  O6_16 
ROOT
HETATM    1  C2  UNL     1      -4.379   0.353  23.212  1.00  0.00     0.214 C 
HETATM    2  C3  UNL     1      -3.344  -0.280  22.362  1.00  0.00     0.184 C 
HETATM    3  C4  UNL     1      -1.959  -0.379  22.842  1.00  0.00     0.184 C 
HETATM    4  O3  UNL     1      -1.054   0.429  22.106  1.00  0.00    -0.356 OA
HETATM    5  C5  UNL     1       0.092   0.226  22.875  1.00  0.00     0.339 C 
HETATM    6  O4  UNL     1      -0.317   0.378  24.194  1.00  0.00    -0.359 OA
HETATM    7  C6  UNL     1      -1.676   0.071  24.225  1.00  0.00     0.161 C 
HETATM    8  C7  UNL     1      -2.431   1.355  24.444  1.00  0.00     0.106 C 
HETATM    9  C8  UNL     1      -3.921   1.064  24.429  1.00  0.00     0.192 C 
ENDROOT
BRANCH   9  10
HETATM   10  O5  UNL     1      -4.496   2.353  24.569  1.00  0.00    -0.363 OA
ATOM     11  H5  UNL     1      -5.348   2.336  24.990  1.00  0.00     0.213 HD
ENDBRANCH   9  10
BRANCH   9  12
HETATM   12  O6  UNL     1      -4.170   0.412  25.627  1.00  0.00    -0.358 OA
HETATM   13  C9  UNL     1      -5.155  -0.521  25.625  1.00  0.00     0.205 C 
ENDBRANCH   9  12
BRANCH   1  14
HETATM   14  O1  UNL     1      -5.192   1.265  22.499  1.00  0.00    -0.383 OA
HETATM   15  C1  UNL     1      -6.470   0.869  22.315  1.00  0.00     0.202 C 
ENDBRANCH   1  14
BRANCH   2  16
HETATM   16  O2  UNL     1      -3.747  -1.594  22.014  1.00  0.00    -0.390 OA
ATOM     17  H2  UNL     1      -2.983  -2.125  21.826  1.00  0.00     0.210 HD
ENDBRANCH   2  16
TORSDOF 4
ENDMDL
