MODEL 1
REMARK VINA RESULT: -7.429554301      0.000      0.000
REMARK  9 active torsions:
REMARK  status: ('A' for Active; 'I' for Inactive)
REMARK    1  A    between atoms: C2_2  and  C3_3 
REMARK    2  A    between atoms: C3_3  and  C4_4 
REMARK    3  A    between atoms: C4_4  and  C5_5 
REMARK    4  A    between atoms: C5_5  and  C6_6 
REMARK    5  A    between atoms: C6_6  and  C7_7 
REMARK    6  A    between atoms: C7_7  and  O1_8 
REMARK    7  A    between atoms: O1_8  and  C8_9 
REMARK    8  A    between atoms: N2_14  and  C11_15 
REMARK    9  A    between atoms: C14_23  and  N5_24 
ROOT
HETATM    1  C11 UNL     1      -2.212   3.280  11.809  1.00  0.00     0.087 C 
HETATM    2  N3  UNL     1      -2.980   2.456  12.440  1.00  0.00    -0.343 N 
ATOM      3  H3  UNL     1      -3.298   2.603  13.398  1.00  0.00     0.163 HD
HETATM    4  C12 UNL     1      -3.338   1.310  11.650  1.00  0.00     0.258 C 
HETATM    5  C13 UNL     1      -4.637   1.441  10.925  1.00  0.00     0.301 C 
HETATM    6  N4  UNL     1      -4.905   0.048  10.546  1.00  0.00    -0.018 N 
ATOM      7  H41 UNL     1      -4.489  -0.233   9.658  1.00  0.00     0.281 HD
ATOM      8  H42 UNL     1      -5.871  -0.136  10.277  1.00  0.00     0.281 HD
HETATM    9  C14 UNL     1      -4.452  -0.708  11.673  1.00  0.00     0.580 C 
HETATM   10  N6  UNL     1      -3.470   0.094  12.380  1.00  0.00     0.010 N 
ATOM     11  H61 UNL     1      -3.697   0.236  13.364  1.00  0.00     0.285 HD
ATOM     12  H62 UNL     1      -2.583  -0.388  12.524  1.00  0.00     0.285 HD
HETATM   13  C15 UNL     1      -2.179   1.263  10.636  1.00  0.00     0.235 C 
HETATM   14  F1  UNL     1      -1.047   0.761  11.218  1.00  0.00    -0.244 F 
HETATM   15  C16 UNL     1      -1.976   2.746  10.449  1.00  0.00     0.118 C 
ENDROOT
BRANCH   1  16
HETATM   16  N2  UNL     1      -1.670   4.508  12.288  1.00  0.00    -0.301 N 
HETATM   17  C8  UNL     1      -1.981   5.170  13.493  1.00  0.00     0.223 A 
HETATM   18  N1  UNL     1      -1.294   6.271  13.592  1.00  0.00    -0.354 N 
HETATM   19  C9  UNL     1      -0.436   6.481  12.463  1.00  0.00     0.143 A 
ATOM     20  H1  UNL     1      -1.359   6.912  14.384  1.00  0.00     0.163 HD
HETATM   21  C10 UNL     1      -0.685   5.279  11.578  1.00  0.00     0.153 A 
BRANCH  17  22
HETATM   22  O1  UNL     1      -2.877   4.785  14.495  1.00  0.00    -0.322 OA
BRANCH  22  23
HETATM   23  C7  UNL     1      -4.066   5.545  14.705  1.00  0.00     0.178 C 
BRANCH  23  24
HETATM   24  C6  UNL     1      -5.208   4.752  14.166  1.00  0.00     0.027 C 
BRANCH  24  25
HETATM   25  C5  UNL     1      -6.208   4.364  15.232  1.00  0.00     0.002 C 
BRANCH  25  26
HETATM   26  C4  UNL     1      -6.196   2.893  15.515  1.00  0.00     0.000 C 
BRANCH  26  27
HETATM   27  C3  UNL     1      -6.927   2.621  16.805  1.00  0.00    -0.000 C 
BRANCH  27  28
HETATM   28  C2  UNL     1      -7.219   1.139  16.993  1.00  0.00    -0.005 C 
HETATM   29  C1  UNL     1      -5.977   0.365  17.357  1.00  0.00     0.005 C 
ENDBRANCH  27  28
ENDBRANCH  26  27
ENDBRANCH  25  26
ENDBRANCH  24  25
ENDBRANCH  23  24
ENDBRANCH  22  23
ENDBRANCH  17  22
ENDBRANCH   1  16
BRANCH   9  30
HETATM   30  N5  UNL     1      -3.797  -1.945  11.298  1.00  0.00    -0.026 N 
ATOM     31  H53 UNL     1      -3.611  -1.969  10.295  1.00  0.00     0.278 HD
ATOM     32  H52 UNL     1      -2.838  -1.968  11.645  1.00  0.00     0.278 HD
ATOM     33  H51 UNL     1      -4.312  -2.774  11.594  1.00  0.00     0.278 HD
ENDBRANCH   9  30
TORSDOF 9
ENDMDL
MODEL 2
REMARK VINA RESULT: -7.230094593      0.801      1.064
REMARK  9 active torsions:
REMARK  status: ('A' for Active; 'I' for Inactive)
REMARK    1  A    between atoms: C2_2  and  C3_3 
REMARK    2  A    between atoms: C3_3  and  C4_4 
REMARK    3  A    between atoms: C4_4  and  C5_5 
REMARK    4  A    between atoms: C5_5  and  C6_6 
REMARK    5  A    between atoms: C6_6  and  C7_7 
REMARK    6  A    between atoms: C7_7  and  O1_8 
REMARK    7  A    between atoms: O1_8  and  C8_9 
REMARK    8  A    between atoms: N2_14  and  C11_15 
REMARK    9  A    between atoms: C14_23  and  N5_24 
ROOT
HETATM    1  C11 UNL     1      -1.695   3.504  11.420  1.00  0.00     0.087 C 
HETATM    2  N3  UNL     1      -2.545   2.910  12.188  1.00  0.00    -0.343 N 
ATOM      3  H3  UNL     1      -2.782   3.235  13.125  1.00  0.00     0.163 HD
HETATM    4  C12 UNL     1      -3.123   1.742  11.583  1.00  0.00     0.258 C 
HETATM    5  C13 UNL     1      -4.425   1.982  10.892  1.00  0.00     0.301 C 
HETATM    6  N4  UNL     1      -4.928   0.614  10.725  1.00  0.00    -0.018 N 
ATOM      7  H41 UNL     1      -4.613   0.151   9.873  1.00  0.00     0.281 HD
ATOM      8  H42 UNL     1      -5.925   0.555  10.519  1.00  0.00     0.281 HD
HETATM    9  C14 UNL     1      -4.536  -0.046  11.933  1.00  0.00     0.580 C 
HETATM   10  N6  UNL     1      -3.402   0.673  12.484  1.00  0.00     0.010 N 
ATOM     11  H61 UNL     1      -3.548   0.983  13.445  1.00  0.00     0.285 HD
ATOM     12  H62 UNL     1      -2.595   0.077  12.664  1.00  0.00     0.285 HD
HETATM   13  C15 UNL     1      -2.045   1.368  10.547  1.00  0.00     0.235 C 
HETATM   14  F1  UNL     1      -0.975   0.772  11.156  1.00  0.00    -0.244 F 
HETATM   15  C16 UNL     1      -1.623   2.758  10.143  1.00  0.00     0.118 C 
ENDROOT
BRANCH   1  16
HETATM   16  N2  UNL     1      -0.940   4.680  11.699  1.00  0.00    -0.301 N 
HETATM   17  C8  UNL     1      -1.010   5.490  12.852  1.00  0.00     0.223 A 
HETATM   18  N1  UNL     1      -0.177   6.485  12.754  1.00  0.00    -0.354 N 
HETATM   19  C9  UNL     1       0.555   6.463  11.521  1.00  0.00     0.143 A 
ATOM     20  H1  UNL     1      -0.059   7.199  13.473  1.00  0.00     0.163 HD
HETATM   21  C10 UNL     1       0.043   5.232  10.806  1.00  0.00     0.153 A 
BRANCH  17  22
HETATM   22  O1  UNL     1      -1.818   5.333  13.982  1.00  0.00    -0.322 OA
BRANCH  22  23
HETATM   23  C7  UNL     1      -3.152   5.841  13.969  1.00  0.00     0.178 C 
BRANCH  23  24
HETATM   24  C6  UNL     1      -4.016   4.855  14.679  1.00  0.00     0.027 C 
BRANCH  24  25
HETATM   25  C5  UNL     1      -5.460   4.913  14.232  1.00  0.00     0.002 C 
BRANCH  25  26
HETATM   26  C4  UNL     1      -6.405   4.455  15.300  1.00  0.00     0.000 C 
BRANCH  26  27
HETATM   27  C3  UNL     1      -6.222   2.976  15.534  1.00  0.00    -0.000 C 
BRANCH  27  28
HETATM   28  C2  UNL     1      -6.724   2.551  16.908  1.00  0.00    -0.005 C 
HETATM   29  C1  UNL     1      -7.280   1.150  16.893  1.00  0.00     0.005 C 
ENDBRANCH  27  28
ENDBRANCH  26  27
ENDBRANCH  25  26
ENDBRANCH  24  25
ENDBRANCH  23  24
ENDBRANCH  22  23
ENDBRANCH  17  22
ENDBRANCH   1  16
BRANCH   9  30
HETATM   30  N5  UNL     1      -4.105  -1.412  11.716  1.00  0.00    -0.026 N 
ATOM     31  H53 UNL     1      -4.304  -1.990  12.533  1.00  0.00     0.278 HD
ATOM     32  H52 UNL     1      -4.703  -1.878  11.033  1.00  0.00     0.278 HD
ATOM     33  H51 UNL     1      -3.123  -1.482  11.450  1.00  0.00     0.278 HD
ENDBRANCH   9  30
TORSDOF 9
ENDMDL
MODEL 3
REMARK VINA RESULT: -7.012555883      2.095      5.182
REMARK  9 active torsions:
REMARK  status: ('A' for Active; 'I' for Inactive)
REMARK    1  A    between atoms: C2_2  and  C3_3 
REMARK    2  A    between atoms: C3_3  and  C4_4 
REMARK    3  A    between atoms: C4_4  and  C5_5 
REMARK    4  A    between atoms: C5_5  and  C6_6 
REMARK    5  A    between atoms: C6_6  and  C7_7 
REMARK    6  A    between atoms: C7_7  and  O1_8 
REMARK    7  A    between atoms: O1_8  and  C8_9 
REMARK    8  A    between atoms: N2_14  and  C11_15 
REMARK    9  A    between atoms: C14_23  and  N5_24 
ROOT
HETATM    1  C11 UNL     1      -2.200   2.098  11.568  1.00  0.00     0.087 C 
HETATM    2  N3  UNL     1      -0.919   2.133  11.416  1.00  0.00    -0.343 N 
ATOM      3  H3  UNL     1      -0.330   1.300  11.398  1.00  0.00     0.163 HD
HETATM    4  C12 UNL     1      -0.410   3.469  11.274  1.00  0.00     0.258 C 
HETATM    5  C13 UNL     1      -0.253   3.924   9.860  1.00  0.00     0.301 C 
HETATM    6  N4  UNL     1       0.603   5.105  10.024  1.00  0.00    -0.018 N 
ATOM      7  H41 UNL     1       0.095   5.972  10.199  1.00  0.00     0.281 HD
ATOM      8  H42 UNL     1       1.058   5.417   9.165  1.00  0.00     0.281 HD
HETATM    9  C14 UNL     1       1.508   4.732  11.068  1.00  0.00     0.580 C 
HETATM   10  N6  UNL     1       0.873   3.688  11.853  1.00  0.00     0.010 N 
ATOM     11  H61 UNL     1       1.435   2.839  11.924  1.00  0.00     0.285 HD
ATOM     12  H62 UNL     1       0.835   3.899  12.850  1.00  0.00     0.285 HD
HETATM   13  C15 UNL     1      -1.513   4.292  11.966  1.00  0.00     0.235 C 
HETATM   14  F1  UNL     1      -1.417   4.183  13.326  1.00  0.00    -0.244 F 
HETATM   15  C16 UNL     1      -2.711   3.487  11.527  1.00  0.00     0.118 C 
ENDROOT
BRANCH   1  16
HETATM   16  N2  UNL     1      -3.027   0.950  11.738  1.00  0.00    -0.301 N 
HETATM   17  C8  UNL     1      -3.784   0.599  12.876  1.00  0.00     0.223 A 
HETATM   18  N1  UNL     1      -4.410  -0.523  12.671  1.00  0.00    -0.354 N 
HETATM   19  C9  UNL     1      -4.151  -1.062  11.368  1.00  0.00     0.143 A 
ATOM     20  H1  UNL     1      -5.017  -0.969  13.360  1.00  0.00     0.163 HD
HETATM   21  C10 UNL     1      -3.216  -0.057  10.729  1.00  0.00     0.153 A 
BRANCH  17  22
HETATM   22  O1  UNL     1      -3.907   1.285  14.088  1.00  0.00    -0.322 OA
BRANCH  22  23
HETATM   23  C7  UNL     1      -4.350   0.585  15.250  1.00  0.00     0.178 C 
BRANCH  23  24
HETATM   24  C6  UNL     1      -4.617   1.598  16.311  1.00  0.00     0.027 C 
BRANCH  24  25
HETATM   25  C5  UNL     1      -6.071   1.643  16.726  1.00  0.00     0.002 C 
BRANCH  25  26
HETATM   26  C4  UNL     1      -6.677   2.998  16.528  1.00  0.00     0.000 C 
BRANCH  26  27
HETATM   27  C3  UNL     1      -6.475   3.437  15.099  1.00  0.00    -0.000 C 
BRANCH  27  28
HETATM   28  C2  UNL     1      -6.008   4.883  15.008  1.00  0.00    -0.005 C 
HETATM   29  C1  UNL     1      -4.553   4.979  14.622  1.00  0.00     0.005 C 
ENDBRANCH  27  28
ENDBRANCH  26  27
ENDBRANCH  25  26
ENDBRANCH  24  25
ENDBRANCH  23  24
ENDBRANCH  22  23
ENDBRANCH  17  22
ENDBRANCH   1  16
BRANCH   9  30
HETATM   30  N5  UNL     1       1.804   5.822  11.976  1.00  0.00    -0.026 N 
ATOM     31  H53 UNL     1       1.606   6.723  11.539  1.00  0.00     0.278 HD
ATOM     32  H52 UNL     1       1.126   5.855  12.738  1.00  0.00     0.278 HD
ATOM     33  H51 UNL     1       2.757   5.792  12.336  1.00  0.00     0.278 HD
ENDBRANCH   9  30
TORSDOF 9
ENDMDL
MODEL 4
REMARK VINA RESULT: -6.969295491      1.914      5.261
REMARK  9 active torsions:
REMARK  status: ('A' for Active; 'I' for Inactive)
REMARK    1  A    between atoms: C2_2  and  C3_3 
REMARK    2  A    between atoms: C3_3  and  C4_4 
REMARK    3  A    between atoms: C4_4  and  C5_5 
REMARK    4  A    between atoms: C5_5  and  C6_6 
REMARK    5  A    between atoms: C6_6  and  C7_7 
REMARK    6  A    between atoms: C7_7  and  O1_8 
REMARK    7  A    between atoms: O1_8  and  C8_9 
REMARK    8  A    between atoms: N2_14  and  C11_15 
REMARK    9  A    between atoms: C14_23  and  N5_24 
ROOT
HETATM    1  C11 UNL     1      -2.931   2.446  11.910  1.00  0.00     0.087 C 
HETATM    2  N3  UNL     1      -2.441   3.094  12.914  1.00  0.00    -0.343 N 
ATOM      3  H3  UNL     1      -2.269   2.674  13.827  1.00  0.00     0.163 HD
HETATM    4  C12 UNL     1      -2.164   4.471  12.607  1.00  0.00     0.258 C 
HETATM    5  C13 UNL     1      -0.758   4.738  12.179  1.00  0.00     0.301 C 
HETATM    6  N4  UNL     1      -0.682   6.198  12.309  1.00  0.00    -0.018 N 
ATOM      7  H41 UNL     1      -0.984   6.709  11.480  1.00  0.00     0.281 HD
ATOM      8  H42 UNL     1       0.267   6.570  12.327  1.00  0.00     0.281 HD
HETATM    9  C14 UNL     1      -1.448   6.479  13.485  1.00  0.00     0.580 C 
HETATM   10  N6  UNL     1      -2.377   5.381  13.683  1.00  0.00     0.010 N 
ATOM     11  H61 UNL     1      -2.298   4.945  14.602  1.00  0.00     0.285 HD
ATOM     12  H62 UNL     1      -3.347   5.683  13.768  1.00  0.00     0.285 HD
HETATM   13  C15 UNL     1      -3.123   4.722  11.428  1.00  0.00     0.235 C 
HETATM   14  F1  UNL     1      -4.408   4.869  11.873  1.00  0.00    -0.244 F 
HETATM   15  C16 UNL     1      -3.024   3.373  10.760  1.00  0.00     0.118 C 
ENDROOT
BRANCH   1  16
HETATM   16  N2  UNL     1      -3.319   1.076  11.863  1.00  0.00    -0.301 N 
HETATM   17  C8  UNL     1      -4.111   0.377  12.798  1.00  0.00     0.223 A 
HETATM   18  N1  UNL     1      -4.252  -0.864  12.430  1.00  0.00    -0.354 N 
HETATM   19  C9  UNL     1      -3.571  -1.148  11.200  1.00  0.00     0.143 A 
ATOM     20  H1  UNL     1      -4.787  -1.555  12.956  1.00  0.00     0.163 HD
HETATM   21  C10 UNL     1      -2.942   0.172  10.809  1.00  0.00     0.153 A 
BRANCH  17  22
HETATM   22  O1  UNL     1      -4.701   0.854  13.972  1.00  0.00    -0.322 OA
BRANCH  22  23
HETATM   23  C7  UNL     1      -4.427   0.202  15.212  1.00  0.00     0.178 C 
BRANCH  23  24
HETATM   24  C6  UNL     1      -4.446   1.241  16.281  1.00  0.00     0.027 C 
BRANCH  24  25
HETATM   25  C5  UNL     1      -5.632   1.104  17.210  1.00  0.00     0.002 C 
BRANCH  25  26
HETATM   26  C4  UNL     1      -6.883   1.685  16.624  1.00  0.00     0.000 C 
BRANCH  26  27
HETATM   27  C3  UNL     1      -6.733   3.181  16.499  1.00  0.00    -0.000 C 
BRANCH  27  28
HETATM   28  C2  UNL     1      -6.538   3.614  15.052  1.00  0.00    -0.005 C 
HETATM   29  C1  UNL     1      -5.753   4.897  14.952  1.00  0.00     0.005 C 
ENDBRANCH  27  28
ENDBRANCH  26  27
ENDBRANCH  25  26
ENDBRANCH  24  25
ENDBRANCH  23  24
ENDBRANCH  22  23
ENDBRANCH  17  22
ENDBRANCH   1  16
BRANCH   9  30
HETATM   30  N5  UNL     1      -2.240   7.687  13.370  1.00  0.00    -0.026 N 
ATOM     31  H53 UNL     1      -1.652   8.516  13.453  1.00  0.00     0.278 HD
ATOM     32  H52 UNL     1      -2.572   7.814  12.414  1.00  0.00     0.278 HD
ATOM     33  H51 UNL     1      -3.014   7.719  14.032  1.00  0.00     0.278 HD
ENDBRANCH   9  30
TORSDOF 9
ENDMDL
MODEL 5
REMARK VINA RESULT: -6.950334728      1.916      4.929
REMARK  9 active torsions:
REMARK  status: ('A' for Active; 'I' for Inactive)
REMARK    1  A    between atoms: C2_2  and  C3_3 
REMARK    2  A    between atoms: C3_3  and  C4_4 
REMARK    3  A    between atoms: C4_4  and  C5_5 
REMARK    4  A    between atoms: C5_5  and  C6_6 
REMARK    5  A    between atoms: C6_6  and  C7_7 
REMARK    6  A    between atoms: C7_7  and  O1_8 
REMARK    7  A    between atoms: O1_8  and  C8_9 
REMARK    8  A    between atoms: N2_14  and  C11_15 
REMARK    9  A    between atoms: C14_23  and  N5_24 
ROOT
HETATM    1  C11 UNL     1      -2.588   2.285  11.547  1.00  0.00     0.087 C 
HETATM    2  N3  UNL     1      -1.536   2.762  12.124  1.00  0.00    -0.343 N 
ATOM      3  H3  UNL     1      -0.917   2.208  12.716  1.00  0.00     0.163 HD
HETATM    4  C12 UNL     1      -1.329   4.156  11.844  1.00  0.00     0.258 C 
HETATM    5  C13 UNL     1      -0.412   4.428  10.697  1.00  0.00     0.301 C 
HETATM    6  N4  UNL     1      -0.106   5.849  10.893  1.00  0.00    -0.018 N 
ATOM      7  H41 UNL     1      -0.770   6.487  10.454  1.00  0.00     0.281 HD
ATOM      8  H42 UNL     1       0.714   6.177  10.383  1.00  0.00     0.281 HD
HETATM    9  C14 UNL     1      -0.009   5.987  12.314  1.00  0.00     0.580 C 
HETATM   10  N6  UNL     1      -0.773   4.909  12.918  1.00  0.00     0.010 N 
ATOM     11  H61 UNL     1      -0.228   4.343  13.568  1.00  0.00     0.285 HD
ATOM     12  H62 UNL     1      -1.470   5.234  13.586  1.00  0.00     0.285 HD
HETATM   13  C15 UNL     1      -2.757   4.612  11.487  1.00  0.00     0.235 C 
HETATM   14  F1  UNL     1      -3.519   4.743  12.615  1.00  0.00    -0.244 F 
HETATM   15  C16 UNL     1      -3.221   3.371  10.765  1.00  0.00     0.118 C 
ENDROOT
BRANCH   1  16
HETATM   16  N2  UNL     1      -3.088   0.952  11.609  1.00  0.00    -0.301 N 
HETATM   17  C8  UNL     1      -4.057   0.441  12.498  1.00  0.00     0.223 A 
HETATM   18  N1  UNL     1      -4.259  -0.823  12.266  1.00  0.00    -0.354 N 
HETATM   19  C9  UNL     1      -3.449  -1.315  11.190  1.00  0.00     0.143 A 
ATOM     20  H1  UNL     1      -4.919  -1.399  12.789  1.00  0.00     0.163 HD
HETATM   21  C10 UNL     1      -2.657  -0.107  10.737  1.00  0.00     0.153 A 
BRANCH  17  22
HETATM   22  O1  UNL     1      -4.753   1.110  13.510  1.00  0.00    -0.322 OA
BRANCH  22  23
HETATM   23  C7  UNL     1      -4.088   1.421  14.734  1.00  0.00     0.178 C 
BRANCH  23  24
HETATM   24  C6  UNL     1      -4.346   2.858  15.034  1.00  0.00     0.027 C 
BRANCH  24  25
HETATM   25  C5  UNL     1      -5.789   3.253  14.814  1.00  0.00     0.002 C 
BRANCH  25  26
HETATM   26  C4  UNL     1      -6.503   3.537  16.100  1.00  0.00     0.000 C 
BRANCH  26  27
HETATM   27  C3  UNL     1      -7.139   2.269  16.613  1.00  0.00    -0.000 C 
BRANCH  27  28
HETATM   28  C2  UNL     1      -6.373   1.684  17.792  1.00  0.00    -0.005 C 
HETATM   29  C1  UNL     1      -5.979   0.250  17.548  1.00  0.00     0.005 C 
ENDBRANCH  27  28
ENDBRANCH  26  27
ENDBRANCH  25  26
ENDBRANCH  24  25
ENDBRANCH  23  24
ENDBRANCH  22  23
ENDBRANCH  17  22
ENDBRANCH   1  16
BRANCH   9  30
HETATM   30  N5  UNL     1      -0.575   7.229  12.802  1.00  0.00    -0.026 N 
ATOM     31  H53 UNL     1      -1.493   7.072  13.219  1.00  0.00     0.278 HD
ATOM     32  H52 UNL     1      -0.072   7.559  13.626  1.00  0.00     0.278 HD
ATOM     33  H51 UNL     1      -0.618   7.954  12.086  1.00  0.00     0.278 HD
ENDBRANCH   9  30
TORSDOF 9
ENDMDL
