MODEL 1
REMARK VINA RESULT: -6.253694424      0.000      0.000
REMARK  10 active torsions:
REMARK  status: ('A' for Active; 'I' for Inactive)
REMARK    1  A    between atoms: C2_2  and  C3_3 
REMARK    2  A    between atoms: C3_3  and  S1_4 
REMARK    3  A    between atoms: S1_4  and  C4_5 
REMARK    4  A    between atoms: C4_5  and  C5_6 
REMARK    5  A    between atoms: N1_8  and  C7_9 
REMARK    6  A    between atoms: C8_11  and  C9_12 
REMARK    7  A    between atoms: C9_12  and  O2_13 
REMARK    8  A    between atoms: C10_15  and  O3_16 
REMARK    9  A    between atoms: C11_18  and  C12_19 
REMARK   10  A    between atoms: C13_22  and  O4_23 
ROOT
HETATM    1  C7  UNL     1      -2.304   4.086  11.752  1.00  0.00     0.274 C 
HETATM    2  O1  UNL     1      -2.147   2.711  11.597  1.00  0.00    -0.352 OA
HETATM    3  C8  UNL     1      -3.225   2.240  10.867  1.00  0.00     0.177 C 
HETATM    4  C10 UNL     1      -4.523   2.898  11.177  1.00  0.00     0.158 C 
HETATM    5  C11 UNL     1      -4.587   3.672  12.436  1.00  0.00     0.083 C 
HETATM    6  C13 UNL     1      -3.273   4.259  12.900  1.00  0.00     0.177 C 
ENDROOT
BRANCH   1   7
HETATM    7  N1  UNL     1      -1.082   4.790  11.913  1.00  0.00    -0.255 N 
HETATM    8  C6  UNL     1      -0.952   6.122  11.987  1.00  0.00     0.142 A 
HETATM    9  C5  UNL     1       0.392   6.478  12.146  1.00  0.00     0.053 A 
HETATM   10  N3  UNL     1       1.018   5.276  12.158  1.00  0.00    -0.288 N 
HETATM   11  N2  UNL     1       0.139   4.306  12.020  1.00  0.00    -0.238 N 
ATOM     12  H3  UNL     1       2.024   5.143  12.260  1.00  0.00     0.188 HD
ATOM     13  H2  UNL     1       0.371   3.314  11.998  1.00  0.00     0.208 HD
BRANCH   9  14
HETATM   14  C4  UNL     1       0.890   7.845  12.314  1.00  0.00     0.134 C 
BRANCH  14  15
HETATM   15  S1  UNL     1      -0.304   9.026  12.858  1.00  0.00    -0.163 SA
BRANCH  15  16
HETATM   16  C3  UNL     1      -0.079   9.807  14.418  1.00  0.00     0.074 C 
BRANCH  16  17
HETATM   17  C2  UNL     1      -1.102   9.437  15.435  1.00  0.00     0.006 C 
HETATM   18  C1  UNL     1      -1.955   8.315  14.834  1.00  0.00     0.006 C 
ENDBRANCH  16  17
ENDBRANCH  15  16
ENDBRANCH  14  15
ENDBRANCH   9  14
ENDBRANCH   1   7
BRANCH   6  19
HETATM   19  O4  UNL     1      -2.832   3.545  14.031  1.00  0.00    -0.391 OA
ATOM     20  H4  UNL     1      -3.110   3.979  14.828  1.00  0.00     0.210 HD
ENDBRANCH   6  19
BRANCH   3  21
HETATM   21  C9  UNL     1      -3.280   0.724  10.870  1.00  0.00     0.198 C 
BRANCH  21  22
HETATM   22  O2  UNL     1      -3.505   0.163   9.640  1.00  0.00    -0.398 OA
ATOM     23  H2  UNL     1      -3.219  -0.740   9.562  1.00  0.00     0.209 HD
ENDBRANCH  21  22
ENDBRANCH   3  21
BRANCH   5  24
HETATM   24  C12 UNL     1      -5.313   2.959  13.574  1.00  0.00     0.187 C 
HETATM   25 CL1  UNL     1      -4.252   1.701  14.249  1.00  0.00    -0.108 Cl
HETATM   26 CL2  UNL     1      -5.539   4.176  14.881  1.00  0.00    -0.108 Cl
ENDBRANCH   5  24
BRANCH   4  27
HETATM   27  O3  UNL     1      -5.484   1.862  11.271  1.00  0.00    -0.392 OA
ATOM     28  H3  UNL     1      -6.254   2.246  11.675  1.00  0.00     0.210 HD
ENDBRANCH   4  27
TORSDOF 10
ENDMDL
MODEL 2
REMARK VINA RESULT: -6.197370196      2.553      3.077
REMARK  10 active torsions:
REMARK  status: ('A' for Active; 'I' for Inactive)
REMARK    1  A    between atoms: C2_2  and  C3_3 
REMARK    2  A    between atoms: C3_3  and  S1_4 
REMARK    3  A    between atoms: S1_4  and  C4_5 
REMARK    4  A    between atoms: C4_5  and  C5_6 
REMARK    5  A    between atoms: N1_8  and  C7_9 
REMARK    6  A    between atoms: C8_11  and  C9_12 
REMARK    7  A    between atoms: C9_12  and  O2_13 
REMARK    8  A    between atoms: C10_15  and  O3_16 
REMARK    9  A    between atoms: C11_18  and  C12_19 
REMARK   10  A    between atoms: C13_22  and  O4_23 
ROOT
HETATM    1  C7  UNL     1      -2.242   3.895  11.866  1.00  0.00     0.274 C 
HETATM    2  O1  UNL     1      -2.326   2.529  12.128  1.00  0.00    -0.352 OA
HETATM    3  C8  UNL     1      -3.521   2.068  11.605  1.00  0.00     0.177 C 
HETATM    4  C10 UNL     1      -4.665   3.010  11.738  1.00  0.00     0.158 C 
HETATM    5  C11 UNL     1      -4.499   4.116  12.707  1.00  0.00     0.083 C 
HETATM    6  C13 UNL     1      -3.074   4.566  12.935  1.00  0.00     0.177 C 
ENDROOT
BRANCH   1   7
HETATM    7  N1  UNL     1      -0.913   4.382  11.773  1.00  0.00    -0.255 N 
HETATM    8  C6  UNL     1      -0.015   4.029  10.843  1.00  0.00     0.142 A 
HETATM    9  C5  UNL     1       1.196   4.701  11.047  1.00  0.00     0.053 A 
HETATM   10  N3  UNL     1       0.937   5.454  12.143  1.00  0.00    -0.288 N 
HETATM   11  N2  UNL     1      -0.298   5.252  12.550  1.00  0.00    -0.238 N 
ATOM     12  H3  UNL     1       1.603   6.086  12.588  1.00  0.00     0.188 HD
ATOM     13  H2  UNL     1      -0.723   5.706  13.358  1.00  0.00     0.208 HD
BRANCH   9  14
HETATM   14  C4  UNL     1       2.376   4.594  10.187  1.00  0.00     0.134 C 
BRANCH  14  15
HETATM   15  S1  UNL     1       3.529   5.925  10.310  1.00  0.00    -0.163 SA
BRANCH  15  16
HETATM   16  C3  UNL     1       4.838   5.812  11.480  1.00  0.00     0.074 C 
BRANCH  16  17
HETATM   17  C2  UNL     1       4.379   5.631  12.886  1.00  0.00     0.006 C 
HETATM   18  C1  UNL     1       4.359   7.016  13.541  1.00  0.00     0.006 C 
ENDBRANCH  16  17
ENDBRANCH  15  16
ENDBRANCH  14  15
ENDBRANCH   9  14
ENDBRANCH   1   7
BRANCH   6  19
HETATM   19  O4  UNL     1      -2.666   4.144  14.216  1.00  0.00    -0.391 OA
ATOM     20  H4  UNL     1      -3.054   4.694  14.887  1.00  0.00     0.210 HD
ENDBRANCH   6  19
BRANCH   3  21
HETATM   21  C9  UNL     1      -3.823   0.654  12.065  1.00  0.00     0.198 C 
BRANCH  21  22
HETATM   22  O2  UNL     1      -4.567  -0.083  11.181  1.00  0.00    -0.398 OA
ATOM     23  H2  UNL     1      -4.237  -0.959  11.025  1.00  0.00     0.209 HD
ENDBRANCH  21  22
ENDBRANCH   3  21
BRANCH   5  24
HETATM   24  C12 UNL     1      -5.238   3.909  14.027  1.00  0.00     0.187 C 
HETATM   25 CL1  UNL     1      -4.290   2.817  15.064  1.00  0.00    -0.108 Cl
HETATM   26 CL2  UNL     1      -5.254   5.502  14.863  1.00  0.00    -0.108 Cl
ENDBRANCH   5  24
BRANCH   4  27
HETATM   27  O3  UNL     1      -5.772   2.237  12.167  1.00  0.00    -0.392 OA
ATOM     28  H3  UNL     1      -5.879   2.413  13.095  1.00  0.00     0.210 HD
ENDBRANCH   4  27
TORSDOF 10
ENDMDL
MODEL 3
REMARK VINA RESULT: -6.195200890      4.608      6.318
REMARK  10 active torsions:
REMARK  status: ('A' for Active; 'I' for Inactive)
REMARK    1  A    between atoms: C2_2  and  C3_3 
REMARK    2  A    between atoms: C3_3  and  S1_4 
REMARK    3  A    between atoms: S1_4  and  C4_5 
REMARK    4  A    between atoms: C4_5  and  C5_6 
REMARK    5  A    between atoms: N1_8  and  C7_9 
REMARK    6  A    between atoms: C8_11  and  C9_12 
REMARK    7  A    between atoms: C9_12  and  O2_13 
REMARK    8  A    between atoms: C10_15  and  O3_16 
REMARK    9  A    between atoms: C11_18  and  C12_19 
REMARK   10  A    between atoms: C13_22  and  O4_23 
ROOT
HETATM    1  C7  UNL     1      -3.896   4.851  10.533  1.00  0.00     0.274 C 
HETATM    2  O1  UNL     1      -3.927   4.745   9.145  1.00  0.00    -0.352 OA
HETATM    3  C8  UNL     1      -3.004   5.639   8.630  1.00  0.00     0.177 C 
HETATM    4  C10 UNL     1      -2.911   6.931   9.363  1.00  0.00     0.158 C 
HETATM    5  C11 UNL     1      -4.027   7.252  10.278  1.00  0.00     0.083 C 
HETATM    6  C13 UNL     1      -4.741   6.058  10.869  1.00  0.00     0.177 C 
ENDROOT
BRANCH   1   7
HETATM    7  N1  UNL     1      -4.284   3.664  11.209  1.00  0.00    -0.255 N 
HETATM    8  C6  UNL     1      -3.932   3.327  12.458  1.00  0.00     0.142 A 
HETATM    9  C5  UNL     1      -4.490   2.092  12.810  1.00  0.00     0.053 A 
HETATM   10  N3  UNL     1      -5.177   1.747  11.694  1.00  0.00    -0.288 N 
HETATM   11  N2  UNL     1      -5.041   2.679  10.773  1.00  0.00    -0.238 N 
ATOM     12  H3  UNL     1      -5.719   0.891  11.583  1.00  0.00     0.188 HD
ATOM     13  H2  UNL     1      -5.465   2.642   9.847  1.00  0.00     0.208 HD
BRANCH   9  14
HETATM   14  C4  UNL     1      -4.355   1.447  14.117  1.00  0.00     0.134 C 
BRANCH  14  15
HETATM   15  S1  UNL     1      -4.624   2.495  15.513  1.00  0.00    -0.163 SA
BRANCH  15  16
HETATM   16  C3  UNL     1      -6.165   3.329  15.666  1.00  0.00     0.074 C 
BRANCH  16  17
HETATM   17  C2  UNL     1      -6.853   3.096  16.966  1.00  0.00     0.006 C 
HETATM   18  C1  UNL     1      -7.240   1.614  17.017  1.00  0.00     0.006 C 
ENDBRANCH  16  17
ENDBRANCH  15  16
ENDBRANCH  14  15
ENDBRANCH   9  14
ENDBRANCH   1   7
BRANCH   6  19
HETATM   19  O4  UNL     1      -6.014   5.952  10.275  1.00  0.00    -0.391 OA
ATOM     20  H4  UNL     1      -6.472   5.187  10.602  1.00  0.00     0.210 HD
ENDBRANCH   6  19
BRANCH   3  21
HETATM   21  C9  UNL     1      -3.149   5.786   7.127  1.00  0.00     0.198 C 
BRANCH  21  22
HETATM   22  O2  UNL     1      -4.294   5.238   6.611  1.00  0.00    -0.398 OA
ATOM     23  H2  UNL     1      -4.992   5.863   6.454  1.00  0.00     0.209 HD
ENDBRANCH  21  22
ENDBRANCH   3  21
BRANCH   5  24
HETATM   24  C12 UNL     1      -5.016   8.277   9.726  1.00  0.00     0.187 C 
HETATM   25 CL1  UNL     1      -6.057   7.493   8.515  1.00  0.00    -0.108 Cl
HETATM   26 CL2  UNL     1      -6.095   8.737  11.090  1.00  0.00    -0.108 Cl
ENDBRANCH   5  24
BRANCH   4  27
HETATM   27  O3  UNL     1      -2.868   7.947   8.377  1.00  0.00    -0.392 OA
ATOM     28  H3  UNL     1      -2.110   8.484   8.578  1.00  0.00     0.210 HD
ENDBRANCH   4  27
TORSDOF 10
ENDMDL
MODEL 4
REMARK VINA RESULT: -5.993128102      2.663      3.017
REMARK  10 active torsions:
REMARK  status: ('A' for Active; 'I' for Inactive)
REMARK    1  A    between atoms: C2_2  and  C3_3 
REMARK    2  A    between atoms: C3_3  and  S1_4 
REMARK    3  A    between atoms: S1_4  and  C4_5 
REMARK    4  A    between atoms: C4_5  and  C5_6 
REMARK    5  A    between atoms: N1_8  and  C7_9 
REMARK    6  A    between atoms: C8_11  and  C9_12 
REMARK    7  A    between atoms: C9_12  and  O2_13 
REMARK    8  A    between atoms: C10_15  and  O3_16 
REMARK    9  A    between atoms: C11_18  and  C12_19 
REMARK   10  A    between atoms: C13_22  and  O4_23 
ROOT
HETATM    1  C7  UNL     1      -2.250   3.430  11.230  1.00  0.00     0.274 C 
HETATM    2  O1  UNL     1      -2.497   2.070  11.406  1.00  0.00    -0.352 OA
HETATM    3  C8  UNL     1      -3.727   1.785  10.840  1.00  0.00     0.177 C 
HETATM    4  C10 UNL     1      -4.756   2.845  11.018  1.00  0.00     0.158 C 
HETATM    5  C11 UNL     1      -4.482   3.863  12.056  1.00  0.00     0.083 C 
HETATM    6  C13 UNL     1      -3.019   4.128  12.329  1.00  0.00     0.177 C 
ENDROOT
BRANCH   1   7
HETATM    7  N1  UNL     1      -0.871   3.763  11.185  1.00  0.00    -0.255 N 
HETATM    8  C6  UNL     1      -0.179   4.073  10.079  1.00  0.00     0.142 A 
HETATM    9  C5  UNL     1       1.156   4.349  10.396  1.00  0.00     0.053 A 
HETATM   10  N3  UNL     1       1.185   4.178  11.739  1.00  0.00    -0.288 N 
HETATM   11  N2  UNL     1      -0.008   3.835  12.178  1.00  0.00    -0.238 N 
ATOM     12  H3  UNL     1       2.011   4.297  12.326  1.00  0.00     0.188 HD
ATOM     13  H2  UNL     1      -0.234   3.651  13.154  1.00  0.00     0.208 HD
BRANCH   9  14
HETATM   14  C4  UNL     1       2.180   4.774   9.439  1.00  0.00     0.134 C 
BRANCH  14  15
HETATM   15  S1  UNL     1       3.647   5.454  10.147  1.00  0.00    -0.163 SA
BRANCH  15  16
HETATM   16  C3  UNL     1       3.544   6.982  11.013  1.00  0.00     0.074 C 
BRANCH  16  17
HETATM   17  C2  UNL     1       3.394   6.835  12.487  1.00  0.00     0.006 C 
HETATM   18  C1  UNL     1       4.273   5.655  12.918  1.00  0.00     0.006 C 
ENDBRANCH  16  17
ENDBRANCH  15  16
ENDBRANCH  14  15
ENDBRANCH   9  14
ENDBRANCH   1   7
BRANCH   6  19
HETATM   19  O4  UNL     1      -2.688   3.585  13.586  1.00  0.00    -0.391 OA
ATOM     20  H4  UNL     1      -1.775   3.325  13.607  1.00  0.00     0.210 HD
ENDBRANCH   6  19
BRANCH   3  21
HETATM   21  C9  UNL     1      -4.200   0.391  11.207  1.00  0.00     0.198 C 
BRANCH  21  22
HETATM   22  O2  UNL     1      -4.433   0.206  12.544  1.00  0.00    -0.398 OA
ATOM     23  H2  UNL     1      -4.314  -0.688  12.844  1.00  0.00     0.209 HD
ENDBRANCH  21  22
ENDBRANCH   3  21
BRANCH   5  24
HETATM   24  C12 UNL     1      -5.265   3.665  13.351  1.00  0.00     0.187 C 
HETATM   25 CL1  UNL     1      -4.352   2.584  14.429  1.00  0.00    -0.108 Cl
HETATM   26 CL2  UNL     1      -5.314   5.265  14.172  1.00  0.00    -0.108 Cl
ENDBRANCH   5  24
BRANCH   4  27
HETATM   27  O3  UNL     1      -5.953   2.183  11.384  1.00  0.00    -0.392 OA
ATOM     28  H3  UNL     1      -5.921   2.072  12.327  1.00  0.00     0.210 HD
ENDBRANCH   4  27
TORSDOF 10
ENDMDL
MODEL 5
REMARK VINA RESULT: -5.848488040      2.763      3.863
REMARK  10 active torsions:
REMARK  status: ('A' for Active; 'I' for Inactive)
REMARK    1  A    between atoms: C2_2  and  C3_3 
REMARK    2  A    between atoms: C3_3  and  S1_4 
REMARK    3  A    between atoms: S1_4  and  C4_5 
REMARK    4  A    between atoms: C4_5  and  C5_6 
REMARK    5  A    between atoms: N1_8  and  C7_9 
REMARK    6  A    between atoms: C8_11  and  C9_12 
REMARK    7  A    between atoms: C9_12  and  O2_13 
REMARK    8  A    between atoms: C10_15  and  O3_16 
REMARK    9  A    between atoms: C11_18  and  C12_19 
REMARK   10  A    between atoms: C13_22  and  O4_23 
ROOT
HETATM    1  C7  UNL     1      -2.179   3.819  11.773  1.00  0.00     0.274 C 
HETATM    2  O1  UNL     1      -2.304   2.466  12.080  1.00  0.00    -0.352 OA
HETATM    3  C8  UNL     1      -3.528   2.033  11.600  1.00  0.00     0.177 C 
HETATM    4  C10 UNL     1      -4.634   3.020  11.732  1.00  0.00     0.158 C 
HETATM    5  C11 UNL     1      -4.404   4.148  12.661  1.00  0.00     0.083 C 
HETATM    6  C13 UNL     1      -2.959   4.552  12.840  1.00  0.00     0.177 C 
ENDROOT
BRANCH   1   7
HETATM    7  N1  UNL     1      -0.835   4.255  11.632  1.00  0.00    -0.255 N 
HETATM    8  C6  UNL     1       0.005   3.891  10.653  1.00  0.00     0.142 A 
HETATM    9  C5  UNL     1       1.251   4.508  10.819  1.00  0.00     0.053 A 
HETATM   10  N3  UNL     1       1.072   5.242  11.944  1.00  0.00    -0.288 N 
HETATM   11  N2  UNL     1      -0.152   5.078  12.401  1.00  0.00    -0.238 N 
ATOM     12  H3  UNL     1       1.782   5.835  12.374  1.00  0.00     0.188 HD
ATOM     13  H2  UNL     1      -0.521   5.528  13.238  1.00  0.00     0.208 HD
BRANCH   9  14
HETATM   14  C4  UNL     1       2.386   4.376   9.904  1.00  0.00     0.134 C 
BRANCH  14  15
HETATM   15  S1  UNL     1       2.223   5.223   8.364  1.00  0.00    -0.163 SA
BRANCH  15  16
HETATM   16  C3  UNL     1       1.570   4.355   6.980  1.00  0.00     0.074 C 
BRANCH  16  17
HETATM   17  C2  UNL     1       0.083   4.365   6.905  1.00  0.00     0.006 C 
HETATM   18  C1  UNL     1      -0.389   5.729   7.421  1.00  0.00     0.006 C 
ENDBRANCH  16  17
ENDBRANCH  15  16
ENDBRANCH  14  15
ENDBRANCH   9  14
ENDBRANCH   1   7
BRANCH   6  19
HETATM   19  O4  UNL     1      -2.533   4.156  14.123  1.00  0.00    -0.391 OA
ATOM     20  H4  UNL     1      -2.503   3.209  14.187  1.00  0.00     0.210 HD
ENDBRANCH   6  19
BRANCH   3  21
HETATM   21  C9  UNL     1      -3.867   0.645  12.112  1.00  0.00     0.198 C 
BRANCH  21  22
HETATM   22  O2  UNL     1      -4.610  -0.112  11.246  1.00  0.00    -0.398 OA
ATOM     23  H2  UNL     1      -4.755  -1.007  11.530  1.00  0.00     0.209 HD
ENDBRANCH  21  22
ENDBRANCH   3  21
BRANCH   5  24
HETATM   24  C12 UNL     1      -5.116   4.008  14.005  1.00  0.00     0.187 C 
HETATM   25 CL1  UNL     1      -4.209   2.874  15.033  1.00  0.00    -0.108 Cl
HETATM   26 CL2  UNL     1      -5.006   5.612  14.814  1.00  0.00    -0.108 Cl
ENDBRANCH   5  24
BRANCH   4  27
HETATM   27  O3  UNL     1      -5.756   2.301  12.213  1.00  0.00    -0.392 OA
ATOM     28  H3  UNL     1      -6.509   2.866  12.088  1.00  0.00     0.210 HD
ENDBRANCH   4  27
TORSDOF 10
ENDMDL
