MODEL 1
REMARK VINA RESULT: -4.381784152      0.000      0.000
REMARK  8 active torsions:
REMARK  status: ('A' for Active; 'I' for Inactive)
REMARK    1  A    between atoms: C3_3  and  C4_4 
REMARK    2  A    between atoms: C3_3  and  C5_7 
REMARK    3  A    between atoms: C3_3  and  O2_16 
REMARK    4  A    between atoms: C4_4  and  O1_5 
REMARK    5  A    between atoms: C5_7  and  N1_8 
REMARK    6  A    between atoms: N1_8  and  C8_11 
REMARK    7  A    between atoms: C8_11  and  C9_12 
REMARK    8  A    between atoms: O2_16  and  C10_17 
ROOT
HETATM    1  C1  UNL     1      -5.870  -4.217 -30.454  1.00  0.00     0.100 C 
HETATM    2  C2  UNL     1      -7.051  -3.905 -30.561  1.00  0.00    -0.146 C 
HETATM    3  C3  UNL     1      -8.455  -3.515 -30.710  1.00  0.00     0.157 C 
ENDROOT
BRANCH   3   4
HETATM    4  C4  UNL     1      -9.004  -4.413 -31.808  1.00  0.00     0.216 C 
BRANCH   4   5
HETATM    5  O1  UNL     1      -8.900  -5.754 -31.507  1.00  0.00    -0.397 OA
ATOM      6  H1  UNL     1      -8.055  -6.121 -31.737  1.00  0.00     0.209 HD
ENDBRANCH   4   5
ENDBRANCH   3   4
BRANCH   3   7
HETATM    7  C5  UNL     1      -9.192  -3.615 -29.432  1.00  0.00     0.289 C 
BRANCH   7   8
HETATM    8  N1  UNL     1     -10.509  -3.216 -29.253  1.00  0.00    -0.067 N 
HETATM    9  C6  UNL     1     -11.522  -3.579 -30.171  1.00  0.00     0.272 C 
HETATM   10  C7  UNL     1     -10.920  -3.915 -27.998  1.00  0.00     0.272 C 
BRANCH   8  11
HETATM   11  C8  UNL     1     -10.674  -1.805 -28.854  1.00  0.00     0.280 C 
BRANCH  11  12
HETATM   12  C9  UNL     1     -10.784  -1.741 -27.359  1.00  0.00     0.080 C 
HETATM   13  N2  UNL     1     -10.721  -0.629 -26.728  1.00  0.00    -0.410 N 
ATOM     14  H22 UNL     1     -10.593   0.226 -27.270  1.00  0.00     0.155 HD
ATOM     15  H21 UNL     1     -10.796  -0.585 -25.712  1.00  0.00     0.155 HD
ENDBRANCH  11  12
ENDBRANCH   8  11
ENDBRANCH   7   8
ENDBRANCH   3   7
BRANCH   3  16
HETATM   16  O2  UNL     1      -8.610  -2.248 -31.103  1.00  0.00    -0.359 OA
BRANCH  16  17
HETATM   17  C10 UNL     1      -8.928  -1.725 -32.229  1.00  0.00     0.124 C 
HETATM   18  C11 UNL     1      -9.798  -0.488 -32.281  1.00  0.00     0.036 C 
HETATM   19  C12 UNL     1     -10.253  -0.242 -33.709  1.00  0.00    -0.012 C 
HETATM   20  C13 UNL     1     -10.698  -1.508 -34.396  1.00  0.00     0.005 C 
HETATM   21  C16 UNL     1      -9.043   0.143 -34.572  1.00  0.00     0.009 C 
HETATM   22  C14 UNL     1      -9.460  -2.131 -34.968  1.00  0.00     0.005 C 
HETATM   23  C15 UNL     1      -8.333  -1.217 -34.618  1.00  0.00    -0.012 C 
HETATM   24  C17 UNL     1      -7.784  -1.441 -33.223  1.00  0.00     0.036 C 
ENDBRANCH  16  17
ENDBRANCH   3  16
TORSDOF 8
ENDMDL
MODEL 2
REMARK VINA RESULT: -4.215619599      2.736      4.646
REMARK  8 active torsions:
REMARK  status: ('A' for Active; 'I' for Inactive)
REMARK    1  A    between atoms: C3_3  and  C4_4 
REMARK    2  A    between atoms: C3_3  and  C5_7 
REMARK    3  A    between atoms: C3_3  and  O2_16 
REMARK    4  A    between atoms: C4_4  and  O1_5 
REMARK    5  A    between atoms: C5_7  and  N1_8 
REMARK    6  A    between atoms: N1_8  and  C8_11 
REMARK    7  A    between atoms: C8_11  and  C9_12 
REMARK    8  A    between atoms: O2_16  and  C10_17 
ROOT
HETATM    1  C1  UNL     1     -12.907  -3.466 -31.968  1.00  0.00     0.100 C 
HETATM    2  C2  UNL     1     -12.687  -2.987 -30.861  1.00  0.00    -0.146 C 
HETATM    3  C3  UNL     1     -12.400  -2.402 -29.549  1.00  0.00     0.157 C 
ENDROOT
BRANCH   3   4
HETATM    4  C4  UNL     1     -12.961  -0.990 -29.610  1.00  0.00     0.216 C 
BRANCH   4   5
HETATM    5  O1  UNL     1     -12.003  -0.022 -29.401  1.00  0.00    -0.397 OA
ATOM      6  H1  UNL     1     -11.467   0.141 -30.168  1.00  0.00     0.209 HD
ENDBRANCH   4   5
ENDBRANCH   3   4
BRANCH   3   7
HETATM    7  C5  UNL     1     -12.957  -3.219 -28.449  1.00  0.00     0.289 C 
BRANCH   7   8
HETATM    8  N1  UNL     1     -13.165  -2.758 -27.157  1.00  0.00    -0.067 N 
HETATM    9  C6  UNL     1     -13.995  -1.642 -26.896  1.00  0.00     0.272 C 
HETATM   10  C7  UNL     1     -13.891  -3.883 -26.495  1.00  0.00     0.272 C 
BRANCH   8  11
HETATM   11  C8  UNL     1     -11.947  -2.684 -26.328  1.00  0.00     0.280 C 
BRANCH  11  12
HETATM   12  C9  UNL     1     -11.600  -1.239 -26.118  1.00  0.00     0.080 C 
HETATM   13  N2  UNL     1     -10.624  -0.688 -26.735  1.00  0.00    -0.410 N 
ATOM     14  H22 UNL     1     -10.079  -1.258 -27.382  1.00  0.00     0.155 HD
ATOM     15  H21 UNL     1     -10.387   0.294 -26.593  1.00  0.00     0.155 HD
ENDBRANCH  11  12
ENDBRANCH   8  11
ENDBRANCH   7   8
ENDBRANCH   3   7
BRANCH   3  16
HETATM   16  O2  UNL     1     -11.093  -2.312 -29.288  1.00  0.00    -0.359 OA
BRANCH  16  17
HETATM   17  C10 UNL     1     -10.076  -2.950 -29.735  1.00  0.00     0.124 C 
HETATM   18  C11 UNL     1      -9.033  -2.241 -30.572  1.00  0.00     0.036 C 
HETATM   19  C12 UNL     1      -8.101  -3.261 -31.200  1.00  0.00    -0.012 C 
HETATM   20  C13 UNL     1      -8.843  -4.447 -31.764  1.00  0.00     0.005 C 
HETATM   21  C16 UNL     1      -7.269  -3.939 -30.102  1.00  0.00     0.009 C 
HETATM   22  C14 UNL     1      -9.021  -5.407 -30.627  1.00  0.00     0.005 C 
HETATM   23  C15 UNL     1      -8.373  -4.776 -29.440  1.00  0.00    -0.012 C 
HETATM   24  C17 UNL     1      -9.265  -3.783 -28.722  1.00  0.00     0.036 C 
ENDBRANCH  16  17
ENDBRANCH   3  16
TORSDOF 8
ENDMDL
MODEL 3
REMARK VINA RESULT: -4.208078923      1.360      1.963
REMARK  8 active torsions:
REMARK  status: ('A' for Active; 'I' for Inactive)
REMARK    1  A    between atoms: C3_3  and  C4_4 
REMARK    2  A    between atoms: C3_3  and  C5_7 
REMARK    3  A    between atoms: C3_3  and  O2_16 
REMARK    4  A    between atoms: C4_4  and  O1_5 
REMARK    5  A    between atoms: C5_7  and  N1_8 
REMARK    6  A    between atoms: N1_8  and  C8_11 
REMARK    7  A    between atoms: C8_11  and  C9_12 
REMARK    8  A    between atoms: O2_16  and  C10_17 
ROOT
HETATM    1  C1  UNL     1      -6.672  -2.289 -31.294  1.00  0.00     0.100 C 
HETATM    2  C2  UNL     1      -7.791  -2.695 -31.000  1.00  0.00    -0.146 C 
HETATM    3  C3  UNL     1      -9.132  -3.188 -30.678  1.00  0.00     0.157 C 
ENDROOT
BRANCH   3   4
HETATM    4  C4  UNL     1      -8.955  -4.674 -30.405  1.00  0.00     0.216 C 
BRANCH   4   5
HETATM    5  O1  UNL     1      -8.402  -4.932 -29.170  1.00  0.00    -0.397 OA
ATOM      6  H1  UNL     1      -7.612  -5.457 -29.220  1.00  0.00     0.209 HD
ENDBRANCH   4   5
ENDBRANCH   3   4
BRANCH   3   7
HETATM    7  C5  UNL     1      -9.737  -2.442 -29.553  1.00  0.00     0.289 C 
BRANCH   7   8
HETATM    8  N1  UNL     1     -11.052  -2.583 -29.136  1.00  0.00    -0.067 N 
HETATM    9  C6  UNL     1     -11.885  -3.604 -29.651  1.00  0.00     0.272 C 
HETATM   10  C7  UNL     1     -10.925  -2.944 -27.692  1.00  0.00     0.272 C 
BRANCH   8  11
HETATM   11  C8  UNL     1     -11.806  -1.318 -29.042  1.00  0.00     0.280 C 
BRANCH  11  12
HETATM   12  C9  UNL     1     -11.847  -0.892 -27.604  1.00  0.00     0.080 C 
HETATM   13  N2  UNL     1     -12.073   0.323 -27.270  1.00  0.00    -0.410 N 
ATOM     14  H22 UNL     1     -12.227   1.006 -28.012  1.00  0.00     0.155 HD
ATOM     15  H21 UNL     1     -12.101   0.613 -26.293  1.00  0.00     0.155 HD
ENDBRANCH  11  12
ENDBRANCH   8  11
ENDBRANCH   7   8
ENDBRANCH   3   7
BRANCH   3  16
HETATM   16  O2  UNL     1      -9.997  -3.058 -31.687  1.00  0.00    -0.359 OA
BRANCH  16  17
HETATM   17  C10 UNL     1      -9.942  -2.421 -32.797  1.00  0.00     0.124 C 
HETATM   18  C11 UNL     1      -9.833  -3.171 -34.107  1.00  0.00     0.036 C 
HETATM   19  C12 UNL     1      -9.504  -2.200 -35.227  1.00  0.00    -0.012 C 
HETATM   20  C13 UNL     1      -8.437  -1.209 -34.833  1.00  0.00     0.005 C 
HETATM   21  C16 UNL     1     -10.696  -1.260 -35.458  1.00  0.00     0.009 C 
HETATM   22  C14 UNL     1      -9.147  -0.079 -34.151  1.00  0.00     0.005 C 
HETATM   23  C15 UNL     1     -10.600  -0.423 -34.175  1.00  0.00    -0.012 C 
HETATM   24  C17 UNL     1     -11.019  -1.347 -33.048  1.00  0.00     0.036 C 
ENDBRANCH  16  17
ENDBRANCH   3  16
TORSDOF 8
ENDMDL
MODEL 4
REMARK VINA RESULT: -4.196875121      2.396      5.157
REMARK  8 active torsions:
REMARK  status: ('A' for Active; 'I' for Inactive)
REMARK    1  A    between atoms: C3_3  and  C4_4 
REMARK    2  A    between atoms: C3_3  and  C5_7 
REMARK    3  A    between atoms: C3_3  and  O2_16 
REMARK    4  A    between atoms: C4_4  and  O1_5 
REMARK    5  A    between atoms: C5_7  and  N1_8 
REMARK    6  A    between atoms: N1_8  and  C8_11 
REMARK    7  A    between atoms: C8_11  and  C9_12 
REMARK    8  A    between atoms: O2_16  and  C10_17 
ROOT
HETATM    1  C1  UNL     1      -9.891  -3.810 -34.696  1.00  0.00     0.100 C 
HETATM    2  C2  UNL     1      -9.825  -2.711 -34.156  1.00  0.00    -0.146 C 
HETATM    3  C3  UNL     1      -9.720  -1.408 -33.496  1.00  0.00     0.157 C 
ENDROOT
BRANCH   3   4
HETATM    4  C4  UNL     1      -8.790  -0.588 -34.378  1.00  0.00     0.216 C 
BRANCH   4   5
HETATM    5  O1  UNL     1      -7.532  -1.139 -34.490  1.00  0.00    -0.397 OA
ATOM      6  H1  UNL     1      -6.858  -0.492 -34.658  1.00  0.00     0.209 HD
ENDBRANCH   4   5
ENDBRANCH   3   4
BRANCH   3   7
HETATM    7  C5  UNL     1     -11.048  -0.788 -33.290  1.00  0.00     0.289 C 
BRANCH   7   8
HETATM    8  N1  UNL     1     -11.256   0.566 -33.072  1.00  0.00    -0.067 N 
HETATM    9  C6  UNL     1     -10.552   1.549 -33.807  1.00  0.00     0.272 C 
HETATM   10  C7  UNL     1     -12.673   0.775 -33.493  1.00  0.00     0.272 C 
BRANCH   8  11
HETATM   11  C8  UNL     1     -11.326   0.955 -31.650  1.00  0.00     0.280 C 
BRANCH  11  12
HETATM   12  C9  UNL     1     -12.080   2.248 -31.545  1.00  0.00     0.080 C 
HETATM   13  N2  UNL     1     -12.099   2.927 -30.461  1.00  0.00    -0.410 N 
ATOM     14  H22 UNL     1     -11.585   2.567 -29.657  1.00  0.00     0.155 HD
ATOM     15  H21 UNL     1     -12.611   3.806 -30.389  1.00  0.00     0.155 HD
ENDBRANCH  11  12
ENDBRANCH   8  11
ENDBRANCH   7   8
ENDBRANCH   3   7
BRANCH   3  16
HETATM   16  O2  UNL     1      -9.175  -1.475 -32.279  1.00  0.00    -0.359 OA
BRANCH  16  17
HETATM   17  C10 UNL     1      -8.929  -2.459 -31.496  1.00  0.00     0.124 C 
HETATM   18  C11 UNL     1      -7.502  -2.825 -31.150  1.00  0.00     0.036 C 
HETATM   19  C12 UNL     1      -7.475  -4.171 -30.448  1.00  0.00    -0.012 C 
HETATM   20  C13 UNL     1      -8.374  -5.183 -31.112  1.00  0.00     0.005 C 
HETATM   21  C16 UNL     1      -8.148  -4.046 -29.074  1.00  0.00     0.009 C 
HETATM   22  C14 UNL     1      -9.738  -4.979 -30.525  1.00  0.00     0.005 C 
HETATM   23  C15 UNL     1      -9.603  -3.874 -29.530  1.00  0.00    -0.012 C 
HETATM   24  C17 UNL     1      -9.679  -2.492 -30.149  1.00  0.00     0.036 C 
ENDBRANCH  16  17
ENDBRANCH   3  16
TORSDOF 8
ENDMDL
MODEL 5
REMARK VINA RESULT: -4.195883395      2.270      4.268
REMARK  8 active torsions:
REMARK  status: ('A' for Active; 'I' for Inactive)
REMARK    1  A    between atoms: C3_3  and  C4_4 
REMARK    2  A    between atoms: C3_3  and  C5_7 
REMARK    3  A    between atoms: C3_3  and  O2_16 
REMARK    4  A    between atoms: C4_4  and  O1_5 
REMARK    5  A    between atoms: C5_7  and  N1_8 
REMARK    6  A    between atoms: N1_8  and  C8_11 
REMARK    7  A    between atoms: C8_11  and  C9_12 
REMARK    8  A    between atoms: O2_16  and  C10_17 
ROOT
HETATM    1  C1  UNL     1     -13.221  -2.193 -32.368  1.00  0.00     0.100 C 
HETATM    2  C2  UNL     1     -12.919  -1.990 -31.197  1.00  0.00    -0.146 C 
HETATM    3  C3  UNL     1     -12.536  -1.731 -29.807  1.00  0.00     0.157 C 
ENDROOT
BRANCH   3   4
HETATM    4  C4  UNL     1     -13.214  -0.418 -29.445  1.00  0.00     0.216 C 
BRANCH   4   5
HETATM    5  O1  UNL     1     -12.323   0.558 -29.057  1.00  0.00    -0.397 OA
ATOM      6  H1  UNL     1     -11.979   0.420 -28.183  1.00  0.00     0.209 HD
ENDBRANCH   4   5
ENDBRANCH   3   4
BRANCH   3   7
HETATM    7  C5  UNL     1     -12.898  -2.856 -28.918  1.00  0.00     0.289 C 
BRANCH   7   8
HETATM    8  N1  UNL     1     -13.021  -2.758 -27.539  1.00  0.00    -0.067 N 
HETATM    9  C6  UNL     1     -13.896  -1.821 -26.941  1.00  0.00     0.272 C 
HETATM   10  C7  UNL     1     -13.610  -4.073 -27.145  1.00  0.00     0.272 C 
BRANCH   8  11
HETATM   11  C8  UNL     1     -11.742  -2.792 -26.805  1.00  0.00     0.280 C 
BRANCH  11  12
HETATM   12  C9  UNL     1     -11.468  -1.422 -26.258  1.00  0.00     0.080 C 
HETATM   13  N2  UNL     1     -10.604  -0.646 -26.795  1.00  0.00    -0.410 N 
ATOM     14  H22 UNL     1     -10.097  -0.982 -27.614  1.00  0.00     0.155 HD
ATOM     15  H21 UNL     1     -10.418   0.286 -26.423  1.00  0.00     0.155 HD
ENDBRANCH  11  12
ENDBRANCH   8  11
ENDBRANCH   7   8
ENDBRANCH   3   7
BRANCH   3  16
HETATM   16  O2  UNL     1     -11.220  -1.568 -29.645  1.00  0.00    -0.359 OA
BRANCH  16  17
HETATM   17  C10 UNL     1     -10.210  -1.965 -30.325  1.00  0.00     0.124 C 
HETATM   18  C11 UNL     1      -9.217  -0.966 -30.879  1.00  0.00     0.036 C 
HETATM   19  C12 UNL     1      -8.292  -1.656 -31.864  1.00  0.00    -0.012 C 
HETATM   20  C13 UNL     1      -9.032  -2.581 -32.798  1.00  0.00     0.005 C 
HETATM   21  C16 UNL     1      -7.401  -2.658 -31.116  1.00  0.00     0.009 C 
HETATM   22  C14 UNL     1      -9.144  -3.894 -32.084  1.00  0.00     0.005 C 
HETATM   23  C15 UNL     1      -8.459  -3.715 -30.770  1.00  0.00    -0.012 C 
HETATM   24  C17 UNL     1      -9.341  -3.082 -29.712  1.00  0.00     0.036 C 
ENDBRANCH  16  17
ENDBRANCH   3  16
TORSDOF 8
ENDMDL
