MODEL 1
REMARK VINA RESULT: -7.589006647      0.000      0.000
REMARK  4 active torsions:
REMARK  status: ('A' for Active; 'I' for Inactive)
REMARK    1  A    between atoms: N1_3  and  C3_5 
REMARK    2  A    between atoms: C4_10  and  C5_11 
REMARK       I    between atoms: C5_11  and  N4_13 
REMARK    3  A    between atoms: N4_13  and  N5_14 
REMARK    4  A    between atoms: N6_17  and  N7_18 
ROOT
HETATM    1  C1  UNL     1     -16.183 -28.072 -26.935  1.00  0.00     0.037 C 
HETATM    2  C2  UNL     1     -15.074 -28.208 -27.409  1.00  0.00     0.015 C 
HETATM    3  N1  UNL     1     -13.773 -28.337 -27.962  1.00  0.00    -0.146 N 
ATOM      4  H1  UNL     1     -13.550 -27.902 -28.857  1.00  0.00     0.195 HD
ENDROOT
BRANCH   3   5
HETATM    5  C3  UNL     1     -12.870 -29.011 -27.323  1.00  0.00     0.727 A 
HETATM    6  N2  UNL     1     -13.088 -30.099 -26.558  1.00  0.00    -0.128 N 
HETATM    7  N3  UNL     1     -11.901 -30.479 -26.099  1.00  0.00    -0.264 N 
ATOM      8  H2  UNL     1     -13.987 -30.543 -26.370  1.00  0.00     0.205 HD
HETATM    9  C4  UNL     1     -10.961 -29.659 -26.557  1.00  0.00     0.244 A 
ATOM     10  H3  UNL     1     -11.736 -31.279 -25.488  1.00  0.00     0.189 HD
HETATM   11  N6  UNL     1     -11.560 -28.743 -27.321  1.00  0.00    -0.066 N 
BRANCH   9  12
HETATM   12  C5  UNL     1      -9.511 -29.804 -26.241  1.00  0.00     0.382 C 
HETATM   13  O1  UNL     1      -8.788 -28.960 -26.800  1.00  0.00    -0.246 OA
HETATM   14  N4  UNL     1      -9.130 -30.799 -25.414  1.00  0.00    -0.285 NA
BRANCH  14  15
HETATM   15  N5  UNL     1      -8.758 -31.771 -24.605  1.00  0.00    -0.276 N 
ATOM     16  H52 UNL     1      -9.087 -31.044 -25.239  1.00  0.00     0.191 HD
ATOM     17  H51 UNL     1      -8.469 -32.523 -23.979  1.00  0.00     0.191 HD
ENDBRANCH  14  15
ENDBRANCH   9  12
BRANCH  11  18
HETATM   18  N7  UNL     1     -10.854 -27.719 -27.978  1.00  0.00    -0.322 N 
ATOM     19  H72 UNL     1     -11.245 -27.189 -28.756  1.00  0.00     0.178 HD
ATOM     20  H71 UNL     1      -9.916 -27.357 -27.799  1.00  0.00     0.178 HD
ENDBRANCH  11  18
ENDBRANCH   3   5
TORSDOF 4
ENDMDL
MODEL 2
REMARK VINA RESULT: -7.249195723      1.367      1.893
REMARK  4 active torsions:
REMARK  status: ('A' for Active; 'I' for Inactive)
REMARK    1  A    between atoms: N1_3  and  C3_5 
REMARK    2  A    between atoms: C4_10  and  C5_11 
REMARK       I    between atoms: C5_11  and  N4_13 
REMARK    3  A    between atoms: N4_13  and  N5_14 
REMARK    4  A    between atoms: N6_17  and  N7_18 
ROOT
HETATM    1  C1  UNL     1     -15.794 -26.420 -25.547  1.00  0.00     0.037 C 
HETATM    2  C2  UNL     1     -15.060 -27.300 -25.948  1.00  0.00     0.015 C 
HETATM    3  N1  UNL     1     -14.212 -28.324 -26.445  1.00  0.00    -0.146 N 
ATOM      4  H1  UNL     1     -14.612 -29.149 -26.892  1.00  0.00     0.195 HD
ENDROOT
BRANCH   3   5
HETATM    5  C3  UNL     1     -12.929 -28.205 -26.328  1.00  0.00     0.727 A 
HETATM    6  N2  UNL     1     -12.265 -27.076 -26.008  1.00  0.00    -0.128 N 
HETATM    7  N3  UNL     1     -10.975 -27.392 -25.989  1.00  0.00    -0.264 N 
ATOM      8  H2  UNL     1     -12.672 -26.161 -25.817  1.00  0.00     0.205 HD
HETATM    9  C4  UNL     1     -10.825 -28.678 -26.288  1.00  0.00     0.244 A 
ATOM     10  H3  UNL     1     -10.214 -26.745 -25.778  1.00  0.00     0.189 HD
HETATM   11  N6  UNL     1     -12.040 -29.189 -26.499  1.00  0.00    -0.066 N 
BRANCH   9  12
HETATM   12  C5  UNL     1      -9.503 -29.365 -26.347  1.00  0.00     0.382 C 
HETATM   13  O1  UNL     1      -8.721 -28.882 -27.187  1.00  0.00    -0.246 OA
HETATM   14  N4  UNL     1      -9.283 -30.408 -25.521  1.00  0.00    -0.285 NA
BRANCH  14  15
HETATM   15  N5  UNL     1      -9.070 -31.428 -24.712  1.00  0.00    -0.276 N 
ATOM     16  H52 UNL     1      -9.264 -30.621 -25.303  1.00  0.00     0.191 HD
ATOM     17  H51 UNL     1      -8.904 -32.217 -24.088  1.00  0.00     0.191 HD
ENDBRANCH  14  15
ENDBRANCH   9  12
BRANCH  11  18
HETATM   18  N7  UNL     1     -12.251 -30.540 -26.829  1.00  0.00    -0.322 N 
ATOM     19  H72 UNL     1     -13.142 -31.013 -26.679  1.00  0.00     0.178 HD
ATOM     20  H71 UNL     1     -11.609 -31.216 -27.244  1.00  0.00     0.178 HD
ENDBRANCH  11  18
ENDBRANCH   3   5
TORSDOF 4
ENDMDL
MODEL 3
REMARK VINA RESULT: -7.182704456      2.116      2.855
REMARK  4 active torsions:
REMARK  status: ('A' for Active; 'I' for Inactive)
REMARK    1  A    between atoms: N1_3  and  C3_5 
REMARK    2  A    between atoms: C4_10  and  C5_11 
REMARK       I    between atoms: C5_11  and  N4_13 
REMARK    3  A    between atoms: N4_13  and  N5_14 
REMARK    4  A    between atoms: N6_17  and  N7_18 
ROOT
HETATM    1  C1  UNL     1     -16.402 -27.854 -26.947  1.00  0.00     0.037 C 
HETATM    2  C2  UNL     1     -15.403 -28.057 -26.288  1.00  0.00     0.015 C 
HETATM    3  N1  UNL     1     -14.244 -28.324 -25.514  1.00  0.00    -0.146 N 
ATOM      4  H1  UNL     1     -14.333 -28.628 -24.544  1.00  0.00     0.195 HD
ENDROOT
BRANCH   3   5
HETATM    5  C3  UNL     1     -13.072 -28.180 -26.045  1.00  0.00     0.727 A 
HETATM    6  N2  UNL     1     -12.308 -27.072 -25.985  1.00  0.00    -0.128 N 
HETATM    7  N3  UNL     1     -11.191 -27.350 -26.648  1.00  0.00    -0.264 N 
ATOM      8  H2  UNL     1     -12.540 -26.194 -25.521  1.00  0.00     0.205 HD
HETATM    9  C4  UNL     1     -11.246 -28.592 -27.115  1.00  0.00     0.244 A 
ATOM     10  H3  UNL     1     -10.410 -26.706 -26.781  1.00  0.00     0.189 HD
HETATM   11  N6  UNL     1     -12.416 -29.114 -26.741  1.00  0.00    -0.066 N 
BRANCH   9  12
HETATM   12  C5  UNL     1     -10.151 -29.230 -27.901  1.00  0.00     0.382 C 
HETATM   13  O1  UNL     1      -9.064 -29.283 -27.299  1.00  0.00    -0.246 OA
HETATM   14  N4  UNL     1     -10.427 -29.673 -29.145  1.00  0.00    -0.285 NA
BRANCH  14  15
HETATM   15  N5  UNL     1     -10.698 -30.105 -30.362  1.00  0.00    -0.276 N 
ATOM     16  H52 UNL     1     -10.441 -29.767 -29.434  1.00  0.00     0.191 HD
ATOM     17  H51 UNL     1     -10.908 -30.439 -31.302  1.00  0.00     0.191 HD
ENDBRANCH  14  15
ENDBRANCH   9  12
BRANCH  11  18
HETATM   18  N7  UNL     1     -12.801 -30.430 -27.059  1.00  0.00    -0.322 N 
ATOM     19  H72 UNL     1     -13.447 -30.971 -26.485  1.00  0.00     0.178 HD
ATOM     20  H71 UNL     1     -12.530 -31.012 -27.852  1.00  0.00     0.178 HD
ENDBRANCH  11  18
ENDBRANCH   3   5
TORSDOF 4
ENDMDL
MODEL 4
REMARK VINA RESULT: -6.881223935      2.506      2.992
REMARK  4 active torsions:
REMARK  status: ('A' for Active; 'I' for Inactive)
REMARK    1  A    between atoms: N1_3  and  C3_5 
REMARK    2  A    between atoms: C4_10  and  C5_11 
REMARK       I    between atoms: C5_11  and  N4_13 
REMARK    3  A    between atoms: N4_13  and  N5_14 
REMARK    4  A    between atoms: N6_17  and  N7_18 
ROOT
HETATM    1  C1  UNL     1     -14.539 -24.372 -25.092  1.00  0.00     0.037 C 
HETATM    2  C2  UNL     1     -14.356 -25.568 -25.179  1.00  0.00     0.015 C 
HETATM    3  N1  UNL     1     -14.171 -26.972 -25.282  1.00  0.00    -0.146 N 
ATOM      4  H1  UNL     1     -14.526 -27.591 -24.553  1.00  0.00     0.195 HD
ENDROOT
BRANCH   3   5
HETATM    5  C3  UNL     1     -13.549 -27.462 -26.306  1.00  0.00     0.727 A 
HETATM    6  N2  UNL     1     -14.125 -28.038 -27.380  1.00  0.00    -0.128 N 
HETATM    7  N3  UNL     1     -13.135 -28.394 -28.191  1.00  0.00    -0.264 N 
ATOM      8  H2  UNL     1     -15.123 -28.173 -27.539  1.00  0.00     0.205 HD
HETATM    9  C4  UNL     1     -11.970 -28.056 -27.650  1.00  0.00     0.244 A 
ATOM     10  H3  UNL     1     -13.252 -28.857 -29.093  1.00  0.00     0.189 HD
HETATM   11  N6  UNL     1     -12.223 -27.474 -26.475  1.00  0.00    -0.066 N 
BRANCH   9  12
HETATM   12  C5  UNL     1     -10.652 -28.303 -28.301  1.00  0.00     0.382 C 
HETATM   13  O1  UNL     1     -10.665 -28.154 -29.537  1.00  0.00    -0.246 OA
HETATM   14  N4  UNL     1      -9.606 -28.654 -27.524  1.00  0.00    -0.285 NA
BRANCH  14  15
HETATM   15  N5  UNL     1      -8.585 -28.997 -26.763  1.00  0.00    -0.276 N 
ATOM     16  H52 UNL     1      -9.405 -28.744 -27.315  1.00  0.00     0.191 HD
ATOM     17  H51 UNL     1      -7.795 -29.261 -26.176  1.00  0.00     0.191 HD
ENDBRANCH  14  15
ENDBRANCH   9  12
BRANCH  11  18
HETATM   18  N7  UNL     1     -11.208 -26.981 -25.635  1.00  0.00    -0.322 N 
ATOM     19  H72 UNL     1     -11.025 -25.985 -25.515  1.00  0.00     0.178 HD
ATOM     20  H71 UNL     1     -10.545 -27.489 -25.048  1.00  0.00     0.178 HD
ENDBRANCH  11  18
ENDBRANCH   3   5
TORSDOF 4
ENDMDL
MODEL 5
REMARK VINA RESULT: -6.831248297      2.196      2.541
REMARK  4 active torsions:
REMARK  status: ('A' for Active; 'I' for Inactive)
REMARK    1  A    between atoms: N1_3  and  C3_5 
REMARK    2  A    between atoms: C4_10  and  C5_11 
REMARK       I    between atoms: C5_11  and  N4_13 
REMARK    3  A    between atoms: N4_13  and  N5_14 
REMARK    4  A    between atoms: N6_17  and  N7_18 
ROOT
HETATM    1  C1  UNL     1     -16.687 -27.430 -26.226  1.00  0.00     0.037 C 
HETATM    2  C2  UNL     1     -15.595 -27.745 -25.800  1.00  0.00     0.015 C 
HETATM    3  N1  UNL     1     -14.332 -28.130 -25.280  1.00  0.00    -0.146 N 
ATOM      4  H1  UNL     1     -14.059 -27.852 -24.337  1.00  0.00     0.195 HD
ENDROOT
BRANCH   3   5
HETATM    5  C3  UNL     1     -13.528 -28.836 -26.009  1.00  0.00     0.727 A 
HETATM    6  N2  UNL     1     -13.752 -30.091 -26.446  1.00  0.00    -0.128 N 
HETATM    7  N3  UNL     1     -12.687 -30.436 -27.160  1.00  0.00    -0.264 N 
ATOM      8  H2  UNL     1     -14.577 -30.662 -26.264  1.00  0.00     0.205 HD
HETATM    9  C4  UNL     1     -11.815 -29.433 -27.175  1.00  0.00     0.244 A 
ATOM     10  H3  UNL     1     -12.557 -31.334 -27.626  1.00  0.00     0.189 HD
HETATM   11  N6  UNL     1     -12.335 -28.433 -26.460  1.00  0.00    -0.066 N 
BRANCH   9  12
HETATM   12  C5  UNL     1     -10.510 -29.482 -27.895  1.00  0.00     0.382 C 
HETATM   13  O1  UNL     1      -9.535 -29.158 -27.193  1.00  0.00    -0.246 OA
HETATM   14  N4  UNL     1     -10.505 -29.855 -29.192  1.00  0.00    -0.285 NA
BRANCH  14  15
HETATM   15  N5  UNL     1     -10.501 -30.220 -30.459  1.00  0.00    -0.276 N 
ATOM     16  H52 UNL     1     -10.526 -29.896 -29.492  1.00  0.00     0.191 HD
ATOM     17  H51 UNL     1     -10.497 -30.504 -31.438  1.00  0.00     0.191 HD
ENDBRANCH  14  15
ENDBRANCH   9  12
BRANCH  11  18
HETATM   18  N7  UNL     1     -11.676 -27.204 -26.277  1.00  0.00    -0.322 N 
ATOM     19  H72 UNL     1     -12.152 -26.305 -26.350  1.00  0.00     0.178 HD
ATOM     20  H71 UNL     1     -10.698 -27.018 -26.051  1.00  0.00     0.178 HD
ENDBRANCH  11  18
ENDBRANCH   3   5
TORSDOF 4
ENDMDL
