MODEL 1
REMARK VINA RESULT: -6.296339415      0.000      0.000
REMARK  4 active torsions:
REMARK  status: ('A' for Active; 'I' for Inactive)
REMARK    1  A    between atoms: C2_7  and  C3_8 
REMARK    2  A    between atoms: C5_12  and  N5_13 
REMARK    3  A    between atoms: N5_13  and  C6_15 
REMARK    4  A    between atoms: C7_19  and  N7_20 
ROOT
HETATM    1  C3  UNL     1      15.571  11.526  27.661  1.00  0.00     0.155 A 
HETATM    2  N4  UNL     1      16.738  11.944  27.150  1.00  0.00    -0.334 N 
ATOM      3  H4  UNL     1      16.845  12.050  26.141  1.00  0.00     0.168 HD
HETATM    4  C4  UNL     1      17.786  12.229  27.979  1.00  0.00     0.110 A 
HETATM    5  C5  UNL     1      18.993  12.659  27.497  1.00  0.00     0.152 A 
HETATM    6  N6  UNL     1      20.020  12.937  28.328  1.00  0.00    -0.174 N 
ATOM      7  H6  UNL     1      20.915  13.257  27.958  1.00  0.00     0.186 HD
HETATM    8  C7  UNL     1      19.840  12.783  29.652  1.00  0.00     0.678 A 
HETATM    9  N8  UNL     1      18.675  12.364  30.193  1.00  0.00    -0.186 N 
ATOM     10  H8  UNL     1      18.568  12.258  31.201  1.00  0.00     0.184 HD
HETATM   11  C8  UNL     1      17.656  12.089  29.346  1.00  0.00     0.123 A 
HETATM   12  C9  UNL     1      16.448  11.658  29.837  1.00  0.00     0.130 A 
HETATM   13  N9  UNL     1      16.237  11.500  31.098  1.00  0.00    -0.384 N 
ATOM     14  H91 UNL     1      15.340  11.180  31.463  1.00  0.00     0.157 HD
ATOM     15  H92 UNL     1      17.005  11.707  31.737  1.00  0.00     0.157 HD
HETATM   16  N10 UNL     1      15.426  11.383  28.987  1.00  0.00    -0.324 N 
ATOM     17  H10 UNL     1      14.533  11.063  29.363  1.00  0.00     0.169 HD
ENDROOT
BRANCH   1  18
HETATM   18  C2  UNL     1      14.419  11.208  26.801  1.00  0.00     0.182 A 
HETATM   19  N3  UNL     1      13.442  12.041  26.404  1.00  0.00    -0.265 N 
HETATM   20  N2  UNL     1      12.581  11.396  25.638  1.00  0.00    -0.225 N 
ATOM     21  H3  UNL     1      13.374  13.027  26.658  1.00  0.00     0.190 HD
HETATM   22  N1  UNL     1      13.015  10.153  25.549  1.00  0.00    -0.223 N 
ATOM     23  H2  UNL     1      11.745  11.782  25.201  1.00  0.00     0.210 HD
HETATM   24  C1  UNL     1      12.393   9.072  24.810  1.00  0.00     0.202 C 
HETATM   25  N11 UNL     1      14.128  10.015  26.247  1.00  0.00    -0.264 N 
ATOM     26  H11 UNL     1      14.672   9.158  26.348  1.00  0.00     0.190 HD
ENDBRANCH   1  18
BRANCH   5  27
HETATM   27  N5  UNL     1      19.153  12.801  26.236  1.00  0.00    -0.318 N 
ATOM     28  H5  UNL     1      18.469  12.352  25.627  1.00  0.00     0.169 HD
BRANCH  27  29
HETATM   29  C6  UNL     1      20.186  13.519  25.614  1.00  0.00     0.354 C 
HETATM   30  O1  UNL     1      20.537  14.616  26.145  1.00  0.00    -0.283 OA
ENDBRANCH  27  29
ENDBRANCH   5  27
BRANCH   8  31
HETATM   31  N7  UNL     1      20.798  13.038  30.490  1.00  0.00    -0.234 N 
ATOM     32  H72 UNL     1      21.312  13.905  30.333  1.00  0.00     0.174 HD
ATOM     33  H71 UNL     1      21.010  12.397  31.255  1.00  0.00     0.174 HD
ENDBRANCH   8  31
TORSDOF 4
ENDMDL
MODEL 2
REMARK VINA RESULT: -6.198639732      4.047      7.871
REMARK  4 active torsions:
REMARK  status: ('A' for Active; 'I' for Inactive)
REMARK    1  A    between atoms: C2_7  and  C3_8 
REMARK    2  A    between atoms: C5_12  and  N5_13 
REMARK    3  A    between atoms: N5_13  and  C6_15 
REMARK    4  A    between atoms: C7_19  and  N7_20 
ROOT
HETATM    1  C3  UNL     1      21.458  13.941  29.605  1.00  0.00     0.155 A 
HETATM    2  N4  UNL     1      20.819  12.763  29.572  1.00  0.00    -0.334 N 
ATOM      3  H4  UNL     1      20.737  12.204  30.421  1.00  0.00     0.168 HD
HETATM    4  C4  UNL     1      20.279  12.309  28.403  1.00  0.00     0.110 A 
HETATM    5  C5  UNL     1      19.619  11.112  28.328  1.00  0.00     0.152 A 
HETATM    6  N6  UNL     1      19.089  10.675  27.165  1.00  0.00    -0.174 N 
ATOM      7  H6  UNL     1      18.599   9.782  27.121  1.00  0.00     0.186 HD
HETATM    8  C7  UNL     1      19.221  11.442  26.068  1.00  0.00     0.678 A 
HETATM    9  N8  UNL     1      19.859  12.632  26.073  1.00  0.00    -0.186 N 
ATOM     10  H8  UNL     1      19.942  13.192  25.224  1.00  0.00     0.184 HD
HETATM   11  C8  UNL     1      20.384  13.055  27.246  1.00  0.00     0.123 A 
HETATM   12  C9  UNL     1      21.045  14.257  27.313  1.00  0.00     0.130 A 
HETATM   13  N9  UNL     1      21.191  15.018  26.284  1.00  0.00    -0.384 N 
ATOM     14  H91 UNL     1      21.682  15.911  26.334  1.00  0.00     0.157 HD
ATOM     15  H92 UNL     1      20.795  14.700  25.399  1.00  0.00     0.157 HD
HETATM   16  N10 UNL     1      21.572  14.680  28.491  1.00  0.00    -0.324 N 
ATOM     17  H10 UNL     1      22.061  15.574  28.529  1.00  0.00     0.169 HD
ENDROOT
BRANCH   1  18
HETATM   18  C2  UNL     1      22.055  14.465  30.845  1.00  0.00     0.182 A 
HETATM   19  N3  UNL     1      22.659  15.651  31.024  1.00  0.00    -0.265 N 
HETATM   20  N2  UNL     1      23.068  15.767  32.274  1.00  0.00    -0.225 N 
ATOM     21  H3  UNL     1      22.785  16.358  30.299  1.00  0.00     0.190 HD
HETATM   22  N1  UNL     1      22.721  14.652  32.888  1.00  0.00    -0.223 N 
ATOM     23  H2  UNL     1      23.557  16.563  32.684  1.00  0.00     0.210 HD
HETATM   24  C1  UNL     1      22.961  14.322  34.279  1.00  0.00     0.202 C 
HETATM   25  N11 UNL     1      22.105  13.846  32.042  1.00  0.00    -0.264 N 
ATOM     26  H11 UNL     1      21.732  12.921  32.255  1.00  0.00     0.190 HD
ENDBRANCH   1  18
BRANCH   5  27
HETATM   27  N5  UNL     1      19.499  10.391  29.378  1.00  0.00    -0.318 N 
ATOM     28  H5  UNL     1      20.287  10.382  30.026  1.00  0.00     0.169 HD
BRANCH  27  29
HETATM   29  C6  UNL     1      18.383   9.613  29.719  1.00  0.00     0.354 C 
HETATM   30  O1  UNL     1      18.105   8.630  28.967  1.00  0.00    -0.283 OA
ENDBRANCH  27  29
ENDBRANCH   5  27
BRANCH   8  31
HETATM   31  N7  UNL     1      18.728  11.064  24.927  1.00  0.00    -0.234 N 
ATOM     32  H72 UNL     1      17.780  10.688  24.951  1.00  0.00     0.174 HD
ATOM     33  H71 UNL     1      19.272  11.145  24.068  1.00  0.00     0.174 HD
ENDBRANCH   8  31
TORSDOF 4
ENDMDL
MODEL 3
REMARK VINA RESULT: -6.181485863      2.502      3.938
REMARK  4 active torsions:
REMARK  status: ('A' for Active; 'I' for Inactive)
REMARK    1  A    between atoms: C2_7  and  C3_8 
REMARK    2  A    between atoms: C5_12  and  N5_13 
REMARK    3  A    between atoms: N5_13  and  C6_15 
REMARK    4  A    between atoms: C7_19  and  N7_20 
ROOT
HETATM    1  C3  UNL     1      18.166  12.734  28.264  1.00  0.00     0.155 A 
HETATM    2  N4  UNL     1      19.292  12.153  28.703  1.00  0.00    -0.334 N 
ATOM      3  H4  UNL     1      19.379  11.136  28.691  1.00  0.00     0.168 HD
HETATM    4  C4  UNL     1      20.324  12.918  29.166  1.00  0.00     0.110 A 
HETATM    5  C5  UNL     1      21.489  12.363  29.621  1.00  0.00     0.152 A 
HETATM    6  N6  UNL     1      22.501  13.132  30.076  1.00  0.00    -0.174 N 
ATOM      7  H6  UNL     1      23.365  12.708  30.413  1.00  0.00     0.186 HD
HETATM    8  C7  UNL     1      22.347  14.468  30.077  1.00  0.00     0.678 A 
HETATM    9  N8  UNL     1      21.224  15.080  29.641  1.00  0.00    -0.186 N 
ATOM     10  H8  UNL     1      21.137  16.096  29.653  1.00  0.00     0.184 HD
HETATM   11  C8  UNL     1      20.220  14.295  29.189  1.00  0.00     0.123 A 
HETATM   12  C9  UNL     1      19.054  14.860  28.734  1.00  0.00     0.130 A 
HETATM   13  N9  UNL     1      18.869  16.134  28.718  1.00  0.00    -0.384 N 
ATOM     14  H91 UNL     1      18.003  16.554  28.380  1.00  0.00     0.157 HD
ATOM     15  H92 UNL     1      19.626  16.727  29.059  1.00  0.00     0.157 HD
HETATM   16  N10 UNL     1      18.046  14.071  28.280  1.00  0.00    -0.324 N 
ATOM     17  H10 UNL     1      17.184  14.501  27.945  1.00  0.00     0.169 HD
ENDROOT
BRANCH   1  18
HETATM   18  C2  UNL     1      17.032  11.944  27.758  1.00  0.00     0.182 A 
HETATM   19  N3  UNL     1      16.957  10.608  27.638  1.00  0.00    -0.265 N 
HETATM   20  N2  UNL     1      15.781  10.264  27.146  1.00  0.00    -0.225 N 
ATOM     21  H3  UNL     1      17.700   9.955  27.889  1.00  0.00     0.190 HD
HETATM   22  N1  UNL     1      15.110  11.384  26.956  1.00  0.00    -0.223 N 
ATOM     23  H2  UNL     1      15.454   9.317  26.951  1.00  0.00     0.210 HD
HETATM   24  C1  UNL     1      13.765  11.506  26.429  1.00  0.00     0.202 C 
HETATM   25  N11 UNL     1      15.848  12.417  27.320  1.00  0.00    -0.264 N 
ATOM     26  H11 UNL     1      15.573  13.398  27.278  1.00  0.00     0.190 HD
ENDBRANCH   1  18
BRANCH   5  27
HETATM   27  N5  UNL     1      21.625  11.090  29.616  1.00  0.00    -0.318 N 
ATOM     28  H5  UNL     1      20.967  10.556  29.049  1.00  0.00     0.169 HD
BRANCH  27  29
HETATM   29  C6  UNL     1      22.597  10.364  30.320  1.00  0.00     0.354 C 
HETATM   30  O1  UNL     1      23.798  10.460  29.923  1.00  0.00    -0.283 OA
ENDBRANCH  27  29
ENDBRANCH   5  27
BRANCH   8  31
HETATM   31  N7  UNL     1      23.292  15.249  30.505  1.00  0.00    -0.234 N 
ATOM     32  H72 UNL     1      23.554  15.140  31.485  1.00  0.00     0.174 HD
ATOM     33  H71 UNL     1      23.734  15.927  29.884  1.00  0.00     0.174 HD
ENDBRANCH   8  31
TORSDOF 4
ENDMDL
MODEL 4
REMARK VINA RESULT: -6.069825065      1.885      2.001
REMARK  4 active torsions:
REMARK  status: ('A' for Active; 'I' for Inactive)
REMARK    1  A    between atoms: C2_7  and  C3_8 
REMARK    2  A    between atoms: C5_12  and  N5_13 
REMARK    3  A    between atoms: N5_13  and  C6_15 
REMARK    4  A    between atoms: C7_19  and  N7_20 
ROOT
HETATM    1  C3  UNL     1      15.669  10.844  27.415  1.00  0.00     0.155 A 
HETATM    2  N4  UNL     1      16.732  11.528  26.965  1.00  0.00    -0.334 N 
ATOM      3  H4  UNL     1      16.605  12.275  26.283  1.00  0.00     0.168 HD
HETATM    4  C4  UNL     1      17.984  11.225  27.419  1.00  0.00     0.110 A 
HETATM    5  C5  UNL     1      19.093  11.900  26.986  1.00  0.00     0.152 A 
HETATM    6  N6  UNL     1      20.325  11.590  27.442  1.00  0.00    -0.174 N 
ATOM      7  H6  UNL     1      21.144  12.100  27.113  1.00  0.00     0.186 HD
HETATM    8  C7  UNL     1      20.450  10.597  28.341  1.00  0.00     0.678 A 
HETATM    9  N8  UNL     1      19.397   9.892  28.810  1.00  0.00    -0.186 N 
ATOM     10  H8  UNL     1      19.523   9.144  29.492  1.00  0.00     0.184 HD
HETATM   11  C8  UNL     1      18.170  10.214  28.341  1.00  0.00     0.123 A 
HETATM   12  C9  UNL     1      17.062   9.533  28.781  1.00  0.00     0.130 A 
HETATM   13  N9  UNL     1      17.141   8.577  29.640  1.00  0.00    -0.384 N 
ATOM     14  H91 UNL     1      16.318   8.070  29.967  1.00  0.00     0.157 HD
ATOM     15  H92 UNL     1      18.066   8.333  29.994  1.00  0.00     0.157 HD
HETATM   16  N10 UNL     1      15.830   9.858  28.310  1.00  0.00    -0.324 N 
ATOM     17  H10 UNL     1      15.014   9.344  28.643  1.00  0.00     0.169 HD
ENDROOT
BRANCH   1  18
HETATM   18  C2  UNL     1      14.304  11.139  26.949  1.00  0.00     0.182 A 
HETATM   19  N3  UNL     1      13.897  11.334  25.684  1.00  0.00    -0.265 N 
HETATM   20  N2  UNL     1      12.599  11.575  25.659  1.00  0.00    -0.225 N 
ATOM     21  H3  UNL     1      14.502  11.301  24.863  1.00  0.00     0.190 HD
HETATM   22  N1  UNL     1      12.184  11.532  26.911  1.00  0.00    -0.223 N 
ATOM     23  H2  UNL     1      12.028  11.759  24.833  1.00  0.00     0.210 HD
HETATM   24  C1  UNL     1      10.827  11.737  27.378  1.00  0.00     0.202 C 
HETATM   25  N11 UNL     1      13.200  11.269  27.712  1.00  0.00    -0.264 N 
ATOM     26  H11 UNL     1      13.158  11.180  28.727  1.00  0.00     0.190 HD
ENDBRANCH   1  18
BRANCH   5  27
HETATM   27  N5  UNL     1      18.962  12.843  26.131  1.00  0.00    -0.318 N 
ATOM     28  H5  UNL     1      18.011  13.106  25.871  1.00  0.00     0.169 HD
BRANCH  27  29
HETATM   29  C6  UNL     1      20.009  13.549  25.518  1.00  0.00     0.354 C 
HETATM   30  O1  UNL     1      20.591  14.442  26.205  1.00  0.00    -0.283 OA
ENDBRANCH  27  29
ENDBRANCH   5  27
BRANCH   8  31
HETATM   31  N7  UNL     1      21.613  10.263  28.809  1.00  0.00    -0.234 N 
ATOM     32  H72 UNL     1      22.351  10.961  28.715  1.00  0.00     0.174 HD
ATOM     33  H71 UNL     1      21.763   9.351  29.242  1.00  0.00     0.174 HD
ENDBRANCH   8  31
TORSDOF 4
ENDMDL
MODEL 5
REMARK VINA RESULT: -6.060711436      2.447      3.083
REMARK  4 active torsions:
REMARK  status: ('A' for Active; 'I' for Inactive)
REMARK    1  A    between atoms: C2_7  and  C3_8 
REMARK    2  A    between atoms: C5_12  and  N5_13 
REMARK    3  A    between atoms: N5_13  and  C6_15 
REMARK    4  A    between atoms: C7_19  and  N7_20 
ROOT
HETATM    1  C3  UNL     1      13.866  10.580  27.667  1.00  0.00     0.155 A 
HETATM    2  N4  UNL     1      14.835  11.488  27.864  1.00  0.00    -0.334 N 
ATOM      3  H4  UNL     1      14.617  12.483  27.818  1.00  0.00     0.168 HD
HETATM    4  C4  UNL     1      16.112  11.081  28.124  1.00  0.00     0.110 A 
HETATM    5  C5  UNL     1      17.128  11.975  28.330  1.00  0.00     0.152 A 
HETATM    6  N6  UNL     1      18.386  11.560  28.587  1.00  0.00    -0.174 N 
ATOM      7  H6  UNL     1      19.135  12.234  28.739  1.00  0.00     0.186 HD
HETATM    8  C7  UNL     1      18.632  10.238  28.637  1.00  0.00     0.678 A 
HETATM    9  N8  UNL     1      17.677   9.303  28.443  1.00  0.00    -0.186 N 
ATOM     10  H8  UNL     1      17.894   8.308  28.488  1.00  0.00     0.184 HD
HETATM   11  C8  UNL     1      16.421   9.737  28.186  1.00  0.00     0.123 A 
HETATM   12  C9  UNL     1      15.408   8.834  27.981  1.00  0.00     0.130 A 
HETATM   13  N9  UNL     1      15.604   7.561  28.021  1.00  0.00    -0.384 N 
ATOM     14  H91 UNL     1      14.851   6.890  27.868  1.00  0.00     0.157 HD
ATOM     15  H92 UNL     1      16.550   7.234  28.214  1.00  0.00     0.157 HD
HETATM   16  N10 UNL     1      14.147   9.270  27.724  1.00  0.00    -0.324 N 
ATOM     17  H10 UNL     1      13.403   8.589  27.571  1.00  0.00     0.169 HD
ENDROOT
BRANCH   1  18
HETATM   18  C2  UNL     1      12.478  10.979  27.384  1.00  0.00     0.182 A 
HETATM   19  N3  UNL     1      12.054  12.124  26.823  1.00  0.00    -0.265 N 
HETATM   20  N2  UNL     1      10.738  12.122  26.729  1.00  0.00    -0.225 N 
ATOM     21  H3  UNL     1      12.662  12.884  26.516  1.00  0.00     0.190 HD
HETATM   22  N1  UNL     1      10.327  10.972  27.230  1.00  0.00    -0.223 N 
ATOM     23  H2  UNL     1      10.152  12.864  26.345  1.00  0.00     0.210 HD
HETATM   24  C1  UNL     1       8.954  10.520  27.341  1.00  0.00     0.202 C 
HETATM   25  N11 UNL     1      11.364  10.262  27.634  1.00  0.00    -0.264 N 
ATOM     26  H11 UNL     1      11.330   9.336  28.059  1.00  0.00     0.190 HD
ENDBRANCH   1  18
BRANCH   5  27
HETATM   27  N5  UNL     1      16.882  13.230  28.280  1.00  0.00    -0.318 N 
ATOM     28  H5  UNL     1      16.238  13.605  28.977  1.00  0.00     0.169 HD
BRANCH  27  29
HETATM   29  C6  UNL     1      17.418  14.137  27.354  1.00  0.00     0.354 C 
HETATM   30  O1  UNL     1      16.681  14.483  26.382  1.00  0.00    -0.283 OA
ENDBRANCH  27  29
ENDBRANCH   5  27
BRANCH   8  31
HETATM   31  N7  UNL     1      19.826   9.790  28.880  1.00  0.00    -0.234 N 
ATOM     32  H72 UNL     1      20.421  10.388  29.455  1.00  0.00     0.174 HD
ATOM     33  H71 UNL     1      20.135   8.892  28.509  1.00  0.00     0.174 HD
ENDBRANCH   8  31
TORSDOF 4
ENDMDL
