MODEL 1
REMARK VINA RESULT: -5.774620292      0.000      0.000
REMARK  6 active torsions:
REMARK  status: ('A' for Active; 'I' for Inactive)
REMARK    1  A    between atoms: N1_1  and  C1_4 
REMARK    2  A    between atoms: C3_9  and  N4_10 
REMARK    3  A    between atoms: C6_15  and  N5_16 
REMARK    4  A    between atoms: C6_15  and  C7_20 
REMARK    5  A    between atoms: C7_20  and  O3_21 
REMARK    6  A    between atoms: C7_20  and  O4_23 
ROOT
HETATM    1  C1  UNL     1      21.826  14.333  29.142  1.00  0.00     0.150 A 
HETATM    2  N2  UNL     1      20.862  14.551  28.231  1.00  0.00    -0.267 N 
ATOM      3  H2  UNL     1      20.869  15.287  27.525  1.00  0.00     0.190 HD
HETATM    4  N3  UNL     1      19.894  13.647  28.399  1.00  0.00    -0.179 N 
HETATM    5  C2  UNL     1      20.188  12.827  29.401  1.00  0.00     0.083 A 
HETATM    6  C3  UNL     1      21.403  13.241  29.887  1.00  0.00     0.172 A 
HETATM    7  C4  UNL     1      19.336  11.708  29.859  1.00  0.00     0.066 C 
HETATM    8  C5  UNL     1      18.395  11.192  28.804  1.00  0.00     0.069 C 
HETATM    9  C6  UNL     1      17.429  12.284  28.406  1.00  0.00     0.293 C 
HETATM   10  S1  UNL     1      18.424  13.481  27.505  1.00  0.00     0.290 S 
HETATM   11  O5  UNL     1      18.764  12.962  26.152  1.00  0.00    -0.201 OA
HETATM   12  O6  UNL     1      17.696  14.789  27.385  1.00  0.00    -0.201 OA
ENDROOT
BRANCH   9  13
HETATM   13  N5  UNL     1      16.846  12.971  29.541  1.00  0.00    -0.050 N 
ATOM     14  H53 UNL     1      17.572  13.329  30.160  1.00  0.00     0.276 HD
ATOM     15  H52 UNL     1      16.422  13.853  29.252  1.00  0.00     0.276 HD
ATOM     16  H51 UNL     1      16.177  12.399  30.057  1.00  0.00     0.276 HD
ENDBRANCH   9  13
BRANCH   9  17
HETATM   17  C7  UNL     1      16.295  11.807  27.541  1.00  0.00     0.307 C 
BRANCH  17  18
HETATM   18  O3  UNL     1      16.887  11.008  26.530  1.00  0.00    -0.368 OA
ATOM     19  H3  UNL     1      16.275  10.301  26.365  1.00  0.00     0.212 HD
ENDBRANCH  17  18
BRANCH  17  20
HETATM   20  O4  UNL     1      15.728  12.878  26.821  1.00  0.00    -0.368 OA
ATOM     21  H4  UNL     1      15.040  12.571  26.244  1.00  0.00     0.212 HD
ENDBRANCH  17  20
ENDBRANCH   9  17
BRANCH   6  22
HETATM   22  N4  UNL     1      22.183  12.725  30.955  1.00  0.00    -0.110 N 
HETATM   23  O1  UNL     1      23.280  12.224  30.702  1.00  0.00    -0.532 OA
HETATM   24  O2  UNL     1      21.780  12.754  32.282  1.00  0.00    -0.532 OA
ENDBRANCH   6  22
BRANCH   1  25
HETATM   25  N1  UNL     1      22.927  15.012  29.287  1.00  0.00    -0.382 N 
ATOM     26  H12 UNL     1      23.126  15.951  28.944  1.00  0.00     0.157 HD
ATOM     27  H11 UNL     1      23.772  14.708  29.771  1.00  0.00     0.157 HD
ENDBRANCH   1  25
TORSDOF 6
ENDMDL
MODEL 2
REMARK VINA RESULT: -5.717096252      2.700      5.229
REMARK  6 active torsions:
REMARK  status: ('A' for Active; 'I' for Inactive)
REMARK    1  A    between atoms: N1_1  and  C1_4 
REMARK    2  A    between atoms: C3_9  and  N4_10 
REMARK    3  A    between atoms: C6_15  and  N5_16 
REMARK    4  A    between atoms: C6_15  and  C7_20 
REMARK    5  A    between atoms: C7_20  and  O3_21 
REMARK    6  A    between atoms: C7_20  and  O4_23 
ROOT
HETATM    1  C1  UNL     1      16.036  10.268  27.632  1.00  0.00     0.150 A 
HETATM    2  N2  UNL     1      16.639  11.066  26.734  1.00  0.00    -0.267 N 
ATOM      3  H2  UNL     1      16.414  11.117  25.741  1.00  0.00     0.190 HD
HETATM    4  N3  UNL     1      17.582  11.781  27.353  1.00  0.00    -0.179 N 
HETATM    5  C2  UNL     1      17.623  11.481  28.646  1.00  0.00     0.083 A 
HETATM    6  C3  UNL     1      16.656  10.528  28.846  1.00  0.00     0.172 A 
HETATM    7  C4  UNL     1      18.548  12.088  29.628  1.00  0.00     0.066 C 
HETATM    8  C5  UNL     1      19.061  13.442  29.221  1.00  0.00     0.069 C 
HETATM    9  C6  UNL     1      19.865  13.320  27.947  1.00  0.00     0.293 C 
HETATM   10  S1  UNL     1      18.656  12.948  26.668  1.00  0.00     0.290 S 
HETATM   11  O5  UNL     1      17.864  14.162  26.331  1.00  0.00    -0.201 OA
HETATM   12  O6  UNL     1      19.336  12.422  25.437  1.00  0.00    -0.201 OA
ENDROOT
BRANCH   9  13
HETATM   13  N5  UNL     1      20.817  12.229  27.975  1.00  0.00    -0.050 N 
ATOM     14  H53 UNL     1      21.342  12.228  28.849  1.00  0.00     0.276 HD
ATOM     15  H52 UNL     1      20.338  11.333  28.066  1.00  0.00     0.276 HD
ATOM     16  H51 UNL     1      21.447  12.224  27.173  1.00  0.00     0.276 HD
ENDBRANCH   9  13
BRANCH   9  17
HETATM   17  C7  UNL     1      20.624  14.567  27.585  1.00  0.00     0.307 C 
BRANCH  17  18
HETATM   18  O3  UNL     1      19.785  15.652  27.945  1.00  0.00    -0.368 OA
ATOM     19  H3  UNL     1      18.996  15.263  28.302  1.00  0.00     0.212 HD
ENDBRANCH  17  18
BRANCH  17  20
HETATM   20  O4  UNL     1      20.742  14.694  26.187  1.00  0.00    -0.368 OA
ATOM     21  H4  UNL     1      21.293  14.008  25.830  1.00  0.00     0.212 HD
ENDBRANCH  17  20
ENDBRANCH   9  17
BRANCH   6  22
HETATM   22  N4  UNL     1      16.271   9.854  30.035  1.00  0.00    -0.110 N 
HETATM   23  O1  UNL     1      15.125  10.010  30.461  1.00  0.00    -0.532 OA
HETATM   24  O2  UNL     1      17.116   9.020  30.752  1.00  0.00    -0.532 OA
ENDBRANCH   6  22
BRANCH   1  25
HETATM   25  N1  UNL     1      15.069   9.429  27.400  1.00  0.00    -0.382 N 
ATOM     26  H12 UNL     1      14.399   9.451  26.632  1.00  0.00     0.157 HD
ATOM     27  H11 UNL     1      14.827   8.609  27.957  1.00  0.00     0.157 HD
ENDBRANCH   1  25
TORSDOF 6
ENDMDL
MODEL 3
REMARK VINA RESULT: -5.576840565      3.098      4.544
REMARK  6 active torsions:
REMARK  status: ('A' for Active; 'I' for Inactive)
REMARK    1  A    between atoms: N1_1  and  C1_4 
REMARK    2  A    between atoms: C3_9  and  N4_10 
REMARK    3  A    between atoms: C6_15  and  N5_16 
REMARK    4  A    between atoms: C6_15  and  C7_20 
REMARK    5  A    between atoms: C7_20  and  O3_21 
REMARK    6  A    between atoms: C7_20  and  O4_23 
ROOT
HETATM    1  C1  UNL     1      16.578  11.803  30.116  1.00  0.00     0.150 A 
HETATM    2  N2  UNL     1      16.777  12.851  29.300  1.00  0.00    -0.267 N 
ATOM      3  H2  UNL     1      16.218  13.705  29.285  1.00  0.00     0.190 HD
HETATM    4  N3  UNL     1      17.824  12.597  28.512  1.00  0.00    -0.179 N 
HETATM    5  C2  UNL     1      18.334  11.401  28.783  1.00  0.00     0.083 A 
HETATM    6  C3  UNL     1      17.563  10.880  29.792  1.00  0.00     0.172 A 
HETATM    7  C4  UNL     1      19.501  10.802  28.100  1.00  0.00     0.066 C 
HETATM    8  C5  UNL     1      20.422  11.815  27.474  1.00  0.00     0.069 C 
HETATM    9  C6  UNL     1      19.684  12.575  26.396  1.00  0.00     0.293 C 
HETATM   10  S1  UNL     1      18.500  13.602  27.279  1.00  0.00     0.290 S 
HETATM   11  O5  UNL     1      19.191  14.742  27.941  1.00  0.00    -0.201 OA
HETATM   12  O6  UNL     1      17.445  14.116  26.342  1.00  0.00    -0.201 OA
ENDROOT
BRANCH   9  13
HETATM   13  N5  UNL     1      18.932  11.716  25.504  1.00  0.00    -0.050 N 
ATOM     14  H53 UNL     1      19.471  10.885  25.261  1.00  0.00     0.276 HD
ATOM     15  H52 UNL     1      18.155  11.274  25.996  1.00  0.00     0.276 HD
ATOM     16  H51 UNL     1      18.605  12.195  24.665  1.00  0.00     0.276 HD
ENDBRANCH   9  13
BRANCH   9  17
HETATM   17  C7  UNL     1      20.573  13.438  25.543  1.00  0.00     0.307 C 
BRANCH  17  18
HETATM   18  O3  UNL     1      21.260  14.294  26.440  1.00  0.00    -0.368 OA
ATOM     19  H3  UNL     1      21.724  14.920  25.898  1.00  0.00     0.212 HD
ENDBRANCH  17  18
BRANCH  17  20
HETATM   20  O4  UNL     1      19.808  14.327  24.762  1.00  0.00    -0.368 OA
ATOM     21  H4  UNL     1      19.559  13.925  23.939  1.00  0.00     0.212 HD
ENDBRANCH  17  20
ENDBRANCH   9  17
BRANCH   6  22
HETATM   22  N4  UNL     1      17.660   9.631  30.462  1.00  0.00    -0.110 N 
HETATM   23  O1  UNL     1      17.846   9.624  31.680  1.00  0.00    -0.532 OA
HETATM   24  O2  UNL     1      17.552   8.407  29.820  1.00  0.00    -0.532 OA
ENDBRANCH   6  22
BRANCH   1  25
HETATM   25  N1  UNL     1      15.651  11.686  31.022  1.00  0.00    -0.382 N 
ATOM     26  H12 UNL     1      14.932  12.367  31.264  1.00  0.00     0.157 HD
ATOM     27  H11 UNL     1      15.497  10.887  31.637  1.00  0.00     0.157 HD
ENDBRANCH   1  25
TORSDOF 6
ENDMDL
MODEL 4
REMARK VINA RESULT: -5.516100722      2.907      4.090
REMARK  6 active torsions:
REMARK  status: ('A' for Active; 'I' for Inactive)
REMARK    1  A    between atoms: N1_1  and  C1_4 
REMARK    2  A    between atoms: C3_9  and  N4_10 
REMARK    3  A    between atoms: C6_15  and  N5_16 
REMARK    4  A    between atoms: C6_15  and  C7_20 
REMARK    5  A    between atoms: C7_20  and  O3_21 
REMARK    6  A    between atoms: C7_20  and  O4_23 
ROOT
HETATM    1  C1  UNL     1      17.664  11.368  30.592  1.00  0.00     0.150 A 
HETATM    2  N2  UNL     1      17.445  12.388  29.746  1.00  0.00    -0.267 N 
ATOM      3  H2  UNL     1      16.751  13.125  29.873  1.00  0.00     0.190 HD
HETATM    4  N3  UNL     1      18.281  12.281  28.711  1.00  0.00    -0.179 N 
HETATM    5  C2  UNL     1      19.057  11.213  28.845  1.00  0.00     0.083 A 
HETATM    6  C3  UNL     1      18.686  10.619  30.025  1.00  0.00     0.172 A 
HETATM    7  C4  UNL     1      20.099  10.795  27.882  1.00  0.00     0.066 C 
HETATM    8  C5  UNL     1      20.620  11.919  27.027  1.00  0.00     0.069 C 
HETATM    9  C6  UNL     1      19.500  12.474  26.178  1.00  0.00     0.293 C 
HETATM   10  S1  UNL     1      18.414  13.321  27.336  1.00  0.00     0.290 S 
HETATM   11  O5  UNL     1      19.027  14.600  27.784  1.00  0.00    -0.201 OA
HETATM   12  O6  UNL     1      17.076  13.584  26.708  1.00  0.00    -0.201 OA
ENDROOT
BRANCH   9  13
HETATM   13  N5  UNL     1      18.717  11.446  25.522  1.00  0.00    -0.050 N 
ATOM     14  H53 UNL     1      18.667  10.606  26.098  1.00  0.00     0.276 HD
ATOM     15  H52 UNL     1      17.729  11.697  25.506  1.00  0.00     0.276 HD
ATOM     16  H51 UNL     1      19.051  11.224  24.584  1.00  0.00     0.276 HD
ENDBRANCH   9  13
BRANCH   9  17
HETATM   17  C7  UNL     1      19.960  13.432  25.115  1.00  0.00     0.307 C 
BRANCH  17  18
HETATM   18  O3  UNL     1      20.691  14.441  25.791  1.00  0.00    -0.368 OA
ATOM     19  H3  UNL     1      21.230  14.859  25.130  1.00  0.00     0.212 HD
ENDBRANCH  17  18
BRANCH  17  20
HETATM   20  O4  UNL     1      18.868  14.133  24.564  1.00  0.00    -0.368 OA
ATOM     21  H4  UNL     1      19.124  15.011  24.308  1.00  0.00     0.212 HD
ENDBRANCH  17  20
ENDBRANCH   9  17
BRANCH   6  22
HETATM   22  N4  UNL     1      19.185   9.448  30.654  1.00  0.00    -0.110 N 
HETATM   23  O1  UNL     1      19.597   9.525  31.813  1.00  0.00    -0.532 OA
HETATM   24  O2  UNL     1      19.232   8.207  30.036  1.00  0.00    -0.532 OA
ENDBRANCH   6  22
BRANCH   1  25
HETATM   25  N1  UNL     1      17.042  11.138  31.712  1.00  0.00    -0.382 N 
ATOM     26  H12 UNL     1      16.665  11.825  32.364  1.00  0.00     0.157 HD
ATOM     27  H11 UNL     1      16.831  10.226  32.117  1.00  0.00     0.157 HD
ENDBRANCH   1  25
TORSDOF 6
ENDMDL
MODEL 5
REMARK VINA RESULT: -5.428271286      2.659      5.325
REMARK  6 active torsions:
REMARK  status: ('A' for Active; 'I' for Inactive)
REMARK    1  A    between atoms: N1_1  and  C1_4 
REMARK    2  A    between atoms: C3_9  and  N4_10 
REMARK    3  A    between atoms: C6_15  and  N5_16 
REMARK    4  A    between atoms: C6_15  and  C7_20 
REMARK    5  A    between atoms: C7_20  and  O3_21 
REMARK    6  A    between atoms: C7_20  and  O4_23 
ROOT
HETATM    1  C1  UNL     1      15.695  11.061  27.542  1.00  0.00     0.150 A 
HETATM    2  N2  UNL     1      16.174  12.210  27.035  1.00  0.00    -0.267 N 
ATOM      3  H2  UNL     1      15.648  12.869  26.460  1.00  0.00     0.190 HD
HETATM    4  N3  UNL     1      17.449  12.350  27.404  1.00  0.00    -0.179 N 
HETATM    5  C2  UNL     1      17.836  11.321  28.150  1.00  0.00     0.083 A 
HETATM    6  C3  UNL     1      16.745  10.494  28.250  1.00  0.00     0.172 A 
HETATM    7  C4  UNL     1      19.186  11.154  28.730  1.00  0.00     0.066 C 
HETATM    8  C5  UNL     1      19.935  12.448  28.903  1.00  0.00     0.069 C 
HETATM    9  C6  UNL     1      20.163  13.089  27.554  1.00  0.00     0.293 C 
HETATM   10  S1  UNL     1      18.536  13.637  27.019  1.00  0.00     0.290 S 
HETATM   11  O5  UNL     1      18.113  14.841  27.784  1.00  0.00    -0.201 OA
HETATM   12  O6  UNL     1      18.539  13.939  25.548  1.00  0.00    -0.201 OA
ENDROOT
BRANCH   9  13
HETATM   13  N5  UNL     1      20.659  12.162  26.558  1.00  0.00    -0.050 N 
ATOM     14  H53 UNL     1      20.179  12.295  25.668  1.00  0.00     0.276 HD
ATOM     15  H52 UNL     1      21.608  12.406  26.276  1.00  0.00     0.276 HD
ATOM     16  H51 UNL     1      20.608  11.187  26.856  1.00  0.00     0.276 HD
ENDBRANCH   9  13
BRANCH   9  17
HETATM   17  C7  UNL     1      21.110  14.257  27.589  1.00  0.00     0.307 C 
BRANCH  17  18
HETATM   18  O3  UNL     1      20.811  14.965  28.780  1.00  0.00    -0.368 OA
ATOM     19  H3  UNL     1      21.420  15.693  28.811  1.00  0.00     0.212 HD
ENDBRANCH  17  18
BRANCH  17  20
HETATM   20  O4  UNL     1      20.801  15.183  26.572  1.00  0.00    -0.368 OA
ATOM     21  H4  UNL     1      21.334  15.030  25.802  1.00  0.00     0.212 HD
ENDBRANCH  17  20
ENDBRANCH   9  17
BRANCH   6  22
HETATM   22  N4  UNL     1      16.600   9.254  28.927  1.00  0.00    -0.110 N 
HETATM   23  O1  UNL     1      15.658   9.112  29.710  1.00  0.00    -0.532 OA
HETATM   24  O2  UNL     1      17.462   8.181  28.757  1.00  0.00    -0.532 OA
ENDBRANCH   6  22
BRANCH   1  25
HETATM   25  N1  UNL     1      14.492  10.588  27.396  1.00  0.00    -0.382 N 
ATOM     26  H12 UNL     1      13.624  10.972  27.770  1.00  0.00     0.157 HD
ATOM     27  H11 UNL     1      14.225   9.750  26.879  1.00  0.00     0.157 HD
ENDBRANCH   1  25
TORSDOF 6
ENDMDL
