MODEL 1
REMARK VINA RESULT: -8.990635921      0.000      0.000
REMARK  12 active torsions:
REMARK  status: ('A' for Active; 'I' for Inactive)
REMARK    1  A    between atoms: C4_7  and  C5_8 
REMARK    2  A    between atoms: C5_8  and  C6_9 
REMARK    3  A    between atoms: C6_9  and  N2_10 
REMARK    4  A    between atoms: C6_9  and  C28_40 
REMARK       I    between atoms: N2_10  and  C7_12 
REMARK    5  A    between atoms: C7_12  and  C8_14 
REMARK    6  A    between atoms: C11_17  and  N3_18 
REMARK    7  A    between atoms: C19_26  and  C20_27 
REMARK       I    between atoms: C20_27  and  N4_29 
REMARK    8  A    between atoms: N4_29  and  C21_31 
REMARK    9  A    between atoms: C21_31  and  C22_32 
REMARK   10  A    between atoms: C22_32  and  C23_33 
REMARK   11  A    between atoms: C23_33  and  N5_34 
REMARK   12  A    between atoms: C28_40  and  C29_42 
ROOT
HETATM    1  C8  UNL     1      19.020  27.239  11.974  1.00  0.00     0.091 C 
HETATM    2  C9  UNL     1      19.277  25.988  11.156  1.00  0.00     0.017 C 
HETATM    3  C10 UNL     1      18.090  25.458  10.432  1.00  0.00     0.036 C 
HETATM    4  C11 UNL     1      17.341  26.410   9.578  1.00  0.00     0.224 C 
HETATM    5  C18 UNL     1      17.746  27.832   9.931  1.00  0.00     0.050 C 
HETATM    6  C19 UNL     1      17.772  27.850  11.461  1.00  0.00     0.093 C 
ENDROOT
BRANCH   1   7
HETATM    7  C7  UNL     1      20.240  28.064  11.866  1.00  0.00     0.223 C 
HETATM    8  N2  UNL     1      21.446  27.573  12.389  1.00  0.00    -0.349 N 
ATOM      9  H2  UNL     1      21.456  26.652  12.826  1.00  0.00     0.163 HD
HETATM   10  O2  UNL     1      20.265  29.194  11.328  1.00  0.00    -0.273 OA
BRANCH   8  11
HETATM   11  C6  UNL     1      22.723  28.361  12.324  1.00  0.00     0.162 C 
BRANCH  11  12
HETATM   12  C5  UNL     1      22.836  28.921  13.682  1.00  0.00     0.047 C 
BRANCH  12  13
HETATM   13  C4  UNL     1      22.020  30.026  14.161  1.00  0.00     0.081 C 
HETATM   14  C1  UNL     1      20.997  29.777  15.175  1.00  0.00     0.221 C 
HETATM   15  O1  UNL     1      20.228  28.797  15.237  1.00  0.00    -0.273 OA
HETATM   16  N1  UNL     1      21.022  30.855  16.091  1.00  0.00    -0.361 N 
HETATM   17  C2  UNL     1      21.857  31.932  15.539  1.00  0.00     0.123 C 
ATOM     18  H1  UNL     1      20.539  30.881  16.989  1.00  0.00     0.162 HD
HETATM   19  C3  UNL     1      22.776  31.263  14.578  1.00  0.00     0.034 C 
ENDBRANCH  12  13
ENDBRANCH  11  12
BRANCH  11  20
HETATM   20  C28 UNL     1      23.792  27.474  11.860  1.00  0.00     0.205 C 
HETATM   21  O5  UNL     1      24.911  27.378  12.434  1.00  0.00    -0.288 OA
BRANCH  20  22
HETATM   22  C29 UNL     1      23.620  26.615  10.663  1.00  0.00     0.122 A 
HETATM   23  N6  UNL     1      23.737  26.931   9.388  1.00  0.00    -0.357 N 
HETATM   24  C30 UNL     1      23.572  26.031   8.477  1.00  0.00     0.096 A 
ATOM     25  H6  UNL     1      23.959  27.890   9.120  1.00  0.00     0.166 HD
HETATM   26  C31 UNL     1      23.277  24.754   8.882  1.00  0.00     0.069 A 
HETATM   27  S1  UNL     1      23.253  24.937  10.580  1.00  0.00    -0.079 SA
ENDBRANCH  20  22
ENDBRANCH  11  20
ENDBRANCH   8  11
ENDBRANCH   1   7
BRANCH   6  28
HETATM   28  C20 UNL     1      17.375  29.140  12.030  1.00  0.00     0.222 C 
HETATM   29  O3  UNL     1      16.438  29.781  11.547  1.00  0.00    -0.273 OA
HETATM   30  N4  UNL     1      18.057  29.705  13.161  1.00  0.00    -0.361 N 
ATOM     31  H4  UNL     1      18.838  29.182  13.559  1.00  0.00     0.162 HD
BRANCH  30  32
HETATM   32  C21 UNL     1      17.711  30.946  13.759  1.00  0.00     0.124 C 
BRANCH  32  33
HETATM   33  C22 UNL     1      17.190  30.778  15.154  1.00  0.00     0.040 C 
BRANCH  33  34
HETATM   34  C23 UNL     1      17.889  31.738  16.105  1.00  0.00     0.129 C 
BRANCH  34  35
HETATM   35  N5  UNL     1      17.135  32.897  16.409  1.00  0.00    -0.370 N 
HETATM   36  C24 UNL     1      15.731  32.796  16.423  1.00  0.00     0.089 C 
HETATM   37  C25 UNL     1      15.033  33.812  17.293  1.00  0.00     0.212 C 
HETATM   38  O4  UNL     1      15.798  34.066  18.434  1.00  0.00    -0.381 OA
HETATM   39  C26 UNL     1      16.913  34.758  18.029  1.00  0.00     0.212 C 
HETATM   40  C27 UNL     1      17.765  33.941  17.117  1.00  0.00     0.089 C 
ENDBRANCH  34  35
ENDBRANCH  33  34
ENDBRANCH  32  33
ENDBRANCH  30  32
ENDBRANCH   6  28
BRANCH   4  41
HETATM   41  N3  UNL     1      17.349  26.124   8.180  1.00  0.00     0.093 N 
HETATM   42  C12 UNL     1      18.258  27.047   7.525  1.00  0.00     0.273 C 
HETATM   43  C13 UNL     1      17.966  27.125   6.052  1.00  0.00     0.030 C 
HETATM   44  C14 UNL     1      19.069  26.382   5.294  1.00  0.00     0.002 C 
HETATM   45  C15 UNL     1      19.213  24.988   5.869  1.00  0.00     0.002 C 
HETATM   46  C16 UNL     1      17.922  24.475   6.470  1.00  0.00     0.030 C 
HETATM   47  C17 UNL     1      17.811  24.789   7.945  1.00  0.00     0.273 C 
ENDBRANCH   4  41
TORSDOF 12
ENDMDL
MODEL 2
REMARK VINA RESULT: -8.807243554      1.782      4.059
REMARK  12 active torsions:
REMARK  status: ('A' for Active; 'I' for Inactive)
REMARK    1  A    between atoms: C4_7  and  C5_8 
REMARK    2  A    between atoms: C5_8  and  C6_9 
REMARK    3  A    between atoms: C6_9  and  N2_10 
REMARK    4  A    between atoms: C6_9  and  C28_40 
REMARK       I    between atoms: N2_10  and  C7_12 
REMARK    5  A    between atoms: C7_12  and  C8_14 
REMARK    6  A    between atoms: C11_17  and  N3_18 
REMARK    7  A    between atoms: C19_26  and  C20_27 
REMARK       I    between atoms: C20_27  and  N4_29 
REMARK    8  A    between atoms: N4_29  and  C21_31 
REMARK    9  A    between atoms: C21_31  and  C22_32 
REMARK   10  A    between atoms: C22_32  and  C23_33 
REMARK   11  A    between atoms: C23_33  and  N5_34 
REMARK   12  A    between atoms: C28_40  and  C29_42 
ROOT
HETATM    1  C8  UNL     1      18.317  27.188  12.442  1.00  0.00     0.091 C 
HETATM    2  C9  UNL     1      18.827  25.976  11.686  1.00  0.00     0.017 C 
HETATM    3  C10 UNL     1      18.080  25.654  10.441  1.00  0.00     0.036 C 
HETATM    4  C11 UNL     1      17.897  26.752   9.461  1.00  0.00     0.224 C 
HETATM    5  C18 UNL     1      18.200  28.082  10.132  1.00  0.00     0.050 C 
HETATM    6  C19 UNL     1      17.508  27.987  11.493  1.00  0.00     0.093 C 
ENDROOT
BRANCH   1   7
HETATM    7  C7  UNL     1      19.507  27.857  13.006  1.00  0.00     0.223 C 
HETATM    8  N2  UNL     1      20.577  28.180  12.157  1.00  0.00    -0.349 N 
ATOM      9  H2  UNL     1      20.506  27.952  11.165  1.00  0.00     0.163 HD
HETATM   10  O2  UNL     1      19.622  28.159  14.215  1.00  0.00    -0.273 OA
BRANCH   8  11
HETATM   11  C6  UNL     1      21.821  28.851  12.663  1.00  0.00     0.162 C 
BRANCH  11  12
HETATM   12  C5  UNL     1      22.836  28.457  11.670  1.00  0.00     0.047 C 
BRANCH  12  13
HETATM   13  C4  UNL     1      23.739  27.330  11.853  1.00  0.00     0.081 C 
HETATM   14  C1  UNL     1      23.263  25.977  11.572  1.00  0.00     0.221 C 
HETATM   15  O1  UNL     1      22.144  25.504  11.850  1.00  0.00    -0.273 OA
HETATM   16  N1  UNL     1      24.308  25.278  10.920  1.00  0.00    -0.361 N 
HETATM   17  C2  UNL     1      25.545  26.067  11.016  1.00  0.00     0.123 C 
ATOM     18  H1  UNL     1      24.216  24.372  10.459  1.00  0.00     0.162 HD
HETATM   19  C3  UNL     1      25.098  27.473  11.215  1.00  0.00     0.034 C 
ENDBRANCH  12  13
ENDBRANCH  11  12
BRANCH  11  20
HETATM   20  C28 UNL     1      21.545  30.280  12.826  1.00  0.00     0.205 C 
HETATM   21  O5  UNL     1      21.091  31.008  11.902  1.00  0.00    -0.288 OA
BRANCH  20  22
HETATM   22  C29 UNL     1      21.783  30.971  14.117  1.00  0.00     0.122 A 
HETATM   23  N6  UNL     1      21.272  30.713  15.305  1.00  0.00    -0.357 N 
HETATM   24  C30 UNL     1      21.622  31.416  16.330  1.00  0.00     0.096 A 
ATOM     25  H6  UNL     1      20.599  29.954  15.415  1.00  0.00     0.166 HD
HETATM   26  C31 UNL     1      22.531  32.425  16.137  1.00  0.00     0.069 A 
HETATM   27  S1  UNL     1      22.827  32.293  14.459  1.00  0.00    -0.079 SA
ENDBRANCH  20  22
ENDBRANCH  11  20
ENDBRANCH   8  11
ENDBRANCH   1   7
BRANCH   6  28
HETATM   28  C20 UNL     1      16.995  29.274  11.970  1.00  0.00     0.222 C 
HETATM   29  O3  UNL     1      15.964  29.757  11.496  1.00  0.00    -0.273 OA
HETATM   30  N4  UNL     1      17.668  30.017  12.999  1.00  0.00    -0.361 N 
ATOM     31  H4  UNL     1      18.525  29.625  13.390  1.00  0.00     0.162 HD
BRANCH  30  32
HETATM   32  C21 UNL     1      17.213  31.263  13.506  1.00  0.00     0.124 C 
BRANCH  32  33
HETATM   33  C22 UNL     1      18.127  31.816  14.558  1.00  0.00     0.040 C 
BRANCH  33  34
HETATM   34  C23 UNL     1      17.465  31.758  15.926  1.00  0.00     0.129 C 
BRANCH  34  35
HETATM   35  N5  UNL     1      16.928  32.994  16.359  1.00  0.00    -0.370 N 
HETATM   36  C24 UNL     1      15.530  33.112  16.472  1.00  0.00     0.089 C 
HETATM   37  C25 UNL     1      15.061  34.156  17.454  1.00  0.00     0.212 C 
HETATM   38  O4  UNL     1      15.929  34.204  18.548  1.00  0.00    -0.381 OA
HETATM   39  C26 UNL     1      17.112  34.742  18.104  1.00  0.00     0.212 C 
HETATM   40  C27 UNL     1      17.761  33.872  17.080  1.00  0.00     0.089 C 
ENDBRANCH  34  35
ENDBRANCH  33  34
ENDBRANCH  32  33
ENDBRANCH  30  32
ENDBRANCH   6  28
BRANCH   4  41
HETATM   41  N3  UNL     1      18.536  26.568   8.199  1.00  0.00     0.093 N 
HETATM   42  C12 UNL     1      18.426  25.171   7.825  1.00  0.00     0.273 C 
HETATM   43  C13 UNL     1      19.452  24.817   6.784  1.00  0.00     0.030 C 
HETATM   44  C14 UNL     1      18.745  24.651   5.436  1.00  0.00     0.002 C 
HETATM   45  C15 UNL     1      17.915  25.887   5.157  1.00  0.00     0.002 C 
HETATM   46  C16 UNL     1      18.479  27.125   5.820  1.00  0.00     0.030 C 
HETATM   47  C17 UNL     1      17.892  27.359   7.193  1.00  0.00     0.273 C 
ENDBRANCH   4  41
TORSDOF 12
ENDMDL
MODEL 3
REMARK VINA RESULT: -8.780983421      3.425     10.307
REMARK  12 active torsions:
REMARK  status: ('A' for Active; 'I' for Inactive)
REMARK    1  A    between atoms: C4_7  and  C5_8 
REMARK    2  A    between atoms: C5_8  and  C6_9 
REMARK    3  A    between atoms: C6_9  and  N2_10 
REMARK    4  A    between atoms: C6_9  and  C28_40 
REMARK       I    between atoms: N2_10  and  C7_12 
REMARK    5  A    between atoms: C7_12  and  C8_14 
REMARK    6  A    between atoms: C11_17  and  N3_18 
REMARK    7  A    between atoms: C19_26  and  C20_27 
REMARK       I    between atoms: C20_27  and  N4_29 
REMARK    8  A    between atoms: N4_29  and  C21_31 
REMARK    9  A    between atoms: C21_31  and  C22_32 
REMARK   10  A    between atoms: C22_32  and  C23_33 
REMARK   11  A    between atoms: C23_33  and  N5_34 
REMARK   12  A    between atoms: C28_40  and  C29_42 
ROOT
HETATM    1  C8  UNL     1      21.538  32.272  16.994  1.00  0.00     0.091 C 
HETATM    2  C9  UNL     1      21.112  33.248  18.074  1.00  0.00     0.017 C 
HETATM    3  C10 UNL     1      21.834  34.549  18.064  1.00  0.00     0.036 C 
HETATM    4  C11 UNL     1      21.875  35.287  16.778  1.00  0.00     0.224 C 
HETATM    5  C18 UNL     1      21.478  34.352  15.646  1.00  0.00     0.050 C 
HETATM    6  C19 UNL     1      22.231  33.054  15.945  1.00  0.00     0.093 C 
ENDROOT
BRANCH   1   7
HETATM    7  C7  UNL     1      20.316  31.558  16.573  1.00  0.00     0.223 C 
HETATM    8  N2  UNL     1      19.146  32.292  16.326  1.00  0.00    -0.349 N 
ATOM      9  H2  UNL     1      19.167  33.306  16.436  1.00  0.00     0.163 HD
HETATM   10  O2  UNL     1      20.258  30.317  16.420  1.00  0.00    -0.273 OA
BRANCH   8  11
HETATM   11  C6  UNL     1      17.864  31.633  15.905  1.00  0.00     0.162 C 
BRANCH  11  12
HETATM   12  C5  UNL     1      16.834  32.553  16.419  1.00  0.00     0.047 C 
BRANCH  12  13
HETATM   13  C4  UNL     1      17.091  33.953  16.717  1.00  0.00     0.081 C 
HETATM   14  C1  UNL     1      16.530  34.987  15.848  1.00  0.00     0.221 C 
HETATM   15  O1  UNL     1      16.460  34.961  14.604  1.00  0.00    -0.273 OA
HETATM   16  N1  UNL     1      16.075  36.045  16.671  1.00  0.00    -0.361 N 
HETATM   17  C2  UNL     1      16.575  35.837  18.038  1.00  0.00     0.123 C 
ATOM     18  H1  UNL     1      15.494  36.826  16.364  1.00  0.00     0.162 HD
HETATM   19  C3  UNL     1      16.834  34.375  18.143  1.00  0.00     0.034 C 
ENDBRANCH  12  13
ENDBRANCH  11  12
BRANCH  11  20
HETATM   20  C28 UNL     1      17.914  31.403  14.459  1.00  0.00     0.205 C 
HETATM   21  O5  UNL     1      17.922  32.334  13.609  1.00  0.00    -0.288 OA
BRANCH  20  22
HETATM   22  C29 UNL     1      17.963  30.031  13.896  1.00  0.00     0.122 A 
HETATM   23  N6  UNL     1      18.184  28.886  14.512  1.00  0.00    -0.357 N 
HETATM   24  C30 UNL     1      18.163  27.778  13.851  1.00  0.00     0.096 A 
ATOM     25  H6  UNL     1      18.371  28.877  15.514  1.00  0.00     0.166 HD
HETATM   26  C31 UNL     1      17.905  27.837  12.505  1.00  0.00     0.069 A 
HETATM   27  S1  UNL     1      17.707  29.518  12.275  1.00  0.00    -0.079 SA
ENDBRANCH  20  22
ENDBRANCH  11  20
ENDBRANCH   8  11
ENDBRANCH   1   7
BRANCH   6  28
HETATM   28  C20 UNL     1      22.643  32.335  14.736  1.00  0.00     0.222 C 
HETATM   29  O3  UNL     1      23.789  32.447  14.296  1.00  0.00    -0.273 OA
HETATM   30  N4  UNL     1      21.733  31.481  14.024  1.00  0.00    -0.361 N 
ATOM     31  H4  UNL     1      20.782  31.392  14.380  1.00  0.00     0.162 HD
BRANCH  30  32
HETATM   32  C21 UNL     1      22.079  30.754  12.853  1.00  0.00     0.124 C 
BRANCH  32  33
HETATM   33  C22 UNL     1      21.444  29.397  12.820  1.00  0.00     0.040 C 
BRANCH  33  34
HETATM   34  C23 UNL     1      22.429  28.334  13.284  1.00  0.00     0.129 C 
BRANCH  34  35
HETATM   35  N5  UNL     1      22.992  27.573  12.231  1.00  0.00    -0.370 N 
HETATM   36  C24 UNL     1      24.393  27.552  12.097  1.00  0.00     0.089 C 
HETATM   37  C25 UNL     1      24.942  26.330  11.405  1.00  0.00     0.212 C 
HETATM   38  O4  UNL     1      24.185  25.207  11.750  1.00  0.00    -0.381 OA
HETATM   39  C26 UNL     1      22.958  25.346  11.147  1.00  0.00     0.212 C 
HETATM   40  C27 UNL     1      22.222  26.535  11.668  1.00  0.00     0.089 C 
ENDBRANCH  34  35
ENDBRANCH  33  34
ENDBRANCH  32  33
ENDBRANCH  30  32
ENDBRANCH   6  28
BRANCH   4  41
HETATM   41  N3  UNL     1      21.205  36.546  16.766  1.00  0.00     0.093 N 
HETATM   42  C12 UNL     1      20.289  36.592  17.890  1.00  0.00     0.273 C 
HETATM   43  C13 UNL     1      19.238  37.646  17.676  1.00  0.00     0.030 C 
HETATM   44  C14 UNL     1      19.540  38.833  18.597  1.00  0.00     0.002 C 
HETATM   45  C15 UNL     1      20.973  39.272  18.385  1.00  0.00     0.002 C 
HETATM   46  C16 UNL     1      21.472  38.965  16.990  1.00  0.00     0.030 C 
HETATM   47  C17 UNL     1      22.148  37.615  16.905  1.00  0.00     0.273 C 
ENDBRANCH   4  41
TORSDOF 12
ENDMDL
MODEL 4
REMARK VINA RESULT: -8.686477786      3.980     11.182
REMARK  12 active torsions:
REMARK  status: ('A' for Active; 'I' for Inactive)
REMARK    1  A    between atoms: C4_7  and  C5_8 
REMARK    2  A    between atoms: C5_8  and  C6_9 
REMARK    3  A    between atoms: C6_9  and  N2_10 
REMARK    4  A    between atoms: C6_9  and  C28_40 
REMARK       I    between atoms: N2_10  and  C7_12 
REMARK    5  A    between atoms: C7_12  and  C8_14 
REMARK    6  A    between atoms: C11_17  and  N3_18 
REMARK    7  A    between atoms: C19_26  and  C20_27 
REMARK       I    between atoms: C20_27  and  N4_29 
REMARK    8  A    between atoms: N4_29  and  C21_31 
REMARK    9  A    between atoms: C21_31  and  C22_32 
REMARK   10  A    between atoms: C22_32  and  C23_33 
REMARK   11  A    between atoms: C23_33  and  N5_34 
REMARK   12  A    between atoms: C28_40  and  C29_42 
ROOT
HETATM    1  C8  UNL     1      20.503  33.260  16.846  1.00  0.00     0.091 C 
HETATM    2  C9  UNL     1      20.144  34.355  17.833  1.00  0.00     0.017 C 
HETATM    3  C10 UNL     1      21.276  35.232  18.234  1.00  0.00     0.036 C 
HETATM    4  C11 UNL     1      22.070  35.849  17.144  1.00  0.00     0.224 C 
HETATM    5  C18 UNL     1      21.771  35.136  15.836  1.00  0.00     0.050 C 
HETATM    6  C19 UNL     1      21.779  33.650  16.203  1.00  0.00     0.093 C 
ENDROOT
BRANCH   1   7
HETATM    7  C7  UNL     1      19.341  33.112  15.948  1.00  0.00     0.223 C 
HETATM    8  N2  UNL     1      18.407  32.095  16.199  1.00  0.00    -0.349 N 
ATOM      9  H2  UNL     1      18.547  31.483  17.003  1.00  0.00     0.163 HD
HETATM   10  O2  UNL     1      19.132  33.851  14.959  1.00  0.00    -0.273 OA
BRANCH   8  11
HETATM   11  C6  UNL     1      17.207  31.880  15.322  1.00  0.00     0.162 C 
BRANCH  11  12
HETATM   12  C5  UNL     1      17.252  30.432  15.049  1.00  0.00     0.047 C 
BRANCH  12  13
HETATM   13  C4  UNL     1      18.138  29.833  14.063  1.00  0.00     0.081 C 
HETATM   14  C1  UNL     1      17.964  28.426  13.703  1.00  0.00     0.221 C 
HETATM   15  O1  UNL     1      17.705  27.483  14.475  1.00  0.00    -0.273 OA
HETATM   16  N1  UNL     1      18.146  28.312  12.304  1.00  0.00    -0.361 N 
HETATM   17  C2  UNL     1      18.701  29.572  11.789  1.00  0.00     0.123 C 
ATOM     18  H1  UNL     1      17.928  27.487  11.744  1.00  0.00     0.162 HD
HETATM   19  C3  UNL     1      18.306  30.609  12.781  1.00  0.00     0.034 C 
ENDBRANCH  12  13
ENDBRANCH  11  12
BRANCH  11  20
HETATM   20  C28 UNL     1      16.027  32.408  16.012  1.00  0.00     0.205 C 
HETATM   21  O5  UNL     1      14.992  31.724  16.236  1.00  0.00    -0.288 OA
BRANCH  20  22
HETATM   22  C29 UNL     1      15.980  33.807  16.503  1.00  0.00     0.122 A 
HETATM   23  N6  UNL     1      16.406  34.909  15.917  1.00  0.00    -0.357 N 
HETATM   24  C30 UNL     1      16.255  36.053  16.494  1.00  0.00     0.096 A 
ATOM     25  H6  UNL     1      16.857  34.857  15.003  1.00  0.00     0.166 HD
HETATM   26  C31 UNL     1      15.642  36.077  17.722  1.00  0.00     0.069 A 
HETATM   27  S1  UNL     1      15.320  34.418  17.968  1.00  0.00    -0.079 SA
ENDBRANCH  20  22
ENDBRANCH  11  20
ENDBRANCH   8  11
ENDBRANCH   1   7
BRANCH   6  28
HETATM   28  C20 UNL     1      22.275  32.792  15.124  1.00  0.00     0.222 C 
HETATM   29  O3  UNL     1      22.567  33.267  14.024  1.00  0.00    -0.273 OA
HETATM   30  N4  UNL     1      22.436  31.376  15.305  1.00  0.00    -0.361 N 
ATOM     31  H4  UNL     1      22.188  30.977  16.210  1.00  0.00     0.162 HD
BRANCH  30  32
HETATM   32  C21 UNL     1      22.920  30.497  14.298  1.00  0.00     0.124 C 
BRANCH  32  33
HETATM   33  C22 UNL     1      21.810  29.879  13.503  1.00  0.00     0.040 C 
BRANCH  33  34
HETATM   34  C23 UNL     1      21.820  28.366  13.656  1.00  0.00     0.129 C 
BRANCH  34  35
HETATM   35  N5  UNL     1      22.240  27.673  12.496  1.00  0.00    -0.370 N 
HETATM   36  C24 UNL     1      23.620  27.571  12.242  1.00  0.00     0.089 C 
HETATM   37  C25 UNL     1      24.022  26.387  11.399  1.00  0.00     0.212 C 
HETATM   38  O4  UNL     1      23.214  25.289  11.706  1.00  0.00    -0.381 OA
HETATM   39  C26 UNL     1      21.956  25.566  11.225  1.00  0.00     0.212 C 
HETATM   40  C27 UNL     1      21.354  26.746  11.910  1.00  0.00     0.089 C 
ENDBRANCH  34  35
ENDBRANCH  33  34
ENDBRANCH  32  33
ENDBRANCH  30  32
ENDBRANCH   6  28
BRANCH   4  41
HETATM   41  N3  UNL     1      22.014  37.272  17.067  1.00  0.00     0.093 N 
HETATM   42  C12 UNL     1      20.700  37.707  17.503  1.00  0.00     0.273 C 
HETATM   43  C13 UNL     1      20.410  39.097  17.011  1.00  0.00     0.030 C 
HETATM   44  C14 UNL     1      20.503  40.065  18.194  1.00  0.00     0.002 C 
HETATM   45  C15 UNL     1      21.835  39.871  18.888  1.00  0.00     0.002 C 
HETATM   46  C16 UNL     1      22.909  39.369  17.948  1.00  0.00     0.030 C 
HETATM   47  C17 UNL     1      22.996  37.859  17.930  1.00  0.00     0.273 C 
ENDBRANCH   4  41
TORSDOF 12
ENDMDL
MODEL 5
REMARK VINA RESULT: -8.664009936      2.853      5.558
REMARK  12 active torsions:
REMARK  status: ('A' for Active; 'I' for Inactive)
REMARK    1  A    between atoms: C4_7  and  C5_8 
REMARK    2  A    between atoms: C5_8  and  C6_9 
REMARK    3  A    between atoms: C6_9  and  N2_10 
REMARK    4  A    between atoms: C6_9  and  C28_40 
REMARK       I    between atoms: N2_10  and  C7_12 
REMARK    5  A    between atoms: C7_12  and  C8_14 
REMARK    6  A    between atoms: C11_17  and  N3_18 
REMARK    7  A    between atoms: C19_26  and  C20_27 
REMARK       I    between atoms: C20_27  and  N4_29 
REMARK    8  A    between atoms: N4_29  and  C21_31 
REMARK    9  A    between atoms: C21_31  and  C22_32 
REMARK   10  A    between atoms: C22_32  and  C23_33 
REMARK   11  A    between atoms: C23_33  and  N5_34 
REMARK   12  A    between atoms: C28_40  and  C29_42 
ROOT
HETATM    1  C8  UNL     1      18.403  29.786  15.203  1.00  0.00     0.091 C 
HETATM    2  C9  UNL     1      18.560  28.369  14.684  1.00  0.00     0.017 C 
HETATM    3  C10 UNL     1      17.677  28.019  13.539  1.00  0.00     0.036 C 
HETATM    4  C11 UNL     1      17.695  28.932  12.371  1.00  0.00     0.224 C 
HETATM    5  C18 UNL     1      18.349  30.246  12.766  1.00  0.00     0.050 C 
HETATM    6  C19 UNL     1      17.745  30.573  14.134  1.00  0.00     0.093 C 
ENDROOT
BRANCH   1   7
HETATM    7  C7  UNL     1      19.752  30.233  15.603  1.00  0.00     0.223 C 
HETATM    8  N2  UNL     1      20.697  30.532  14.610  1.00  0.00    -0.349 N 
ATOM      9  H2  UNL     1      20.429  30.440  13.630  1.00  0.00     0.163 HD
HETATM   10  O2  UNL     1      20.111  30.366  16.796  1.00  0.00    -0.273 OA
BRANCH   8  11
HETATM   11  C6  UNL     1      22.090  30.982  14.944  1.00  0.00     0.162 C 
BRANCH  11  12
HETATM   12  C5  UNL     1      22.924  30.193  14.019  1.00  0.00     0.047 C 
BRANCH  12  13
HETATM   13  C4  UNL     1      22.380  29.208  13.097  1.00  0.00     0.081 C 
HETATM   14  C1  UNL     1      21.847  29.649  11.808  1.00  0.00     0.221 C 
HETATM   15  O1  UNL     1      21.158  30.664  11.592  1.00  0.00    -0.273 OA
HETATM   16  N1  UNL     1      22.250  28.709  10.829  1.00  0.00    -0.361 N 
HETATM   17  C2  UNL     1      22.805  27.525  11.501  1.00  0.00     0.123 C 
ATOM     18  H1  UNL     1      22.168  28.834   9.820  1.00  0.00     0.162 HD
HETATM   19  C3  UNL     1      23.254  28.007  12.836  1.00  0.00     0.034 C 
ENDBRANCH  12  13
ENDBRANCH  11  12
BRANCH  11  20
HETATM   20  C28 UNL     1      22.145  32.442  14.836  1.00  0.00     0.205 C 
HETATM   21  O5  UNL     1      22.389  33.048  13.757  1.00  0.00    -0.288 OA
BRANCH  20  22
HETATM   22  C29 UNL     1      21.908  33.314  16.012  1.00  0.00     0.122 A 
HETATM   23  N6  UNL     1      22.036  33.034  17.294  1.00  0.00    -0.357 N 
HETATM   24  C30 UNL     1      21.806  33.941  18.184  1.00  0.00     0.096 A 
ATOM     25  H6  UNL     1      22.319  32.098  17.584  1.00  0.00     0.166 HD
HETATM   26  C31 UNL     1      21.430  35.187  17.749  1.00  0.00     0.069 A 
HETATM   27  S1  UNL     1      21.431  34.965  16.055  1.00  0.00    -0.079 SA
ENDBRANCH  20  22
ENDBRANCH  11  20
ENDBRANCH   8  11
ENDBRANCH   1   7
BRANCH   6  28
HETATM   28  C20 UNL     1      17.585  32.011  14.365  1.00  0.00     0.222 C 
HETATM   29  O3  UNL     1      18.355  32.823  13.846  1.00  0.00    -0.273 OA
HETATM   30  N4  UNL     1      16.533  32.526  15.198  1.00  0.00    -0.361 N 
ATOM     31  H4  UNL     1      15.898  31.858  15.635  1.00  0.00     0.162 HD
BRANCH  30  32
HETATM   32  C21 UNL     1      16.324  33.909  15.450  1.00  0.00     0.124 C 
BRANCH  32  33
HETATM   33  C22 UNL     1      15.351  34.141  16.566  1.00  0.00     0.040 C 
BRANCH  33  34
HETATM   34  C23 UNL     1      16.069  34.157  17.907  1.00  0.00     0.129 C 
BRANCH  34  35
HETATM   35  N5  UNL     1      16.495  35.443  18.316  1.00  0.00    -0.370 N 
HETATM   36  C24 UNL     1      17.865  35.645  18.567  1.00  0.00     0.089 C 
HETATM   37  C25 UNL     1      18.333  37.069  18.409  1.00  0.00     0.212 C 
HETATM   38  O4  UNL     1      17.645  37.683  17.359  1.00  0.00    -0.381 OA
HETATM   39  C26 UNL     1      16.346  37.855  17.773  1.00  0.00     0.212 C 
HETATM   40  C27 UNL     1      15.671  36.548  18.022  1.00  0.00     0.089 C 
ENDBRANCH  34  35
ENDBRANCH  33  34
ENDBRANCH  32  33
ENDBRANCH  30  32
ENDBRANCH   6  28
BRANCH   4  41
HETATM   41  N3  UNL     1      18.187  28.371  11.155  1.00  0.00     0.093 N 
HETATM   42  C12 UNL     1      18.532  26.982  11.393  1.00  0.00     0.273 C 
HETATM   43  C13 UNL     1      19.471  26.477  10.334  1.00  0.00     0.030 C 
HETATM   44  C14 UNL     1      18.699  25.540   9.400  1.00  0.00     0.002 C 
HETATM   45  C15 UNL     1      17.457  26.249   8.903  1.00  0.00     0.002 C 
HETATM   46  C16 UNL     1      17.628  27.752   8.857  1.00  0.00     0.030 C 
HETATM   47  C17 UNL     1      17.180  28.421  10.138  1.00  0.00     0.273 C 
ENDBRANCH   4  41
TORSDOF 12
ENDMDL
