MODEL 1
REMARK VINA RESULT: -6.792815928      0.000      0.000
REMARK  13 active torsions:
REMARK  status: ('A' for Active; 'I' for Inactive)
REMARK    1  A    between atoms: C2_2  and  O2_4 
REMARK    2  A    between atoms: O2_4  and  C3_5 
REMARK    3  A    between atoms: C5_7  and  O3_8 
REMARK    4  A    between atoms: C10_14  and  C12_16 
REMARK    5  A    between atoms: C12_16  and  O4_17 
REMARK    6  A    between atoms: C14_20  and  C16_22 
REMARK    7  A    between atoms: C17_23  and  C18_24 
REMARK    8  A    between atoms: C18_24  and  C19_25 
REMARK    9  A    between atoms: C19_25  and  C20_26 
REMARK   10  A    between atoms: C20_26  and  C21_27 
REMARK   11  A    between atoms: C21_27  and  O5_28 
REMARK   12  A    between atoms: C21_27  and  O6_30 
REMARK   13  A    between atoms: O6_30  and  C22_31 
ROOT
HETATM    1  C3  UNL     1      -8.498  24.078  80.538  1.00  0.00     0.146 C 
HETATM    2  C4  UNL     1      -9.576  23.982  79.518  1.00  0.00     0.065 C 
HETATM    3  C5  UNL     1     -10.961  23.775  80.049  1.00  0.00     0.125 C 
HETATM    4  C6  UNL     1     -11.139  24.167  81.461  1.00  0.00     0.020 C 
HETATM    5  C7  UNL     1     -11.119  23.100  82.477  1.00  0.00     0.007 C 
HETATM    6  C8  UNL     1     -11.425  23.733  83.817  1.00  0.00     0.001 C 
HETATM    7  C9  UNL     1     -11.811  25.158  83.726  1.00  0.00     0.012 C 
HETATM    8  C10 UNL     1     -10.837  26.034  82.912  1.00  0.00    -0.018 C 
HETATM    9  C11 UNL     1     -10.037  26.753  83.938  1.00  0.00     0.018 C 
HETATM   10  C13 UNL     1     -10.230  25.369  81.784  1.00  0.00     0.016 C 
HETATM   11  C14 UNL     1      -8.782  25.124  81.636  1.00  0.00     0.005 C 
HETATM   12  C15 UNL     1      -7.995  24.702  82.817  1.00  0.00     0.022 C 
ENDROOT
BRANCH  11  13
HETATM   13  C16 UNL     1      -8.173  26.433  81.221  1.00  0.00    -0.019 C 
HETATM   14  C17 UNL     1      -7.071  26.948  81.703  1.00  0.00    -0.030 C 
BRANCH  14  15
HETATM   15  C18 UNL     1      -6.502  28.248  81.262  1.00  0.00     0.027 C 
BRANCH  15  16
HETATM   16  C19 UNL     1      -7.548  28.941  80.413  1.00  0.00     0.009 C 
BRANCH  16  17
HETATM   17  C20 UNL     1      -6.992  29.410  79.099  1.00  0.00     0.061 C 
BRANCH  17  18
HETATM   18  C21 UNL     1      -7.353  28.329  78.071  1.00  0.00     0.267 C 
BRANCH  18  19
HETATM   19  O5  UNL     1      -8.721  28.149  78.058  1.00  0.00    -0.371 OA
ATOM     20  H5  UNL     1      -8.917  27.221  78.116  1.00  0.00     0.212 HD
ENDBRANCH  18  19
BRANCH  18  21
HETATM   21  O6  UNL     1      -6.906  28.730  76.779  1.00  0.00    -0.275 OA
BRANCH  21  22
HETATM   22  C22 UNL     1      -6.919  27.856  75.701  1.00  0.00     0.375 C 
HETATM   23  N1  UNL     1      -8.121  27.404  75.085  1.00  0.00    -0.032 NA
HETATM   24  O7  UNL     1      -5.815  27.460  75.267  1.00  0.00    -0.242 OA
ENDBRANCH  21  22
ENDBRANCH  18  21
ENDBRANCH  17  18
ENDBRANCH  16  17
ENDBRANCH  15  16
ENDBRANCH  14  15
ENDBRANCH  11  13
BRANCH   1  25
HETATM   25  O2  UNL     1      -7.917  22.921  80.974  1.00  0.00    -0.315 OA
BRANCH  25  26
HETATM   26  C2  UNL     1      -7.827  21.717  80.382  1.00  0.00     0.255 C 
HETATM   27  C1  UNL     1      -6.792  21.287  79.441  1.00  0.00     0.126 C 
HETATM   28  O1  UNL     1      -8.756  20.978  80.734  1.00  0.00    -0.266 OA
ENDBRANCH  25  26
ENDBRANCH   1  25
BRANCH   8  29
HETATM   29  C12 UNL     1     -11.826  27.130  82.415  1.00  0.00     0.173 C 
BRANCH  29  30
HETATM   30  O4  UNL     1     -11.249  27.846  81.396  1.00  0.00    -0.400 OA
ATOM     31  H4  UNL     1     -11.193  28.761  81.640  1.00  0.00     0.209 HD
ENDBRANCH  29  30
ENDBRANCH   8  29
BRANCH   3  32
HETATM   32  O3  UNL     1     -11.373  22.424  79.924  1.00  0.00    -0.395 OA
ATOM     33  H3  UNL     1     -12.137  22.240  80.458  1.00  0.00     0.210 HD
ENDBRANCH   3  32
TORSDOF 13
ENDMDL
MODEL 2
REMARK VINA RESULT: -6.611086256      2.888      5.630
REMARK  13 active torsions:
REMARK  status: ('A' for Active; 'I' for Inactive)
REMARK    1  A    between atoms: C2_2  and  O2_4 
REMARK    2  A    between atoms: O2_4  and  C3_5 
REMARK    3  A    between atoms: C5_7  and  O3_8 
REMARK    4  A    between atoms: C10_14  and  C12_16 
REMARK    5  A    between atoms: C12_16  and  O4_17 
REMARK    6  A    between atoms: C14_20  and  C16_22 
REMARK    7  A    between atoms: C17_23  and  C18_24 
REMARK    8  A    between atoms: C18_24  and  C19_25 
REMARK    9  A    between atoms: C19_25  and  C20_26 
REMARK   10  A    between atoms: C20_26  and  C21_27 
REMARK   11  A    between atoms: C21_27  and  O5_28 
REMARK   12  A    between atoms: C21_27  and  O6_30 
REMARK   13  A    between atoms: O6_30  and  C22_31 
ROOT
HETATM    1  C3  UNL     1      -8.170  29.087  83.642  1.00  0.00     0.146 C 
HETATM    2  C4  UNL     1      -7.013  28.791  84.530  1.00  0.00     0.065 C 
HETATM    3  C5  UNL     1      -7.075  27.492  85.273  1.00  0.00     0.125 C 
HETATM    4  C6  UNL     1      -7.992  26.496  84.685  1.00  0.00     0.020 C 
HETATM    5  C7  UNL     1      -9.324  26.345  85.296  1.00  0.00     0.007 C 
HETATM    6  C8  UNL     1     -10.026  25.203  84.593  1.00  0.00     0.001 C 
HETATM    7  C9  UNL     1      -9.163  24.470  83.642  1.00  0.00     0.012 C 
HETATM    8  C10 UNL     1      -8.420  25.366  82.630  1.00  0.00    -0.018 C 
HETATM    9  C11 UNL     1      -9.200  25.231  81.372  1.00  0.00     0.018 C 
HETATM   10  C13 UNL     1      -8.009  26.647  83.151  1.00  0.00     0.016 C 
HETATM   11  C14 UNL     1      -8.490  27.949  82.651  1.00  0.00     0.005 C 
HETATM   12  C15 UNL     1      -9.920  28.104  82.297  1.00  0.00     0.022 C 
ENDROOT
BRANCH  11  13
HETATM   13  C16 UNL     1      -7.751  28.207  81.368  1.00  0.00    -0.019 C 
HETATM   14  C17 UNL     1      -7.975  29.200  80.547  1.00  0.00    -0.030 C 
BRANCH  14  15
HETATM   15  C18 UNL     1      -7.219  29.420  79.287  1.00  0.00     0.027 C 
BRANCH  15  16
HETATM   16  C19 UNL     1      -7.378  28.177  78.435  1.00  0.00     0.009 C 
BRANCH  16  17
HETATM   17  C20 UNL     1      -7.503  28.503  76.974  1.00  0.00     0.061 C 
BRANCH  17  18
HETATM   18  C21 UNL     1      -6.078  28.472  76.405  1.00  0.00     0.267 C 
BRANCH  18  19
HETATM   19  O5  UNL     1      -6.069  27.740  75.235  1.00  0.00    -0.371 OA
ATOM     20  H5  UNL     1      -5.669  28.256  74.544  1.00  0.00     0.212 HD
ENDBRANCH  18  19
BRANCH  18  21
HETATM   21  O6  UNL     1      -5.639  29.802  76.145  1.00  0.00    -0.275 OA
BRANCH  21  22
HETATM   22  C22 UNL     1      -4.586  30.371  76.849  1.00  0.00     0.375 C 
HETATM   23  N1  UNL     1      -4.023  31.635  76.512  1.00  0.00    -0.032 NA
HETATM   24  O7  UNL     1      -4.126  29.728  77.819  1.00  0.00    -0.242 OA
ENDBRANCH  21  22
ENDBRANCH  18  21
ENDBRANCH  17  18
ENDBRANCH  16  17
ENDBRANCH  15  16
ENDBRANCH  14  15
ENDBRANCH  11  13
BRANCH   1  25
HETATM   25  O2  UNL     1      -9.258  29.707  84.187  1.00  0.00    -0.315 OA
BRANCH  25  26
HETATM   26  C2  UNL     1      -9.379  30.407  85.329  1.00  0.00     0.255 C 
HETATM   27  C1  UNL     1      -9.893  29.906  86.604  1.00  0.00     0.126 C 
HETATM   28  O1  UNL     1      -8.990  31.573  85.179  1.00  0.00    -0.266 OA
ENDBRANCH  25  26
ENDBRANCH   1  25
BRANCH   8  29
HETATM   29  C12 UNL     1      -7.172  24.475  82.360  1.00  0.00     0.173 C 
BRANCH  29  30
HETATM   30  O4  UNL     1      -7.413  23.196  82.800  1.00  0.00    -0.400 OA
ATOM     31  H4  UNL     1      -8.251  22.897  82.469  1.00  0.00     0.209 HD
ENDBRANCH  29  30
ENDBRANCH   8  29
BRANCH   3  32
HETATM   32  O3  UNL     1      -7.457  27.681  86.625  1.00  0.00    -0.395 OA
ATOM     33  H3  UNL     1      -8.351  27.400  86.779  1.00  0.00     0.210 HD
ENDBRANCH   3  32
TORSDOF 13
ENDMDL
MODEL 3
REMARK VINA RESULT: -6.601140129      1.936      2.228
REMARK  13 active torsions:
REMARK  status: ('A' for Active; 'I' for Inactive)
REMARK    1  A    between atoms: C2_2  and  O2_4 
REMARK    2  A    between atoms: O2_4  and  C3_5 
REMARK    3  A    between atoms: C5_7  and  O3_8 
REMARK    4  A    between atoms: C10_14  and  C12_16 
REMARK    5  A    between atoms: C12_16  and  O4_17 
REMARK    6  A    between atoms: C14_20  and  C16_22 
REMARK    7  A    between atoms: C17_23  and  C18_24 
REMARK    8  A    between atoms: C18_24  and  C19_25 
REMARK    9  A    between atoms: C19_25  and  C20_26 
REMARK   10  A    between atoms: C20_26  and  C21_27 
REMARK   11  A    between atoms: C21_27  and  O5_28 
REMARK   12  A    between atoms: C21_27  and  O6_30 
REMARK   13  A    between atoms: O6_30  and  C22_31 
ROOT
HETATM    1  C3  UNL     1      -8.439  24.301  80.559  1.00  0.00     0.146 C 
HETATM    2  C4  UNL     1      -9.586  24.187  79.618  1.00  0.00     0.065 C 
HETATM    3  C5  UNL     1     -10.936  24.044  80.249  1.00  0.00     0.125 C 
HETATM    4  C6  UNL     1     -11.008  24.505  81.649  1.00  0.00     0.020 C 
HETATM    5  C7  UNL     1     -10.946  23.487  82.711  1.00  0.00     0.007 C 
HETATM    6  C8  UNL     1     -11.145  24.190  84.037  1.00  0.00     0.001 C 
HETATM    7  C9  UNL     1     -11.501  25.619  83.903  1.00  0.00     0.012 C 
HETATM    8  C10 UNL     1     -10.564  26.429  82.985  1.00  0.00    -0.018 C 
HETATM    9  C11 UNL     1      -9.679  27.173  83.920  1.00  0.00     0.018 C 
HETATM   10  C13 UNL     1     -10.051  25.696  81.853  1.00  0.00     0.016 C 
HETATM   11  C14 UNL     1      -8.623  25.404  81.621  1.00  0.00     0.005 C 
HETATM   12  C15 UNL     1      -7.768  25.016  82.766  1.00  0.00     0.022 C 
ENDROOT
BRANCH  11  13
HETATM   13  C16 UNL     1      -8.011  26.675  81.104  1.00  0.00    -0.019 C 
HETATM   14  C17 UNL     1      -8.174  27.165  79.902  1.00  0.00    -0.030 C 
BRANCH  14  15
HETATM   15  C18 UNL     1      -7.550  28.428  79.430  1.00  0.00     0.027 C 
BRANCH  15  16
HETATM   16  C19 UNL     1      -6.523  28.845  80.462  1.00  0.00     0.009 C 
BRANCH  16  17
HETATM   17  C20 UNL     1      -5.143  28.952  79.878  1.00  0.00     0.061 C 
BRANCH  17  18
HETATM   18  C21 UNL     1      -5.119  30.259  79.074  1.00  0.00     0.267 C 
BRANCH  18  19
HETATM   19  O5  UNL     1      -4.299  31.171  79.707  1.00  0.00    -0.371 OA
ATOM     20  H5  UNL     1      -3.773  30.722  80.359  1.00  0.00     0.212 HD
ENDBRANCH  18  19
BRANCH  18  21
HETATM   21  O6  UNL     1      -4.632  30.002  77.760  1.00  0.00    -0.275 OA
BRANCH  21  22
HETATM   22  C22 UNL     1      -4.304  31.034  76.890  1.00  0.00     0.375 C 
HETATM   23  N1  UNL     1      -4.994  31.262  75.666  1.00  0.00    -0.032 NA
HETATM   24  O7  UNL     1      -3.358  31.784  77.217  1.00  0.00    -0.242 OA
ENDBRANCH  21  22
ENDBRANCH  18  21
ENDBRANCH  17  18
ENDBRANCH  16  17
ENDBRANCH  15  16
ENDBRANCH  14  15
ENDBRANCH  11  13
BRANCH   1  25
HETATM   25  O2  UNL     1      -7.858  23.149  81.010  1.00  0.00    -0.315 OA
BRANCH  25  26
HETATM   26  C2  UNL     1      -7.775  21.936  80.438  1.00  0.00     0.255 C 
HETATM   27  C1  UNL     1      -8.698  20.817  80.635  1.00  0.00     0.126 C 
HETATM   28  O1  UNL     1      -6.790  21.862  79.692  1.00  0.00    -0.266 OA
ENDBRANCH  25  26
ENDBRANCH   1  25
BRANCH   8  29
HETATM   29  C12 UNL     1     -11.557  27.527  82.503  1.00  0.00     0.173 C 
BRANCH  29  30
HETATM   30  O4  UNL     1     -11.202  27.952  81.246  1.00  0.00    -0.400 OA
ATOM     31  H4  UNL     1     -11.830  27.629  80.610  1.00  0.00     0.209 HD
ENDBRANCH  29  30
ENDBRANCH   8  29
BRANCH   3  32
HETATM   32  O3  UNL     1     -11.389  22.701  80.216  1.00  0.00    -0.395 OA
ATOM     33  H3  UNL     1     -11.802  22.490  79.387  1.00  0.00     0.210 HD
ENDBRANCH   3  32
TORSDOF 13
ENDMDL
MODEL 4
REMARK VINA RESULT: -6.573181733      2.315      3.094
REMARK  13 active torsions:
REMARK  status: ('A' for Active; 'I' for Inactive)
REMARK    1  A    between atoms: C2_2  and  O2_4 
REMARK    2  A    between atoms: O2_4  and  C3_5 
REMARK    3  A    between atoms: C5_7  and  O3_8 
REMARK    4  A    between atoms: C10_14  and  C12_16 
REMARK    5  A    between atoms: C12_16  and  O4_17 
REMARK    6  A    between atoms: C14_20  and  C16_22 
REMARK    7  A    between atoms: C17_23  and  C18_24 
REMARK    8  A    between atoms: C18_24  and  C19_25 
REMARK    9  A    between atoms: C19_25  and  C20_26 
REMARK   10  A    between atoms: C20_26  and  C21_27 
REMARK   11  A    between atoms: C21_27  and  O5_28 
REMARK   12  A    between atoms: C21_27  and  O6_30 
REMARK   13  A    between atoms: O6_30  and  C22_31 
ROOT
HETATM    1  C3  UNL     1     -10.174  23.759  80.873  1.00  0.00     0.146 C 
HETATM    2  C4  UNL     1     -10.500  23.865  79.426  1.00  0.00     0.065 C 
HETATM    3  C5  UNL     1     -11.732  23.140  78.979  1.00  0.00     0.125 C 
HETATM    4  C6  UNL     1     -12.688  22.836  80.061  1.00  0.00     0.020 C 
HETATM    5  C7  UNL     1     -12.682  21.473  80.619  1.00  0.00     0.007 C 
HETATM    6  C8  UNL     1     -13.809  21.381  81.625  1.00  0.00     0.001 C 
HETATM    7  C9  UNL     1     -14.678  22.577  81.653  1.00  0.00     0.012 C 
HETATM    8  C10 UNL     1     -13.924  23.915  81.791  1.00  0.00    -0.018 C 
HETATM    9  C11 UNL     1     -14.084  24.286  83.222  1.00  0.00     0.018 C 
HETATM   10  C13 UNL     1     -12.647  23.956  81.119  1.00  0.00     0.016 C 
HETATM   11  C14 UNL     1     -11.349  24.137  81.797  1.00  0.00     0.005 C 
HETATM   12  C15 UNL     1     -11.101  23.442  83.081  1.00  0.00     0.022 C 
ENDROOT
BRANCH  11  13
HETATM   13  C16 UNL     1     -11.247  25.599  82.130  1.00  0.00    -0.019 C 
HETATM   14  C17 UNL     1     -10.142  26.297  82.161  1.00  0.00    -0.030 C 
BRANCH  14  15
HETATM   15  C18 UNL     1     -10.086  27.744  82.495  1.00  0.00     0.027 C 
BRANCH  15  16
HETATM   16  C19 UNL     1      -8.939  28.351  81.713  1.00  0.00     0.009 C 
BRANCH  16  17
HETATM   17  C20 UNL     1      -8.660  27.600  80.442  1.00  0.00     0.061 C 
BRANCH  17  18
HETATM   18  C21 UNL     1      -8.417  28.662  79.362  1.00  0.00     0.267 C 
BRANCH  18  19
HETATM   19  O5  UNL     1      -8.388  29.912  79.946  1.00  0.00    -0.371 OA
ATOM     20  H5  UNL     1      -7.497  30.240  79.944  1.00  0.00     0.212 HD
ENDBRANCH  18  19
BRANCH  18  21
HETATM   21  O6  UNL     1      -7.177  28.406  78.710  1.00  0.00    -0.275 OA
BRANCH  21  22
HETATM   22  C22 UNL     1      -6.021  29.099  79.044  1.00  0.00     0.375 C 
HETATM   23  N1  UNL     1      -5.266  28.825  80.219  1.00  0.00    -0.032 NA
HETATM   24  O7  UNL     1      -5.646  30.002  78.264  1.00  0.00    -0.242 OA
ENDBRANCH  21  22
ENDBRANCH  18  21
ENDBRANCH  17  18
ENDBRANCH  16  17
ENDBRANCH  15  16
ENDBRANCH  14  15
ENDBRANCH  11  13
BRANCH   1  25
HETATM   25  O2  UNL     1      -9.426  22.694  81.289  1.00  0.00    -0.315 OA
BRANCH  25  26
HETATM   26  C2  UNL     1      -8.684  21.824  80.581  1.00  0.00     0.255 C 
HETATM   27  C1  UNL     1      -7.315  22.034  80.108  1.00  0.00     0.126 C 
HETATM   28  O1  UNL     1      -9.311  20.779  80.363  1.00  0.00    -0.266 OA
ENDBRANCH  25  26
ENDBRANCH   1  25
BRANCH   8  29
HETATM   29  C12 UNL     1     -14.934  24.859  81.074  1.00  0.00     0.173 C 
BRANCH  29  30
HETATM   30  O4  UNL     1     -14.255  25.721  80.249  1.00  0.00    -0.400 OA
ATOM     31  H4  UNL     1     -13.855  25.234  79.538  1.00  0.00     0.209 HD
ENDBRANCH  29  30
ENDBRANCH   8  29
BRANCH   3  32
HETATM   32  O3  UNL     1     -11.414  21.919  78.332  1.00  0.00    -0.395 OA
ATOM     33  H3  UNL     1     -12.077  21.677  77.696  1.00  0.00     0.210 HD
ENDBRANCH   3  32
TORSDOF 13
ENDMDL
MODEL 5
REMARK VINA RESULT: -6.572557892      1.936      2.645
REMARK  13 active torsions:
REMARK  status: ('A' for Active; 'I' for Inactive)
REMARK    1  A    between atoms: C2_2  and  O2_4 
REMARK    2  A    between atoms: O2_4  and  C3_5 
REMARK    3  A    between atoms: C5_7  and  O3_8 
REMARK    4  A    between atoms: C10_14  and  C12_16 
REMARK    5  A    between atoms: C12_16  and  O4_17 
REMARK    6  A    between atoms: C14_20  and  C16_22 
REMARK    7  A    between atoms: C17_23  and  C18_24 
REMARK    8  A    between atoms: C18_24  and  C19_25 
REMARK    9  A    between atoms: C19_25  and  C20_26 
REMARK   10  A    between atoms: C20_26  and  C21_27 
REMARK   11  A    between atoms: C21_27  and  O5_28 
REMARK   12  A    between atoms: C21_27  and  O6_30 
REMARK   13  A    between atoms: O6_30  and  C22_31 
ROOT
HETATM    1  C3  UNL     1      -9.906  23.651  80.837  1.00  0.00     0.146 C 
HETATM    2  C4  UNL     1     -10.252  23.736  79.393  1.00  0.00     0.065 C 
HETATM    3  C5  UNL     1     -11.498  23.017  78.977  1.00  0.00     0.125 C 
HETATM    4  C6  UNL     1     -12.442  22.744  80.078  1.00  0.00     0.020 C 
HETATM    5  C7  UNL     1     -12.444  21.391  80.660  1.00  0.00     0.007 C 
HETATM    6  C8  UNL     1     -13.557  21.331  81.685  1.00  0.00     0.001 C 
HETATM    7  C9  UNL     1     -14.412  22.537  81.703  1.00  0.00     0.012 C 
HETATM    8  C10 UNL     1     -13.640  23.868  81.806  1.00  0.00    -0.018 C 
HETATM    9  C11 UNL     1     -13.775  24.267  83.232  1.00  0.00     0.018 C 
HETATM   10  C13 UNL     1     -12.373  23.882  81.115  1.00  0.00     0.016 C 
HETATM   11  C14 UNL     1     -11.063  24.059  81.771  1.00  0.00     0.005 C 
HETATM   12  C15 UNL     1     -10.804  23.385  83.063  1.00  0.00     0.022 C 
ENDROOT
BRANCH  11  13
HETATM   13  C16 UNL     1     -10.939  25.526  82.076  1.00  0.00    -0.019 C 
HETATM   14  C17 UNL     1      -9.837  26.227  82.010  1.00  0.00    -0.030 C 
BRANCH  14  15
HETATM   15  C18 UNL     1      -9.759  27.679  82.320  1.00  0.00     0.027 C 
BRANCH  15  16
HETATM   16  C19 UNL     1      -8.862  28.321  81.282  1.00  0.00     0.009 C 
BRANCH  16  17
HETATM   17  C20 UNL     1      -8.133  27.302  80.453  1.00  0.00     0.061 C 
BRANCH  17  18
HETATM   18  C21 UNL     1      -8.301  27.738  78.992  1.00  0.00     0.267 C 
BRANCH  18  19
HETATM   19  O5  UNL     1      -9.246  28.741  78.920  1.00  0.00    -0.371 OA
ATOM     20  H5  UNL     1     -10.112  28.355  78.853  1.00  0.00     0.212 HD
ENDBRANCH  18  19
BRANCH  18  21
HETATM   21  O6  UNL     1      -7.055  28.212  78.489  1.00  0.00    -0.275 OA
BRANCH  21  22
HETATM   22  C22 UNL     1      -6.888  28.539  77.150  1.00  0.00     0.375 C 
HETATM   23  N1  UNL     1      -5.703  29.146  76.644  1.00  0.00    -0.032 NA
HETATM   24  O7  UNL     1      -7.833  28.282  76.372  1.00  0.00    -0.242 OA
ENDBRANCH  21  22
ENDBRANCH  18  21
ENDBRANCH  17  18
ENDBRANCH  16  17
ENDBRANCH  15  16
ENDBRANCH  14  15
ENDBRANCH  11  13
BRANCH   1  25
HETATM   25  O2  UNL     1      -9.164  22.585  81.261  1.00  0.00    -0.315 OA
BRANCH  25  26
HETATM   26  C2  UNL     1      -8.444  21.693  80.559  1.00  0.00     0.255 C 
HETATM   27  C1  UNL     1      -7.109  21.903  79.999  1.00  0.00     0.126 C 
HETATM   28  O1  UNL     1      -9.059  20.626  80.432  1.00  0.00    -0.266 OA
ENDBRANCH  25  26
ENDBRANCH   1  25
BRANCH   8  29
HETATM   29  C12 UNL     1     -14.649  24.811  81.087  1.00  0.00     0.173 C 
BRANCH  29  30
HETATM   30  O4  UNL     1     -13.970  25.673  80.262  1.00  0.00    -0.400 OA
ATOM     31  H4  UNL     1     -14.588  26.174  79.745  1.00  0.00     0.209 HD
ENDBRANCH  29  30
ENDBRANCH   8  29
BRANCH   3  32
HETATM   32  O3  UNL     1     -11.204  21.781  78.348  1.00  0.00    -0.395 OA
ATOM     33  H3  UNL     1     -11.925  21.484  77.805  1.00  0.00     0.210 HD
ENDBRANCH   3  32
TORSDOF 13
ENDMDL
