MODEL 1
REMARK VINA RESULT: -7.951969983      0.000      0.000
REMARK  5 active torsions:
REMARK  status: ('A' for Active; 'I' for Inactive)
REMARK    1  A    between atoms: O1_2  and  N1_3 
REMARK    2  A    between atoms: N2_8  and  C5_9 
REMARK    3  A    between atoms: C5_9  and  C6_10 
REMARK    4  A    between atoms: N3_13  and  C9_14 
REMARK    5  A    between atoms: C12_17  and  C13_18 
ROOT
HETATM    1  C9  UNL     1      -6.243   7.586   9.563  1.00  0.00     0.033 A 
HETATM    2  C10 UNL     1      -5.630   8.728   9.121  1.00  0.00     0.030 A 
HETATM    3  C11 UNL     1      -6.335   9.626   8.322  1.00  0.00     0.015 A 
HETATM    4  C12 UNL     1      -7.641   9.397   7.963  1.00  0.00     0.009 A 
HETATM    5  C18 UNL     1      -8.244   8.243   8.416  1.00  0.00     0.127 A 
HETATM    6  F1  UNL     1      -9.538   7.956   8.098  1.00  0.00    -0.205 F 
HETATM    7  C19 UNL     1      -7.556   7.343   9.210  1.00  0.00     0.072 A 
ENDROOT
BRANCH   1   8
HETATM    8  N3  UNL     1      -5.565   6.629  10.374  1.00  0.00    -0.380 N 
HETATM    9  C8  UNL     1      -4.653   5.593  10.001  1.00  0.00     0.123 C 
HETATM   10  C7  UNL     1      -3.719   5.401  11.162  1.00  0.00     0.027 C 
HETATM   11  C6  UNL     1      -4.594   5.778  12.353  1.00  0.00     0.033 C 
HETATM   12  C20 UNL     1      -5.704   6.573  11.829  1.00  0.00     0.129 C 
BRANCH  11  13
HETATM   13  C5  UNL     1      -4.776   4.680  13.307  1.00  0.00     0.278 C 
BRANCH  13  14
HETATM   14  N2  UNL     1      -4.710   4.859  14.693  1.00  0.00     0.089 N 
HETATM   15  C4  UNL     1      -6.043   5.117  15.254  1.00  0.00     0.278 C 
HETATM   16  C3  UNL     1      -6.355   4.276  16.457  1.00  0.00     0.084 C 
HETATM   17  C2  UNL     1      -6.061   2.854  16.181  1.00  0.00     0.013 C 
HETATM   18  N1  UNL     1      -6.815   1.942  16.620  1.00  0.00    -0.275 N 
HETATM   19  C22 UNL     1      -4.864   2.555  15.377  1.00  0.00     0.084 C 
ATOM     20  H1  UNL     1      -7.617   2.262  17.164  1.00  0.00     0.193 HD
HETATM   21  C21 UNL     1      -4.031   3.847  15.418  1.00  0.00     0.278 C 
BRANCH  18  22
HETATM   22  O1  UNL     1      -6.711   0.603  16.474  1.00  0.00    -0.286 OA
HETATM   23  C1  UNL     1      -5.857  -0.200  17.279  1.00  0.00     0.237 C 
ENDBRANCH  18  22
ENDBRANCH  13  14
ENDBRANCH  11  13
ENDBRANCH   1   8
BRANCH   4  24
HETATM   24  C13 UNL     1      -8.343  10.376   7.110  1.00  0.00     0.066 C 
HETATM   25  C14 UNL     1      -7.381  11.517   6.850  1.00  0.00     0.044 C 
HETATM   26  C15 UNL     1      -8.650   9.738   5.778  1.00  0.00     0.110 C 
HETATM   27  S1  UNL     1      -9.352  10.995   4.640  1.00  0.00    -0.159 SA
HETATM   28  C16 UNL     1     -10.014  12.321   5.700  1.00  0.00     0.149 C 
HETATM   29  C17 UNL     1     -10.425  11.697   6.984  1.00  0.00     0.080 C 
HETATM   30  N4  UNL     1     -11.615  11.905   7.497  1.00  0.00    -0.388 N 
HETATM   31  N5  UNL     1      -9.567  10.846   7.731  1.00  0.00    -0.365 N 
ATOM     32  H42 UNL     1     -12.231  12.516   6.960  1.00  0.00     0.157 HD
ATOM     33  H41 UNL     1     -11.897  11.477   8.378  1.00  0.00     0.157 HD
ATOM     34  H5  UNL     1      -9.807  10.570   8.684  1.00  0.00     0.162 HD
ENDBRANCH   4  24
TORSDOF 5
ENDMDL
MODEL 2
REMARK VINA RESULT: -7.889320977      1.106      1.400
REMARK  5 active torsions:
REMARK  status: ('A' for Active; 'I' for Inactive)
REMARK    1  A    between atoms: O1_2  and  N1_3 
REMARK    2  A    between atoms: N2_8  and  C5_9 
REMARK    3  A    between atoms: C5_9  and  C6_10 
REMARK    4  A    between atoms: N3_13  and  C9_14 
REMARK    5  A    between atoms: C12_17  and  C13_18 
ROOT
HETATM    1  C9  UNL     1      -6.547   7.556   9.579  1.00  0.00     0.033 A 
HETATM    2  C10 UNL     1      -7.658   7.146   8.891  1.00  0.00     0.030 A 
HETATM    3  C11 UNL     1      -8.373   8.062   8.124  1.00  0.00     0.015 A 
HETATM    4  C12 UNL     1      -7.991   9.379   8.034  1.00  0.00     0.009 A 
HETATM    5  C18 UNL     1      -6.870   9.776   8.732  1.00  0.00     0.127 A 
HETATM    6  F1  UNL     1      -6.435  11.067   8.685  1.00  0.00    -0.205 F 
HETATM    7  C19 UNL     1      -6.152   8.876   9.498  1.00  0.00     0.072 A 
ENDROOT
BRANCH   1   8
HETATM    8  N3  UNL     1      -5.785   6.661  10.387  1.00  0.00    -0.380 N 
HETATM    9  C8  UNL     1      -4.766   5.732  10.015  1.00  0.00     0.123 C 
HETATM   10  C7  UNL     1      -3.834   5.619  11.189  1.00  0.00     0.027 C 
HETATM   11  C6  UNL     1      -4.763   5.883  12.370  1.00  0.00     0.033 C 
HETATM   12  C20 UNL     1      -5.941   6.567  11.839  1.00  0.00     0.129 C 
BRANCH  11  13
HETATM   13  C5  UNL     1      -4.845   4.757  13.304  1.00  0.00     0.278 C 
BRANCH  13  14
HETATM   14  N2  UNL     1      -4.733   4.909  14.691  1.00  0.00     0.089 N 
HETATM   15  C4  UNL     1      -6.046   5.165  15.300  1.00  0.00     0.278 C 
HETATM   16  C3  UNL     1      -6.323   4.304  16.496  1.00  0.00     0.084 C 
HETATM   17  C2  UNL     1      -6.047   2.885  16.185  1.00  0.00     0.013 C 
HETATM   18  N1  UNL     1      -6.792   1.970  16.632  1.00  0.00    -0.275 N 
HETATM   19  C22 UNL     1      -4.879   2.594  15.337  1.00  0.00     0.084 C 
ATOM     20  H1  UNL     1      -7.575   2.284  17.207  1.00  0.00     0.193 HD
HETATM   21  C21 UNL     1      -4.038   3.880  15.375  1.00  0.00     0.278 C 
BRANCH  18  22
HETATM   22  O1  UNL     1      -6.701   0.633  16.458  1.00  0.00    -0.286 OA
HETATM   23  C1  UNL     1      -5.843  -0.193  17.235  1.00  0.00     0.237 C 
ENDBRANCH  18  22
ENDBRANCH  13  14
ENDBRANCH  11  13
ENDBRANCH   1   8
BRANCH   4  24
HETATM   24  C13 UNL     1      -8.785  10.312   7.212  1.00  0.00     0.066 C 
HETATM   25  C14 UNL     1      -8.028  10.529   5.918  1.00  0.00     0.044 C 
HETATM   26  C15 UNL     1     -10.098   9.659   6.856  1.00  0.00     0.110 C 
HETATM   27  S1  UNL     1     -11.019  10.726   5.680  1.00  0.00    -0.159 SA
HETATM   28  C16 UNL     1     -10.347  12.407   5.893  1.00  0.00     0.149 C 
HETATM   29  C17 UNL     1      -9.881  12.523   7.299  1.00  0.00     0.080 C 
HETATM   30  N4  UNL     1     -10.245  13.528   8.060  1.00  0.00    -0.388 N 
HETATM   31  N5  UNL     1      -9.024  11.565   7.904  1.00  0.00    -0.365 N 
ATOM     32  H42 UNL     1     -10.861  14.216   7.626  1.00  0.00     0.157 HD
ATOM     33  H41 UNL     1      -9.925  13.608   9.025  1.00  0.00     0.157 HD
ATOM     34  H5  UNL     1      -8.585  11.753   8.806  1.00  0.00     0.162 HD
ENDBRANCH   4  24
TORSDOF 5
ENDMDL
MODEL 3
REMARK VINA RESULT: -7.806340527      1.540      1.764
REMARK  5 active torsions:
REMARK  status: ('A' for Active; 'I' for Inactive)
REMARK    1  A    between atoms: O1_2  and  N1_3 
REMARK    2  A    between atoms: N2_8  and  C5_9 
REMARK    3  A    between atoms: C5_9  and  C6_10 
REMARK    4  A    between atoms: N3_13  and  C9_14 
REMARK    5  A    between atoms: C12_17  and  C13_18 
ROOT
HETATM    1  C9  UNL     1      -6.904   8.105   9.003  1.00  0.00     0.033 A 
HETATM    2  C10 UNL     1      -6.411   9.267   8.470  1.00  0.00     0.030 A 
HETATM    3  C11 UNL     1      -7.244  10.088   7.713  1.00  0.00     0.015 A 
HETATM    4  C12 UNL     1      -8.559   9.765   7.485  1.00  0.00     0.009 A 
HETATM    5  C18 UNL     1      -9.040   8.593   8.028  1.00  0.00     0.127 A 
HETATM    6  F1  UNL     1     -10.336   8.213   7.841  1.00  0.00    -0.205 F 
HETATM    7  C19 UNL     1      -8.224   7.768   8.780  1.00  0.00     0.072 A 
ENDROOT
BRANCH   1   8
HETATM    8  N3  UNL     1      -6.092   7.224   9.775  1.00  0.00    -0.380 N 
HETATM    9  C8  UNL     1      -5.163   6.225   9.350  1.00  0.00     0.123 C 
HETATM   10  C7  UNL     1      -4.107   6.136  10.416  1.00  0.00     0.027 C 
HETATM   11  C6  UNL     1      -4.880   6.516  11.675  1.00  0.00     0.033 C 
HETATM   12  C20 UNL     1      -6.082   7.224  11.238  1.00  0.00     0.129 C 
BRANCH  11  13
HETATM   13  C5  UNL     1      -4.899   5.452  12.684  1.00  0.00     0.278 C 
BRANCH  13  14
HETATM   14  N2  UNL     1      -5.015   5.707  14.055  1.00  0.00     0.089 N 
HETATM   15  C4  UNL     1      -6.256   5.133  14.594  1.00  0.00     0.278 C 
HETATM   16  C3  UNL     1      -6.047   4.341  15.850  1.00  0.00     0.084 C 
HETATM   17  C2  UNL     1      -4.941   3.376  15.673  1.00  0.00     0.013 C 
HETATM   18  N1  UNL     1      -5.008   2.218  16.171  1.00  0.00    -0.275 N 
HETATM   19  C22 UNL     1      -3.774   3.821  14.894  1.00  0.00     0.084 C 
ATOM     20  H1  UNL     1      -5.863   2.014  16.690  1.00  0.00     0.193 HD
HETATM   21  C21 UNL     1      -3.894   5.354  14.849  1.00  0.00     0.278 C 
BRANCH  18  22
HETATM   22  O1  UNL     1      -4.109   1.211  16.116  1.00  0.00    -0.286 OA
HETATM   23  C1  UNL     1      -4.371  -0.025  15.464  1.00  0.00     0.237 C 
ENDBRANCH  18  22
ENDBRANCH  13  14
ENDBRANCH  11  13
ENDBRANCH   1   8
BRANCH   4  24
HETATM   24  C13 UNL     1      -9.399  10.666   6.672  1.00  0.00     0.066 C 
HETATM   25  C14 UNL     1     -10.415  11.295   7.602  1.00  0.00     0.044 C 
HETATM   26  C15 UNL     1      -8.540  11.780   6.127  1.00  0.00     0.110 C 
HETATM   27  S1  UNL     1      -9.599  13.012   5.271  1.00  0.00    -0.159 SA
HETATM   28  C16 UNL     1     -11.135  12.136   4.830  1.00  0.00     0.149 C 
HETATM   29  C17 UNL     1     -10.787  10.705   4.630  1.00  0.00     0.080 C 
HETATM   30  N4  UNL     1     -11.153  10.057   3.549  1.00  0.00    -0.388 N 
HETATM   31  N5  UNL     1     -10.044   9.957   5.582  1.00  0.00    -0.365 N 
ATOM     32  H42 UNL     1     -11.686  10.594   2.865  1.00  0.00     0.157 HD
ATOM     33  H41 UNL     1     -10.914   9.075   3.411  1.00  0.00     0.157 HD
ATOM     34  H5  UNL     1      -9.965   8.943   5.501  1.00  0.00     0.162 HD
ENDBRANCH   4  24
TORSDOF 5
ENDMDL
MODEL 4
REMARK VINA RESULT: -7.801471364      2.977      3.455
REMARK  5 active torsions:
REMARK  status: ('A' for Active; 'I' for Inactive)
REMARK    1  A    between atoms: O1_2  and  N1_3 
REMARK    2  A    between atoms: N2_8  and  C5_9 
REMARK    3  A    between atoms: C5_9  and  C6_10 
REMARK    4  A    between atoms: N3_13  and  C9_14 
REMARK    5  A    between atoms: C12_17  and  C13_18 
ROOT
HETATM    1  C9  UNL     1      -6.603   8.848   8.837  1.00  0.00     0.033 A 
HETATM    2  C10 UNL     1      -6.395  10.115   8.358  1.00  0.00     0.030 A 
HETATM    3  C11 UNL     1      -7.417  10.774   7.680  1.00  0.00     0.015 A 
HETATM    4  C12 UNL     1      -8.641  10.185   7.475  1.00  0.00     0.009 A 
HETATM    5  C18 UNL     1      -8.835   8.910   7.963  1.00  0.00     0.127 A 
HETATM    6  F1  UNL     1     -10.027   8.269   7.796  1.00  0.00    -0.205 F 
HETATM    7  C19 UNL     1      -7.828   8.244   8.638  1.00  0.00     0.072 A 
ENDROOT
BRANCH   1   8
HETATM    8  N3  UNL     1      -5.588   8.125   9.528  1.00  0.00    -0.380 N 
HETATM    9  C8  UNL     1      -4.179   8.068   9.290  1.00  0.00     0.123 C 
HETATM   10  C7  UNL     1      -3.526   7.827  10.622  1.00  0.00     0.027 C 
HETATM   11  C6  UNL     1      -4.591   7.033  11.371  1.00  0.00     0.033 C 
HETATM   12  C20 UNL     1      -5.860   7.276  10.688  1.00  0.00     0.129 C 
BRANCH  11  13
HETATM   13  C5  UNL     1      -4.140   5.697  11.771  1.00  0.00     0.278 C 
BRANCH  13  14
HETATM   14  N2  UNL     1      -3.116   5.010  11.110  1.00  0.00     0.089 N 
HETATM   15  C4  UNL     1      -2.154   4.449  12.069  1.00  0.00     0.278 C 
HETATM   16  C3  UNL     1      -1.827   3.008  11.807  1.00  0.00     0.084 C 
HETATM   17  C2  UNL     1      -3.067   2.222  11.635  1.00  0.00     0.013 C 
HETATM   18  N1  UNL     1      -3.159   1.053  12.104  1.00  0.00    -0.275 N 
HETATM   19  C22 UNL     1      -4.176   2.858  10.905  1.00  0.00     0.084 C 
ATOM     20  H1  UNL     1      -2.332   0.712  12.594  1.00  0.00     0.193 HD
HETATM   21  C21 UNL     1      -3.529   4.039  10.163  1.00  0.00     0.278 C 
BRANCH  18  22
HETATM   22  O1  UNL     1      -4.198   0.190  12.049  1.00  0.00    -0.286 OA
HETATM   23  C1  UNL     1      -4.054  -1.172  11.668  1.00  0.00     0.237 C 
ENDBRANCH  18  22
ENDBRANCH  13  14
ENDBRANCH  11  13
ENDBRANCH   1   8
BRANCH   4  24
HETATM   24  C13 UNL     1      -9.690  10.923   6.745  1.00  0.00     0.066 C 
HETATM   25  C14 UNL     1     -10.776  11.268   7.743  1.00  0.00     0.044 C 
HETATM   26  C15 UNL     1      -9.116  12.225   6.242  1.00  0.00     0.110 C 
HETATM   27  S1  UNL     1     -10.451  13.240   5.497  1.00  0.00    -0.159 SA
HETATM   28  C16 UNL     1     -11.781  12.076   5.052  1.00  0.00     0.149 C 
HETATM   29  C17 UNL     1     -11.143  10.768   4.754  1.00  0.00     0.080 C 
HETATM   30  N4  UNL     1     -11.407  10.113   3.649  1.00  0.00    -0.388 N 
HETATM   31  N5  UNL     1     -10.215  10.150   5.636  1.00  0.00    -0.365 N 
ATOM     32  H42 UNL     1     -12.073  10.557   3.016  1.00  0.00     0.157 HD
ATOM     33  H41 UNL     1     -10.969   9.215   3.444  1.00  0.00     0.157 HD
ATOM     34  H5  UNL     1      -9.923   9.183   5.491  1.00  0.00     0.162 HD
ENDBRANCH   4  24
TORSDOF 5
ENDMDL
MODEL 5
REMARK VINA RESULT: -7.785056364      2.547      3.141
REMARK  5 active torsions:
REMARK  status: ('A' for Active; 'I' for Inactive)
REMARK    1  A    between atoms: O1_2  and  N1_3 
REMARK    2  A    between atoms: N2_8  and  C5_9 
REMARK    3  A    between atoms: C5_9  and  C6_10 
REMARK    4  A    between atoms: N3_13  and  C9_14 
REMARK    5  A    between atoms: C12_17  and  C13_18 
ROOT
HETATM    1  C9  UNL     1      -6.619   8.657   8.796  1.00  0.00     0.033 A 
HETATM    2  C10 UNL     1      -6.337   9.875   8.235  1.00  0.00     0.030 A 
HETATM    3  C11 UNL     1      -7.331  10.562   7.543  1.00  0.00     0.015 A 
HETATM    4  C12 UNL     1      -8.599  10.050   7.405  1.00  0.00     0.009 A 
HETATM    5  C18 UNL     1      -8.866   8.824   7.976  1.00  0.00     0.127 A 
HETATM    6  F1  UNL     1     -10.103   8.260   7.879  1.00  0.00    -0.205 F 
HETATM    7  C19 UNL     1      -7.888   8.130   8.666  1.00  0.00     0.072 A 
ENDROOT
BRANCH   1   8
HETATM    8  N3  UNL     1      -5.636   7.907   9.507  1.00  0.00    -0.380 N 
HETATM    9  C8  UNL     1      -4.361   8.313  10.011  1.00  0.00     0.123 C 
HETATM   10  C7  UNL     1      -4.091   7.474  11.228  1.00  0.00     0.027 C 
HETATM   11  C6  UNL     1      -4.834   6.180  10.905  1.00  0.00     0.033 C 
HETATM   12  C20 UNL     1      -5.810   6.499   9.865  1.00  0.00     0.129 C 
BRANCH  11  13
HETATM   13  C5  UNL     1      -3.955   5.009  10.847  1.00  0.00     0.278 C 
BRANCH  13  14
HETATM   14  N2  UNL     1      -3.407   4.412  11.987  1.00  0.00     0.089 N 
HETATM   15  C4  UNL     1      -4.463   3.957  12.902  1.00  0.00     0.278 C 
HETATM   16  C3  UNL     1      -4.267   2.550  13.383  1.00  0.00     0.084 C 
HETATM   17  C2  UNL     1      -4.001   1.648  12.243  1.00  0.00     0.013 C 
HETATM   18  N1  UNL     1      -4.487   0.483  12.214  1.00  0.00    -0.275 N 
HETATM   19  C22 UNL     1      -3.157   2.166  11.154  1.00  0.00     0.084 C 
ATOM     20  H1  UNL     1      -5.059   0.228  13.019  1.00  0.00     0.193 HD
HETATM   21  C21 UNL     1      -2.449   3.392  11.756  1.00  0.00     0.278 C 
BRANCH  18  22
HETATM   22  O1  UNL     1      -4.357  -0.474  11.269  1.00  0.00    -0.286 OA
HETATM   23  C1  UNL     1      -3.417  -1.536  11.367  1.00  0.00     0.237 C 
ENDBRANCH  18  22
ENDBRANCH  13  14
ENDBRANCH  11  13
ENDBRANCH   1   8
BRANCH   4  24
HETATM   24  C13 UNL     1      -9.615  10.815   6.657  1.00  0.00     0.066 C 
HETATM   25  C14 UNL     1     -10.695  11.213   7.642  1.00  0.00     0.044 C 
HETATM   26  C15 UNL     1      -8.991  12.088   6.141  1.00  0.00     0.110 C 
HETATM   27  S1  UNL     1     -10.283  13.140   5.371  1.00  0.00    -0.159 SA
HETATM   28  C16 UNL     1     -11.650  12.018   4.932  1.00  0.00     0.149 C 
HETATM   29  C17 UNL     1     -11.057  10.684   4.657  1.00  0.00     0.080 C 
HETATM   30  N4  UNL     1     -11.337  10.023   3.558  1.00  0.00    -0.388 N 
HETATM   31  N5  UNL     1     -10.159  10.045   5.554  1.00  0.00    -0.365 N 
ATOM     32  H42 UNL     1     -11.982  10.482   2.914  1.00  0.00     0.157 HD
ATOM     33  H41 UNL     1     -10.930   9.107   3.369  1.00  0.00     0.157 HD
ATOM     34  H5  UNL     1      -9.901   9.067   5.425  1.00  0.00     0.162 HD
ENDBRANCH   4  24
TORSDOF 5
ENDMDL
