MODEL 1
REMARK VINA RESULT: -5.260613845      0.000      0.000
REMARK  10 active torsions:
REMARK  status: ('A' for Active; 'I' for Inactive)
REMARK    1  A    between atoms: C2_2  and  C3_3 
REMARK    2  A    between atoms: C3_3  and  C4_4 
REMARK    3  A    between atoms: C4_4  and  C5_5 
REMARK    4  A    between atoms: C5_5  and  C6_6 
REMARK    5  A    between atoms: C5_5  and  C7_9 
REMARK    6  A    between atoms: C8_10  and  O2_11 
REMARK    7  A    between atoms: O2_11  and  C9_12 
REMARK    8  A    between atoms: C13_16  and  O3_17 
REMARK    9  A    between atoms: O3_17  and  C14_18 
REMARK   10  A    between atoms: C14_18  and  C15_19 
ROOT
HETATM    1  C7  UNL     1       0.367  41.904   1.375  1.00  0.00     0.056 C 
HETATM    2  C8  UNL     1       1.232  43.007   0.965  1.00  0.00     0.128 C 
HETATM    3  C11 UNL     1       0.257  44.206   1.324  1.00  0.00     0.035 C 
HETATM    4  C12 UNL     1      -0.268  43.805   2.655  1.00  0.00     0.035 C 
HETATM    5  C13 UNL     1      -0.180  42.258   2.722  1.00  0.00     0.128 C 
ENDROOT
BRANCH   1   6
HETATM    6  C5  UNL     1       0.774  40.499   1.188  1.00  0.00     0.084 C 
BRANCH   6   7
HETATM    7  C4  UNL     1       1.525  39.950   2.410  1.00  0.00     0.018 C 
BRANCH   7   8
HETATM    8  C3  UNL     1       2.865  39.380   2.106  1.00  0.00     0.027 C 
BRANCH   8   9
HETATM    9  C2  UNL     1       2.849  37.962   2.562  1.00  0.00    -0.037 C 
HETATM   10  C1  UNL     1       2.486  37.018   1.719  1.00  0.00     0.007 C 
ENDBRANCH   8   9
ENDBRANCH   7   8
ENDBRANCH   6   7
BRANCH   6  11
HETATM   11  C6  UNL     1      -0.359  39.564   0.980  1.00  0.00     0.235 C 
HETATM   12  N1  UNL     1      -1.245  39.701  -0.089  1.00  0.00    -0.062 NA
HETATM   13  O1  UNL     1      -0.528  38.622   1.785  1.00  0.00    -0.276 OA
ENDBRANCH   6  11
ENDBRANCH   1   6
BRANCH   2  14
HETATM   14  O2  UNL     1       1.568  43.111  -0.332  1.00  0.00    -0.386 OA
BRANCH  14  15
HETATM   15  C9  UNL     1       0.635  43.439  -1.259  1.00  0.00     0.163 C 
HETATM   16  C10 UNL     1       1.080  43.764  -2.634  1.00  0.00     0.033 C 
ENDBRANCH  14  15
ENDBRANCH   2  14
BRANCH   5  17
HETATM   17  O3  UNL     1      -1.484  41.775   2.803  1.00  0.00    -0.384 OA
BRANCH  17  18
HETATM   18  C14 UNL     1      -1.919  41.260   3.956  1.00  0.00     0.184 C 
BRANCH  18  19
HETATM   19  C15 UNL     1      -0.893  40.886   4.986  1.00  0.00     0.080 A 
HETATM   20  C16 UNL     1      -1.501  40.274   6.242  1.00  0.00     0.091 A 
HETATM   21  S1  UNL     1      -0.819  41.930   6.489  1.00  0.00    -0.160 SA
ENDBRANCH  18  19
ENDBRANCH  17  18
ENDBRANCH   5  17
TORSDOF 10
ENDMDL
MODEL 2
REMARK VINA RESULT: -5.055863034      2.407      4.908
REMARK  10 active torsions:
REMARK  status: ('A' for Active; 'I' for Inactive)
REMARK    1  A    between atoms: C2_2  and  C3_3 
REMARK    2  A    between atoms: C3_3  and  C4_4 
REMARK    3  A    between atoms: C4_4  and  C5_5 
REMARK    4  A    between atoms: C5_5  and  C6_6 
REMARK    5  A    between atoms: C5_5  and  C7_9 
REMARK    6  A    between atoms: C8_10  and  O2_11 
REMARK    7  A    between atoms: O2_11  and  C9_12 
REMARK    8  A    between atoms: C13_16  and  O3_17 
REMARK    9  A    between atoms: O3_17  and  C14_18 
REMARK   10  A    between atoms: C14_18  and  C15_19 
ROOT
HETATM    1  C7  UNL     1       0.721  41.832   1.705  1.00  0.00     0.056 C 
HETATM    2  C8  UNL     1      -0.295  42.194   2.690  1.00  0.00     0.128 C 
HETATM    3  C11 UNL     1      -0.106  43.769   2.643  1.00  0.00     0.035 C 
HETATM    4  C12 UNL     1      -0.005  44.036   1.184  1.00  0.00     0.035 C 
HETATM    5  C13 UNL     1       0.527  42.736   0.528  1.00  0.00     0.128 C 
ENDROOT
BRANCH   1   6
HETATM    6  C5  UNL     1       1.024  40.422   1.397  1.00  0.00     0.084 C 
BRANCH   6   7
HETATM    7  C4  UNL     1       1.787  39.735   2.538  1.00  0.00     0.018 C 
BRANCH   7   8
HETATM    8  C3  UNL     1       3.037  39.047   2.118  1.00  0.00     0.027 C 
BRANCH   8   9
HETATM    9  C2  UNL     1       2.875  37.605   2.452  1.00  0.00    -0.037 C 
HETATM   10  C1  UNL     1       2.304  36.801   1.579  1.00  0.00     0.007 C 
ENDBRANCH   8   9
ENDBRANCH   7   8
ENDBRANCH   6   7
BRANCH   6  11
HETATM   11  C6  UNL     1      -0.179  39.581   1.176  1.00  0.00     0.235 C 
HETATM   12  N1  UNL     1      -0.998  39.740   0.058  1.00  0.00    -0.062 NA
HETATM   13  O1  UNL     1      -0.469  38.699   2.014  1.00  0.00    -0.276 OA
ENDBRANCH   6  11
ENDBRANCH   1   6
BRANCH   2  14
HETATM   14  O2  UNL     1      -0.131  41.788   3.959  1.00  0.00    -0.386 OA
BRANCH  14  15
HETATM   15  C9  UNL     1      -1.114  41.105   4.595  1.00  0.00     0.163 C 
HETATM   16  C10 UNL     1      -2.445  41.007   3.952  1.00  0.00     0.033 C 
ENDBRANCH  14  15
ENDBRANCH   2  14
BRANCH   5  17
HETATM   17  O3  UNL     1       1.779  43.028  -0.008  1.00  0.00    -0.384 OA
BRANCH  17  18
HETATM   18  C14 UNL     1       1.889  43.993  -0.924  1.00  0.00     0.184 C 
BRANCH  18  19
HETATM   19  C15 UNL     1       1.137  43.822  -2.212  1.00  0.00     0.080 A 
HETATM   20  C16 UNL     1       2.045  43.787  -3.436  1.00  0.00     0.091 A 
HETATM   21  S1  UNL     1       1.043  45.287  -3.309  1.00  0.00    -0.160 SA
ENDBRANCH  18  19
ENDBRANCH  17  18
ENDBRANCH   5  17
TORSDOF 10
ENDMDL
MODEL 3
REMARK VINA RESULT: -5.016602156      2.648      5.027
REMARK  10 active torsions:
REMARK  status: ('A' for Active; 'I' for Inactive)
REMARK    1  A    between atoms: C2_2  and  C3_3 
REMARK    2  A    between atoms: C3_3  and  C4_4 
REMARK    3  A    between atoms: C4_4  and  C5_5 
REMARK    4  A    between atoms: C5_5  and  C6_6 
REMARK    5  A    between atoms: C5_5  and  C7_9 
REMARK    6  A    between atoms: C8_10  and  O2_11 
REMARK    7  A    between atoms: O2_11  and  C9_12 
REMARK    8  A    between atoms: C13_16  and  O3_17 
REMARK    9  A    between atoms: O3_17  and  C14_18 
REMARK   10  A    between atoms: C14_18  and  C15_19 
ROOT
HETATM    1  C7  UNL     1       0.796  42.006   1.669  1.00  0.00     0.056 C 
HETATM    2  C8  UNL     1      -0.173  42.456   2.665  1.00  0.00     0.128 C 
HETATM    3  C11 UNL     1       0.036  44.019   2.494  1.00  0.00     0.035 C 
HETATM    4  C12 UNL     1       0.079  44.178   1.017  1.00  0.00     0.035 C 
HETATM    5  C13 UNL     1       0.564  42.824   0.438  1.00  0.00     0.128 C 
ENDROOT
BRANCH   1   6
HETATM    6  C5  UNL     1       1.066  40.572   1.454  1.00  0.00     0.084 C 
BRANCH   6   7
HETATM    7  C4  UNL     1       1.933  39.975   2.572  1.00  0.00     0.018 C 
BRANCH   7   8
HETATM    8  C3  UNL     1       3.082  39.161   2.094  1.00  0.00     0.027 C 
BRANCH   8   9
HETATM    9  C2  UNL     1       2.808  37.750   2.484  1.00  0.00    -0.037 C 
HETATM   10  C1  UNL     1       2.245  36.937   1.614  1.00  0.00     0.007 C 
ENDBRANCH   8   9
ENDBRANCH   7   8
ENDBRANCH   6   7
BRANCH   6  11
HETATM   11  C6  UNL     1      -0.153  39.727   1.418  1.00  0.00     0.235 C 
HETATM   12  N1  UNL     1      -0.934  39.603   0.269  1.00  0.00    -0.062 NA
HETATM   13  O1  UNL     1      -0.492  39.102   2.447  1.00  0.00    -0.276 OA
ENDBRANCH   6  11
ENDBRANCH   1   6
BRANCH   2  14
HETATM   14  O2  UNL     1       0.040  42.141   3.954  1.00  0.00    -0.386 OA
BRANCH  14  15
HETATM   15  C9  UNL     1      -0.150  43.065   4.927  1.00  0.00     0.163 C 
HETATM   16  C10 UNL     1       0.659  42.972   6.165  1.00  0.00     0.033 C 
ENDBRANCH  14  15
ENDBRANCH   2  14
BRANCH   5  17
HETATM   17  O3  UNL     1       1.797  43.055  -0.170  1.00  0.00    -0.384 OA
BRANCH  17  18
HETATM   18  C14 UNL     1       1.904  44.022  -1.084  1.00  0.00     0.184 C 
BRANCH  18  19
HETATM   19  C15 UNL     1       1.208  43.819  -2.399  1.00  0.00     0.080 A 
HETATM   20  C16 UNL     1       2.169  43.742  -3.580  1.00  0.00     0.091 A 
HETATM   21  S1  UNL     1       1.176  45.253  -3.541  1.00  0.00    -0.160 SA
ENDBRANCH  18  19
ENDBRANCH  17  18
ENDBRANCH   5  17
TORSDOF 10
ENDMDL
MODEL 4
REMARK VINA RESULT: -5.012855136      1.854      2.280
REMARK  10 active torsions:
REMARK  status: ('A' for Active; 'I' for Inactive)
REMARK    1  A    between atoms: C2_2  and  C3_3 
REMARK    2  A    between atoms: C3_3  and  C4_4 
REMARK    3  A    between atoms: C4_4  and  C5_5 
REMARK    4  A    between atoms: C5_5  and  C6_6 
REMARK    5  A    between atoms: C5_5  and  C7_9 
REMARK    6  A    between atoms: C8_10  and  O2_11 
REMARK    7  A    between atoms: O2_11  and  C9_12 
REMARK    8  A    between atoms: C13_16  and  O3_17 
REMARK    9  A    between atoms: O3_17  and  C14_18 
REMARK   10  A    between atoms: C14_18  and  C15_19 
ROOT
HETATM    1  C7  UNL     1       0.445  41.867   1.468  1.00  0.00     0.056 C 
HETATM    2  C8  UNL     1       1.276  42.973   1.000  1.00  0.00     0.128 C 
HETATM    3  C11 UNL     1       0.328  44.169   1.436  1.00  0.00     0.035 C 
HETATM    4  C12 UNL     1      -0.095  43.761   2.801  1.00  0.00     0.035 C 
HETATM    5  C13 UNL     1      -0.000  42.214   2.853  1.00  0.00     0.128 C 
ENDROOT
BRANCH   1   6
HETATM    6  C5  UNL     1       0.839  40.464   1.245  1.00  0.00     0.084 C 
BRANCH   6   7
HETATM    7  C4  UNL     1       1.570  39.871   2.458  1.00  0.00     0.018 C 
BRANCH   7   8
HETATM    8  C3  UNL     1       2.901  39.283   2.150  1.00  0.00     0.027 C 
BRANCH   8   9
HETATM    9  C2  UNL     1       2.844  37.848   2.544  1.00  0.00    -0.037 C 
HETATM   10  C1  UNL     1       2.460  36.950   1.660  1.00  0.00     0.007 C 
ENDBRANCH   8   9
ENDBRANCH   7   8
ENDBRANCH   6   7
BRANCH   6  11
HETATM   11  C6  UNL     1      -0.302  39.548   0.998  1.00  0.00     0.235 C 
HETATM   12  N1  UNL     1      -1.152  39.704  -0.097  1.00  0.00    -0.062 NA
HETATM   13  O1  UNL     1      -0.510  38.605   1.792  1.00  0.00    -0.276 OA
ENDBRANCH   6  11
ENDBRANCH   1   6
BRANCH   2  14
HETATM   14  O2  UNL     1       1.514  43.084  -0.318  1.00  0.00    -0.386 OA
BRANCH  14  15
HETATM   15  C9  UNL     1       0.515  43.419  -1.170  1.00  0.00     0.163 C 
HETATM   16  C10 UNL     1       0.853  43.720  -2.582  1.00  0.00     0.033 C 
ENDBRANCH  14  15
ENDBRANCH   2  14
BRANCH   5  17
HETATM   17  O3  UNL     1      -1.294  41.728   3.030  1.00  0.00    -0.384 OA
BRANCH  17  18
HETATM   18  C14 UNL     1      -2.333  42.524   2.765  1.00  0.00     0.184 C 
BRANCH  18  19
HETATM   19  C15 UNL     1      -3.275  42.104   1.674  1.00  0.00     0.080 A 
HETATM   20  C16 UNL     1      -3.035  42.837   0.359  1.00  0.00     0.091 A 
HETATM   21  S1  UNL     1      -4.567  43.311   1.194  1.00  0.00    -0.160 SA
ENDBRANCH  18  19
ENDBRANCH  17  18
ENDBRANCH   5  17
TORSDOF 10
ENDMDL
MODEL 5
REMARK VINA RESULT: -4.997567109      2.414      4.632
REMARK  10 active torsions:
REMARK  status: ('A' for Active; 'I' for Inactive)
REMARK    1  A    between atoms: C2_2  and  C3_3 
REMARK    2  A    between atoms: C3_3  and  C4_4 
REMARK    3  A    between atoms: C4_4  and  C5_5 
REMARK    4  A    between atoms: C5_5  and  C6_6 
REMARK    5  A    between atoms: C5_5  and  C7_9 
REMARK    6  A    between atoms: C8_10  and  O2_11 
REMARK    7  A    between atoms: O2_11  and  C9_12 
REMARK    8  A    between atoms: C13_16  and  O3_17 
REMARK    9  A    between atoms: O3_17  and  C14_18 
REMARK   10  A    between atoms: C14_18  and  C15_19 
ROOT
HETATM    1  C7  UNL     1       0.718  41.808   1.685  1.00  0.00     0.056 C 
HETATM    2  C8  UNL     1      -0.331  42.180   2.631  1.00  0.00     0.128 C 
HETATM    3  C11 UNL     1      -0.129  43.754   2.586  1.00  0.00     0.035 C 
HETATM    4  C12 UNL     1       0.026  44.016   1.131  1.00  0.00     0.035 C 
HETATM    5  C13 UNL     1       0.572  42.709   0.499  1.00  0.00     0.128 C 
ENDROOT
BRANCH   1   6
HETATM    6  C5  UNL     1       1.021  40.396   1.393  1.00  0.00     0.084 C 
BRANCH   6   7
HETATM    7  C4  UNL     1       1.782  39.720   2.543  1.00  0.00     0.018 C 
BRANCH   7   8
HETATM    8  C3  UNL     1       3.035  39.030   2.134  1.00  0.00     0.027 C 
BRANCH   8   9
HETATM    9  C2  UNL     1       2.867  37.588   2.467  1.00  0.00    -0.037 C 
HETATM   10  C1  UNL     1       2.325  36.780   1.580  1.00  0.00     0.007 C 
ENDBRANCH   8   9
ENDBRANCH   7   8
ENDBRANCH   6   7
BRANCH   6  11
HETATM   11  C6  UNL     1      -0.180  39.551   1.177  1.00  0.00     0.235 C 
HETATM   12  N1  UNL     1      -1.003  39.707   0.063  1.00  0.00    -0.062 NA
HETATM   13  O1  UNL     1      -0.465  38.671   2.018  1.00  0.00    -0.276 OA
ENDBRANCH   6  11
ENDBRANCH   1   6
BRANCH   2  14
HETATM   14  O2  UNL     1      -0.215  41.778   3.907  1.00  0.00    -0.386 OA
BRANCH  14  15
HETATM   15  C9  UNL     1      -1.229  41.112   4.513  1.00  0.00     0.163 C 
HETATM   16  C10 UNL     1      -2.531  41.005   3.812  1.00  0.00     0.033 C 
ENDBRANCH  14  15
ENDBRANCH   2  14
BRANCH   5  17
HETATM   17  O3  UNL     1       1.845  42.991   0.008  1.00  0.00    -0.384 OA
BRANCH  17  18
HETATM   18  C14 UNL     1       2.031  44.082  -0.738  1.00  0.00     0.184 C 
BRANCH  18  19
HETATM   19  C15 UNL     1       3.320  44.833  -0.568  1.00  0.00     0.080 A 
HETATM   20  C16 UNL     1       3.357  45.683   0.697  1.00  0.00     0.091 A 
HETATM   21  S1  UNL     1       3.257  46.645  -0.830  1.00  0.00    -0.160 SA
ENDBRANCH  18  19
ENDBRANCH  17  18
ENDBRANCH   5  17
TORSDOF 10
ENDMDL
