MODEL 1
REMARK VINA RESULT: -9.236066005      0.000      0.000
REMARK  3 active torsions:
REMARK  status: ('A' for Active; 'I' for Inactive)
REMARK    1  A    between atoms: C2_7  and  C3_8 
REMARK    2  A    between atoms: C2_7  and  C13_25 
REMARK    3  A    between atoms: N4_15  and  C8_17 
ROOT
HETATM    1  C3  UNL     1      -2.852   2.673  12.581  1.00  0.00     0.020 A 
HETATM    2  C4  UNL     1      -2.378   1.854  11.587  1.00  0.00     0.015 A 
HETATM    3  C5  UNL     1      -3.028   0.660  11.275  1.00  0.00     0.018 A 
HETATM    4  C6  UNL     1      -4.156   0.276  11.955  1.00  0.00     0.089 A 
HETATM    5  N3  UNL     1      -4.624   1.069  12.926  1.00  0.00    -0.352 N 
ATOM      6  H3  UNL     1      -5.462   0.797  13.440  1.00  0.00     0.166 HD
HETATM    7  C7  UNL     1      -4.007   2.213  13.229  1.00  0.00     0.110 A 
HETATM    8  N4  UNL     1      -4.509   2.923  14.195  1.00  0.00    -0.368 N 
ATOM      9  H4  UNL     1      -4.031   3.791  14.436  1.00  0.00     0.161 HD
ENDROOT
BRANCH   1  10
HETATM   10  C2  UNL     1      -2.264   3.977  12.916  1.00  0.00     0.129 C 
HETATM   11  N2  UNL     1      -0.804   3.973  12.730  1.00  0.00    -0.337 N 
HETATM   12  C1  UNL     1      -0.127   4.572  11.638  1.00  0.00     0.214 C 
ATOM     13  H2  UNL     1      -0.238   3.505  13.438  1.00  0.00     0.164 HD
HETATM   14  N1  UNL     1       1.168   4.406  11.485  1.00  0.00    -0.365 N 
HETATM   15  O1  UNL     1      -0.879   5.342  10.735  1.00  0.00    -0.317 OA
ATOM     16  H12 UNL     1       1.714   3.846  12.140  1.00  0.00     0.159 HD
ATOM     17  H11 UNL     1       1.656   4.837  10.699  1.00  0.00     0.159 HD
HETATM   18  C16 UNL     1      -2.224   4.949  10.746  1.00  0.00     0.139 A 
HETATM   19  C14 UNL     1      -2.666   5.187  12.204  1.00  0.00     0.056 A 
HETATM   20  C15 UNL     1      -3.375   5.704  11.117  1.00  0.00     0.043 A 
BRANCH  10  21
HETATM   21  C13 UNL     1      -2.589   4.250  14.408  1.00  0.00     0.386 C 
HETATM   22  F4  UNL     1      -2.994   5.567  14.464  1.00  0.00    -0.211 F 
HETATM   23  F5  UNL     1      -1.352   4.193  15.073  1.00  0.00    -0.211 F 
ENDBRANCH  10  21
ENDBRANCH   1  10
BRANCH   8  24
HETATM   24  C8  UNL     1      -5.670   2.588  14.942  1.00  0.00     0.123 C 
HETATM   25  C9  UNL     1      -6.223   3.733  15.765  1.00  0.00     0.034 C 
HETATM   26  C10 UNL     1      -7.129   2.979  16.736  1.00  0.00     0.084 C 
HETATM   27  C11 UNL     1      -6.409   1.703  17.020  1.00  0.00     0.276 C 
HETATM   28  F1  UNL     1      -7.201   0.591  16.808  1.00  0.00    -0.203 F 
HETATM   29  F2  UNL     1      -5.965   1.762  18.342  1.00  0.00    -0.203 F 
HETATM   30  C12 UNL     1      -5.211   1.650  16.069  1.00  0.00     0.264 C 
HETATM   31  F3  UNL     1      -4.145   2.203  16.757  1.00  0.00    -0.241 F 
ENDBRANCH   8  24
TORSDOF 3
ENDMDL
MODEL 2
REMARK VINA RESULT: -8.735600375      1.234      1.390
REMARK  3 active torsions:
REMARK  status: ('A' for Active; 'I' for Inactive)
REMARK    1  A    between atoms: C2_7  and  C3_8 
REMARK    2  A    between atoms: C2_7  and  C13_25 
REMARK    3  A    between atoms: N4_15  and  C8_17 
ROOT
HETATM    1  C3  UNL     1      -3.366   3.404  12.255  1.00  0.00     0.020 A 
HETATM    2  C4  UNL     1      -2.911   2.652  11.201  1.00  0.00     0.015 A 
HETATM    3  C5  UNL     1      -3.450   1.393  10.937  1.00  0.00     0.018 A 
HETATM    4  C6  UNL     1      -4.447   0.876  11.725  1.00  0.00     0.089 A 
HETATM    5  N3  UNL     1      -4.896   1.603  12.754  1.00  0.00    -0.352 N 
ATOM      6  H3  UNL     1      -5.637   1.231  13.348  1.00  0.00     0.166 HD
HETATM    7  C7  UNL     1      -4.385   2.808  13.013  1.00  0.00     0.110 A 
HETATM    8  N4  UNL     1      -4.859   3.449  14.040  1.00  0.00    -0.368 N 
ATOM      9  H4  UNL     1      -4.460   4.364  14.245  1.00  0.00     0.161 HD
ENDROOT
BRANCH   1  10
HETATM   10  C2  UNL     1      -2.899   4.765  12.552  1.00  0.00     0.129 C 
HETATM   11  N2  UNL     1      -1.820   5.174  11.638  1.00  0.00    -0.337 N 
HETATM   12  C1  UNL     1      -1.980   6.064  10.546  1.00  0.00     0.214 C 
ATOM     13  H2  UNL     1      -0.890   4.789  11.802  1.00  0.00     0.164 HD
HETATM   14  N1  UNL     1      -0.992   6.270   9.704  1.00  0.00    -0.365 N 
HETATM   15  O1  UNL     1      -3.218   6.712  10.397  1.00  0.00    -0.317 OA
ATOM     16  H12 UNL     1      -0.093   5.800   9.812  1.00  0.00     0.159 HD
ATOM     17  H11 UNL     1      -1.107   6.911   8.918  1.00  0.00     0.159 HD
HETATM   18  C16 UNL     1      -4.242   5.976  11.007  1.00  0.00     0.139 A 
HETATM   19  C14 UNL     1      -3.812   5.903  12.486  1.00  0.00     0.056 A 
HETATM   20  C15 UNL     1      -5.080   6.344  12.100  1.00  0.00     0.043 A 
BRANCH  10  21
HETATM   21  C13 UNL     1      -2.361   4.752  14.007  1.00  0.00     0.386 C 
HETATM   22  F4  UNL     1      -2.961   5.823  14.634  1.00  0.00    -0.211 F 
HETATM   23  F5  UNL     1      -0.997   5.076  13.899  1.00  0.00    -0.211 F 
ENDBRANCH  10  21
ENDBRANCH   1  10
BRANCH   8  24
HETATM   24  C8  UNL     1      -5.887   2.976  14.898  1.00  0.00     0.123 C 
HETATM   25  C9  UNL     1      -6.349   3.993  15.922  1.00  0.00     0.034 C 
HETATM   26  C10 UNL     1      -7.079   3.091  16.915  1.00  0.00     0.084 C 
HETATM   27  C11 UNL     1      -6.286   1.827  16.940  1.00  0.00     0.276 C 
HETATM   28  F1  UNL     1      -7.066   0.710  16.712  1.00  0.00    -0.203 F 
HETATM   29  F2  UNL     1      -5.656   1.758  18.183  1.00  0.00    -0.203 F 
HETATM   30  C12 UNL     1      -5.239   1.940  15.830  1.00  0.00     0.264 C 
HETATM   31  F3  UNL     1      -4.102   2.462  16.420  1.00  0.00    -0.241 F 
ENDBRANCH   8  24
TORSDOF 3
ENDMDL
MODEL 3
REMARK VINA RESULT: -8.706850228      1.723      2.313
REMARK  3 active torsions:
REMARK  status: ('A' for Active; 'I' for Inactive)
REMARK    1  A    between atoms: C2_7  and  C3_8 
REMARK    2  A    between atoms: C2_7  and  C13_25 
REMARK    3  A    between atoms: N4_15  and  C8_17 
ROOT
HETATM    1  C3  UNL     1      -3.177   1.972  11.539  1.00  0.00     0.020 A 
HETATM    2  C4  UNL     1      -2.664   0.934  10.802  1.00  0.00     0.015 A 
HETATM    3  C5  UNL     1      -3.063  -0.379  11.046  1.00  0.00     0.018 A 
HETATM    4  C6  UNL     1      -3.978  -0.665  12.027  1.00  0.00     0.089 A 
HETATM    5  N3  UNL     1      -4.482   0.342  12.750  1.00  0.00    -0.352 N 
ATOM      6  H3  UNL     1      -5.163   0.144  13.484  1.00  0.00     0.166 HD
HETATM    7  C7  UNL     1      -4.104   1.601  12.523  1.00  0.00     0.110 A 
HETATM    8  N4  UNL     1      -4.623   2.525  13.276  1.00  0.00    -0.368 N 
ATOM      9  H4  UNL     1      -4.326   3.486  13.111  1.00  0.00     0.161 HD
ENDROOT
BRANCH   1  10
HETATM   10  C2  UNL     1      -2.859   3.386  11.293  1.00  0.00     0.129 C 
HETATM   11  N2  UNL     1      -2.672   4.122  12.554  1.00  0.00    -0.337 N 
HETATM   12  C1  UNL     1      -1.415   4.508  13.085  1.00  0.00     0.214 C 
ATOM     13  H2  UNL     1      -3.507   4.373  13.084  1.00  0.00     0.164 HD
HETATM   14  N1  UNL     1      -1.335   5.047  14.281  1.00  0.00    -0.365 N 
HETATM   15  O1  UNL     1      -0.271   4.297  12.297  1.00  0.00    -0.317 OA
ATOM     16  H12 UNL     1      -2.166   5.199  14.854  1.00  0.00     0.159 HD
ATOM     17  H11 UNL     1      -0.430   5.325  14.664  1.00  0.00     0.159 HD
HETATM   18  C16 UNL     1      -0.485   3.265  11.374  1.00  0.00     0.139 A 
HETATM   19  C14 UNL     1      -1.675   3.768  10.530  1.00  0.00     0.056 A 
HETATM   20  C15 UNL     1      -0.483   3.323   9.949  1.00  0.00     0.043 A 
BRANCH  10  21
HETATM   21  C13 UNL     1      -4.060   3.992  10.520  1.00  0.00     0.386 C 
HETATM   22  F4  UNL     1      -3.523   4.549   9.379  1.00  0.00    -0.211 F 
HETATM   23  F5  UNL     1      -4.503   5.067  11.309  1.00  0.00    -0.211 F 
ENDBRANCH  10  21
ENDBRANCH   1  10
BRANCH   8  24
HETATM   24  C8  UNL     1      -5.572   2.303  14.309  1.00  0.00     0.123 C 
HETATM   25  C9  UNL     1      -5.966   3.557  15.061  1.00  0.00     0.034 C 
HETATM   26  C10 UNL     1      -6.601   2.956  16.313  1.00  0.00     0.084 C 
HETATM   27  C11 UNL     1      -5.788   1.739  16.608  1.00  0.00     0.276 C 
HETATM   28  F1  UNL     1      -6.566   0.606  16.748  1.00  0.00    -0.203 F 
HETATM   29  F2  UNL     1      -5.059   1.998  17.769  1.00  0.00    -0.203 F 
HETATM   30  C12 UNL     1      -4.835   1.547  15.426  1.00  0.00     0.264 C 
HETATM   31  F3  UNL     1      -3.663   2.200  15.763  1.00  0.00    -0.241 F 
ENDBRANCH   8  24
TORSDOF 3
ENDMDL
MODEL 4
REMARK VINA RESULT: -8.635618136      3.133      5.036
REMARK  3 active torsions:
REMARK  status: ('A' for Active; 'I' for Inactive)
REMARK    1  A    between atoms: C2_7  and  C3_8 
REMARK    2  A    between atoms: C2_7  and  C13_25 
REMARK    3  A    between atoms: N4_15  and  C8_17 
ROOT
HETATM    1  C3  UNL     1      -3.911   1.602  13.484  1.00  0.00     0.020 A 
HETATM    2  C4  UNL     1      -4.325   0.480  14.156  1.00  0.00     0.015 A 
HETATM    3  C5  UNL     1      -4.452   0.486  15.545  1.00  0.00     0.018 A 
HETATM    4  C6  UNL     1      -4.166   1.614  16.272  1.00  0.00     0.089 A 
HETATM    5  N3  UNL     1      -3.762   2.712  15.623  1.00  0.00    -0.352 N 
ATOM      6  H3  UNL     1      -3.546   3.558  16.151  1.00  0.00     0.166 HD
HETATM    7  C7  UNL     1      -3.638   2.713  14.295  1.00  0.00     0.110 A 
HETATM    8  N4  UNL     1      -3.224   3.811  13.735  1.00  0.00    -0.368 N 
ATOM      9  H4  UNL     1      -3.117   3.809  12.722  1.00  0.00     0.161 HD
ENDROOT
BRANCH   1  10
HETATM   10  C2  UNL     1      -3.823   1.694  12.020  1.00  0.00     0.129 C 
HETATM   11  N2  UNL     1      -2.775   2.640  11.602  1.00  0.00    -0.337 N 
HETATM   12  C1  UNL     1      -1.504   2.266  11.099  1.00  0.00     0.214 C 
ATOM     13  H2  UNL     1      -2.979   3.636  11.680  1.00  0.00     0.164 HD
HETATM   14  N1  UNL     1      -0.582   3.177  10.875  1.00  0.00    -0.365 N 
HETATM   15  O1  UNL     1      -1.264   0.904  10.852  1.00  0.00    -0.317 OA
ATOM     16  H12 UNL     1      -0.756   4.166  11.055  1.00  0.00     0.159 HD
ATOM     17  H11 UNL     1       0.333   2.908  10.513  1.00  0.00     0.159 HD
HETATM   18  C16 UNL     1      -2.099   0.101  11.639  1.00  0.00     0.139 A 
HETATM   19  C14 UNL     1      -3.521   0.517  11.211  1.00  0.00     0.056 A 
HETATM   20  C15 UNL     1      -3.108  -0.818  11.225  1.00  0.00     0.043 A 
BRANCH  10  21
HETATM   21  C13 UNL     1      -5.200   2.199  11.514  1.00  0.00     0.386 C 
HETATM   22  F4  UNL     1      -5.702   1.183  10.729  1.00  0.00    -0.211 F 
HETATM   23  F5  UNL     1      -4.906   3.260  10.640  1.00  0.00    -0.211 F 
ENDBRANCH  10  21
ENDBRANCH   1  10
BRANCH   8  24
HETATM   24  C8  UNL     1      -2.908   5.013  14.423  1.00  0.00     0.123 C 
HETATM   25  C9  UNL     1      -4.109   5.889  14.714  1.00  0.00     0.034 C 
HETATM   26  C10 UNL     1      -3.428   7.219  15.027  1.00  0.00     0.084 C 
HETATM   27  C11 UNL     1      -2.257   7.277  14.103  1.00  0.00     0.276 C 
HETATM   28  F1  UNL     1      -1.072   7.529  14.767  1.00  0.00    -0.203 F 
HETATM   29  F2  UNL     1      -2.525   8.265  13.155  1.00  0.00    -0.203 F 
HETATM   30  C12 UNL     1      -2.166   5.910  13.420  1.00  0.00     0.264 C 
HETATM   31  F3  UNL     1      -2.882   6.017  12.241  1.00  0.00    -0.241 F 
ENDBRANCH   8  24
TORSDOF 3
ENDMDL
MODEL 5
REMARK VINA RESULT: -8.459085526      2.918      4.412
REMARK  3 active torsions:
REMARK  status: ('A' for Active; 'I' for Inactive)
REMARK    1  A    between atoms: C2_7  and  C3_8 
REMARK    2  A    between atoms: C2_7  and  C13_25 
REMARK    3  A    between atoms: N4_15  and  C8_17 
ROOT
HETATM    1  C3  UNL     1      -1.323   4.823  12.487  1.00  0.00     0.020 A 
HETATM    2  C4  UNL     1      -0.086   5.356  12.227  1.00  0.00     0.015 A 
HETATM    3  C5  UNL     1       0.729   4.819  11.230  1.00  0.00     0.018 A 
HETATM    4  C6  UNL     1       0.311   3.744  10.486  1.00  0.00     0.089 A 
HETATM    5  N3  UNL     1      -0.894   3.218  10.734  1.00  0.00    -0.352 N 
ATOM      6  H3  UNL     1      -1.217   2.419  10.188  1.00  0.00     0.166 HD
HETATM    7  C7  UNL     1      -1.677   3.728  11.686  1.00  0.00     0.110 A 
HETATM    8  N4  UNL     1      -2.828   3.154  11.881  1.00  0.00    -0.368 N 
ATOM      9  H4  UNL     1      -3.422   3.535  12.617  1.00  0.00     0.161 HD
ENDROOT
BRANCH   1  10
HETATM   10  C2  UNL     1      -2.264   5.378  13.469  1.00  0.00     0.129 C 
HETATM   11  N2  UNL     1      -1.642   6.452  14.261  1.00  0.00    -0.337 N 
HETATM   12  C1  UNL     1      -1.883   7.836  14.075  1.00  0.00     0.214 C 
ATOM     13  H2  UNL     1      -0.991   6.180  14.998  1.00  0.00     0.164 HD
HETATM   14  N1  UNL     1      -1.185   8.730  14.741  1.00  0.00    -0.365 N 
HETATM   15  O1  UNL     1      -2.884   8.217  13.166  1.00  0.00    -0.317 OA
ATOM     16  H12 UNL     1      -0.458   8.453  15.401  1.00  0.00     0.159 HD
ATOM     17  H11 UNL     1      -1.358   9.727  14.607  1.00  0.00     0.159 HD
HETATM   18  C16 UNL     1      -3.093   7.217  12.208  1.00  0.00     0.139 A 
HETATM   19  C14 UNL     1      -3.519   5.991  13.044  1.00  0.00     0.056 A 
HETATM   20  C15 UNL     1      -4.269   6.450  11.957  1.00  0.00     0.043 A 
BRANCH  10  21
HETATM   21  C13 UNL     1      -2.672   4.216  14.413  1.00  0.00     0.386 C 
HETATM   22  F4  UNL     1      -3.687   4.718  15.200  1.00  0.00    -0.211 F 
HETATM   23  F5  UNL     1      -1.571   4.029  15.266  1.00  0.00    -0.211 F 
ENDBRANCH  10  21
ENDBRANCH   1  10
BRANCH   8  24
HETATM   24  C8  UNL     1      -3.323   2.040  11.152  1.00  0.00     0.123 C 
HETATM   25  C9  UNL     1      -4.835   1.976  11.080  1.00  0.00     0.034 C 
HETATM   26  C10 UNL     1      -5.041   0.523  10.656  1.00  0.00     0.084 C 
HETATM   27  C11 UNL     1      -3.967  -0.238  11.359  1.00  0.00     0.276 C 
HETATM   28  F1  UNL     1      -3.225  -1.022  10.497  1.00  0.00    -0.203 F 
HETATM   29  F2  UNL     1      -4.583  -1.013  12.342  1.00  0.00    -0.203 F 
HETATM   30  C12 UNL     1      -3.046   0.796  12.011  1.00  0.00     0.264 C 
HETATM   31  F3  UNL     1      -3.519   0.980  13.298  1.00  0.00    -0.241 F 
ENDBRANCH   8  24
TORSDOF 3
ENDMDL
