MODEL 1
REMARK VINA RESULT: -7.774877271      0.000      0.000
REMARK  5 active torsions:
REMARK  status: ('A' for Active; 'I' for Inactive)
REMARK    1  A    between atoms: C2_2  and  N1_3 
REMARK    2  A    between atoms: C3_6  and  C4_7 
REMARK    3  A    between atoms: C6_11  and  N4_12 
REMARK    4  A    between atoms: N6_25  and  C15_26 
REMARK    5  A    between atoms: C15_26  and  C16_27 
ROOT
HETATM    1  N1  UNL     1      -3.088   4.084  13.088  1.00  0.00    -0.268 N 
HETATM    2  N2  UNL     1      -2.714   3.590  11.917  1.00  0.00    -0.295 N 
ATOM      3  H2  UNL     1      -3.146   2.794  11.449  1.00  0.00     0.187 HD
HETATM    4  C3  UNL     1      -1.678   4.301  11.441  1.00  0.00     0.069 A 
HETATM    5  C8  UNL     1      -1.412   5.270  12.367  1.00  0.00    -0.005 A 
HETATM    6  C9  UNL     1      -2.311   5.126  13.412  1.00  0.00     0.039 A 
HETATM    7  C10 UNL     1      -2.035   6.160  14.411  1.00  0.00     0.060 C 
HETATM    8  C11 UNL     1      -1.359   7.243  13.595  1.00  0.00     0.011 C 
HETATM    9  C12 UNL     1      -0.504   6.418  12.652  1.00  0.00     0.043 C 
ENDROOT
BRANCH   4  10
HETATM   10  C4  UNL     1      -0.969   4.082  10.174  1.00  0.00     0.025 A 
HETATM   11  C5  UNL     1      -1.661   4.201   8.987  1.00  0.00     0.121 A 
HETATM   12  N3  UNL     1      -0.992   3.997   7.852  1.00  0.00    -0.201 N 
HETATM   13  C6  UNL     1       0.326   3.681   7.805  1.00  0.00     0.675 A 
ATOM     14  H3  UNL     1      -1.499   4.083   6.971  1.00  0.00     0.183 HD
HETATM   15  N5  UNL     1       1.018   3.561   8.952  1.00  0.00    -0.201 N 
HETATM   16  C7  UNL     1       0.364   3.763  10.119  1.00  0.00     0.121 A 
ATOM     17  H5  UNL     1       2.010   3.324   8.943  1.00  0.00     0.183 HD
BRANCH  13  18
HETATM   18  N4  UNL     1       0.858   3.509   6.643  1.00  0.00    -0.234 N 
ATOM     19  H42 UNL     1       1.854   3.639   6.463  1.00  0.00     0.174 HD
ATOM     20  H41 UNL     1       0.243   3.229   5.879  1.00  0.00     0.174 HD
ENDBRANCH  13  18
ENDBRANCH   4  10
BRANCH   1  21
HETATM   21  C2  UNL     1      -4.194   3.510  13.843  1.00  0.00     0.135 C 
HETATM   22  C1  UNL     1      -5.237   4.534  14.177  1.00  0.00     0.061 C 
HETATM   23  C13 UNL     1      -4.821   2.427  12.974  1.00  0.00     0.068 C 
HETATM   24  C14 UNL     1      -4.275   1.180  13.592  1.00  0.00     0.113 C 
HETATM   25  N6  UNL     1      -3.993   1.519  14.952  1.00  0.00    -0.232 NA
HETATM   26  N7  UNL     1      -3.760   2.871  15.044  1.00  0.00    -0.131 NA
BRANCH  25  27
HETATM   27  C15 UNL     1      -5.099   1.068  15.774  1.00  0.00     0.114 C 
BRANCH  27  28
HETATM   28  C16 UNL     1      -5.428   2.013  16.879  1.00  0.00     0.000 A 
HETATM   29  C17 UNL     1      -6.474   1.586  17.915  1.00  0.00     0.006 A 
HETATM   30  C18 UNL     1      -6.827   2.577  16.867  1.00  0.00     0.006 A 
ENDBRANCH  27  28
ENDBRANCH  25  27
ENDBRANCH   1  21
TORSDOF 5
ENDMDL
MODEL 2
REMARK VINA RESULT: -7.722482816      1.944      8.119
REMARK  5 active torsions:
REMARK  status: ('A' for Active; 'I' for Inactive)
REMARK    1  A    between atoms: C2_2  and  N1_3 
REMARK    2  A    between atoms: C3_6  and  C4_7 
REMARK    3  A    between atoms: C6_11  and  N4_12 
REMARK    4  A    between atoms: N6_25  and  C15_26 
REMARK    5  A    between atoms: C15_26  and  C16_27 
ROOT
HETATM    1  N1  UNL     1      -2.878   2.545  11.499  1.00  0.00    -0.268 N 
HETATM    2  N2  UNL     1      -3.364   2.982  12.651  1.00  0.00    -0.295 N 
ATOM      3  H2  UNL     1      -3.268   3.933  13.007  1.00  0.00     0.187 HD
HETATM    4  C3  UNL     1      -4.001   1.979  13.279  1.00  0.00     0.069 A 
HETATM    5  C8  UNL     1      -3.896   0.884  12.468  1.00  0.00    -0.005 A 
HETATM    6  C9  UNL     1      -3.181   1.250  11.340  1.00  0.00     0.039 A 
HETATM    7  C10 UNL     1      -3.062   0.082  10.463  1.00  0.00     0.060 C 
HETATM    8  C11 UNL     1      -4.255  -0.761  10.866  1.00  0.00     0.011 C 
HETATM    9  C12 UNL     1      -4.275  -0.556  12.369  1.00  0.00     0.043 C 
ENDROOT
BRANCH   4  10
HETATM   10  C4  UNL     1      -4.679   2.045  14.579  1.00  0.00     0.025 A 
HETATM   11  C5  UNL     1      -4.331   1.145  15.565  1.00  0.00     0.121 A 
HETATM   12  N3  UNL     1      -4.963   1.227  16.736  1.00  0.00    -0.201 N 
HETATM   13  C6  UNL     1      -5.924   2.145  17.006  1.00  0.00     0.675 A 
ATOM     14  H3  UNL     1      -4.710   0.564  17.468  1.00  0.00     0.183 HD
HETATM   15  N5  UNL     1      -6.278   3.031  16.058  1.00  0.00    -0.201 N 
HETATM   16  C7  UNL     1      -5.652   2.970  14.860  1.00  0.00     0.121 A 
ATOM     17  H5  UNL     1      -6.998   3.730  16.237  1.00  0.00     0.183 HD
BRANCH  13  18
HETATM   18  N4  UNL     1      -6.460   2.121  18.179  1.00  0.00    -0.234 N 
ATOM     19  H42 UNL     1      -7.039   1.348  18.509  1.00  0.00     0.174 HD
ATOM     20  H41 UNL     1      -6.288   2.917  18.793  1.00  0.00     0.174 HD
ENDBRANCH  13  18
ENDBRANCH   4  10
BRANCH   1  21
HETATM   21  C2  UNL     1      -2.134   3.417  10.600  1.00  0.00     0.135 C 
HETATM   22  C1  UNL     1      -3.021   4.423   9.931  1.00  0.00     0.061 C 
HETATM   23  C13 UNL     1      -1.095   4.151  11.441  1.00  0.00     0.068 C 
HETATM   24  C14 UNL     1       0.156   3.403  11.108  1.00  0.00     0.113 C 
HETATM   25  N6  UNL     1      -0.064   2.850   9.809  1.00  0.00    -0.232 NA
HETATM   26  N7  UNL     1      -1.414   2.688   9.606  1.00  0.00    -0.131 NA
BRANCH  25  27
HETATM   27  C15 UNL     1       0.567   3.715   8.831  1.00  0.00     0.114 C 
BRANCH  27  28
HETATM   28  C16 UNL     1      -0.068   3.633   7.485  1.00  0.00     0.000 A 
HETATM   29  C17 UNL     1       0.602   4.367   6.318  1.00  0.00     0.006 A 
HETATM   30  C18 UNL     1      -0.626   4.924   6.940  1.00  0.00     0.006 A 
ENDBRANCH  27  28
ENDBRANCH  25  27
ENDBRANCH   1  21
TORSDOF 5
ENDMDL
MODEL 3
REMARK VINA RESULT: -7.639353170      1.592      3.141
REMARK  5 active torsions:
REMARK  status: ('A' for Active; 'I' for Inactive)
REMARK    1  A    between atoms: C2_2  and  N1_3 
REMARK    2  A    between atoms: C3_6  and  C4_7 
REMARK    3  A    between atoms: C6_11  and  N4_12 
REMARK    4  A    between atoms: N6_25  and  C15_26 
REMARK    5  A    between atoms: C15_26  and  C16_27 
ROOT
HETATM    1  N1  UNL     1      -3.067   2.995  12.815  1.00  0.00    -0.268 N 
HETATM    2  N2  UNL     1      -2.081   3.614  12.183  1.00  0.00    -0.295 N 
ATOM      3  H2  UNL     1      -1.673   4.507  12.461  1.00  0.00     0.187 HD
HETATM    4  C3  UNL     1      -1.703   2.885  11.120  1.00  0.00     0.069 A 
HETATM    5  C8  UNL     1      -2.496   1.773  11.108  1.00  0.00    -0.005 A 
HETATM    6  C9  UNL     1      -3.362   1.849  12.187  1.00  0.00     0.039 A 
HETATM    7  C10 UNL     1      -4.218   0.660  12.183  1.00  0.00     0.060 C 
HETATM    8  C11 UNL     1      -3.382  -0.352  11.428  1.00  0.00     0.011 C 
HETATM    9  C12 UNL     1      -2.761   0.515  10.350  1.00  0.00     0.043 C 
ENDROOT
BRANCH   4  10
HETATM   10  C4  UNL     1      -0.644   3.216  10.158  1.00  0.00     0.025 A 
HETATM   11  C5  UNL     1       0.605   3.567  10.628  1.00  0.00     0.121 A 
HETATM   12  N3  UNL     1       1.548   3.862   9.732  1.00  0.00    -0.201 N 
HETATM   13  C6  UNL     1       1.343   3.835   8.391  1.00  0.00     0.675 A 
ATOM     14  H3  UNL     1       2.473   4.122  10.073  1.00  0.00     0.183 HD
HETATM   15  N5  UNL     1       0.132   3.496   7.914  1.00  0.00    -0.201 N 
HETATM   16  C7  UNL     1      -0.843   3.192   8.801  1.00  0.00     0.121 A 
ATOM     17  H5  UNL     1      -0.047   3.470   6.911  1.00  0.00     0.183 HD
BRANCH  13  18
HETATM   18  N4  UNL     1       2.336   4.142   7.630  1.00  0.00    -0.234 N 
ATOM     19  H42 UNL     1       3.304   4.145   7.953  1.00  0.00     0.174 HD
ATOM     20  H41 UNL     1       2.130   4.391   6.662  1.00  0.00     0.174 HD
ENDBRANCH  13  18
ENDBRANCH   4  10
BRANCH   1  21
HETATM   21  C2  UNL     1      -3.682   3.555  14.011  1.00  0.00     0.135 C 
HETATM   22  C1  UNL     1      -2.767   4.507  14.720  1.00  0.00     0.061 C 
HETATM   23  C13 UNL     1      -4.933   4.303  13.568  1.00  0.00     0.068 C 
HETATM   24  C14 UNL     1      -6.017   3.344  13.943  1.00  0.00     0.113 C 
HETATM   25  N6  UNL     1      -5.483   2.566  15.017  1.00  0.00    -0.232 NA
HETATM   26  N7  UNL     1      -4.112   2.546  14.926  1.00  0.00    -0.131 NA
BRANCH  25  27
HETATM   27  C15 UNL     1      -5.970   3.117  16.266  1.00  0.00     0.114 C 
BRANCH  27  28
HETATM   28  C16 UNL     1      -6.737   2.131  17.079  1.00  0.00     0.000 A 
HETATM   29  C17 UNL     1      -6.312   1.898  18.533  1.00  0.00     0.006 A 
HETATM   30  C18 UNL     1      -5.984   0.891  17.493  1.00  0.00     0.006 A 
ENDBRANCH  27  28
ENDBRANCH  25  27
ENDBRANCH   1  21
TORSDOF 5
ENDMDL
MODEL 4
REMARK VINA RESULT: -7.482538392      2.352      8.026
REMARK  5 active torsions:
REMARK  status: ('A' for Active; 'I' for Inactive)
REMARK    1  A    between atoms: C2_2  and  N1_3 
REMARK    2  A    between atoms: C3_6  and  C4_7 
REMARK    3  A    between atoms: C6_11  and  N4_12 
REMARK    4  A    between atoms: N6_25  and  C15_26 
REMARK    5  A    between atoms: C15_26  and  C16_27 
ROOT
HETATM    1  N1  UNL     1      -3.927   3.448  11.720  1.00  0.00    -0.268 N 
HETATM    2  N2  UNL     1      -4.411   3.742  12.918  1.00  0.00    -0.295 N 
ATOM      3  H2  UNL     1      -4.575   4.685  13.271  1.00  0.00     0.187 HD
HETATM    4  C3  UNL     1      -4.650   2.607  13.596  1.00  0.00     0.069 A 
HETATM    5  C8  UNL     1      -4.295   1.577  12.770  1.00  0.00    -0.005 A 
HETATM    6  C9  UNL     1      -3.836   2.118  11.580  1.00  0.00     0.039 A 
HETATM    7  C10 UNL     1      -3.453   1.022  10.687  1.00  0.00     0.060 C 
HETATM    8  C11 UNL     1      -4.289  -0.134  11.197  1.00  0.00     0.011 C 
HETATM    9  C12 UNL     1      -4.226   0.089  12.696  1.00  0.00     0.043 C 
ENDROOT
BRANCH   4  10
HETATM   10  C4  UNL     1      -5.188   2.492  14.957  1.00  0.00     0.025 A 
HETATM   11  C5  UNL     1      -4.562   1.656  15.859  1.00  0.00     0.121 A 
HETATM   12  N3  UNL     1      -5.072   1.571  17.088  1.00  0.00    -0.201 N 
HETATM   13  C6  UNL     1      -6.168   2.261  17.494  1.00  0.00     0.675 A 
ATOM     14  H3  UNL     1      -4.614   0.955  17.758  1.00  0.00     0.183 HD
HETATM   15  N5  UNL     1      -6.791   3.080  16.630  1.00  0.00    -0.201 N 
HETATM   16  C7  UNL     1      -6.295   3.186  15.376  1.00  0.00     0.121 A 
ATOM     17  H5  UNL     1      -7.617   3.609  16.911  1.00  0.00     0.183 HD
BRANCH  13  18
HETATM   18  N4  UNL     1      -6.562   2.092  18.710  1.00  0.00    -0.234 N 
ATOM     19  H42 UNL     1      -5.996   2.350  19.519  1.00  0.00     0.174 HD
ATOM     20  H41 UNL     1      -7.484   1.680  18.854  1.00  0.00     0.174 HD
ENDBRANCH  13  18
ENDBRANCH   4  10
BRANCH   1  21
HETATM   21  C2  UNL     1      -3.573   4.485  10.760  1.00  0.00     0.135 C 
HETATM   22  C1  UNL     1      -4.431   5.705  10.909  1.00  0.00     0.061 C 
HETATM   23  C13 UNL     1      -2.120   4.863  11.020  1.00  0.00     0.068 C 
HETATM   24  C14 UNL     1      -1.412   4.152   9.911  1.00  0.00     0.113 C 
HETATM   25  N6  UNL     1      -2.378   4.018   8.866  1.00  0.00    -0.232 NA
HETATM   26  N7  UNL     1      -3.640   4.024   9.410  1.00  0.00    -0.131 NA
BRANCH  25  27
HETATM   27  C15 UNL     1      -2.160   5.079   7.903  1.00  0.00     0.114 C 
BRANCH  27  28
HETATM   28  C16 UNL     1      -3.409   5.498   7.204  1.00  0.00     0.000 A 
HETATM   29  C17 UNL     1      -3.300   6.521   6.069  1.00  0.00     0.006 A 
HETATM   30  C18 UNL     1      -3.820   6.936   7.396  1.00  0.00     0.006 A 
ENDBRANCH  27  28
ENDBRANCH  25  27
ENDBRANCH   1  21
TORSDOF 5
ENDMDL
MODEL 5
REMARK VINA RESULT: -7.431703824      4.315      5.304
REMARK  5 active torsions:
REMARK  status: ('A' for Active; 'I' for Inactive)
REMARK    1  A    between atoms: C2_2  and  N1_3 
REMARK    2  A    between atoms: C3_6  and  C4_7 
REMARK    3  A    between atoms: C6_11  and  N4_12 
REMARK    4  A    between atoms: N6_25  and  C15_26 
REMARK    5  A    between atoms: C15_26  and  C16_27 
ROOT
HETATM    1  N1  UNL     1      -4.399   6.081  12.714  1.00  0.00    -0.268 N 
HETATM    2  N2  UNL     1      -5.464   6.267  11.948  1.00  0.00    -0.295 N 
ATOM      3  H2  UNL     1      -6.293   5.673  11.938  1.00  0.00     0.187 HD
HETATM    4  C3  UNL     1      -5.284   7.360  11.187  1.00  0.00     0.069 A 
HETATM    5  C8  UNL     1      -4.053   7.859  11.507  1.00  0.00    -0.005 A 
HETATM    6  C9  UNL     1      -3.495   7.041  12.477  1.00  0.00     0.039 A 
HETATM    7  C10 UNL     1      -2.174   7.568  12.827  1.00  0.00     0.060 C 
HETATM    8  C11 UNL     1      -2.290   9.034  12.463  1.00  0.00     0.011 C 
HETATM    9  C12 UNL     1      -3.102   8.962  11.184  1.00  0.00     0.043 C 
ENDROOT
BRANCH   4  10
HETATM   10  C4  UNL     1      -6.225   7.913  10.205  1.00  0.00     0.025 A 
HETATM   11  C5  UNL     1      -7.087   7.061   9.546  1.00  0.00     0.121 A 
HETATM   12  N3  UNL     1      -7.930   7.590   8.659  1.00  0.00    -0.201 N 
HETATM   13  C6  UNL     1      -7.984   8.915   8.374  1.00  0.00     0.675 A 
ATOM     14  H3  UNL     1      -8.569   6.964   8.169  1.00  0.00     0.183 HD
HETATM   15  N5  UNL     1      -7.151   9.761   9.005  1.00  0.00    -0.201 N 
HETATM   16  C7  UNL     1      -6.285   9.251   9.910  1.00  0.00     0.121 A 
ATOM     17  H5  UNL     1      -7.172  10.761   8.807  1.00  0.00     0.183 HD
BRANCH  13  18
HETATM   18  N4  UNL     1      -8.845   9.301   7.495  1.00  0.00    -0.234 N 
ATOM     19  H42 UNL     1      -9.161   8.707   6.728  1.00  0.00     0.174 HD
ATOM     20  H41 UNL     1      -9.218  10.247   7.584  1.00  0.00     0.174 HD
ENDBRANCH  13  18
ENDBRANCH   4  10
BRANCH   1  21
HETATM   21  C2  UNL     1      -4.311   4.966  13.647  1.00  0.00     0.135 C 
HETATM   22  C1  UNL     1      -2.949   4.341  13.649  1.00  0.00     0.061 C 
HETATM   23  C13 UNL     1      -4.608   5.516  15.037  1.00  0.00     0.068 C 
HETATM   24  C14 UNL     1      -6.018   5.068  15.252  1.00  0.00     0.113 C 
HETATM   25  N6  UNL     1      -6.177   3.905  14.437  1.00  0.00    -0.232 NA
HETATM   26  N7  UNL     1      -5.291   3.960  13.388  1.00  0.00    -0.131 NA
BRANCH  25  27
HETATM   27  C15 UNL     1      -6.008   2.733  15.273  1.00  0.00     0.114 C 
BRANCH  27  28
HETATM   28  C16 UNL     1      -6.868   2.755  16.490  1.00  0.00     0.000 A 
HETATM   29  C17 UNL     1      -6.323   2.133  17.780  1.00  0.00     0.006 A 
HETATM   30  C18 UNL     1      -7.347   1.412  16.982  1.00  0.00     0.006 A 
ENDBRANCH  27  28
ENDBRANCH  25  27
ENDBRANCH   1  21
TORSDOF 5
ENDMDL
