MODEL 1
REMARK VINA RESULT: -7.418453191      0.000      0.000
REMARK  6 active torsions:
REMARK  status: ('A' for Active; 'I' for Inactive)
REMARK    1  A    between atoms: C2_2  and  C3_3 
REMARK    2  A    between atoms: C3_3  and  C6_6 
REMARK    3  A    between atoms: C6_6  and  N1_7 
REMARK    4  A    between atoms: N1_7  and  C7_8 
REMARK    5  A    between atoms: C11_16  and  N4_17 
REMARK    6  A    between atoms: C12_22  and  N6_23 
ROOT
HETATM    1  C7  UNL     1      -1.838   4.236  12.165  1.00  0.00     0.209 A 
HETATM    2  N2  UNL     1      -1.264   4.088  10.917  1.00  0.00    -0.319 N 
ATOM      3  H2  UNL     1      -0.621   4.814  10.602  1.00  0.00     0.169 HD
HETATM    4  C8  UNL     1      -1.489   3.069  10.100  1.00  0.00     0.080 A 
HETATM    5  C9  UNL     1      -0.832   2.965   8.752  1.00  0.00     0.089 C 
HETATM    6  N3  UNL     1      -2.329   2.099  10.489  1.00  0.00    -0.341 N 
ATOM      7  H3  UNL     1      -2.512   1.307   9.873  1.00  0.00     0.167 HD
HETATM    8  C10 UNL     1      -2.928   2.170  11.687  1.00  0.00     0.110 A 
HETATM    9  C11 UNL     1      -3.805   1.164  12.101  1.00  0.00     0.144 A 
HETATM   10  N5  UNL     1      -4.375   1.282  13.307  1.00  0.00    -0.175 N 
ATOM     11  H5  UNL     1      -5.015   0.548  13.609  1.00  0.00     0.186 HD
HETATM   12  C12 UNL     1      -4.151   2.322  14.151  1.00  0.00     0.682 A 
HETATM   13  N7  UNL     1      -3.321   3.287  13.774  1.00  0.00    -0.184 N 
ATOM     14  H7  UNL     1      -3.136   4.079  14.389  1.00  0.00     0.184 HD
HETATM   15  C18 UNL     1      -2.722   3.203  12.560  1.00  0.00     0.138 A 
ENDROOT
BRANCH   1  16
HETATM   16  N1  UNL     1      -1.642   5.143  12.900  1.00  0.00    -0.400 NA
BRANCH  16  17
HETATM   17  C6  UNL     1      -1.420   6.163  13.726  1.00  0.00     0.170 C 
BRANCH  17  18
HETATM   18  C3  UNL     1      -2.574   7.165  13.864  1.00  0.00     0.014 C 
HETATM   19  C4  UNL     1      -3.321   7.300  12.559  1.00  0.00     0.026 C 
HETATM   20  C5  UNL     1      -3.539   6.577  14.873  1.00  0.00     0.026 C 
BRANCH  18  21
HETATM   21  C2  UNL     1      -2.001   8.448  14.323  1.00  0.00    -0.022 C 
HETATM   22  C1  UNL     1      -1.642   8.555  15.597  1.00  0.00     0.008 C 
ENDBRANCH  18  21
ENDBRANCH  17  18
ENDBRANCH  16  17
ENDBRANCH   1  16
BRANCH   9  23
HETATM   23  N4  UNL     1      -4.006   0.194  11.300  1.00  0.00    -0.383 N 
ATOM     24  H42 UNL     1      -3.317  -0.159  10.635  1.00  0.00     0.157 HD
ATOM     25  H41 UNL     1      -4.921  -0.258  11.329  1.00  0.00     0.157 HD
ENDBRANCH   9  23
BRANCH  12  26
HETATM   26  N6  UNL     1      -4.789   2.387  15.418  1.00  0.00    -0.218 N 
HETATM   27  C13 UNL     1      -5.686   3.498  15.685  1.00  0.00     0.141 C 
HETATM   28  C14 UNL     1      -7.050   2.856  15.976  1.00  0.00     0.020 C 
HETATM   29  C15 UNL     1      -6.888   1.990  17.188  1.00  0.00     0.003 C 
HETATM   30  C16 UNL     1      -5.966   0.830  16.887  1.00  0.00     0.020 C 
HETATM   31  C17 UNL     1      -4.631   1.433  16.483  1.00  0.00     0.141 C 
ENDBRANCH  12  26
TORSDOF 6
ENDMDL
MODEL 2
REMARK VINA RESULT: -7.341873612      1.006      1.533
REMARK  6 active torsions:
REMARK  status: ('A' for Active; 'I' for Inactive)
REMARK    1  A    between atoms: C2_2  and  C3_3 
REMARK    2  A    between atoms: C3_3  and  C6_6 
REMARK    3  A    between atoms: C6_6  and  N1_7 
REMARK    4  A    between atoms: N1_7  and  C7_8 
REMARK    5  A    between atoms: C11_16  and  N4_17 
REMARK    6  A    between atoms: C12_22  and  N6_23 
ROOT
HETATM    1  C7  UNL     1      -1.380   4.232  11.717  1.00  0.00     0.209 A 
HETATM    2  N2  UNL     1      -0.563   4.291  10.605  1.00  0.00    -0.319 N 
ATOM      3  H2  UNL     1       0.061   5.093  10.518  1.00  0.00     0.169 HD
HETATM    4  C8  UNL     1      -0.532   3.381   9.643  1.00  0.00     0.080 A 
HETATM    5  C9  UNL     1       0.382   3.501   8.456  1.00  0.00     0.089 C 
HETATM    6  N3  UNL     1      -1.342   2.315   9.732  1.00  0.00    -0.341 N 
ATOM      7  H3  UNL     1      -1.330   1.604   9.001  1.00  0.00     0.167 HD
HETATM    8  C10 UNL     1      -2.167   2.185  10.782  1.00  0.00     0.110 A 
HETATM    9  C11 UNL     1      -3.015   1.079  10.884  1.00  0.00     0.144 A 
HETATM   10  N5  UNL     1      -3.817   0.996  11.952  1.00  0.00    -0.175 N 
ATOM     11  H5  UNL     1      -4.436   0.189  12.027  1.00  0.00     0.186 HD
HETATM   12  C12 UNL     1      -3.856   1.925  12.943  1.00  0.00     0.682 A 
HETATM   13  N7  UNL     1      -3.057   2.982  12.863  1.00  0.00    -0.184 N 
ATOM     14  H7  UNL     1      -3.067   3.694  13.593  1.00  0.00     0.184 HD
HETATM   15  C18 UNL     1      -2.229   3.101  11.796  1.00  0.00     0.138 A 
ENDROOT
BRANCH   1  16
HETATM   16  N1  UNL     1      -1.413   5.042  12.580  1.00  0.00    -0.400 NA
BRANCH  16  17
HETATM   17  C6  UNL     1      -1.449   5.952  13.551  1.00  0.00     0.170 C 
BRANCH  17  18
HETATM   18  C3  UNL     1      -2.725   6.802  13.615  1.00  0.00     0.014 C 
HETATM   19  C4  UNL     1      -3.443   6.784  12.287  1.00  0.00     0.026 C 
HETATM   20  C5  UNL     1      -3.636   6.136  14.625  1.00  0.00     0.026 C 
BRANCH  18  21
HETATM   21  C2  UNL     1      -2.335   8.166  14.029  1.00  0.00    -0.022 C 
HETATM   22  C1  UNL     1      -1.932   8.351  15.281  1.00  0.00     0.008 C 
ENDBRANCH  18  21
ENDBRANCH  17  18
ENDBRANCH  16  17
ENDBRANCH   1  16
BRANCH   9  23
HETATM   23  N4  UNL     1      -2.969   0.215   9.948  1.00  0.00    -0.383 N 
ATOM     24  H42 UNL     1      -2.934  -0.794  10.093  1.00  0.00     0.157 HD
ATOM     25  H41 UNL     1      -2.966   0.562   8.988  1.00  0.00     0.157 HD
ENDBRANCH   9  23
BRANCH  12  26
HETATM   26  N6  UNL     1      -4.732   1.776  14.051  1.00  0.00    -0.218 N 
HETATM   27  C13 UNL     1      -4.518   0.662  14.958  1.00  0.00     0.141 C 
HETATM   28  C14 UNL     1      -4.259   1.302  16.329  1.00  0.00     0.020 C 
HETATM   29  C15 UNL     1      -5.489   2.072  16.703  1.00  0.00     0.003 C 
HETATM   30  C16 UNL     1      -5.687   3.238  15.759  1.00  0.00     0.020 C 
HETATM   31  C17 UNL     1      -5.834   2.645  14.367  1.00  0.00     0.141 C 
ENDBRANCH  12  26
TORSDOF 6
ENDMDL
MODEL 3
REMARK VINA RESULT: -7.299608316      0.421      1.041
REMARK  6 active torsions:
REMARK  status: ('A' for Active; 'I' for Inactive)
REMARK    1  A    between atoms: C2_2  and  C3_3 
REMARK    2  A    between atoms: C3_3  and  C6_6 
REMARK    3  A    between atoms: C6_6  and  N1_7 
REMARK    4  A    between atoms: N1_7  and  C7_8 
REMARK    5  A    between atoms: C11_16  and  N4_17 
REMARK    6  A    between atoms: C12_22  and  N6_23 
ROOT
HETATM    1  C7  UNL     1      -1.927   4.161  12.311  1.00  0.00     0.209 A 
HETATM    2  N2  UNL     1      -1.365   4.044  11.055  1.00  0.00    -0.319 N 
ATOM      3  H2  UNL     1      -0.718   4.773  10.756  1.00  0.00     0.169 HD
HETATM    4  C8  UNL     1      -1.606   3.052  10.211  1.00  0.00     0.080 A 
HETATM    5  C9  UNL     1      -0.961   2.980   8.855  1.00  0.00     0.089 C 
HETATM    6  N3  UNL     1      -2.453   2.079  10.578  1.00  0.00    -0.341 N 
ATOM      7  H3  UNL     1      -2.649   1.307   9.941  1.00  0.00     0.167 HD
HETATM    8  C10 UNL     1      -3.042   2.120  11.783  1.00  0.00     0.110 A 
HETATM    9  C11 UNL     1      -3.925   1.112  12.176  1.00  0.00     0.144 A 
HETATM   10  N5  UNL     1      -4.484   1.201  13.388  1.00  0.00    -0.175 N 
ATOM     11  H5  UNL     1      -5.130   0.464  13.675  1.00  0.00     0.186 HD
HETATM   12  C12 UNL     1      -4.244   2.214  14.260  1.00  0.00     0.682 A 
HETATM   13  N7  UNL     1      -3.407   3.181  13.905  1.00  0.00    -0.184 N 
ATOM     14  H7  UNL     1      -3.209   3.953  14.541  1.00  0.00     0.184 HD
HETATM   15  C18 UNL     1      -2.819   3.126  12.683  1.00  0.00     0.138 A 
ENDROOT
BRANCH   1  16
HETATM   16  N1  UNL     1      -1.717   5.045  13.070  1.00  0.00    -0.400 NA
BRANCH  16  17
HETATM   17  C6  UNL     1      -1.479   6.039  13.923  1.00  0.00     0.170 C 
BRANCH  17  18
HETATM   18  C3  UNL     1      -2.632   7.031  14.122  1.00  0.00     0.014 C 
HETATM   19  C4  UNL     1      -3.783   6.372  14.842  1.00  0.00     0.026 C 
HETATM   20  C5  UNL     1      -2.108   8.128  15.025  1.00  0.00     0.026 C 
BRANCH  18  21
HETATM   21  C2  UNL     1      -3.017   7.543  12.790  1.00  0.00    -0.022 C 
HETATM   22  C1  UNL     1      -2.402   8.626  12.331  1.00  0.00     0.008 C 
ENDBRANCH  18  21
ENDBRANCH  17  18
ENDBRANCH  16  17
ENDBRANCH   1  16
BRANCH   9  23
HETATM   23  N4  UNL     1      -4.142   0.167  11.348  1.00  0.00    -0.383 N 
ATOM     24  H42 UNL     1      -3.432  -0.249  10.745  1.00  0.00     0.157 HD
ATOM     25  H41 UNL     1      -5.094  -0.195  11.287  1.00  0.00     0.157 HD
ENDBRANCH   9  23
BRANCH  12  26
HETATM   26  N6  UNL     1      -4.871   2.248  15.534  1.00  0.00    -0.218 N 
HETATM   27  C13 UNL     1      -5.809   3.321  15.815  1.00  0.00     0.141 C 
HETATM   28  C14 UNL     1      -7.143   2.623  16.116  1.00  0.00     0.020 C 
HETATM   29  C15 UNL     1      -6.934   1.760  17.323  1.00  0.00     0.003 C 
HETATM   30  C16 UNL     1      -5.968   0.639  17.009  1.00  0.00     0.020 C 
HETATM   31  C17 UNL     1      -4.663   1.298  16.594  1.00  0.00     0.141 C 
ENDBRANCH  12  26
TORSDOF 6
ENDMDL
MODEL 4
REMARK VINA RESULT: -7.168624892      1.593      5.700
REMARK  6 active torsions:
REMARK  status: ('A' for Active; 'I' for Inactive)
REMARK    1  A    between atoms: C2_2  and  C3_3 
REMARK    2  A    between atoms: C3_3  and  C6_6 
REMARK    3  A    between atoms: C6_6  and  N1_7 
REMARK    4  A    between atoms: N1_7  and  C7_8 
REMARK    5  A    between atoms: C11_16  and  N4_17 
REMARK    6  A    between atoms: C12_22  and  N6_23 
ROOT
HETATM    1  C7  UNL     1      -4.396   4.700  14.541  1.00  0.00     0.209 A 
HETATM    2  N2  UNL     1      -4.030   5.928  15.058  1.00  0.00    -0.319 N 
ATOM      3  H2  UNL     1      -4.606   6.319  15.803  1.00  0.00     0.169 HD
HETATM    4  C8  UNL     1      -2.984   6.633  14.656  1.00  0.00     0.080 A 
HETATM    5  C9  UNL     1      -2.636   7.966  15.260  1.00  0.00     0.089 C 
HETATM    6  N3  UNL     1      -2.208   6.143  13.678  1.00  0.00    -0.341 N 
ATOM      7  H3  UNL     1      -1.397   6.672  13.357  1.00  0.00     0.167 HD
HETATM    8  C10 UNL     1      -2.497   4.956  13.123  1.00  0.00     0.110 A 
HETATM    9  C11 UNL     1      -1.695   4.436  12.104  1.00  0.00     0.144 A 
HETATM   10  N5  UNL     1      -2.027   3.248  11.585  1.00  0.00    -0.175 N 
ATOM     11  H5  UNL     1      -1.441   2.868  10.841  1.00  0.00     0.186 HD
HETATM   12  C12 UNL     1      -3.098   2.518  11.991  1.00  0.00     0.682 A 
HETATM   13  N7  UNL     1      -3.871   2.996  12.958  1.00  0.00    -0.184 N 
ATOM     14  H7  UNL     1      -4.681   2.467  13.281  1.00  0.00     0.184 HD
HETATM   15  C18 UNL     1      -3.567   4.197  13.510  1.00  0.00     0.138 A 
ENDROOT
BRANCH   1  16
HETATM   16  N1  UNL     1      -5.330   4.065  14.896  1.00  0.00    -0.400 NA
BRANCH  16  17
HETATM   17  C6  UNL     1      -6.380   3.350  15.293  1.00  0.00     0.170 C 
BRANCH  17  18
HETATM   18  C3  UNL     1      -6.157   2.480  16.537  1.00  0.00     0.014 C 
HETATM   19  C4  UNL     1      -6.356   3.290  17.795  1.00  0.00     0.026 C 
HETATM   20  C5  UNL     1      -7.232   1.413  16.517  1.00  0.00     0.026 C 
BRANCH  18  21
HETATM   21  C2  UNL     1      -4.799   1.905  16.444  1.00  0.00    -0.022 C 
HETATM   22  C1  UNL     1      -4.637   0.786  15.747  1.00  0.00     0.008 C 
ENDBRANCH  18  21
ENDBRANCH  17  18
ENDBRANCH  16  17
ENDBRANCH   1  16
BRANCH   9  23
HETATM   23  N4  UNL     1      -0.693   5.132  11.732  1.00  0.00    -0.383 N 
ATOM     24  H42 UNL     1       0.230   4.750  11.524  1.00  0.00     0.157 HD
ATOM     25  H41 UNL     1      -0.829   6.138  11.638  1.00  0.00     0.157 HD
ENDBRANCH   9  23
BRANCH  12  26
HETATM   26  N6  UNL     1      -3.394   1.262  11.397  1.00  0.00    -0.218 N 
HETATM   27  C13 UNL     1      -2.426   0.684  10.481  1.00  0.00     0.141 C 
HETATM   28  C14 UNL     1      -2.029  -0.660  11.108  1.00  0.00     0.020 C 
HETATM   29  C15 UNL     1      -3.266  -1.501  11.185  1.00  0.00     0.003 C 
HETATM   30  C16 UNL     1      -4.256  -0.894  12.155  1.00  0.00     0.020 C 
HETATM   31  C17 UNL     1      -4.587   0.491  11.624  1.00  0.00     0.141 C 
ENDBRANCH  12  26
TORSDOF 6
ENDMDL
MODEL 5
REMARK VINA RESULT: -7.108511975      1.727      4.837
REMARK  6 active torsions:
REMARK  status: ('A' for Active; 'I' for Inactive)
REMARK    1  A    between atoms: C2_2  and  C3_3 
REMARK    2  A    between atoms: C3_3  and  C6_6 
REMARK    3  A    between atoms: C6_6  and  N1_7 
REMARK    4  A    between atoms: N1_7  and  C7_8 
REMARK    5  A    between atoms: C11_16  and  N4_17 
REMARK    6  A    between atoms: C12_22  and  N6_23 
ROOT
HETATM    1  C7  UNL     1      -1.370   3.842  12.145  1.00  0.00     0.209 A 
HETATM    2  N2  UNL     1      -0.364   4.675  11.696  1.00  0.00    -0.319 N 
ATOM      3  H2  UNL     1       0.284   4.303  11.002  1.00  0.00     0.169 HD
HETATM    4  C8  UNL     1      -0.181   5.923  12.102  1.00  0.00     0.080 A 
HETATM    5  C9  UNL     1       0.935   6.781  11.573  1.00  0.00     0.089 C 
HETATM    6  N3  UNL     1      -1.019   6.438  13.013  1.00  0.00    -0.341 N 
ATOM      7  H3  UNL     1      -0.893   7.397  13.335  1.00  0.00     0.167 HD
HETATM    8  C10 UNL     1      -2.023   5.693  13.500  1.00  0.00     0.110 A 
HETATM    9  C11 UNL     1      -2.901   6.220  14.450  1.00  0.00     0.144 A 
HETATM   10  N5  UNL     1      -3.886   5.434  14.902  1.00  0.00    -0.175 N 
ATOM     11  H5  UNL     1      -4.528   5.820  15.596  1.00  0.00     0.186 HD
HETATM   12  C12 UNL     1      -4.081   4.154  14.492  1.00  0.00     0.682 A 
HETATM   13  N7  UNL     1      -3.257   3.636  13.591  1.00  0.00    -0.184 N 
ATOM     14  H7  UNL     1      -3.381   2.678  13.266  1.00  0.00     0.184 HD
HETATM   15  C18 UNL     1      -2.246   4.402  13.107  1.00  0.00     0.138 A 
ENDROOT
BRANCH   1  16
HETATM   16  N1  UNL     1      -1.540   2.727  11.787  1.00  0.00    -0.400 NA
BRANCH  16  17
HETATM   17  C6  UNL     1      -1.730   1.472  11.384  1.00  0.00     0.170 C 
BRANCH  17  18
HETATM   18  C3  UNL     1      -3.185   1.084  11.090  1.00  0.00     0.014 C 
HETATM   19  C4  UNL     1      -3.938   2.252  10.501  1.00  0.00     0.026 C 
HETATM   20  C5  UNL     1      -3.139   0.001  10.033  1.00  0.00     0.026 C 
BRANCH  18  21
HETATM   21  C2  UNL     1      -3.784   0.604  12.354  1.00  0.00    -0.022 C 
HETATM   22  C1  UNL     1      -4.222  -0.648  12.405  1.00  0.00     0.008 C 
ENDBRANCH  18  21
ENDBRANCH  17  18
ENDBRANCH  16  17
ENDBRANCH   1  16
BRANCH   9  23
HETATM   23  N4  UNL     1      -2.707   7.422  14.826  1.00  0.00    -0.383 N 
ATOM     24  H42 UNL     1      -1.994   8.041  14.438  1.00  0.00     0.157 HD
ATOM     25  H41 UNL     1      -3.308   7.787  15.566  1.00  0.00     0.157 HD
ENDBRANCH   9  23
BRANCH  12  26
HETATM   26  N6  UNL     1      -5.148   3.374  15.014  1.00  0.00    -0.218 N 
HETATM   27  C13 UNL     1      -4.890   1.983  15.343  1.00  0.00     0.141 C 
HETATM   28  C14 UNL     1      -5.190   1.861  16.843  1.00  0.00     0.020 C 
HETATM   29  C15 UNL     1      -6.636   2.203  17.040  1.00  0.00     0.003 C 
HETATM   30  C16 UNL     1      -6.883   3.658  16.709  1.00  0.00     0.020 C 
HETATM   31  C17 UNL     1      -6.487   3.842  15.253  1.00  0.00     0.141 C 
ENDBRANCH  12  26
TORSDOF 6
ENDMDL
