MODEL 1
REMARK VINA RESULT: -8.534642773      0.000      0.000
REMARK  12 active torsions:
REMARK  status: ('A' for Active; 'I' for Inactive)
REMARK    1  A    between atoms: C1_2  and  C2_4 
REMARK    2  A    between atoms: C3_7  and  N3_8 
REMARK    3  A    between atoms: C6_18  and  C7_19 
REMARK       I    between atoms: C7_19  and  N5_21 
REMARK    4  A    between atoms: N5_21  and  C8_23 
REMARK    5  A    between atoms: C8_23  and  C9_24 
REMARK    6  A    between atoms: C9_24  and  O7_25 
REMARK    7  A    between atoms: C9_24  and  C10_27 
REMARK    8  A    between atoms: C10_27  and  N6_28 
REMARK    9  A    between atoms: C10_27  and  C11_32 
REMARK   10  A    between atoms: C11_32  and  S2_33 
REMARK   11  A    between atoms: S2_33  and  C12_34 
REMARK   12  A    between atoms: C12_34  and  C13_35 
ROOT
HETATM    1  C7  UNL     1       3.531  -5.259   7.463  1.00  0.00     0.278 C 
HETATM    2  O6  UNL     1       3.305  -4.892   8.630  1.00  0.00    -0.265 OA
HETATM    3  N5  UNL     1       4.595  -6.238   7.352  1.00  0.00    -0.353 N 
ATOM      4  H5  UNL     1       4.850  -6.596   6.431  1.00  0.00     0.162 HD
ENDROOT
BRANCH   1   5
HETATM    5  C6  UNL     1       2.849  -4.808   6.267  1.00  0.00     0.178 A 
HETATM    6  C2  UNL     1       2.302  -5.541   5.264  1.00  0.00     0.141 A 
HETATM    7  N2  UNL     1       1.779  -4.636   4.370  1.00  0.00    -0.314 N 
HETATM    8  C3  UNL     1       2.007  -3.413   4.827  1.00  0.00     0.243 A 
ATOM      9  H2  UNL     1       1.296  -4.867   3.501  1.00  0.00     0.170 HD
HETATM   10  O5  UNL     1       2.643  -3.526   5.952  1.00  0.00    -0.270 OA
BRANCH   6  11
HETATM   11  C1  UNL     1       2.230  -6.981   5.075  1.00  0.00     0.284 C 
HETATM   12  N1  UNL     1       0.934  -7.543   4.801  1.00  0.00    -0.056 NA
HETATM   13  O1  UNL     1       3.173  -7.764   5.128  1.00  0.00    -0.269 OA
ENDBRANCH   6  11
BRANCH   8  14
HETATM   14  N3  UNL     1       1.615  -2.220   4.175  1.00  0.00    -0.214 N 
HETATM   15  C4  UNL     1       1.742  -0.867   4.659  1.00  0.00     0.250 C 
HETATM   16  C5  UNL     1       1.972   0.016   3.484  1.00  0.00     0.251 C 
HETATM   17  O2  UNL     1       2.771   1.017   3.453  1.00  0.00    -0.271 OA
HETATM   18  N4  UNL     1       1.191  -0.375   2.366  1.00  0.00    -0.235 N 
HETATM   19  S1  UNL     1       0.877  -2.073   2.625  1.00  0.00     0.331 S 
ATOM     20  H4  UNL     1       0.883   0.206   1.586  1.00  0.00     0.183 HD
HETATM   21  O3  UNL     1       1.514  -2.914   1.587  1.00  0.00    -0.182 OA
HETATM   22  O4  UNL     1      -0.610  -2.263   2.700  1.00  0.00    -0.182 OA
ENDBRANCH   8  14
ENDBRANCH   1   5
BRANCH   3  23
HETATM   23  C8  UNL     1       5.306  -6.719   8.526  1.00  0.00     0.156 C 
BRANCH  23  24
HETATM   24  C9  UNL     1       6.764  -6.724   8.215  1.00  0.00     0.167 C 
BRANCH  24  25
HETATM   25  O7  UNL     1       6.988  -6.713   6.829  1.00  0.00    -0.392 OA
ATOM     26  H7  UNL     1       6.475  -6.037   6.402  1.00  0.00     0.210 HD
ENDBRANCH  24  25
BRANCH  24  27
HETATM   27  C10 UNL     1       7.517  -7.860   8.831  1.00  0.00     0.223 C 
BRANCH  27  28
HETATM   28  N6  UNL     1       8.648  -8.160   7.952  1.00  0.00    -0.072 N 
ATOM     29  H63 UNL     1       8.365  -8.578   7.066  1.00  0.00     0.274 HD
ATOM     30  H62 UNL     1       9.087  -7.323   7.568  1.00  0.00     0.274 HD
ATOM     31  H61 UNL     1       9.296  -8.744   8.480  1.00  0.00     0.274 HD
ENDBRANCH  27  28
BRANCH  27  32
HETATM   32  C11 UNL     1       8.090  -7.517  10.186  1.00  0.00     0.109 C 
BRANCH  32  33
HETATM   33  S2  UNL     1       8.903  -8.904  10.976  1.00  0.00    -0.156 SA
BRANCH  33  34
HETATM   34  C12 UNL     1      10.640  -8.609  11.332  1.00  0.00     0.186 C 
BRANCH  34  35
HETATM   35  C13 UNL     1      11.482  -8.661  10.108  1.00  0.00     0.182 C 
HETATM   36  O8  UNL     1      12.527  -8.009   9.946  1.00  0.00    -0.647 OA
HETATM   37  O9  UNL     1      11.050  -9.510   9.084  1.00  0.00    -0.647 OA
ENDBRANCH  34  35
ENDBRANCH  33  34
ENDBRANCH  32  33
ENDBRANCH  27  32
ENDBRANCH  24  27
ENDBRANCH  23  24
ENDBRANCH   3  23
TORSDOF 12
ENDMDL
MODEL 2
REMARK VINA RESULT: -8.507913149      2.859      5.243
REMARK  12 active torsions:
REMARK  status: ('A' for Active; 'I' for Inactive)
REMARK    1  A    between atoms: C1_2  and  C2_4 
REMARK    2  A    between atoms: C3_7  and  N3_8 
REMARK    3  A    between atoms: C6_18  and  C7_19 
REMARK       I    between atoms: C7_19  and  N5_21 
REMARK    4  A    between atoms: N5_21  and  C8_23 
REMARK    5  A    between atoms: C8_23  and  C9_24 
REMARK    6  A    between atoms: C9_24  and  O7_25 
REMARK    7  A    between atoms: C9_24  and  C10_27 
REMARK    8  A    between atoms: C10_27  and  N6_28 
REMARK    9  A    between atoms: C10_27  and  C11_32 
REMARK   10  A    between atoms: C11_32  and  S2_33 
REMARK   11  A    between atoms: S2_33  and  C12_34 
REMARK   12  A    between atoms: C12_34  and  C13_35 
ROOT
HETATM    1  C7  UNL     1       4.203  -6.219   7.474  1.00  0.00     0.278 C 
HETATM    2  O6  UNL     1       3.747  -5.391   8.282  1.00  0.00    -0.265 OA
HETATM    3  N5  UNL     1       5.464  -6.805   7.885  1.00  0.00    -0.353 N 
ATOM      4  H5  UNL     1       5.914  -7.496   7.283  1.00  0.00     0.162 HD
ENDROOT
BRANCH   1   5
HETATM    5  C6  UNL     1       3.604  -6.623   6.218  1.00  0.00     0.178 A 
HETATM    6  C2  UNL     1       3.295  -5.867   5.134  1.00  0.00     0.141 A 
HETATM    7  N2  UNL     1       2.749  -6.728   4.210  1.00  0.00    -0.314 N 
HETATM    8  C3  UNL     1       2.735  -7.948   4.729  1.00  0.00     0.243 A 
ATOM      9  H2  UNL     1       2.411  -6.471   3.283  1.00  0.00     0.170 HD
HETATM   10  O5  UNL     1       3.244  -7.874   5.920  1.00  0.00    -0.270 OA
BRANCH   6  11
HETATM   11  C1  UNL     1       3.462  -4.443   4.894  1.00  0.00     0.284 C 
HETATM   12  N1  UNL     1       2.581  -3.551   5.600  1.00  0.00    -0.056 NA
HETATM   13  O1  UNL     1       4.285  -3.929   4.144  1.00  0.00    -0.269 OA
ENDBRANCH   6  11
BRANCH   8  14
HETATM   14  N3  UNL     1       2.244  -9.100   4.072  1.00  0.00    -0.214 N 
HETATM   15  C4  UNL     1       2.242 -10.459   4.557  1.00  0.00     0.250 C 
HETATM   16  C5  UNL     1       1.032 -11.134   4.013  1.00  0.00     0.251 C 
HETATM   17  O2  UNL     1       0.296 -11.965   4.651  1.00  0.00    -0.271 OA
HETATM   18  N4  UNL     1       0.770 -10.751   2.672  1.00  0.00    -0.235 N 
HETATM   19  S1  UNL     1       1.518  -9.182   2.512  1.00  0.00     0.331 S 
ATOM     20  H4  UNL     1       0.258 -11.275   1.963  1.00  0.00     0.183 HD
HETATM   21  O3  UNL     1       0.518  -8.118   2.272  1.00  0.00    -0.182 OA
HETATM   22  O4  UNL     1       2.551  -9.270   1.425  1.00  0.00    -0.182 OA
ENDBRANCH   8  14
ENDBRANCH   1   5
BRANCH   3  23
HETATM   23  C8  UNL     1       6.101  -6.430   9.137  1.00  0.00     0.156 C 
BRANCH  23  24
HETATM   24  C9  UNL     1       7.405  -7.146   9.227  1.00  0.00     0.167 C 
BRANCH  24  25
HETATM   25  O7  UNL     1       7.657  -7.892   8.064  1.00  0.00    -0.392 OA
ATOM     26  H7  UNL     1       8.230  -7.421   7.470  1.00  0.00     0.210 HD
ENDBRANCH  24  25
BRANCH  24  27
HETATM   27  C10 UNL     1       7.534  -8.034  10.424  1.00  0.00     0.223 C 
BRANCH  27  28
HETATM   28  N6  UNL     1       7.690  -9.404   9.934  1.00  0.00    -0.072 N 
ATOM     29  H63 UNL     1       7.185 -10.089  10.496  1.00  0.00     0.274 HD
ATOM     30  H62 UNL     1       7.202  -9.571   9.054  1.00  0.00     0.274 HD
ATOM     31  H61 UNL     1       8.690  -9.595   9.879  1.00  0.00     0.274 HD
ENDBRANCH  27  28
BRANCH  27  32
HETATM   32  C11 UNL     1       8.755  -7.722  11.256  1.00  0.00     0.109 C 
BRANCH  32  33
HETATM   33  S2  UNL     1      10.135  -8.812  10.915  1.00  0.00    -0.156 SA
BRANCH  33  34
HETATM   34  C12 UNL     1      11.045  -8.374   9.428  1.00  0.00     0.186 C 
BRANCH  34  35
HETATM   35  C13 UNL     1      11.043  -9.470   8.424  1.00  0.00     0.182 C 
HETATM   36  O8  UNL     1      12.063 -10.049   8.014  1.00  0.00    -0.647 OA
HETATM   37  O9  UNL     1       9.798  -9.860   7.921  1.00  0.00    -0.647 OA
ENDBRANCH  34  35
ENDBRANCH  33  34
ENDBRANCH  32  33
ENDBRANCH  27  32
ENDBRANCH  24  27
ENDBRANCH  23  24
ENDBRANCH   3  23
TORSDOF 12
ENDMDL
MODEL 3
REMARK VINA RESULT: -8.435073086      3.424      5.852
REMARK  12 active torsions:
REMARK  status: ('A' for Active; 'I' for Inactive)
REMARK    1  A    between atoms: C1_2  and  C2_4 
REMARK    2  A    between atoms: C3_7  and  N3_8 
REMARK    3  A    between atoms: C6_18  and  C7_19 
REMARK       I    between atoms: C7_19  and  N5_21 
REMARK    4  A    between atoms: N5_21  and  C8_23 
REMARK    5  A    between atoms: C8_23  and  C9_24 
REMARK    6  A    between atoms: C9_24  and  O7_25 
REMARK    7  A    between atoms: C9_24  and  C10_27 
REMARK    8  A    between atoms: C10_27  and  N6_28 
REMARK    9  A    between atoms: C10_27  and  C11_32 
REMARK   10  A    between atoms: C11_32  and  S2_33 
REMARK   11  A    between atoms: S2_33  and  C12_34 
REMARK   12  A    between atoms: C12_34  and  C13_35 
ROOT
HETATM    1  C7  UNL     1       3.907  -6.801   6.161  1.00  0.00     0.278 C 
HETATM    2  O6  UNL     1       4.922  -6.278   5.668  1.00  0.00    -0.265 OA
HETATM    3  N5  UNL     1       3.875  -6.771   7.610  1.00  0.00    -0.353 N 
ATOM      4  H5  UNL     1       3.079  -7.178   8.102  1.00  0.00     0.162 HD
ENDROOT
BRANCH   1   5
HETATM    5  C6  UNL     1       2.809  -7.409   5.436  1.00  0.00     0.178 A 
HETATM    6  C2  UNL     1       1.556  -6.933   5.222  1.00  0.00     0.141 A 
HETATM    7  N2  UNL     1       0.904  -7.890   4.479  1.00  0.00    -0.314 N 
HETATM    8  C3  UNL     1       1.741  -8.895   4.262  1.00  0.00     0.243 A 
ATOM      9  H2  UNL     1      -0.060  -7.836   4.150  1.00  0.00     0.170 HD
HETATM   10  O5  UNL     1       2.867  -8.600   4.834  1.00  0.00    -0.270 OA
BRANCH   6  11
HETATM   11  C1  UNL     1       0.931  -5.689   5.643  1.00  0.00     0.284 C 
HETATM   12  N1  UNL     1       1.204  -5.238   6.981  1.00  0.00    -0.056 NA
HETATM   13  O1  UNL     1       0.189  -4.988   4.962  1.00  0.00    -0.269 OA
ENDBRANCH   6  11
BRANCH   8  14
HETATM   14  N3  UNL     1       1.426 -10.066   3.533  1.00  0.00    -0.214 N 
HETATM   15  C4  UNL     1       1.308 -11.413   4.035  1.00  0.00     0.250 C 
HETATM   16  C5  UNL     1       0.268 -12.109   3.230  1.00  0.00     0.251 C 
HETATM   17  O2  UNL     1      -0.600 -12.931   3.690  1.00  0.00    -0.271 OA
HETATM   18  N4  UNL     1       0.337 -11.759   1.857  1.00  0.00    -0.235 N 
HETATM   19  S1  UNL     1       1.099 -10.188   1.845  1.00  0.00     0.331 S 
ATOM     20  H4  UNL     1       0.014 -12.302   1.057  1.00  0.00     0.183 HD
HETATM   21  O3  UNL     1       0.185  -9.137   1.345  1.00  0.00    -0.182 OA
HETATM   22  O4  UNL     1       2.365 -10.292   1.044  1.00  0.00    -0.182 OA
ENDBRANCH   8  14
ENDBRANCH   1   5
BRANCH   3  23
HETATM   23  C8  UNL     1       4.955  -6.171   8.378  1.00  0.00     0.156 C 
BRANCH  23  24
HETATM   24  C9  UNL     1       5.619  -7.249   9.164  1.00  0.00     0.167 C 
BRANCH  24  25
HETATM   25  O7  UNL     1       5.547  -6.992  10.542  1.00  0.00    -0.392 OA
ATOM     26  H7  UNL     1       4.704  -7.249  10.897  1.00  0.00     0.210 HD
ENDBRANCH  24  25
BRANCH  24  27
HETATM   27  C10 UNL     1       7.043  -7.499   8.779  1.00  0.00     0.223 C 
BRANCH  27  28
HETATM   28  N6  UNL     1       7.319  -6.693   7.589  1.00  0.00    -0.072 N 
ATOM     29  H63 UNL     1       8.100  -7.049   7.038  1.00  0.00     0.274 HD
ATOM     30  H62 UNL     1       6.600  -6.782   6.871  1.00  0.00     0.274 HD
ATOM     31  H61 UNL     1       7.456  -5.731   7.899  1.00  0.00     0.274 HD
ENDBRANCH  27  28
BRANCH  27  32
HETATM   32  C11 UNL     1       8.023  -7.063   9.843  1.00  0.00     0.109 C 
BRANCH  32  33
HETATM   33  S2  UNL     1       9.073  -8.395  10.419  1.00  0.00    -0.156 SA
BRANCH  33  34
HETATM   34  C12 UNL     1      10.567  -8.603   9.443  1.00  0.00     0.186 C 
BRANCH  34  35
HETATM   35  C13 UNL     1      10.273  -8.991   8.039  1.00  0.00     0.182 C 
HETATM   36  O8  UNL     1      10.173 -10.164   7.641  1.00  0.00    -0.647 OA
HETATM   37  O9  UNL     1      10.099  -7.950   7.122  1.00  0.00    -0.647 OA
ENDBRANCH  34  35
ENDBRANCH  33  34
ENDBRANCH  32  33
ENDBRANCH  27  32
ENDBRANCH  24  27
ENDBRANCH  23  24
ENDBRANCH   3  23
TORSDOF 12
ENDMDL
MODEL 4
REMARK VINA RESULT: -8.415117739      1.163      1.719
REMARK  12 active torsions:
REMARK  status: ('A' for Active; 'I' for Inactive)
REMARK    1  A    between atoms: C1_2  and  C2_4 
REMARK    2  A    between atoms: C3_7  and  N3_8 
REMARK    3  A    between atoms: C6_18  and  C7_19 
REMARK       I    between atoms: C7_19  and  N5_21 
REMARK    4  A    between atoms: N5_21  and  C8_23 
REMARK    5  A    between atoms: C8_23  and  C9_24 
REMARK    6  A    between atoms: C9_24  and  O7_25 
REMARK    7  A    between atoms: C9_24  and  C10_27 
REMARK    8  A    between atoms: C10_27  and  N6_28 
REMARK    9  A    between atoms: C10_27  and  C11_32 
REMARK   10  A    between atoms: C11_32  and  S2_33 
REMARK   11  A    between atoms: S2_33  and  C12_34 
REMARK   12  A    between atoms: C12_34  and  C13_35 
ROOT
HETATM    1  C7  UNL     1       3.489  -5.258   7.324  1.00  0.00     0.278 C 
HETATM    2  O6  UNL     1       3.203  -4.889   8.476  1.00  0.00    -0.265 OA
HETATM    3  N5  UNL     1       4.643  -6.135   7.258  1.00  0.00    -0.353 N 
ATOM      4  H5  UNL     1       4.952  -6.488   6.352  1.00  0.00     0.162 HD
ENDROOT
BRANCH   1   5
HETATM    5  C6  UNL     1       2.797  -4.899   6.103  1.00  0.00     0.178 A 
HETATM    6  C2  UNL     1       2.360  -5.699   5.098  1.00  0.00     0.141 A 
HETATM    7  N2  UNL     1       1.768  -4.868   4.175  1.00  0.00    -0.314 N 
HETATM    8  C3  UNL     1       1.852  -3.621   4.618  1.00  0.00     0.243 A 
ATOM      9  H2  UNL     1       1.337  -5.161   3.298  1.00  0.00     0.170 HD
HETATM   10  O5  UNL     1       2.464  -3.651   5.762  1.00  0.00    -0.270 OA
BRANCH   6  11
HETATM   11  C1  UNL     1       2.447  -7.141   4.930  1.00  0.00     0.284 C 
HETATM   12  N1  UNL     1       1.256  -7.826   4.503  1.00  0.00    -0.056 NA
HETATM   13  O1  UNL     1       3.444  -7.831   5.120  1.00  0.00    -0.269 OA
ENDBRANCH   6  11
BRANCH   8  14
HETATM   14  N3  UNL     1       1.352  -2.486   3.937  1.00  0.00    -0.214 N 
HETATM   15  C4  UNL     1       0.488  -2.460   2.782  1.00  0.00     0.250 C 
HETATM   16  C5  UNL     1      -0.376  -1.253   2.889  1.00  0.00     0.251 C 
HETATM   17  O2  UNL     1      -1.615  -1.197   2.571  1.00  0.00    -0.271 OA
HETATM   18  N4  UNL     1       0.335  -0.135   3.395  1.00  0.00    -0.235 N 
HETATM   19  S1  UNL     1       1.648  -0.831   4.312  1.00  0.00     0.331 S 
ATOM     20  H4  UNL     1       0.126   0.853   3.254  1.00  0.00     0.183 HD
HETATM   21  O3  UNL     1       1.534  -0.524   5.755  1.00  0.00    -0.182 OA
HETATM   22  O4  UNL     1       2.938  -0.351   3.712  1.00  0.00    -0.182 OA
ENDBRANCH   8  14
ENDBRANCH   1   5
BRANCH   3  23
HETATM   23  C8  UNL     1       5.368  -6.522   8.458  1.00  0.00     0.156 C 
BRANCH  23  24
HETATM   24  C9  UNL     1       6.790  -6.763   8.083  1.00  0.00     0.167 C 
BRANCH  24  25
HETATM   25  O7  UNL     1       6.924  -6.962   6.700  1.00  0.00    -0.392 OA
ATOM     26  H7  UNL     1       6.764  -6.158   6.219  1.00  0.00     0.210 HD
ENDBRANCH  24  25
BRANCH  24  27
HETATM   27  C10 UNL     1       7.431  -7.901   8.813  1.00  0.00     0.223 C 
BRANCH  27  28
HETATM   28  N6  UNL     1       8.544  -8.374   7.988  1.00  0.00    -0.072 N 
ATOM     29  H63 UNL     1       8.395  -8.221   6.991  1.00  0.00     0.274 HD
ATOM     30  H62 UNL     1       9.384  -7.803   8.086  1.00  0.00     0.274 HD
ATOM     31  H61 UNL     1       8.698  -9.355   8.222  1.00  0.00     0.274 HD
ENDBRANCH  27  28
BRANCH  27  32
HETATM   32  C11 UNL     1       8.013  -7.489  10.144  1.00  0.00     0.109 C 
BRANCH  32  33
HETATM   33  S2  UNL     1       8.875  -8.821  10.976  1.00  0.00    -0.156 SA
BRANCH  33  34
HETATM   34  C12 UNL     1      10.613  -8.475  11.273  1.00  0.00     0.186 C 
BRANCH  34  35
HETATM   35  C13 UNL     1      11.447  -8.704  10.063  1.00  0.00     0.182 C 
HETATM   36  O8  UNL     1      12.525  -8.132   9.835  1.00  0.00    -0.647 OA
HETATM   37  O9  UNL     1      10.965  -9.631   9.134  1.00  0.00    -0.647 OA
ENDBRANCH  34  35
ENDBRANCH  33  34
ENDBRANCH  32  33
ENDBRANCH  27  32
ENDBRANCH  24  27
ENDBRANCH  23  24
ENDBRANCH   3  23
TORSDOF 12
ENDMDL
MODEL 5
REMARK VINA RESULT: -8.335671584      2.067      2.859
REMARK  12 active torsions:
REMARK  status: ('A' for Active; 'I' for Inactive)
REMARK    1  A    between atoms: C1_2  and  C2_4 
REMARK    2  A    between atoms: C3_7  and  N3_8 
REMARK    3  A    between atoms: C6_18  and  C7_19 
REMARK       I    between atoms: C7_19  and  N5_21 
REMARK    4  A    between atoms: N5_21  and  C8_23 
REMARK    5  A    between atoms: C8_23  and  C9_24 
REMARK    6  A    between atoms: C9_24  and  O7_25 
REMARK    7  A    between atoms: C9_24  and  C10_27 
REMARK    8  A    between atoms: C10_27  and  N6_28 
REMARK    9  A    between atoms: C10_27  and  C11_32 
REMARK   10  A    between atoms: C11_32  and  S2_33 
REMARK   11  A    between atoms: S2_33  and  C12_34 
REMARK   12  A    between atoms: C12_34  and  C13_35 
ROOT
HETATM    1  C7  UNL     1       3.858  -4.410   4.762  1.00  0.00     0.278 C 
HETATM    2  O6  UNL     1       4.963  -4.248   4.216  1.00  0.00    -0.265 OA
HETATM    3  N5  UNL     1       3.846  -5.460   5.762  1.00  0.00    -0.353 N 
ATOM      4  H5  UNL     1       2.980  -5.664   6.262  1.00  0.00     0.162 HD
ENDROOT
BRANCH   1   5
HETATM    5  C6  UNL     1       2.642  -3.669   4.492  1.00  0.00     0.178 A 
HETATM    6  C2  UNL     1       1.351  -4.042   4.679  1.00  0.00     0.141 A 
HETATM    7  N2  UNL     1       0.581  -2.980   4.266  1.00  0.00    -0.314 N 
HETATM    8  C3  UNL     1       1.387  -2.014   3.849  1.00  0.00     0.243 A 
ATOM      9  H2  UNL     1      -0.438  -2.942   4.278  1.00  0.00     0.170 HD
HETATM   10  O5  UNL     1       2.607  -2.432   3.987  1.00  0.00    -0.270 OA
BRANCH   6  11
HETATM   11  C1  UNL     1       0.790  -5.279   5.198  1.00  0.00     0.284 C 
HETATM   12  N1  UNL     1       0.838  -5.475   6.623  1.00  0.00    -0.056 NA
HETATM   13  O1  UNL     1       0.278  -6.174   4.534  1.00  0.00    -0.269 OA
ENDBRANCH   6  11
BRANCH   8  14
HETATM   14  N3  UNL     1       0.957  -0.762   3.348  1.00  0.00    -0.214 N 
HETATM   15  C4  UNL     1       0.059  -0.514   2.247  1.00  0.00     0.250 C 
HETATM   16  C5  UNL     1      -0.702   0.728   2.552  1.00  0.00     0.251 C 
HETATM   17  O2  UNL     1      -1.943   0.920   2.300  1.00  0.00    -0.271 OA
HETATM   18  N4  UNL     1       0.114   1.711   3.170  1.00  0.00    -0.235 N 
HETATM   19  S1  UNL     1       1.397   0.800   3.927  1.00  0.00     0.331 S 
ATOM     20  H4  UNL     1      -0.020   2.722   3.172  1.00  0.00     0.183 HD
HETATM   21  O3  UNL     1       1.357   0.914   5.402  1.00  0.00    -0.182 OA
HETATM   22  O4  UNL     1       2.700   1.260   3.340  1.00  0.00    -0.182 OA
ENDBRANCH   8  14
ENDBRANCH   1   5
BRANCH   3  23
HETATM   23  C8  UNL     1       5.042  -6.229   6.066  1.00  0.00     0.156 C 
BRANCH  23  24
HETATM   24  C9  UNL     1       4.964  -6.664   7.489  1.00  0.00     0.167 C 
BRANCH  24  25
HETATM   25  O7  UNL     1       4.526  -5.619   8.317  1.00  0.00    -0.392 OA
ATOM     26  H7  UNL     1       3.810  -5.899   8.876  1.00  0.00     0.210 HD
ENDBRANCH  24  25
BRANCH  24  27
HETATM   27  C10 UNL     1       6.243  -7.222   8.029  1.00  0.00     0.223 C 
BRANCH  27  28
HETATM   28  N6  UNL     1       7.321  -6.768   7.150  1.00  0.00    -0.072 N 
ATOM     29  H63 UNL     1       8.241  -6.813   7.589  1.00  0.00     0.274 HD
ATOM     30  H62 UNL     1       7.509  -7.414   6.383  1.00  0.00     0.274 HD
ATOM     31  H61 UNL     1       7.078  -5.830   6.832  1.00  0.00     0.274 HD
ENDBRANCH  27  28
BRANCH  27  32
HETATM   32  C11 UNL     1       6.563  -6.717   9.416  1.00  0.00     0.109 C 
BRANCH  32  33
HETATM   33  S2  UNL     1       7.058  -8.020  10.541  1.00  0.00    -0.156 SA
BRANCH  33  34
HETATM   34  C12 UNL     1       8.840  -8.199  10.691  1.00  0.00     0.186 C 
BRANCH  34  35
HETATM   35  C13 UNL     1       9.495  -8.426   9.376  1.00  0.00     0.182 C 
HETATM   36  O8  UNL     1      10.549  -7.878   9.013  1.00  0.00    -0.647 OA
HETATM   37  O9  UNL     1       8.866  -9.321   8.506  1.00  0.00    -0.647 OA
ENDBRANCH  34  35
ENDBRANCH  33  34
ENDBRANCH  32  33
ENDBRANCH  27  32
ENDBRANCH  24  27
ENDBRANCH  23  24
ENDBRANCH   3  23
TORSDOF 12
ENDMDL
