MODEL 1
REMARK VINA RESULT: -5.155856115      0.000      0.000
REMARK  3 active torsions:
REMARK  status: ('A' for Active; 'I' for Inactive)
REMARK    1  A    between atoms: N1_1  and  C1_4 
REMARK    2  A    between atoms: N3_9  and  C3_10 
REMARK    3  A    between atoms: C3_10  and  C4_11 
ROOT
HETATM    1  C1  UNL     1     -37.334 -29.322  -5.553  1.00  0.00     0.683 A 
HETATM    2  N2  UNL     1     -38.112 -28.373  -4.971  1.00  0.00    -0.141 N 
ATOM      3  H2  UNL     1     -37.721 -27.476  -4.683  1.00  0.00     0.189 HD
HETATM    4  C2  UNL     1     -39.405 -28.656  -4.786  1.00  0.00     0.348 A 
HETATM    5  O1  UNL     1     -40.154 -27.814  -4.254  1.00  0.00    -0.245 OA
HETATM    6  N3  UNL     1     -39.973 -29.816  -5.144  1.00  0.00    -0.227 N 
HETATM    7  C7  UNL     1     -39.190 -30.743  -5.719  1.00  0.00     0.348 A 
HETATM    8  O2  UNL     1     -39.572 -31.875  -6.106  1.00  0.00    -0.245 OA
HETATM    9  N7  UNL     1     -37.868 -30.499  -5.926  1.00  0.00    -0.141 N 
ATOM     10  H7  UNL     1     -37.281 -31.209  -6.363  1.00  0.00     0.189 HD
ENDROOT
BRANCH   6  11
HETATM   11  C3  UNL     1     -41.325 -30.061  -4.909  1.00  0.00     0.106 C 
BRANCH  11  12
HETATM   12  C4  UNL     1     -41.859 -30.551  -3.658  1.00  0.00     0.141 C 
HETATM   13  C5  UNL     1     -40.967 -31.405  -2.786  1.00  0.00     0.152 C 
HETATM   14  N4  UNL     1     -41.518 -31.176  -1.421  1.00  0.00    -0.362 N 
HETATM   15  C6  UNL     1     -42.104 -30.006  -1.416  1.00  0.00     0.184 C 
ATOM     16  H4  UNL     1     -41.450 -31.818  -0.630  1.00  0.00     0.162 HD
HETATM   17  N5  UNL     1     -42.746 -29.445  -0.286  1.00  0.00    -0.064 NA
HETATM   18  N6  UNL     1     -41.988 -29.415  -2.719  1.00  0.00    -0.354 N 
ATOM     19  H6  UNL     1     -41.992 -28.421  -2.949  1.00  0.00     0.163 HD
ENDBRANCH  11  12
ENDBRANCH   6  11
BRANCH   1  20
HETATM   20  N1  UNL     1     -36.069 -29.132  -5.770  1.00  0.00    -0.234 N 
ATOM     21  H12 UNL     1     -35.778 -28.230  -6.148  1.00  0.00     0.174 HD
ATOM     22  H11 UNL     1     -35.376 -29.852  -5.573  1.00  0.00     0.174 HD
ENDBRANCH   1  20
TORSDOF 3
ENDMDL
MODEL 2
REMARK VINA RESULT: -5.079470807      0.089      1.971
REMARK  3 active torsions:
REMARK  status: ('A' for Active; 'I' for Inactive)
REMARK    1  A    between atoms: N1_1  and  C1_4 
REMARK    2  A    between atoms: N3_9  and  C3_10 
REMARK    3  A    between atoms: C3_10  and  C4_11 
ROOT
HETATM    1  C1  UNL     1     -37.352 -29.314  -5.561  1.00  0.00     0.683 A 
HETATM    2  N2  UNL     1     -37.850 -30.512  -5.963  1.00  0.00    -0.141 N 
ATOM      3  H2  UNL     1     -37.256 -31.204  -6.418  1.00  0.00     0.189 HD
HETATM    4  C2  UNL     1     -39.147 -30.752  -5.741  1.00  0.00     0.348 A 
HETATM    5  O1  UNL     1     -39.645 -31.838  -6.095  1.00  0.00    -0.245 OA
HETATM    6  N3  UNL     1     -39.975 -29.882  -5.147  1.00  0.00    -0.227 N 
HETATM    7  C7  UNL     1     -39.465 -28.702  -4.756  1.00  0.00     0.348 A 
HETATM    8  O2  UNL     1     -40.111 -27.786  -4.192  1.00  0.00    -0.245 OA
HETATM    9  N7  UNL     1     -38.152 -28.415  -4.962  1.00  0.00    -0.141 N 
ATOM     10  H7  UNL     1     -37.774 -27.516  -4.662  1.00  0.00     0.189 HD
ENDROOT
BRANCH   6  11
HETATM   11  C3  UNL     1     -41.323 -30.181  -4.960  1.00  0.00     0.106 C 
BRANCH  11  12
HETATM   12  C4  UNL     1     -41.893 -30.623  -3.706  1.00  0.00     0.141 C 
HETATM   13  C5  UNL     1     -41.048 -31.495  -2.805  1.00  0.00     0.152 C 
HETATM   14  N4  UNL     1     -41.605 -31.217  -1.453  1.00  0.00    -0.362 N 
HETATM   15  C6  UNL     1     -42.143 -30.024  -1.478  1.00  0.00     0.184 C 
ATOM     16  H4  UNL     1     -41.574 -31.844  -0.649  1.00  0.00     0.162 HD
HETATM   17  N5  UNL     1     -42.775 -29.414  -0.368  1.00  0.00    -0.064 NA
HETATM   18  N6  UNL     1     -41.986 -29.464  -2.791  1.00  0.00    -0.354 N 
ATOM     19  H6  UNL     1     -41.947 -28.476  -3.041  1.00  0.00     0.163 HD
ENDBRANCH  11  12
ENDBRANCH   6  11
BRANCH   1  20
HETATM   20  N1  UNL     1     -36.105 -28.999  -5.737  1.00  0.00    -0.234 N 
ATOM     21  H12 UNL     1     -35.700 -28.290  -5.126  1.00  0.00     0.174 HD
ATOM     22  H11 UNL     1     -35.536 -29.438  -6.459  1.00  0.00     0.174 HD
ENDBRANCH   1  20
TORSDOF 3
ENDMDL
MODEL 3
REMARK VINA RESULT: -5.072187422      1.541      5.426
REMARK  3 active torsions:
REMARK  status: ('A' for Active; 'I' for Inactive)
REMARK    1  A    between atoms: N1_1  and  C1_4 
REMARK    2  A    between atoms: N3_9  and  C3_10 
REMARK    3  A    between atoms: C3_10  and  C4_11 
ROOT
HETATM    1  C1  UNL     1     -42.568 -29.909  -0.661  1.00  0.00     0.683 A 
HETATM    2  N2  UNL     1     -41.869 -31.009  -1.040  1.00  0.00    -0.141 N 
ATOM      3  H2  UNL     1     -41.660 -31.755  -0.377  1.00  0.00     0.189 HD
HETATM    4  C2  UNL     1     -41.464 -31.081  -2.312  1.00  0.00     0.348 A 
HETATM    5  O1  UNL     1     -40.818 -32.073  -2.702  1.00  0.00    -0.245 OA
HETATM    6  N3  UNL     1     -41.710 -30.133  -3.227  1.00  0.00    -0.227 N 
HETATM    7  C7  UNL     1     -42.404 -29.052  -2.835  1.00  0.00     0.348 A 
HETATM    8  O2  UNL     1     -42.710 -28.082  -3.571  1.00  0.00    -0.245 OA
HETATM    9  N7  UNL     1     -42.835 -28.937  -1.550  1.00  0.00    -0.141 N 
ATOM     10  H7  UNL     1     -43.361 -28.111  -1.262  1.00  0.00     0.189 HD
ENDROOT
BRANCH   6  11
HETATM   11  C3  UNL     1     -41.246 -30.255  -4.536  1.00  0.00     0.106 C 
BRANCH  11  12
HETATM   12  C4  UNL     1     -39.955 -29.788  -4.990  1.00  0.00     0.141 C 
HETATM   13  C5  UNL     1     -39.447 -28.465  -4.461  1.00  0.00     0.152 C 
HETATM   14  N4  UNL     1     -37.969 -28.610  -4.566  1.00  0.00    -0.362 N 
HETATM   15  C6  UNL     1     -37.685 -29.887  -4.515  1.00  0.00     0.184 C 
ATOM     16  H4  UNL     1     -37.296 -27.848  -4.662  1.00  0.00     0.162 HD
HETATM   17  N5  UNL     1     -36.373 -30.412  -4.585  1.00  0.00    -0.064 NA
HETATM   18  N6  UNL     1     -38.904 -30.634  -4.382  1.00  0.00    -0.354 N 
ATOM     19  H6  UNL     1     -39.021 -31.555  -3.959  1.00  0.00     0.163 HD
ENDBRANCH  11  12
ENDBRANCH   6  11
BRANCH   1  20
HETATM   20  N1  UNL     1     -42.999 -29.758   0.554  1.00  0.00    -0.234 N 
ATOM     21  H12 UNL     1     -42.409 -29.248   1.212  1.00  0.00     0.174 HD
ATOM     22  H11 UNL     1     -43.899 -30.131   0.855  1.00  0.00     0.174 HD
ENDBRANCH   1  20
TORSDOF 3
ENDMDL
MODEL 4
REMARK VINA RESULT: -5.059464577      1.202      1.221
REMARK  3 active torsions:
REMARK  status: ('A' for Active; 'I' for Inactive)
REMARK    1  A    between atoms: N1_1  and  C1_4 
REMARK    2  A    between atoms: N3_9  and  C3_10 
REMARK    3  A    between atoms: C3_10  and  C4_11 
ROOT
HETATM    1  C1  UNL     1     -37.360 -29.447  -4.935  1.00  0.00     0.683 A 
HETATM    2  N2  UNL     1     -38.236 -28.427  -4.743  1.00  0.00    -0.141 N 
ATOM      3  H2  UNL     1     -37.944 -27.455  -4.847  1.00  0.00     0.189 HD
HETATM    4  C2  UNL     1     -39.493 -28.740  -4.412  1.00  0.00     0.348 A 
HETATM    5  O1  UNL     1     -40.328 -27.834  -4.225  1.00  0.00    -0.245 OA
HETATM    6  N3  UNL     1     -39.933 -29.996  -4.262  1.00  0.00    -0.227 N 
HETATM    7  C7  UNL     1     -39.054 -30.993  -4.457  1.00  0.00     0.348 A 
HETATM    8  O2  UNL     1     -39.313 -32.217  -4.351  1.00  0.00    -0.245 OA
HETATM    9  N7  UNL     1     -37.765 -30.721  -4.793  1.00  0.00    -0.141 N 
ATOM     10  H7  UNL     1     -37.105 -31.485  -4.939  1.00  0.00     0.189 HD
ENDROOT
BRANCH   6  11
HETATM   11  C3  UNL     1     -41.252 -30.261  -3.898  1.00  0.00     0.106 C 
BRANCH  11  12
HETATM   12  C4  UNL     1     -41.714 -30.372  -2.532  1.00  0.00     0.141 C 
HETATM   13  C5  UNL     1     -41.705 -31.738  -1.884  1.00  0.00     0.152 C 
HETATM   14  N4  UNL     1     -41.586 -31.418  -0.434  1.00  0.00    -0.362 N 
HETATM   15  C6  UNL     1     -41.001 -30.252  -0.327  1.00  0.00     0.184 C 
ATOM     16  H4  UNL     1     -41.905 -32.004   0.339  1.00  0.00     0.162 HD
HETATM   17  N5  UNL     1     -40.716 -29.618   0.906  1.00  0.00    -0.064 NA
HETATM   18  N6  UNL     1     -40.712 -29.748  -1.640  1.00  0.00    -0.354 N 
ATOM     19  H6  UNL     1     -39.972 -29.097  -1.902  1.00  0.00     0.163 HD
ENDBRANCH  11  12
ENDBRANCH   6  11
BRANCH   1  20
HETATM   20  N1  UNL     1     -36.122 -29.234  -5.258  1.00  0.00    -0.234 N 
ATOM     21  H12 UNL     1     -35.407 -29.398  -4.549  1.00  0.00     0.174 HD
ATOM     22  H11 UNL     1     -35.857 -28.912  -6.188  1.00  0.00     0.174 HD
ENDBRANCH   1  20
TORSDOF 3
ENDMDL
MODEL 5
REMARK VINA RESULT: -5.047034785      1.191      2.333
REMARK  3 active torsions:
REMARK  status: ('A' for Active; 'I' for Inactive)
REMARK    1  A    between atoms: N1_1  and  C1_4 
REMARK    2  A    between atoms: N3_9  and  C3_10 
REMARK    3  A    between atoms: C3_10  and  C4_11 
ROOT
HETATM    1  C1  UNL     1     -37.349 -29.447  -5.070  1.00  0.00     0.683 A 
HETATM    2  N2  UNL     1     -37.793 -30.671  -4.685  1.00  0.00    -0.141 N 
ATOM      3  H2  UNL     1     -37.183 -31.488  -4.718  1.00  0.00     0.189 HD
HETATM    4  C2  UNL     1     -39.058 -30.770  -4.261  1.00  0.00     0.348 A 
HETATM    5  O1  UNL     1     -39.506 -31.875  -3.900  1.00  0.00    -0.245 OA
HETATM    6  N3  UNL     1     -39.904 -29.733  -4.195  1.00  0.00    -0.227 N 
HETATM    7  C7  UNL     1     -39.448 -28.529  -4.579  1.00  0.00     0.348 A 
HETATM    8  O2  UNL     1     -40.118 -27.467  -4.577  1.00  0.00    -0.245 OA
HETATM    9  N7  UNL     1     -38.169 -28.383  -5.018  1.00  0.00    -0.141 N 
ATOM     10  H7  UNL     1     -37.832 -27.465  -5.308  1.00  0.00     0.189 HD
ENDROOT
BRANCH   6  11
HETATM   11  C3  UNL     1     -41.218 -29.900  -3.761  1.00  0.00     0.106 C 
BRANCH  11  12
HETATM   12  C4  UNL     1     -41.712 -29.467  -2.473  1.00  0.00     0.141 C 
HETATM   13  C5  UNL     1     -42.975 -30.108  -1.940  1.00  0.00     0.152 C 
HETATM   14  N4  UNL     1     -42.826 -29.961  -0.465  1.00  0.00    -0.362 N 
HETATM   15  C6  UNL     1     -41.547 -29.887  -0.196  1.00  0.00     0.184 C 
ATOM     16  H4  UNL     1     -43.586 -29.925   0.215  1.00  0.00     0.162 HD
HETATM   17  N5  UNL     1     -41.018 -29.743   1.109  1.00  0.00    -0.064 NA
HETATM   18  N6  UNL     1     -40.802 -29.973  -1.421  1.00  0.00    -0.354 N 
ATOM     19  H6  UNL     1     -39.847 -30.310  -1.541  1.00  0.00     0.163 HD
ENDBRANCH  11  12
ENDBRANCH   6  11
BRANCH   1  20
HETATM   20  N1  UNL     1     -36.137 -29.262  -5.494  1.00  0.00    -0.234 N 
ATOM     21  H12 UNL     1     -35.885 -29.642  -6.407  1.00  0.00     0.174 HD
ATOM     22  H11 UNL     1     -35.447 -28.753  -4.943  1.00  0.00     0.174 HD
ENDBRANCH   1  20
TORSDOF 3
ENDMDL
