MODEL 1
REMARK VINA RESULT: -6.146110206      0.000      0.000
REMARK  8 active torsions:
REMARK  status: ('A' for Active; 'I' for Inactive)
REMARK    1  A    between atoms: C2_2  and  C3_3 
REMARK    2  A    between atoms: C4_4  and  C5_5 
REMARK    3  A    between atoms: C11_11  and  O1_12 
REMARK    4  A    between atoms: C12_14  and  C13_15 
REMARK    5  A    between atoms: C13_15  and  C14_16 
REMARK    6  A    between atoms: C20_22  and  O2_23 
REMARK    7  A    between atoms: C20_22  and  C21_25 
REMARK    8  A    between atoms: C21_25  and  O3_26 
ROOT
HETATM    1  C5  UNL     1      -2.605   3.633  10.754  1.00  0.00     0.049 C 
HETATM    2  C6  UNL     1      -2.510   2.603  11.812  1.00  0.00     0.045 C 
HETATM    3  C7  UNL     1      -3.741   2.505  12.626  1.00  0.00    -0.080 C 
HETATM    4  C8  UNL     1      -4.389   1.171  12.770  1.00  0.00     0.043 C 
HETATM    5  C9  UNL     1      -4.357   3.481  13.261  1.00  0.00    -0.064 C 
HETATM    6  C10 UNL     1      -5.564   3.681  14.124  1.00  0.00     0.068 C 
HETATM    7  C11 UNL     1      -5.327   5.168  13.939  1.00  0.00     0.135 C 
HETATM    8  C12 UNL     1      -3.985   4.924  13.333  1.00  0.00     0.019 C 
HETATM    9  C18 UNL     1      -3.780   5.503  11.951  1.00  0.00     0.034 C 
HETATM   10  C19 UNL     1      -4.719   6.673  11.829  1.00  0.00     0.014 C 
HETATM   11  C20 UNL     1      -3.816   4.547  10.830  1.00  0.00     0.090 C 
ENDROOT
BRANCH   8  12
HETATM   12  C13 UNL     1      -2.777   5.119  14.221  1.00  0.00     0.044 C 
BRANCH  12  13
HETATM   13  C14 UNL     1      -1.813   6.119  13.754  1.00  0.00    -0.024 C 
HETATM   14  C15 UNL     1      -1.786   7.384  14.142  1.00  0.00    -0.091 C 
HETATM   15  C16 UNL     1      -2.740   7.978  15.117  1.00  0.00     0.042 C 
HETATM   16  C17 UNL     1      -0.718   8.270  13.556  1.00  0.00     0.042 C 
ENDBRANCH  12  13
ENDBRANCH   8  12
BRANCH   7  17
HETATM   17  O1  UNL     1      -5.419   5.785  15.155  1.00  0.00    -0.394 OA
ATOM     18  H1  UNL     1      -6.178   6.357  15.153  1.00  0.00     0.210 HD
ENDBRANCH   7  17
BRANCH  11  19
HETATM   19  O2  UNL     1      -4.961   3.747  10.766  1.00  0.00    -0.387 OA
ATOM     20  H2  UNL     1      -5.442   3.862  11.576  1.00  0.00     0.210 HD
ENDBRANCH  11  19
BRANCH  11  21
HETATM   21  C21 UNL     1      -3.780   5.288   9.502  1.00  0.00     0.203 C 
BRANCH  21  22
HETATM   22  O3  UNL     1      -4.017   4.517   8.404  1.00  0.00    -0.398 OA
ATOM     23  H3  UNL     1      -3.247   4.293   7.895  1.00  0.00     0.209 HD
ENDBRANCH  21  22
ENDBRANCH  11  21
BRANCH   1  24
HETATM   24  C4  UNL     1      -1.326   4.375  10.689  1.00  0.00    -0.019 C 
HETATM   25  C3  UNL     1      -0.229   3.842  11.184  1.00  0.00    -0.004 C 
BRANCH  25  26
HETATM   26  C2  UNL     1       1.059   4.534  11.144  1.00  0.00    -0.011 C 
HETATM   27  C1  UNL     1       1.187   5.728  11.692  1.00  0.00     0.011 C 
ENDBRANCH  25  26
ENDBRANCH   1  24
TORSDOF 8
ENDMDL
MODEL 2
REMARK VINA RESULT: -5.972308736      0.910      1.010
REMARK  8 active torsions:
REMARK  status: ('A' for Active; 'I' for Inactive)
REMARK    1  A    between atoms: C2_2  and  C3_3 
REMARK    2  A    between atoms: C4_4  and  C5_5 
REMARK    3  A    between atoms: C11_11  and  O1_12 
REMARK    4  A    between atoms: C12_14  and  C13_15 
REMARK    5  A    between atoms: C13_15  and  C14_16 
REMARK    6  A    between atoms: C20_22  and  O2_23 
REMARK    7  A    between atoms: C20_22  and  C21_25 
REMARK    8  A    between atoms: C21_25  and  O3_26 
ROOT
HETATM    1  C5  UNL     1      -1.849   3.337  10.201  1.00  0.00     0.049 C 
HETATM    2  C6  UNL     1      -1.675   2.200  11.131  1.00  0.00     0.045 C 
HETATM    3  C7  UNL     1      -2.923   1.846  11.841  1.00  0.00    -0.080 C 
HETATM    4  C8  UNL     1      -3.396   0.433  11.779  1.00  0.00     0.043 C 
HETATM    5  C9  UNL     1      -3.695   2.648  12.546  1.00  0.00    -0.064 C 
HETATM    6  C10 UNL     1      -4.961   2.583  13.341  1.00  0.00     0.068 C 
HETATM    7  C11 UNL     1      -4.914   4.100  13.354  1.00  0.00     0.135 C 
HETATM    8  C12 UNL     1      -3.521   4.104  12.816  1.00  0.00     0.019 C 
HETATM    9  C18 UNL     1      -3.323   4.877  11.531  1.00  0.00     0.034 C 
HETATM   10  C19 UNL     1      -4.401   5.927  11.487  1.00  0.00     0.014 C 
HETATM   11  C20 UNL     1      -3.173   4.075  10.304  1.00  0.00     0.090 C 
ENDROOT
BRANCH   8  12
HETATM   12  C13 UNL     1      -2.398   4.333  13.802  1.00  0.00     0.044 C 
BRANCH  12  13
HETATM   13  C14 UNL     1      -1.560   5.505  13.534  1.00  0.00    -0.024 C 
HETATM   14  C15 UNL     1      -1.826   6.735  13.943  1.00  0.00    -0.091 C 
HETATM   15  C16 UNL     1      -3.024   7.108  14.741  1.00  0.00     0.042 C 
HETATM   16  C17 UNL     1      -0.846   7.819  13.574  1.00  0.00     0.042 C 
ENDBRANCH  12  13
ENDBRANCH   8  12
BRANCH   7  17
HETATM   17  O1  UNL     1      -5.150   4.539  14.626  1.00  0.00    -0.394 OA
ATOM     18  H1  UNL     1      -4.333   4.533  15.110  1.00  0.00     0.210 HD
ENDBRANCH   7  17
BRANCH  11  19
HETATM   19  O2  UNL     1      -4.197   3.154  10.065  1.00  0.00    -0.387 OA
ATOM     20  H2  UNL     1      -4.526   2.860  10.907  1.00  0.00     0.210 HD
ENDBRANCH  11  19
BRANCH  11  21
HETATM   21  C21 UNL     1      -3.166   4.979   9.080  1.00  0.00     0.203 C 
BRANCH  21  22
HETATM   22  O3  UNL     1      -4.003   4.598   8.075  1.00  0.00    -0.398 OA
ATOM     23  H3  UNL     1      -3.623   4.621   7.204  1.00  0.00     0.209 HD
ENDBRANCH  21  22
ENDBRANCH  11  21
BRANCH   1  24
HETATM   24  C4  UNL     1      -0.679   4.235  10.314  1.00  0.00    -0.019 C 
HETATM   25  C3  UNL     1       0.447   3.788  10.831  1.00  0.00    -0.004 C 
BRANCH  25  26
HETATM   26  C2  UNL     1       1.632   4.635  10.964  1.00  0.00    -0.011 C 
HETATM   27  C1  UNL     1       1.571   5.757  11.658  1.00  0.00     0.011 C 
ENDBRANCH  25  26
ENDBRANCH   1  24
TORSDOF 8
ENDMDL
MODEL 3
REMARK VINA RESULT: -5.913682375      2.098      4.247
REMARK  8 active torsions:
REMARK  status: ('A' for Active; 'I' for Inactive)
REMARK    1  A    between atoms: C2_2  and  C3_3 
REMARK    2  A    between atoms: C4_4  and  C5_5 
REMARK    3  A    between atoms: C11_11  and  O1_12 
REMARK    4  A    between atoms: C12_14  and  C13_15 
REMARK    5  A    between atoms: C13_15  and  C14_16 
REMARK    6  A    between atoms: C20_22  and  O2_23 
REMARK    7  A    between atoms: C20_22  and  C21_25 
REMARK    8  A    between atoms: C21_25  and  O3_26 
ROOT
HETATM    1  C5  UNL     1      -1.313   5.751  13.385  1.00  0.00     0.049 C 
HETATM    2  C6  UNL     1      -2.414   5.444  14.324  1.00  0.00     0.045 C 
HETATM    3  C7  UNL     1      -2.993   4.100  14.107  1.00  0.00    -0.080 C 
HETATM    4  C8  UNL     1      -3.074   3.169  15.268  1.00  0.00     0.043 C 
HETATM    5  C9  UNL     1      -3.462   3.606  12.979  1.00  0.00    -0.064 C 
HETATM    6  C10 UNL     1      -4.080   2.341  12.473  1.00  0.00     0.068 C 
HETATM    7  C11 UNL     1      -3.877   2.915  11.083  1.00  0.00     0.135 C 
HETATM    8  C12 UNL     1      -3.538   4.258  11.640  1.00  0.00     0.019 C 
HETATM    9  C18 UNL     1      -2.194   4.813  11.226  1.00  0.00     0.034 C 
HETATM   10  C19 UNL     1      -1.851   4.178   9.906  1.00  0.00     0.014 C 
HETATM   11  C20 UNL     1      -1.128   4.766  12.243  1.00  0.00     0.090 C 
ENDROOT
BRANCH   8  12
HETATM   12  C13 UNL     1      -4.624   5.311  11.621  1.00  0.00     0.044 C 
BRANCH  12  13
HETATM   13  C14 UNL     1      -4.221   6.613  11.080  1.00  0.00    -0.024 C 
HETATM   14  C15 UNL     1      -5.050   7.604  10.796  1.00  0.00    -0.091 C 
HETATM   15  C16 UNL     1      -6.524   7.538  10.984  1.00  0.00     0.042 C 
HETATM   16  C17 UNL     1      -4.455   8.875  10.249  1.00  0.00     0.042 C 
ENDBRANCH  12  13
ENDBRANCH   8  12
BRANCH   7  17
HETATM   17  O1  UNL     1      -5.029   2.751  10.364  1.00  0.00    -0.394 OA
ATOM     18  H1  UNL     1      -5.150   3.506   9.801  1.00  0.00     0.210 HD
ENDBRANCH   7  17
BRANCH  11  19
HETATM   19  O2  UNL     1      -0.890   3.505  12.799  1.00  0.00    -0.387 OA
ATOM     20  H2  UNL     1      -0.035   3.526  13.212  1.00  0.00     0.210 HD
ENDBRANCH  11  19
BRANCH  11  21
HETATM   21  C21 UNL     1       0.202   5.183  11.634  1.00  0.00     0.203 C 
BRANCH  21  22
HETATM   22  O3  UNL     1       1.206   4.269  11.754  1.00  0.00    -0.398 OA
ATOM     23  H3  UNL     1       1.263   3.639  11.047  1.00  0.00     0.209 HD
ENDBRANCH  21  22
ENDBRANCH  11  21
BRANCH   1  24
HETATM   24  C4  UNL     1      -1.452   7.149  12.922  1.00  0.00    -0.019 C 
HETATM   25  C3  UNL     1      -2.023   8.047  13.698  1.00  0.00    -0.004 C 
BRANCH  25  26
HETATM   26  C2  UNL     1      -2.182   9.441  13.287  1.00  0.00    -0.011 C 
HETATM   27  C1  UNL     1      -1.892  10.418  14.128  1.00  0.00     0.011 C 
ENDBRANCH  25  26
ENDBRANCH   1  24
TORSDOF 8
ENDMDL
MODEL 4
REMARK VINA RESULT: -5.895701131      2.195      5.250
REMARK  8 active torsions:
REMARK  status: ('A' for Active; 'I' for Inactive)
REMARK    1  A    between atoms: C2_2  and  C3_3 
REMARK    2  A    between atoms: C4_4  and  C5_5 
REMARK    3  A    between atoms: C11_11  and  O1_12 
REMARK    4  A    between atoms: C12_14  and  C13_15 
REMARK    5  A    between atoms: C13_15  and  C14_16 
REMARK    6  A    between atoms: C20_22  and  O2_23 
REMARK    7  A    between atoms: C20_22  and  C21_25 
REMARK    8  A    between atoms: C21_25  and  O3_26 
ROOT
HETATM    1  C5  UNL     1      -3.065   3.147  13.143  1.00  0.00     0.049 C 
HETATM    2  C6  UNL     1      -3.392   2.165  12.087  1.00  0.00     0.045 C 
HETATM    3  C7  UNL     1      -2.395   2.146  10.994  1.00  0.00    -0.080 C 
HETATM    4  C8  UNL     1      -1.773   0.842  10.628  1.00  0.00     0.043 C 
HETATM    5  C9  UNL     1      -1.973   3.170  10.281  1.00  0.00    -0.064 C 
HETATM    6  C10 UNL     1      -1.018   3.449   9.164  1.00  0.00     0.068 C 
HETATM    7  C11 UNL     1      -1.234   4.918   9.479  1.00  0.00     0.135 C 
HETATM    8  C12 UNL     1      -2.382   4.601  10.378  1.00  0.00     0.019 C 
HETATM    9  C18 UNL     1      -2.257   5.109  11.797  1.00  0.00     0.034 C 
HETATM   10  C19 UNL     1      -1.341   6.303  11.750  1.00  0.00     0.014 C 
HETATM   11  C20 UNL     1      -1.928   4.104  12.823  1.00  0.00     0.090 C 
ENDROOT
BRANCH   8  12
HETATM   12  C13 UNL     1      -3.774   4.797   9.820  1.00  0.00     0.044 C 
BRANCH  12  13
HETATM   13  C14 UNL     1      -4.644   5.677  10.605  1.00  0.00    -0.024 C 
HETATM   14  C15 UNL     1      -5.402   6.637  10.102  1.00  0.00    -0.091 C 
HETATM   15  C16 UNL     1      -5.482   6.964   8.653  1.00  0.00     0.042 C 
HETATM   16  C17 UNL     1      -6.236   7.443  11.064  1.00  0.00     0.042 C 
ENDBRANCH  12  13
ENDBRANCH   8  12
BRANCH   7  17
HETATM   17  O1  UNL     1      -1.454   5.593   8.311  1.00  0.00    -0.394 OA
ATOM     18  H1  UNL     1      -2.106   6.267   8.463  1.00  0.00     0.210 HD
ENDBRANCH   7  17
BRANCH  11  19
HETATM   19  O2  UNL     1      -0.785   3.341  12.566  1.00  0.00    -0.387 OA
ATOM     20  H2  UNL     1      -0.180   3.473  13.286  1.00  0.00     0.210 HD
ENDBRANCH  11  19
BRANCH  11  21
HETATM   21  C21 UNL     1      -1.656   4.781  14.158  1.00  0.00     0.203 C 
BRANCH  21  22
HETATM   22  O3  UNL     1      -1.204   3.956  15.144  1.00  0.00    -0.398 OA
ATOM     23  H3  UNL     1      -1.869   3.648  15.747  1.00  0.00     0.209 HD
ENDBRANCH  21  22
ENDBRANCH  11  21
BRANCH   1  24
HETATM   24  C4  UNL     1      -4.304   3.843  13.554  1.00  0.00    -0.019 C 
HETATM   25  C3  UNL     1      -5.033   3.364  14.541  1.00  0.00    -0.004 C 
BRANCH  25  26
HETATM   26  C2  UNL     1      -6.265   4.014  14.986  1.00  0.00    -0.011 C 
HETATM   27  C1  UNL     1      -6.334   5.331  15.049  1.00  0.00     0.011 C 
ENDBRANCH  25  26
ENDBRANCH   1  24
TORSDOF 8
ENDMDL
MODEL 5
REMARK VINA RESULT: -5.850288467      1.822      4.501
REMARK  8 active torsions:
REMARK  status: ('A' for Active; 'I' for Inactive)
REMARK    1  A    between atoms: C2_2  and  C3_3 
REMARK    2  A    between atoms: C4_4  and  C5_5 
REMARK    3  A    between atoms: C11_11  and  O1_12 
REMARK    4  A    between atoms: C12_14  and  C13_15 
REMARK    5  A    between atoms: C13_15  and  C14_16 
REMARK    6  A    between atoms: C20_22  and  O2_23 
REMARK    7  A    between atoms: C20_22  and  C21_25 
REMARK    8  A    between atoms: C21_25  and  O3_26 
ROOT
HETATM    1  C5  UNL     1      -3.513   5.441  14.617  1.00  0.00     0.049 C 
HETATM    2  C6  UNL     1      -4.988   5.340  14.575  1.00  0.00     0.045 C 
HETATM    3  C7  UNL     1      -5.458   4.018  14.108  1.00  0.00    -0.080 C 
HETATM    4  C8  UNL     1      -6.424   3.270  14.961  1.00  0.00     0.043 C 
HETATM    5  C9  UNL     1      -5.119   3.397  12.997  1.00  0.00    -0.064 C 
HETATM    6  C10 UNL     1      -5.413   2.113  12.287  1.00  0.00     0.068 C 
HETATM    7  C11 UNL     1      -4.255   2.469  11.372  1.00  0.00     0.135 C 
HETATM    8  C12 UNL     1      -4.188   3.854  11.924  1.00  0.00     0.019 C 
HETATM    9  C18 UNL     1      -2.850   4.259  12.501  1.00  0.00     0.034 C 
HETATM   10  C19 UNL     1      -1.808   3.422  11.808  1.00  0.00     0.014 C 
HETATM   11  C20 UNL     1      -2.755   4.293  13.971  1.00  0.00     0.090 C 
ENDROOT
BRANCH   8  12
HETATM   12  C13 UNL     1      -4.818   4.958  11.106  1.00  0.00     0.044 C 
BRANCH  12  13
HETATM   13  C14 UNL     1      -4.024   6.186  10.997  1.00  0.00    -0.024 C 
HETATM   14  C15 UNL     1      -4.526   7.405  10.890  1.00  0.00    -0.091 C 
HETATM   15  C16 UNL     1      -5.982   7.708  10.865  1.00  0.00     0.042 C 
HETATM   16  C17 UNL     1      -3.554   8.552  10.791  1.00  0.00     0.042 C 
ENDBRANCH  12  13
ENDBRANCH   8  12
BRANCH   7  17
HETATM   17  O1  UNL     1      -4.641   2.275  10.075  1.00  0.00    -0.394 OA
ATOM     18  H1  UNL     1      -4.261   2.958   9.536  1.00  0.00     0.210 HD
ENDBRANCH   7  17
BRANCH  11  19
HETATM   19  O2  UNL     1      -3.132   3.113  14.619  1.00  0.00    -0.387 OA
ATOM     20  H2  UNL     1      -3.662   3.350  15.371  1.00  0.00     0.210 HD
ENDBRANCH  11  19
BRANCH  11  21
HETATM   21  C21 UNL     1      -1.317   4.536  14.403  1.00  0.00     0.203 C 
BRANCH  21  22
HETATM   22  O3  UNL     1      -0.907   3.812  15.482  1.00  0.00    -0.398 OA
ATOM     23  H3  UNL     1       0.030   3.812  15.635  1.00  0.00     0.209 HD
ENDBRANCH  21  22
ENDBRANCH  11  21
BRANCH   1  24
HETATM   24  C4  UNL     1      -3.105   6.764  14.096  1.00  0.00    -0.019 C 
HETATM   25  C3  UNL     1      -2.752   7.721  14.929  1.00  0.00    -0.004 C 
BRANCH  25  26
HETATM   26  C2  UNL     1      -2.341   9.045  14.465  1.00  0.00    -0.011 C 
HETATM   27  C1  UNL     1      -1.250   9.609  14.949  1.00  0.00     0.011 C 
ENDBRANCH  25  26
ENDBRANCH   1  24
TORSDOF 8
ENDMDL
