MODEL 1
REMARK VINA RESULT: -7.763462854      0.000      0.000
REMARK  5 active torsions:
REMARK  status: ('A' for Active; 'I' for Inactive)
REMARK    1  A    between atoms: N1_1  and  C1_4 
REMARK    2  A    between atoms: C2_12  and  N4_13 
REMARK    3  A    between atoms: N4_13  and  C3_15 
REMARK    4  A    between atoms: C3_15  and  C4_16 
REMARK    5  A    between atoms: C4_16  and  C5_17 
ROOT
HETATM    1  N4  UNL     1      -3.658   3.535  11.970  1.00  0.00    -0.373 N 
ATOM      2  H4  UNL     1      -3.303   4.252  11.338  1.00  0.00     0.161 HD
ENDROOT
BRANCH   1   3
HETATM    3  C2  UNL     1      -3.242   2.299  11.806  1.00  0.00     0.157 C 
HETATM    4  C1  UNL     1      -1.863   1.948  11.644  1.00  0.00     0.155 C 
HETATM    5  N2  UNL     1      -1.626   0.562  11.482  1.00  0.00    -0.250 N 
HETATM    6  S1  UNL     1      -3.201  -0.096  11.099  1.00  0.00     0.326 S 
ATOM      7  H2  UNL     1      -0.741   0.062  11.568  1.00  0.00     0.182 HD
HETATM    8  O1  UNL     1      -3.392  -0.167   9.623  1.00  0.00    -0.182 OA
HETATM    9  O2  UNL     1      -3.450  -1.372  11.806  1.00  0.00    -0.182 OA
HETATM   10  N3  UNL     1      -4.139   1.215  11.778  1.00  0.00    -0.250 N 
ATOM     11  H3  UNL     1      -5.112   1.198  12.084  1.00  0.00     0.182 HD
BRANCH   4  12
HETATM   12  N1  UNL     1      -0.865   2.803  11.640  1.00  0.00    -0.382 N 
ATOM     13  H12 UNL     1      -0.160   2.882  12.373  1.00  0.00     0.157 HD
ATOM     14  H11 UNL     1      -0.745   3.456  10.866  1.00  0.00     0.157 HD
ENDBRANCH   4  12
ENDBRANCH   1   3
BRANCH   1  15
HETATM   15  C3  UNL     1      -4.584   3.927  12.991  1.00  0.00     0.121 C 
BRANCH  15  16
HETATM   16  C4  UNL     1      -3.979   3.879  14.370  1.00  0.00     0.027 C 
BRANCH  16  17
HETATM   17  C5  UNL     1      -4.895   3.222  15.379  1.00  0.00     0.021 C 
HETATM   18  C6  UNL     1      -5.022   1.734  15.127  1.00  0.00     0.007 C 
HETATM   19  C7  UNL     1      -4.610   0.943  16.322  1.00  0.00     0.000 C 
HETATM   20  C8  UNL     1      -5.764   0.333  17.070  1.00  0.00     0.000 C 
HETATM   21  C9  UNL     1      -6.959   1.248  17.143  1.00  0.00     0.000 C 
HETATM   22  C10 UNL     1      -6.540   2.632  17.644  1.00  0.00     0.003 C 
HETATM   23  C11 UNL     1      -6.970   3.718  16.732  1.00  0.00     0.037 C 
HETATM   24  C12 UNL     1      -6.226   3.884  15.474  1.00  0.00     0.174 C 
HETATM   25  F1  UNL     1      -6.007   5.258  15.288  1.00  0.00    -0.249 F 
ENDBRANCH  16  17
ENDBRANCH  15  16
ENDBRANCH   1  15
TORSDOF 5
ENDMDL
MODEL 2
REMARK VINA RESULT: -7.693594605      1.476      1.940
REMARK  5 active torsions:
REMARK  status: ('A' for Active; 'I' for Inactive)
REMARK    1  A    between atoms: N1_1  and  C1_4 
REMARK    2  A    between atoms: C2_12  and  N4_13 
REMARK    3  A    between atoms: N4_13  and  C3_15 
REMARK    4  A    between atoms: C3_15  and  C4_16 
REMARK    5  A    between atoms: C4_16  and  C5_17 
ROOT
HETATM    1  N4  UNL     1      -2.056   3.685  13.620  1.00  0.00    -0.373 N 
ATOM      2  H4  UNL     1      -1.039   3.760  13.582  1.00  0.00     0.161 HD
ENDROOT
BRANCH   1   3
HETATM    3  C2  UNL     1      -2.690   3.268  12.548  1.00  0.00     0.157 C 
HETATM    4  C1  UNL     1      -3.049   4.128  11.461  1.00  0.00     0.155 C 
HETATM    5  N2  UNL     1      -3.726   3.482  10.400  1.00  0.00    -0.250 N 
HETATM    6  S1  UNL     1      -4.235   1.956  11.088  1.00  0.00     0.326 S 
ATOM      7  H2  UNL     1      -3.882   3.826   9.453  1.00  0.00     0.182 HD
HETATM    8  O1  UNL     1      -5.619   2.063  11.630  1.00  0.00    -0.182 OA
HETATM    9  O2  UNL     1      -4.038   0.834  10.143  1.00  0.00    -0.182 OA
HETATM   10  N3  UNL     1      -3.065   1.920  12.389  1.00  0.00    -0.250 N 
ATOM     11  H3  UNL     1      -2.733   1.110  12.912  1.00  0.00     0.182 HD
BRANCH   4  12
HETATM   12  N1  UNL     1      -2.793   5.416  11.406  1.00  0.00    -0.382 N 
ATOM     13  H12 UNL     1      -2.916   6.001  10.579  1.00  0.00     0.157 HD
ATOM     14  H11 UNL     1      -2.445   5.912  12.227  1.00  0.00     0.157 HD
ENDBRANCH   4  12
ENDBRANCH   1   3
BRANCH   1  15
HETATM   15  C3  UNL     1      -2.718   4.039  14.841  1.00  0.00     0.121 C 
BRANCH  15  16
HETATM   16  C4  UNL     1      -4.192   4.284  14.649  1.00  0.00     0.027 C 
BRANCH  16  17
HETATM   17  C5  UNL     1      -5.042   3.453  15.586  1.00  0.00     0.021 C 
HETATM   18  C6  UNL     1      -5.054   1.995  15.177  1.00  0.00     0.007 C 
HETATM   19  C7  UNL     1      -4.566   1.117  16.279  1.00  0.00     0.000 C 
HETATM   20  C8  UNL     1      -5.660   0.342  16.962  1.00  0.00     0.000 C 
HETATM   21  C9  UNL     1      -6.921   1.146  17.138  1.00  0.00     0.000 C 
HETATM   22  C10 UNL     1      -6.606   2.498  17.782  1.00  0.00     0.003 C 
HETATM   23  C11 UNL     1      -7.132   3.636  16.993  1.00  0.00     0.037 C 
HETATM   24  C12 UNL     1      -6.419   3.994  15.757  1.00  0.00     0.174 C 
HETATM   25  F1  UNL     1      -6.311   5.393  15.718  1.00  0.00    -0.249 F 
ENDBRANCH  16  17
ENDBRANCH  15  16
ENDBRANCH   1  15
TORSDOF 5
ENDMDL
MODEL 3
REMARK VINA RESULT: -7.459368182      3.061      3.777
REMARK  5 active torsions:
REMARK  status: ('A' for Active; 'I' for Inactive)
REMARK    1  A    between atoms: N1_1  and  C1_4 
REMARK    2  A    between atoms: C2_12  and  N4_13 
REMARK    3  A    between atoms: N4_13  and  C3_15 
REMARK    4  A    between atoms: C3_15  and  C4_16 
REMARK    5  A    between atoms: C4_16  and  C5_17 
ROOT
HETATM    1  N4  UNL     1      -3.849   2.575  11.477  1.00  0.00    -0.373 N 
ATOM      2  H4  UNL     1      -4.042   2.584  10.476  1.00  0.00     0.161 HD
ENDROOT
BRANCH   1   3
HETATM    3  C2  UNL     1      -2.827   3.271  11.921  1.00  0.00     0.157 C 
HETATM    4  C1  UNL     1      -1.471   2.822  11.833  1.00  0.00     0.155 C 
HETATM    5  N2  UNL     1      -0.519   3.722  12.369  1.00  0.00    -0.250 N 
HETATM    6  S1  UNL     1      -1.474   4.828  13.331  1.00  0.00     0.326 S 
ATOM      7  H2  UNL     1       0.491   3.725  12.229  1.00  0.00     0.182 HD
HETATM    8  O1  UNL     1      -1.534   4.371  14.748  1.00  0.00    -0.182 OA
HETATM    9  O2  UNL     1      -1.029   6.229  13.162  1.00  0.00    -0.182 OA
HETATM   10  N3  UNL     1      -2.999   4.531  12.525  1.00  0.00    -0.250 N 
ATOM     11  H3  UNL     1      -3.822   5.133  12.498  1.00  0.00     0.182 HD
BRANCH   4  12
HETATM   12  N1  UNL     1      -1.090   1.679  11.308  1.00  0.00    -0.382 N 
ATOM     13  H12 UNL     1      -0.965   0.810  11.827  1.00  0.00     0.157 HD
ATOM     14  H11 UNL     1      -0.891   1.608  10.310  1.00  0.00     0.157 HD
ENDBRANCH   4  12
ENDBRANCH   1   3
BRANCH   1  15
HETATM   15  C3  UNL     1      -4.707   1.802  12.326  1.00  0.00     0.121 C 
BRANCH  15  16
HETATM   16  C4  UNL     1      -4.043   1.416  13.622  1.00  0.00     0.027 C 
BRANCH  16  17
HETATM   17  C5  UNL     1      -4.940   1.643  14.820  1.00  0.00     0.021 C 
HETATM   18  C6  UNL     1      -4.894   3.085  15.281  1.00  0.00     0.007 C 
HETATM   19  C7  UNL     1      -6.252   3.701  15.273  1.00  0.00     0.000 C 
HETATM   20  C8  UNL     1      -6.842   3.880  16.646  1.00  0.00     0.000 C 
HETATM   21  C9  UNL     1      -6.540   2.724  17.565  1.00  0.00     0.000 C 
HETATM   22  C10 UNL     1      -6.900   1.399  16.889  1.00  0.00     0.003 C 
HETATM   23  C11 UNL     1      -5.769   0.443  16.882  1.00  0.00     0.037 C 
HETATM   24  C12 UNL     1      -4.671   0.694  15.936  1.00  0.00     0.174 C 
HETATM   25  F1  UNL     1      -4.327  -0.533  15.348  1.00  0.00    -0.249 F 
ENDBRANCH  16  17
ENDBRANCH  15  16
ENDBRANCH   1  15
TORSDOF 5
ENDMDL
MODEL 4
REMARK VINA RESULT: -7.355646831      1.649      1.820
REMARK  5 active torsions:
REMARK  status: ('A' for Active; 'I' for Inactive)
REMARK    1  A    between atoms: N1_1  and  C1_4 
REMARK    2  A    between atoms: C2_12  and  N4_13 
REMARK    3  A    between atoms: N4_13  and  C3_15 
REMARK    4  A    between atoms: C3_15  and  C4_16 
REMARK    5  A    between atoms: C4_16  and  C5_17 
ROOT
HETATM    1  N4  UNL     1      -3.248   5.073  12.388  1.00  0.00    -0.373 N 
ATOM      2  H4  UNL     1      -3.056   5.984  11.971  1.00  0.00     0.161 HD
ENDROOT
BRANCH   1   3
HETATM    3  C2  UNL     1      -2.421   4.084  12.130  1.00  0.00     0.157 C 
HETATM    4  C1  UNL     1      -1.005   4.175  12.316  1.00  0.00     0.155 C 
HETATM    5  N2  UNL     1      -0.293   2.998  11.980  1.00  0.00    -0.250 N 
HETATM    6  S1  UNL     1      -1.436   2.063  11.042  1.00  0.00     0.326 S 
ATOM      7  H2  UNL     1       0.666   2.752  12.228  1.00  0.00     0.182 HD
HETATM    8  O1  UNL     1      -1.263   2.335   9.587  1.00  0.00    -0.182 OA
HETATM    9  O2  UNL     1      -1.398   0.628  11.401  1.00  0.00    -0.182 OA
HETATM   10  N3  UNL     1      -2.880   2.845  11.645  1.00  0.00    -0.250 N 
ATOM     11  H3  UNL     1      -3.835   2.485  11.646  1.00  0.00     0.182 HD
BRANCH   4  12
HETATM   12  N1  UNL     1      -0.370   5.237  12.758  1.00  0.00    -0.382 N 
ATOM     13  H12 UNL     1      -0.464   5.625  13.697  1.00  0.00     0.157 HD
ATOM     14  H11 UNL     1       0.275   5.745  12.153  1.00  0.00     0.157 HD
ENDBRANCH   4  12
ENDBRANCH   1   3
BRANCH   1  15
HETATM   15  C3  UNL     1      -4.404   4.938  13.224  1.00  0.00     0.121 C 
BRANCH  15  16
HETATM   16  C4  UNL     1      -4.060   4.939  14.691  1.00  0.00     0.027 C 
BRANCH  16  17
HETATM   17  C5  UNL     1      -4.821   3.883  15.463  1.00  0.00     0.021 C 
HETATM   18  C6  UNL     1      -4.561   2.497  14.912  1.00  0.00     0.007 C 
HETATM   19  C7  UNL     1      -4.011   1.590  15.960  1.00  0.00     0.000 C 
HETATM   20  C8  UNL     1      -5.005   0.579  16.465  1.00  0.00     0.000 C 
HETATM   21  C9  UNL     1      -6.393   1.148  16.608  1.00  0.00     0.000 C 
HETATM   22  C10 UNL     1      -6.354   2.452  17.408  1.00  0.00     0.003 C 
HETATM   23  C11 UNL     1      -7.006   3.573  16.693  1.00  0.00     0.037 C 
HETATM   24  C12 UNL     1      -6.278   4.176  15.565  1.00  0.00     0.174 C 
HETATM   25  F1  UNL     1      -6.404   5.569  15.675  1.00  0.00    -0.249 F 
ENDBRANCH  16  17
ENDBRANCH  15  16
ENDBRANCH   1  15
TORSDOF 5
ENDMDL
MODEL 5
REMARK VINA RESULT: -7.298493782      3.631      5.931
REMARK  5 active torsions:
REMARK  status: ('A' for Active; 'I' for Inactive)
REMARK    1  A    between atoms: N1_1  and  C1_4 
REMARK    2  A    between atoms: C2_12  and  N4_13 
REMARK    3  A    between atoms: N4_13  and  C3_15 
REMARK    4  A    between atoms: C3_15  and  C4_16 
REMARK    5  A    between atoms: C4_16  and  C5_17 
ROOT
HETATM    1  N4  UNL     1      -6.512   3.882  15.941  1.00  0.00    -0.373 N 
ATOM      2  H4  UNL     1      -7.199   4.196  16.627  1.00  0.00     0.161 HD
ENDROOT
BRANCH   1   3
HETATM    3  C2  UNL     1      -5.999   2.681  16.079  1.00  0.00     0.157 C 
HETATM    4  C1  UNL     1      -6.053   1.938  17.302  1.00  0.00     0.155 C 
HETATM    5  N2  UNL     1      -5.441   0.663  17.241  1.00  0.00    -0.250 N 
HETATM    6  S1  UNL     1      -4.470   0.727  15.787  1.00  0.00     0.326 S 
ATOM      7  H2  UNL     1      -5.541  -0.113  17.895  1.00  0.00     0.182 HD
HETATM    8  O1  UNL     1      -3.078   1.151  16.106  1.00  0.00    -0.182 OA
HETATM    9  O2  UNL     1      -4.560  -0.530  15.011  1.00  0.00    -0.182 OA
HETATM   10  N3  UNL     1      -5.348   2.029  15.015  1.00  0.00    -0.250 N 
ATOM     11  H3  UNL     1      -5.380   2.261  14.022  1.00  0.00     0.182 HD
BRANCH   4  12
HETATM   12  N1  UNL     1      -6.612   2.360  18.414  1.00  0.00    -0.382 N 
ATOM     13  H12 UNL     1      -6.200   2.276  19.343  1.00  0.00     0.157 HD
ATOM     14  H11 UNL     1      -7.527   2.810  18.396  1.00  0.00     0.157 HD
ENDBRANCH   4  12
ENDBRANCH   1   3
BRANCH   1  15
HETATM   15  C3  UNL     1      -6.159   4.774  14.877  1.00  0.00     0.121 C 
BRANCH  15  16
HETATM   16  C4  UNL     1      -4.917   5.572  15.179  1.00  0.00     0.027 C 
BRANCH  16  17
HETATM   17  C5  UNL     1      -3.946   5.589  14.019  1.00  0.00     0.021 C 
HETATM   18  C6  UNL     1      -4.664   5.756  12.696  1.00  0.00     0.007 C 
HETATM   19  C7  UNL     1      -4.176   6.958  11.961  1.00  0.00     0.000 C 
HETATM   20  C8  UNL     1      -3.294   6.630  10.786  1.00  0.00     0.000 C 
HETATM   21  C9  UNL     1      -2.360   5.481  11.063  1.00  0.00     0.000 C 
HETATM   22  C10 UNL     1      -1.607   5.710  12.375  1.00  0.00     0.003 C 
HETATM   23  C11 UNL     1      -1.745   4.570  13.312  1.00  0.00     0.037 C 
HETATM   24  C12 UNL     1      -3.031   4.414  14.009  1.00  0.00     0.174 C 
HETATM   25  F1  UNL     1      -2.752   4.108  15.350  1.00  0.00    -0.249 F 
ENDBRANCH  16  17
ENDBRANCH  15  16
ENDBRANCH   1  15
TORSDOF 5
ENDMDL
