MODEL 1
REMARK VINA RESULT: -7.083926082      0.000      0.000
REMARK  8 active torsions:
REMARK  status: ('A' for Active; 'I' for Inactive)
REMARK    1  A    between atoms: C2_2  and  C3_3 
REMARK    2  A    between atoms: C3_3  and  N1_4 
REMARK    3  A    between atoms: N1_4  and  C4_6 
REMARK    4  A    between atoms: C4_6  and  N2_8 
REMARK       I    between atoms: N2_8  and  C5_10 
REMARK       I    between atoms: C5_10  and  N4_15 
REMARK    5  A    between atoms: N3_11  and  O1_13 
REMARK    6  A    between atoms: N4_15  and  C6_17 
REMARK    7  A    between atoms: C6_17  and  C8_19 
REMARK    8  A    between atoms: C8_19  and  N5_20 
ROOT
HETATM    1  N2  UNL     1     -39.988 -60.952 -45.417  1.00  0.00    -0.165 N 
ATOM      2  H2  UNL     1     -40.548 -61.780 -45.622  1.00  0.00     0.186 HD
HETATM    3  C5  UNL     1     -39.946 -59.866 -46.323  1.00  0.00     0.700 C 
HETATM    4  N3  UNL     1     -40.976 -59.113 -46.518  1.00  0.00    -0.099 N 
ATOM      5  H3  UNL     1     -41.820 -59.337 -45.990  1.00  0.00     0.213 HD
HETATM    6  N4  UNL     1     -38.760 -59.592 -47.019  1.00  0.00    -0.218 N 
ATOM      7  H4  UNL     1     -38.183 -58.812 -46.704  1.00  0.00     0.178 HD
ENDROOT
BRANCH   1   8
HETATM    8  C4  UNL     1     -39.237 -60.866 -44.219  1.00  0.00     0.186 C 
HETATM    9  S1  UNL     1     -40.003 -60.839 -42.795  1.00  0.00    -0.040 SA
BRANCH   8  10
HETATM   10  N1  UNL     1     -37.823 -60.803 -44.293  1.00  0.00    -0.367 N 
ATOM     11  H1  UNL     1     -37.367 -60.448 -45.134  1.00  0.00     0.161 HD
BRANCH  10  12
HETATM   12  C3  UNL     1     -37.033 -61.246 -43.167  1.00  0.00     0.121 C 
BRANCH  12  13
HETATM   13  C2  UNL     1     -35.691 -61.702 -43.707  1.00  0.00     0.015 C 
HETATM   14  C1  UNL     1     -35.336 -60.779 -44.866  1.00  0.00     0.006 C 
ENDBRANCH  12  13
ENDBRANCH  10  12
ENDBRANCH   8  10
ENDBRANCH   1   8
BRANCH   4  15
HETATM   15  O1  UNL     1     -41.040 -58.058 -47.356  1.00  0.00    -0.276 OA
ATOM     16  H1  UNL     1     -41.390 -57.199 -47.148  1.00  0.00     0.245 HD
ENDBRANCH   4  15
BRANCH   6  17
HETATM   17  C6  UNL     1     -38.316 -60.352 -48.153  1.00  0.00     0.113 C 
HETATM   18  C7  UNL     1     -36.832 -60.669 -47.912  1.00  0.00     0.034 C 
BRANCH  17  19
HETATM   19  C8  UNL     1     -38.488 -59.562 -49.415  1.00  0.00     0.142 C 
BRANCH  19  20
HETATM   20  N5  UNL     1     -39.350 -60.169 -50.366  1.00  0.00    -0.410 N 
HETATM   21  C9  UNL     1     -40.634 -60.556 -49.885  1.00  0.00     0.117 C 
HETATM   22  C10 UNL     1     -41.616 -60.249 -51.027  1.00  0.00     0.019 C 
HETATM   23  C11 UNL     1     -40.855 -60.469 -52.339  1.00  0.00     0.003 C 
HETATM   24  C12 UNL     1     -39.852 -61.614 -52.182  1.00  0.00     0.019 C 
HETATM   25  C13 UNL     1     -38.751 -61.081 -51.274  1.00  0.00     0.117 C 
ENDBRANCH  19  20
ENDBRANCH  17  19
ENDBRANCH   6  17
TORSDOF 8
ENDMDL
MODEL 2
REMARK VINA RESULT: -7.050347089      0.435      1.212
REMARK  8 active torsions:
REMARK  status: ('A' for Active; 'I' for Inactive)
REMARK    1  A    between atoms: C2_2  and  C3_3 
REMARK    2  A    between atoms: C3_3  and  N1_4 
REMARK    3  A    between atoms: N1_4  and  C4_6 
REMARK    4  A    between atoms: C4_6  and  N2_8 
REMARK       I    between atoms: N2_8  and  C5_10 
REMARK       I    between atoms: C5_10  and  N4_15 
REMARK    5  A    between atoms: N3_11  and  O1_13 
REMARK    6  A    between atoms: N4_15  and  C6_17 
REMARK    7  A    between atoms: C6_17  and  C8_19 
REMARK    8  A    between atoms: C8_19  and  N5_20 
ROOT
HETATM    1  N2  UNL     1     -39.980 -60.992 -45.392  1.00  0.00    -0.165 N 
ATOM      2  H2  UNL     1     -40.539 -61.819 -45.601  1.00  0.00     0.186 HD
HETATM    3  C5  UNL     1     -39.931 -59.906 -46.299  1.00  0.00     0.700 C 
HETATM    4  N3  UNL     1     -40.958 -59.153 -46.503  1.00  0.00    -0.099 N 
ATOM      5  H3  UNL     1     -41.806 -59.376 -45.981  1.00  0.00     0.213 HD
HETATM    6  N4  UNL     1     -38.739 -59.633 -46.986  1.00  0.00    -0.218 N 
ATOM      7  H4  UNL     1     -38.164 -58.854 -46.667  1.00  0.00     0.178 HD
ENDROOT
BRANCH   1   8
HETATM    8  C4  UNL     1     -39.238 -60.905 -44.188  1.00  0.00     0.186 C 
HETATM    9  S1  UNL     1     -40.015 -60.885 -42.770  1.00  0.00    -0.040 SA
BRANCH   8  10
HETATM   10  N1  UNL     1     -37.825 -60.835 -44.252  1.00  0.00    -0.367 N 
ATOM     11  H1  UNL     1     -37.365 -60.444 -45.075  1.00  0.00     0.161 HD
BRANCH  10  12
HETATM   12  C3  UNL     1     -37.039 -61.322 -43.141  1.00  0.00     0.121 C 
BRANCH  12  13
HETATM   13  C2  UNL     1     -35.702 -61.775 -43.695  1.00  0.00     0.015 C 
HETATM   14  C1  UNL     1     -35.333 -60.813 -44.818  1.00  0.00     0.006 C 
ENDBRANCH  12  13
ENDBRANCH  10  12
ENDBRANCH   8  10
ENDBRANCH   1   8
BRANCH   4  15
HETATM   15  O1  UNL     1     -41.015 -58.098 -47.343  1.00  0.00    -0.276 OA
ATOM     16  H1  UNL     1     -40.850 -57.192 -47.113  1.00  0.00     0.245 HD
ENDBRANCH   4  15
BRANCH   6  17
HETATM   17  C6  UNL     1     -38.286 -60.395 -48.116  1.00  0.00     0.113 C 
HETATM   18  C7  UNL     1     -36.785 -60.645 -47.900  1.00  0.00     0.034 C 
BRANCH  17  19
HETATM   19  C8  UNL     1     -38.518 -59.636 -49.387  1.00  0.00     0.142 C 
BRANCH  19  20
HETATM   20  N5  UNL     1     -39.310 -60.330 -50.340  1.00  0.00    -0.410 N 
HETATM   21  C9  UNL     1     -38.804 -60.354 -51.672  1.00  0.00     0.117 C 
HETATM   22  C10 UNL     1     -39.129 -61.754 -52.214  1.00  0.00     0.019 C 
HETATM   23  C11 UNL     1     -40.446 -62.189 -51.563  1.00  0.00     0.003 C 
HETATM   24  C12 UNL     1     -41.357 -60.977 -51.354  1.00  0.00     0.019 C 
HETATM   25  C13 UNL     1     -40.716 -60.165 -50.236  1.00  0.00     0.117 C 
ENDBRANCH  19  20
ENDBRANCH  17  19
ENDBRANCH   6  17
TORSDOF 8
ENDMDL
MODEL 3
REMARK VINA RESULT: -6.906157927      2.202      6.680
REMARK  8 active torsions:
REMARK  status: ('A' for Active; 'I' for Inactive)
REMARK    1  A    between atoms: C2_2  and  C3_3 
REMARK    2  A    between atoms: C3_3  and  N1_4 
REMARK    3  A    between atoms: N1_4  and  C4_6 
REMARK    4  A    between atoms: C4_6  and  N2_8 
REMARK       I    between atoms: N2_8  and  C5_10 
REMARK       I    between atoms: C5_10  and  N4_15 
REMARK    5  A    between atoms: N3_11  and  O1_13 
REMARK    6  A    between atoms: N4_15  and  C6_17 
REMARK    7  A    between atoms: C6_17  and  C8_19 
REMARK    8  A    between atoms: C8_19  and  N5_20 
ROOT
HETATM    1  N2  UNL     1     -38.465 -59.576 -48.517  1.00  0.00    -0.165 N 
ATOM      2  H2  UNL     1     -37.579 -59.139 -48.262  1.00  0.00     0.186 HD
HETATM    3  C5  UNL     1     -39.627 -59.360 -47.739  1.00  0.00     0.700 C 
HETATM    4  N3  UNL     1     -40.211 -58.210 -47.708  1.00  0.00    -0.099 N 
ATOM      5  H3  UNL     1     -39.797 -57.465 -48.269  1.00  0.00     0.213 HD
HETATM    6  N4  UNL     1     -40.165 -60.418 -46.991  1.00  0.00    -0.218 N 
ATOM      7  H4  UNL     1     -40.996 -60.890 -47.349  1.00  0.00     0.178 HD
ENDROOT
BRANCH   1   8
HETATM    8  C4  UNL     1     -38.557 -60.412 -49.658  1.00  0.00     0.186 C 
HETATM    9  S1  UNL     1     -37.226 -60.749 -50.511  1.00  0.00    -0.040 SA
BRANCH   8  10
HETATM   10  N1  UNL     1     -39.820 -60.935 -50.030  1.00  0.00    -0.367 N 
ATOM     11  H1  UNL     1     -40.564 -61.025 -49.338  1.00  0.00     0.161 HD
BRANCH  10  12
HETATM   12  C3  UNL     1     -40.045 -61.340 -51.399  1.00  0.00     0.121 C 
BRANCH  12  13
HETATM   13  C2  UNL     1     -41.153 -60.465 -51.954  1.00  0.00     0.015 C 
HETATM   14  C1  UNL     1     -42.052 -60.083 -50.785  1.00  0.00     0.006 C 
ENDBRANCH  12  13
ENDBRANCH  10  12
ENDBRANCH   8  10
ENDBRANCH   1   8
BRANCH   4  15
HETATM   15  O1  UNL     1     -41.318 -57.901 -47.002  1.00  0.00    -0.276 OA
ATOM     16  H1  UNL     1     -41.989 -57.279 -47.258  1.00  0.00     0.245 HD
ENDBRANCH   4  15
BRANCH   6  17
HETATM   17  C6  UNL     1     -39.607 -60.871 -45.748  1.00  0.00     0.113 C 
HETATM   18  C7  UNL     1     -40.661 -60.588 -44.667  1.00  0.00     0.034 C 
BRANCH  17  19
HETATM   19  C8  UNL     1     -38.333 -60.140 -45.448  1.00  0.00     0.142 C 
BRANCH  19  20
HETATM   20  N5  UNL     1     -37.475 -60.820 -44.543  1.00  0.00    -0.410 N 
HETATM   21  C9  UNL     1     -37.711 -60.576 -43.159  1.00  0.00     0.117 C 
HETATM   22  C10 UNL     1     -37.485 -61.924 -42.456  1.00  0.00     0.019 C 
HETATM   23  C11 UNL     1     -36.393 -62.658 -43.241  1.00  0.00     0.003 C 
HETATM   24  C12 UNL     1     -35.381 -61.656 -43.800  1.00  0.00     0.019 C 
HETATM   25  C13 UNL     1     -36.107 -60.908 -44.911  1.00  0.00     0.117 C 
ENDBRANCH  19  20
ENDBRANCH  17  19
ENDBRANCH   6  17
TORSDOF 8
ENDMDL
MODEL 4
REMARK VINA RESULT: -6.635597639      1.914      2.799
REMARK  8 active torsions:
REMARK  status: ('A' for Active; 'I' for Inactive)
REMARK    1  A    between atoms: C2_2  and  C3_3 
REMARK    2  A    between atoms: C3_3  and  N1_4 
REMARK    3  A    between atoms: N1_4  and  C4_6 
REMARK    4  A    between atoms: C4_6  and  N2_8 
REMARK       I    between atoms: N2_8  and  C5_10 
REMARK       I    between atoms: C5_10  and  N4_15 
REMARK    5  A    between atoms: N3_11  and  O1_13 
REMARK    6  A    between atoms: N4_15  and  C6_17 
REMARK    7  A    between atoms: C6_17  and  C8_19 
REMARK    8  A    between atoms: C8_19  and  N5_20 
ROOT
HETATM    1  N2  UNL     1     -38.961 -62.150 -43.305  1.00  0.00    -0.165 N 
ATOM      2  H2  UNL     1     -38.290 -62.892 -43.503  1.00  0.00     0.186 HD
HETATM    3  C5  UNL     1     -40.105 -61.975 -44.121  1.00  0.00     0.700 C 
HETATM    4  N3  UNL     1     -41.066 -62.836 -44.124  1.00  0.00    -0.099 N 
ATOM      5  H3  UNL     1     -40.964 -63.646 -43.512  1.00  0.00     0.213 HD
HETATM    6  N4  UNL     1     -40.204 -60.840 -44.938  1.00  0.00    -0.218 N 
ATOM      7  H4  UNL     1     -40.815 -60.079 -44.638  1.00  0.00     0.178 HD
ENDROOT
BRANCH   1   8
HETATM    8  C4  UNL     1     -38.769 -61.273 -42.209  1.00  0.00     0.186 C 
HETATM    9  S1  UNL     1     -39.952 -60.257 -41.781  1.00  0.00    -0.040 SA
BRANCH   8  10
HETATM   10  N1  UNL     1     -37.537 -61.302 -41.509  1.00  0.00    -0.367 N 
ATOM     11  H1  UNL     1     -37.429 -60.784 -40.637  1.00  0.00     0.161 HD
BRANCH  10  12
HETATM   12  C3  UNL     1     -36.436 -62.072 -42.042  1.00  0.00     0.121 C 
BRANCH  12  13
HETATM   13  C2  UNL     1     -35.884 -61.311 -43.231  1.00  0.00     0.015 C 
HETATM   14  C1  UNL     1     -35.087 -62.303 -44.068  1.00  0.00     0.006 C 
ENDBRANCH  12  13
ENDBRANCH  10  12
ENDBRANCH   8  10
ENDBRANCH   1   8
BRANCH   4  15
HETATM   15  O1  UNL     1     -42.194 -62.764 -44.861  1.00  0.00    -0.276 OA
ATOM     16  H1  UNL     1     -43.077 -62.914 -44.546  1.00  0.00     0.245 HD
ENDBRANCH   4  15
BRANCH   6  17
HETATM   17  C6  UNL     1     -39.492 -60.692 -46.176  1.00  0.00     0.113 C 
HETATM   18  C7  UNL     1     -38.120 -60.095 -45.822  1.00  0.00     0.034 C 
BRANCH  17  19
HETATM   19  C8  UNL     1     -40.238 -59.784 -47.106  1.00  0.00     0.142 C 
BRANCH  19  20
HETATM   20  N5  UNL     1     -39.938 -59.987 -48.479  1.00  0.00    -0.410 N 
HETATM   21  C9  UNL     1     -38.818 -59.265 -48.985  1.00  0.00     0.117 C 
HETATM   22  C10 UNL     1     -38.114 -60.221 -49.961  1.00  0.00     0.019 C 
HETATM   23  C11 UNL     1     -39.205 -61.087 -50.600  1.00  0.00     0.003 C 
HETATM   24  C12 UNL     1     -40.491 -60.276 -50.770  1.00  0.00     0.019 C 
HETATM   25  C13 UNL     1     -41.043 -60.074 -49.364  1.00  0.00     0.117 C 
ENDBRANCH  19  20
ENDBRANCH  17  19
ENDBRANCH   6  17
TORSDOF 8
ENDMDL
MODEL 5
REMARK VINA RESULT: -6.388916785      2.255      3.391
REMARK  8 active torsions:
REMARK  status: ('A' for Active; 'I' for Inactive)
REMARK    1  A    between atoms: C2_2  and  C3_3 
REMARK    2  A    between atoms: C3_3  and  N1_4 
REMARK    3  A    between atoms: N1_4  and  C4_6 
REMARK    4  A    between atoms: C4_6  and  N2_8 
REMARK       I    between atoms: N2_8  and  C5_10 
REMARK       I    between atoms: C5_10  and  N4_15 
REMARK    5  A    between atoms: N3_11  and  O1_13 
REMARK    6  A    between atoms: N4_15  and  C6_17 
REMARK    7  A    between atoms: C6_17  and  C8_19 
REMARK    8  A    between atoms: C8_19  and  N5_20 
ROOT
HETATM    1  N2  UNL     1     -40.896 -61.362 -46.081  1.00  0.00    -0.165 N 
ATOM      2  H2  UNL     1     -41.441 -61.955 -46.707  1.00  0.00     0.186 HD
HETATM    3  C5  UNL     1     -40.362 -60.132 -46.534  1.00  0.00     0.700 C 
HETATM    4  N3  UNL     1     -41.125 -59.129 -46.810  1.00  0.00    -0.099 N 
ATOM      5  H3  UNL     1     -42.129 -59.263 -46.686  1.00  0.00     0.213 HD
HETATM    6  N4  UNL     1     -38.974 -59.993 -46.679  1.00  0.00    -0.218 N 
ATOM      7  H4  UNL     1     -38.462 -59.476 -45.965  1.00  0.00     0.178 HD
ENDROOT
BRANCH   1   8
HETATM    8  C4  UNL     1     -40.658 -61.752 -44.740  1.00  0.00     0.186 C 
HETATM    9  S1  UNL     1     -39.676 -60.865 -43.811  1.00  0.00    -0.040 SA
BRANCH   8  10
HETATM   10  N1  UNL     1     -41.288 -62.918 -44.238  1.00  0.00    -0.367 N 
ATOM     11  H1  UNL     1     -41.206 -63.163 -43.251  1.00  0.00     0.161 HD
BRANCH  10  12
HETATM   12  C3  UNL     1     -42.046 -63.758 -45.137  1.00  0.00     0.121 C 
BRANCH  12  13
HETATM   13  C2  UNL     1     -42.815 -64.753 -44.288  1.00  0.00     0.015 C 
HETATM   14  C1  UNL     1     -42.474 -66.144 -44.807  1.00  0.00     0.006 C 
ENDBRANCH  12  13
ENDBRANCH  10  12
ENDBRANCH   8  10
ENDBRANCH   1   8
BRANCH   4  15
HETATM   15  O1  UNL     1     -40.718 -57.919 -47.247  1.00  0.00    -0.276 OA
ATOM     16  H1  UNL     1     -40.002 -57.408 -46.890  1.00  0.00     0.245 HD
ENDBRANCH   4  15
BRANCH   6  17
HETATM   17  C6  UNL     1     -38.236 -60.541 -47.782  1.00  0.00     0.113 C 
HETATM   18  C7  UNL     1     -36.765 -60.591 -47.342  1.00  0.00     0.034 C 
BRANCH  17  19
HETATM   19  C8  UNL     1     -38.394 -59.680 -48.999  1.00  0.00     0.142 C 
BRANCH  19  20
HETATM   20  N5  UNL     1     -39.047 -60.323 -50.084  1.00  0.00    -0.410 N 
HETATM   21  C9  UNL     1     -38.349 -60.310 -51.326  1.00  0.00     0.117 C 
HETATM   22  C10 UNL     1     -38.610 -61.684 -51.964  1.00  0.00     0.019 C 
HETATM   23  C11 UNL     1     -40.015 -62.116 -51.531  1.00  0.00     0.003 C 
HETATM   24  C12 UNL     1     -40.930 -60.894 -51.412  1.00  0.00     0.019 C 
HETATM   25  C13 UNL     1     -40.450 -60.135 -50.182  1.00  0.00     0.117 C 
ENDBRANCH  19  20
ENDBRANCH  17  19
ENDBRANCH   6  17
TORSDOF 8
ENDMDL
