MODEL 1
REMARK VINA RESULT: -7.044572108      0.000      0.000
REMARK  0 active torsions:
REMARK  status: ('A' for Active; 'I' for Inactive)
REMARK       I    between atoms: C3_5  and  N2_6 
ROOT
HETATM    1  C1  UNL     1      49.731   3.029  22.170  1.00  0.00     0.047 C 
HETATM    2  C2  UNL     1      49.116   4.052  21.644  1.00  0.00     0.084 C 
HETATM    3  N1  UNL     1      47.803   4.373  22.152  1.00  0.00    -0.188 N 
ATOM      4  H1  UNL     1      47.576   3.982  23.067  1.00  0.00     0.184 HD
HETATM    5  C3  UNL     1      46.781   5.161  21.550  1.00  0.00     0.694 C 
HETATM    6  N2  UNL     1      45.532   5.265  22.223  1.00  0.00    -0.226 N 
HETATM    7  C4  UNL     1      44.283   5.463  21.512  1.00  0.00     0.168 C 
HETATM    8  C5  UNL     1      45.472   5.175  23.667  1.00  0.00     0.168 C 
HETATM    9  N3  UNL     1      46.842   5.815  20.433  1.00  0.00    -0.022 N 
ATOM     10  H3  UNL     1      45.980   6.309  20.202  1.00  0.00     0.203 HD
HETATM   11  C6  UNL     1      47.871   5.982  19.463  1.00  0.00     0.692 C 
HETATM   12  N4  UNL     1      47.571   6.674  18.409  1.00  0.00    -0.234 N 
ATOM     13  H41 UNL     1      48.308   6.794  17.714  1.00  0.00     0.174 HD
ATOM     14  H42 UNL     1      46.620   7.039  18.369  1.00  0.00     0.174 HD
HETATM   15  N5  UNL     1      49.219   5.464  19.518  1.00  0.00    -0.175 N 
ATOM     16  H5  UNL     1      49.796   5.621  18.691  1.00  0.00     0.186 HD
HETATM   17  C7  UNL     1      49.838   4.759  20.592  1.00  0.00     0.141 C 
HETATM   18  N6  UNL     1      51.120   4.762  20.622  1.00  0.00    -0.383 N 
ATOM     19  H61 UNL     1      51.626   5.257  19.886  1.00  0.00     0.157 HD
ATOM     20  H62 UNL     1      51.563   4.258  21.390  1.00  0.00     0.157 HD
ENDROOT
TORSDOF 0
ENDMDL
MODEL 2
REMARK VINA RESULT: -6.482186579      2.317      4.058
REMARK  0 active torsions:
REMARK  status: ('A' for Active; 'I' for Inactive)
REMARK       I    between atoms: C3_5  and  N2_6 
ROOT
HETATM    1  C1  UNL     1      50.858   5.246  19.896  1.00  0.00     0.047 C 
HETATM    2  C2  UNL     1      49.641   5.710  19.973  1.00  0.00     0.084 C 
HETATM    3  N1  UNL     1      49.437   7.102  19.647  1.00  0.00    -0.188 N 
ATOM      4  H1  UNL     1      50.179   7.540  19.100  1.00  0.00     0.184 HD
HETATM    5  C3  UNL     1      48.341   7.947  19.984  1.00  0.00     0.694 C 
HETATM    6  N2  UNL     1      48.412   9.317  19.609  1.00  0.00    -0.226 N 
HETATM    7  C4  UNL     1      47.754  10.363  20.369  1.00  0.00     0.168 C 
HETATM    8  C5  UNL     1      49.158   9.713  18.433  1.00  0.00     0.168 C 
HETATM    9  N3  UNL     1      47.254   7.619  20.608  1.00  0.00    -0.022 N 
ATOM     10  H3  UNL     1      46.609   8.398  20.739  1.00  0.00     0.203 HD
HETATM   11  C6  UNL     1      46.779   6.390  21.150  1.00  0.00     0.692 C 
HETATM   12  N4  UNL     1      45.645   6.428  21.774  1.00  0.00    -0.234 N 
ATOM     13  H41 UNL     1      45.305   5.547  22.161  1.00  0.00     0.174 HD
ATOM     14  H42 UNL     1      45.190   7.340  21.821  1.00  0.00     0.174 HD
HETATM   15  N5  UNL     1      47.424   5.098  21.083  1.00  0.00    -0.175 N 
ATOM     16  H5  UNL     1      46.970   4.342  21.597  1.00  0.00     0.186 HD
HETATM   17  C7  UNL     1      48.619   4.754  20.384  1.00  0.00     0.141 C 
HETATM   18  N6  UNL     1      48.786   3.515  20.102  1.00  0.00    -0.383 N 
ATOM     19  H61 UNL     1      48.071   2.846  20.389  1.00  0.00     0.157 HD
ATOM     20  H62 UNL     1      49.641   3.269  19.602  1.00  0.00     0.157 HD
ENDROOT
TORSDOF 0
ENDMDL
MODEL 3
REMARK VINA RESULT: -6.177307169      2.278      4.264
REMARK  0 active torsions:
REMARK  status: ('A' for Active; 'I' for Inactive)
REMARK       I    between atoms: C3_5  and  N2_6 
ROOT
HETATM    1  C1  UNL     1      45.957   5.784  21.261  1.00  0.00     0.047 C 
HETATM    2  C2  UNL     1      47.195   6.085  20.984  1.00  0.00     0.084 C 
HETATM    3  N1  UNL     1      47.470   7.431  20.540  1.00  0.00    -0.188 N 
ATOM      4  H1  UNL     1      46.751   8.123  20.756  1.00  0.00     0.184 HD
HETATM    5  C3  UNL     1      48.608   7.925  19.840  1.00  0.00     0.694 C 
HETATM    6  N2  UNL     1      48.608   9.290  19.440  1.00  0.00    -0.226 N 
HETATM    7  C4  UNL     1      49.318   9.754  18.263  1.00  0.00     0.168 C 
HETATM    8  C5  UNL     1      47.883  10.276  20.215  1.00  0.00     0.168 C 
HETATM    9  N3  UNL     1      49.676   7.272  19.508  1.00  0.00    -0.022 N 
ATOM     10  H3  UNL     1      50.361   7.838  19.007  1.00  0.00     0.203 HD
HETATM   11  C6  UNL     1      50.087   5.922  19.702  1.00  0.00     0.692 C 
HETATM   12  N4  UNL     1      51.222   5.577  19.181  1.00  0.00    -0.234 N 
ATOM     13  H41 UNL     1      51.517   4.611  19.321  1.00  0.00     0.174 HD
ATOM     14  H42 UNL     1      51.723   6.309  18.676  1.00  0.00     0.174 HD
HETATM   15  N5  UNL     1      49.378   4.886  20.418  1.00  0.00    -0.175 N 
ATOM     16  H5  UNL     1      49.792   3.954  20.387  1.00  0.00     0.186 HD
HETATM   17  C7  UNL     1      48.167   5.012  21.161  1.00  0.00     0.141 C 
HETATM   18  N6  UNL     1      47.937   4.113  22.046  1.00  0.00    -0.383 N 
ATOM     19  H61 UNL     1      48.617   3.362  22.170  1.00  0.00     0.157 HD
ATOM     20  H62 UNL     1      47.071   4.203  22.577  1.00  0.00     0.157 HD
ENDROOT
TORSDOF 0
ENDMDL
MODEL 4
REMARK VINA RESULT: -6.170552950      2.309      4.615
REMARK  0 active torsions:
REMARK  status: ('A' for Active; 'I' for Inactive)
REMARK       I    between atoms: C3_5  and  N2_6 
ROOT
HETATM    1  C1  UNL     1      47.277   4.847  21.057  1.00  0.00     0.047 C 
HETATM    2  C2  UNL     1      48.534   4.895  20.715  1.00  0.00     0.084 C 
HETATM    3  N1  UNL     1      49.075   6.183  20.347  1.00  0.00    -0.188 N 
ATOM      4  H1  UNL     1      48.540   6.992  20.662  1.00  0.00     0.184 HD
HETATM    5  C3  UNL     1      50.255   6.476  19.604  1.00  0.00     0.694 C 
HETATM    6  N2  UNL     1      50.534   7.837  19.301  1.00  0.00    -0.226 N 
HETATM    7  C4  UNL     1      51.264   8.233  18.112  1.00  0.00     0.168 C 
HETATM    8  C5  UNL     1      50.088   8.888  20.192  1.00  0.00     0.168 C 
HETATM    9  N3  UNL     1      51.132   5.637  19.152  1.00  0.00    -0.022 N 
ATOM     10  H3  UNL     1      51.897   6.082  18.644  1.00  0.00     0.203 HD
HETATM   11  C6  UNL     1      51.245   4.219  19.222  1.00  0.00     0.692 C 
HETATM   12  N4  UNL     1      52.246   3.682  18.598  1.00  0.00    -0.234 N 
ATOM     13  H41 UNL     1      52.326   2.666  18.649  1.00  0.00     0.174 HD
ATOM     14  H42 UNL     1      52.867   4.327  18.111  1.00  0.00     0.174 HD
HETATM   15  N5  UNL     1      50.364   3.304  19.912  1.00  0.00    -0.175 N 
ATOM     16  H5  UNL     1      50.560   2.311  19.787  1.00  0.00     0.186 HD
HETATM   17  C7  UNL     1      49.253   3.626  20.747  1.00  0.00     0.141 C 
HETATM   18  N6  UNL     1      48.878   2.727  21.581  1.00  0.00    -0.383 N 
ATOM     19  H61 UNL     1      49.381   1.840  21.603  1.00  0.00     0.157 HD
ATOM     20  H62 UNL     1      48.084   2.958  22.178  1.00  0.00     0.157 HD
ENDROOT
TORSDOF 0
ENDMDL
MODEL 5
REMARK VINA RESULT: -6.081918294      1.020      4.064
REMARK  0 active torsions:
REMARK  status: ('A' for Active; 'I' for Inactive)
REMARK       I    between atoms: C3_5  and  N2_6 
ROOT
HETATM    1  C1  UNL     1      45.630   5.140  23.523  1.00  0.00     0.047 C 
HETATM    2  C2  UNL     1      46.189   5.116  22.345  1.00  0.00     0.084 C 
HETATM    3  N1  UNL     1      47.492   4.504  22.239  1.00  0.00    -0.188 N 
ATOM      4  H1  UNL     1      47.750   3.879  23.003  1.00  0.00     0.184 HD
HETATM    5  C3  UNL     1      48.467   4.654  21.211  1.00  0.00     0.694 C 
HETATM    6  N2  UNL     1      49.719   4.001  21.376  1.00  0.00    -0.226 N 
HETATM    7  C4  UNL     1      50.948   4.523  20.806  1.00  0.00     0.168 C 
HETATM    8  C5  UNL     1      49.804   2.769  22.132  1.00  0.00     0.168 C 
HETATM    9  N3  UNL     1      48.359   5.332  20.112  1.00  0.00    -0.022 N 
ATOM     10  H3  UNL     1      49.194   5.295  19.527  1.00  0.00     0.203 HD
HETATM   11  C6  UNL     1      47.310   6.119  19.557  1.00  0.00     0.692 C 
HETATM   12  N4  UNL     1      47.561   6.720  18.437  1.00  0.00    -0.234 N 
ATOM     13  H41 UNL     1      46.809   7.283  18.040  1.00  0.00     0.174 HD
ATOM     14  H42 UNL     1      48.494   6.574  18.051  1.00  0.00     0.174 HD
HETATM   15  N5  UNL     1      45.988   6.327  20.105  1.00  0.00    -0.175 N 
ATOM     16  H5  UNL     1      45.393   6.987  19.605  1.00  0.00     0.186 HD
HETATM   17  C7  UNL     1      45.418   5.717  21.262  1.00  0.00     0.141 C 
HETATM   18  N6  UNL     1      44.138   5.702  21.335  1.00  0.00    -0.383 N 
ATOM     19  H61 UNL     1      43.600   6.122  20.577  1.00  0.00     0.157 HD
ATOM     20  H62 UNL     1      43.731   5.266  22.162  1.00  0.00     0.157 HD
ENDROOT
TORSDOF 0
ENDMDL
