MODEL 1
REMARK VINA RESULT: -7.377756991      0.000      0.000
REMARK  8 active torsions:
REMARK  status: ('A' for Active; 'I' for Inactive)
REMARK    1  A    between atoms: C2_2  and  C4_4 
REMARK    2  A    between atoms: C4_4  and  C5_5 
REMARK    3  A    between atoms: C5_5  and  C6_6 
REMARK    4  A    between atoms: C5_5  and  N2_27 
REMARK    5  A    between atoms: C6_6  and  N1_7 
REMARK    6  A    between atoms: C7_8  and  O1_9 
REMARK    7  A    between atoms: C10_13  and  O2_14 
REMARK    8  A    between atoms: C16_22  and  C17_23 
ROOT
HETATM    1  N1  UNL     1     -13.100 -46.532 -56.983  1.00  0.00    -0.280 N 
HETATM    2  C7  UNL     1     -12.528 -47.242 -58.021  1.00  0.00     0.156 A 
HETATM    3  C8  UNL     1     -11.343 -46.690 -58.388  1.00  0.00     0.018 A 
HETATM    4  C9  UNL     1     -11.155 -45.603 -57.564  1.00  0.00     0.017 A 
HETATM    5  C10 UNL     1     -12.237 -45.526 -56.716  1.00  0.00     0.156 A 
HETATM    6  C11 UNL     1      -9.885 -44.831 -57.774  1.00  0.00     0.082 C 
HETATM    7  C12 UNL     1      -9.917 -44.539 -59.269  1.00  0.00    -0.015 C 
HETATM    8  C13 UNL     1     -10.093 -45.583 -60.065  1.00  0.00    -0.015 C 
HETATM    9  C14 UNL     1     -10.237 -46.919 -59.368  1.00  0.00     0.091 C 
HETATM   10  C15 UNL     1      -9.021 -46.937 -58.464  1.00  0.00     0.033 C 
HETATM   11 CL1  UNL     1      -8.011 -48.341 -58.588  1.00  0.00    -0.087 Cl
HETATM   12  C16 UNL     1      -8.835 -45.899 -57.662  1.00  0.00    -0.003 C 
ENDROOT
BRANCH   1  13
HETATM   13  C6  UNL     1     -14.275 -46.819 -56.279  1.00  0.00     0.130 C 
BRANCH  13  14
HETATM   14  C5  UNL     1     -15.467 -45.913 -56.363  1.00  0.00     0.043 C 
BRANCH  14  15
HETATM   15  C4  UNL     1     -15.337 -44.641 -57.050  1.00  0.00     0.008 C 
BRANCH  15  16
HETATM   16  C2  UNL     1     -15.536 -44.364 -58.461  1.00  0.00     0.002 C 
HETATM   17  C1  UNL     1     -15.966 -42.837 -58.479  1.00  0.00     0.013 C 
HETATM   18  C3  UNL     1     -14.288 -44.288 -59.349  1.00  0.00     0.013 C 
ENDBRANCH  15  16
ENDBRANCH  14  15
BRANCH  14  19
HETATM   19  N2  UNL     1     -16.209 -45.945 -55.186  1.00  0.00    -0.380 N 
HETATM   20  C19 UNL     1     -16.066 -45.167 -54.066  1.00  0.00     0.123 C 
HETATM   21  C20 UNL     1     -16.215 -46.159 -52.874  1.00  0.00     0.021 C 
HETATM   22  C21 UNL     1     -17.168 -47.190 -53.395  1.00  0.00     0.021 C 
HETATM   23  C22 UNL     1     -16.953 -47.132 -54.881  1.00  0.00     0.123 C 
ENDBRANCH  14  19
ENDBRANCH  13  14
ENDBRANCH   1  13
BRANCH   2  24
HETATM   24  O1  UNL     1     -13.087 -48.349 -58.596  1.00  0.00    -0.345 OA
ATOM     25  H1  UNL     1     -12.590 -49.066 -58.970  1.00  0.00     0.219 HD
ENDBRANCH   2  24
BRANCH   5  26
HETATM   26  O2  UNL     1     -12.363 -44.517 -55.731  1.00  0.00    -0.345 OA
ATOM     27  H2  UNL     1     -11.722 -43.857 -55.490  1.00  0.00     0.219 HD
ENDBRANCH   5  26
BRANCH  12  28
HETATM   28  C17 UNL     1      -7.719 -45.823 -56.761  1.00  0.00     0.069 C 
HETATM   29 CL2  UNL     1      -7.976 -46.444 -55.095  1.00  0.00    -0.081 Cl
HETATM   30  C18 UNL     1      -6.530 -45.343 -57.033  1.00  0.00     0.212 C 
HETATM   31  F1  UNL     1      -6.074 -44.821 -58.172  1.00  0.00    -0.218 F 
ENDBRANCH  12  28
TORSDOF 8
ENDMDL
MODEL 2
REMARK VINA RESULT: -7.331625306      4.467      6.895
REMARK  8 active torsions:
REMARK  status: ('A' for Active; 'I' for Inactive)
REMARK    1  A    between atoms: C2_2  and  C4_4 
REMARK    2  A    between atoms: C4_4  and  C5_5 
REMARK    3  A    between atoms: C5_5  and  C6_6 
REMARK    4  A    between atoms: C5_5  and  N2_27 
REMARK    5  A    between atoms: C6_6  and  N1_7 
REMARK    6  A    between atoms: C7_8  and  O1_9 
REMARK    7  A    between atoms: C10_13  and  O2_14 
REMARK    8  A    between atoms: C16_22  and  C17_23 
ROOT
HETATM    1  N1  UNL     1     -15.584 -43.385 -58.936  1.00  0.00    -0.280 N 
HETATM    2  C7  UNL     1     -15.376 -44.712 -59.257  1.00  0.00     0.156 A 
HETATM    3  C8  UNL     1     -14.944 -45.410 -58.174  1.00  0.00     0.018 A 
HETATM    4  C9  UNL     1     -14.877 -44.504 -57.138  1.00  0.00     0.017 A 
HETATM    5  C10 UNL     1     -15.270 -43.277 -57.625  1.00  0.00     0.156 A 
HETATM    6  C11 UNL     1     -14.432 -45.053 -55.814  1.00  0.00     0.082 C 
HETATM    7  C12 UNL     1     -13.132 -45.763 -56.168  1.00  0.00    -0.015 C 
HETATM    8  C13 UNL     1     -13.194 -46.638 -57.161  1.00  0.00    -0.015 C 
HETATM    9  C14 UNL     1     -14.556 -46.804 -57.801  1.00  0.00     0.091 C 
HETATM   10  C15 UNL     1     -15.441 -47.060 -56.597  1.00  0.00     0.033 C 
HETATM   11 CL1  UNL     1     -16.435 -48.478 -56.682  1.00  0.00    -0.087 Cl
HETATM   12  C16 UNL     1     -15.389 -46.191 -55.598  1.00  0.00    -0.003 C 
ENDROOT
BRANCH   1  13
HETATM   13  C6  UNL     1     -16.093 -42.365 -59.748  1.00  0.00     0.130 C 
BRANCH  13  14
HETATM   14  C5  UNL     1     -17.567 -42.230 -59.988  1.00  0.00     0.043 C 
BRANCH  14  15
HETATM   15  C4  UNL     1     -18.199 -43.081 -60.980  1.00  0.00     0.008 C 
BRANCH  15  16
HETATM   16  C2  UNL     1     -17.805 -43.287 -62.361  1.00  0.00     0.002 C 
HETATM   17  C1  UNL     1     -18.794 -44.422 -62.861  1.00  0.00     0.013 C 
HETATM   18  C3  UNL     1     -18.153 -42.183 -63.368  1.00  0.00     0.013 C 
ENDBRANCH  15  16
ENDBRANCH  14  15
BRANCH  14  19
HETATM   19  N2  UNL     1     -17.969 -40.900 -59.920  1.00  0.00    -0.380 N 
HETATM   20  C19 UNL     1     -19.200 -40.365 -60.203  1.00  0.00     0.123 C 
HETATM   21  C20 UNL     1     -18.892 -39.069 -61.010  1.00  0.00     0.021 C 
HETATM   22  C21 UNL     1     -17.585 -38.607 -60.444  1.00  0.00     0.021 C 
HETATM   23  C22 UNL     1     -16.962 -39.880 -59.944  1.00  0.00     0.123 C 
ENDBRANCH  14  19
ENDBRANCH  13  14
ENDBRANCH   1  13
BRANCH   2  24
HETATM   24  O1  UNL     1     -15.578 -45.244 -60.500  1.00  0.00    -0.345 OA
ATOM     25  H1  UNL     1     -15.880 -46.130 -60.660  1.00  0.00     0.219 HD
ENDBRANCH   2  24
BRANCH   5  26
HETATM   26  O2  UNL     1     -15.320 -42.117 -56.816  1.00  0.00    -0.345 OA
ATOM     27  H2  UNL     1     -14.829 -41.942 -56.021  1.00  0.00     0.219 HD
ENDBRANCH   5  26
BRANCH  12  28
HETATM   28  C17 UNL     1     -16.193 -46.339 -54.418  1.00  0.00     0.069 C 
HETATM   29 CL2  UNL     1     -17.616 -47.430 -54.536  1.00  0.00    -0.081 Cl
HETATM   30  C18 UNL     1     -15.995 -45.753 -53.262  1.00  0.00     0.212 C 
HETATM   31  F1  UNL     1     -15.033 -44.903 -52.904  1.00  0.00    -0.218 F 
ENDBRANCH  12  28
TORSDOF 8
ENDMDL
MODEL 3
REMARK VINA RESULT: -7.101289870      2.083      4.124
REMARK  8 active torsions:
REMARK  status: ('A' for Active; 'I' for Inactive)
REMARK    1  A    between atoms: C2_2  and  C4_4 
REMARK    2  A    between atoms: C4_4  and  C5_5 
REMARK    3  A    between atoms: C5_5  and  C6_6 
REMARK    4  A    between atoms: C5_5  and  N2_27 
REMARK    5  A    between atoms: C6_6  and  N1_7 
REMARK    6  A    between atoms: C7_8  and  O1_9 
REMARK    7  A    between atoms: C10_13  and  O2_14 
REMARK    8  A    between atoms: C16_22  and  C17_23 
ROOT
HETATM    1  N1  UNL     1     -12.137 -44.756 -58.146  1.00  0.00    -0.280 N 
HETATM    2  C7  UNL     1     -11.682 -45.108 -56.891  1.00  0.00     0.156 A 
HETATM    3  C8  UNL     1     -10.484 -45.745 -56.972  1.00  0.00     0.018 A 
HETATM    4  C9  UNL     1     -10.171 -45.800 -58.312  1.00  0.00     0.017 A 
HETATM    5  C10 UNL     1     -11.191 -45.192 -59.009  1.00  0.00     0.156 A 
HETATM    6  C11 UNL     1      -8.864 -46.456 -58.654  1.00  0.00     0.082 C 
HETATM    7  C12 UNL     1      -8.966 -47.795 -57.936  1.00  0.00    -0.015 C 
HETATM    8  C13 UNL     1      -9.264 -47.746 -56.645  1.00  0.00    -0.015 C 
HETATM    9  C14 UNL     1      -9.460 -46.359 -56.073  1.00  0.00     0.091 C 
HETATM   10  C15 UNL     1      -8.194 -45.652 -56.518  1.00  0.00     0.033 C 
HETATM   11 CL1  UNL     1      -7.296 -44.857 -55.266  1.00  0.00    -0.087 Cl
HETATM   12  C16 UNL     1      -7.887 -45.693 -57.806  1.00  0.00    -0.003 C 
ENDROOT
BRANCH   1  13
HETATM   13  C6  UNL     1     -13.285 -44.029 -58.481  1.00  0.00     0.130 C 
BRANCH  13  14
HETATM   14  C5  UNL     1     -14.649 -44.639 -58.364  1.00  0.00     0.043 C 
BRANCH  14  15
HETATM   15  C4  UNL     1     -14.793 -46.076 -58.510  1.00  0.00     0.008 C 
BRANCH  15  16
HETATM   16  C2  UNL     1     -15.225 -47.036 -57.510  1.00  0.00     0.002 C 
HETATM   17  C1  UNL     1     -13.928 -47.916 -57.261  1.00  0.00     0.013 C 
HETATM   18  C3  UNL     1     -15.458 -46.516 -56.086  1.00  0.00     0.013 C 
ENDBRANCH  15  16
ENDBRANCH  14  15
BRANCH  14  19
HETATM   19  N2  UNL     1     -15.617 -43.826 -58.946  1.00  0.00    -0.380 N 
HETATM   20  C19 UNL     1     -16.061 -43.821 -60.243  1.00  0.00     0.123 C 
HETATM   21  C20 UNL     1     -16.163 -42.314 -60.621  1.00  0.00     0.021 C 
HETATM   22  C21 UNL     1     -16.516 -41.652 -59.325  1.00  0.00     0.021 C 
HETATM   23  C22 UNL     1     -15.948 -42.590 -58.298  1.00  0.00     0.123 C 
ENDBRANCH  14  19
ENDBRANCH  13  14
ENDBRANCH   1  13
BRANCH   2  24
HETATM   24  O1  UNL     1     -12.351 -44.848 -55.728  1.00  0.00    -0.345 OA
ATOM     25  H1  UNL     1     -12.775 -45.510 -55.195  1.00  0.00     0.219 HD
ENDBRANCH   2  24
BRANCH   5  26
HETATM   26  O2  UNL     1     -11.185 -45.073 -60.419  1.00  0.00    -0.345 OA
ATOM     27  H2  UNL     1     -10.931 -44.318 -60.937  1.00  0.00     0.219 HD
ENDBRANCH   5  26
BRANCH  12  28
HETATM   28  C17 UNL     1      -6.716 -45.048 -58.330  1.00  0.00     0.069 C 
HETATM   29 CL2  UNL     1      -5.133 -45.563 -57.654  1.00  0.00    -0.081 Cl
HETATM   30  C18 UNL     1      -6.687 -44.116 -59.251  1.00  0.00     0.212 C 
HETATM   31  F1  UNL     1      -7.699 -43.552 -59.910  1.00  0.00    -0.218 F 
ENDBRANCH  12  28
TORSDOF 8
ENDMDL
MODEL 4
REMARK VINA RESULT: -7.084207343      1.963      2.751
REMARK  8 active torsions:
REMARK  status: ('A' for Active; 'I' for Inactive)
REMARK    1  A    between atoms: C2_2  and  C4_4 
REMARK    2  A    between atoms: C4_4  and  C5_5 
REMARK    3  A    between atoms: C5_5  and  C6_6 
REMARK    4  A    between atoms: C5_5  and  N2_27 
REMARK    5  A    between atoms: C6_6  and  N1_7 
REMARK    6  A    between atoms: C7_8  and  O1_9 
REMARK    7  A    between atoms: C10_13  and  O2_14 
REMARK    8  A    between atoms: C16_22  and  C17_23 
ROOT
HETATM    1  N1  UNL     1     -13.171 -47.959 -58.384  1.00  0.00    -0.280 N 
HETATM    2  C7  UNL     1     -12.440 -48.490 -57.339  1.00  0.00     0.156 A 
HETATM    3  C8  UNL     1     -11.107 -48.403 -57.589  1.00  0.00     0.018 A 
HETATM    4  C9  UNL     1     -10.987 -47.803 -58.823  1.00  0.00     0.017 A 
HETATM    5  C10 UNL     1     -12.257 -47.541 -59.289  1.00  0.00     0.156 A 
HETATM    6  C11 UNL     1      -9.586 -47.583 -59.313  1.00  0.00     0.082 C 
HETATM    7  C12 UNL     1      -8.966 -48.968 -59.180  1.00  0.00    -0.015 C 
HETATM    8  C13 UNL     1      -9.076 -49.547 -57.993  1.00  0.00    -0.015 C 
HETATM    9  C14 UNL     1      -9.804 -48.742 -56.938  1.00  0.00     0.091 C 
HETATM   10  C15 UNL     1      -9.075 -47.414 -56.995  1.00  0.00     0.033 C 
HETATM   11 CL1  UNL     1      -8.479 -46.817 -55.481  1.00  0.00    -0.087 Cl
HETATM   12  C16 UNL     1      -8.961 -46.824 -58.177  1.00  0.00    -0.003 C 
ENDROOT
BRANCH   1  13
HETATM   13  C6  UNL     1     -14.557 -47.795 -58.478  1.00  0.00     0.130 C 
BRANCH  13  14
HETATM   14  C5  UNL     1     -15.251 -46.662 -57.784  1.00  0.00     0.043 C 
BRANCH  14  15
HETATM   15  C4  UNL     1     -14.821 -45.302 -58.053  1.00  0.00     0.008 C 
BRANCH  15  16
HETATM   16  C2  UNL     1     -15.499 -44.292 -58.844  1.00  0.00     0.002 C 
HETATM   17  C1  UNL     1     -15.547 -43.036 -57.875  1.00  0.00     0.013 C 
HETATM   18  C3  UNL     1     -14.727 -43.678 -60.019  1.00  0.00     0.013 C 
ENDBRANCH  15  16
ENDBRANCH  14  15
BRANCH  14  19
HETATM   19  N2  UNL     1     -15.573 -46.996 -56.472  1.00  0.00    -0.380 N 
HETATM   20  C19 UNL     1     -16.394 -47.999 -56.023  1.00  0.00     0.123 C 
HETATM   21  C20 UNL     1     -17.232 -47.344 -54.885  1.00  0.00     0.021 C 
HETATM   22  C21 UNL     1     -16.297 -46.331 -54.301  1.00  0.00     0.021 C 
HETATM   23  C22 UNL     1     -15.386 -46.007 -55.451  1.00  0.00     0.123 C 
ENDBRANCH  14  19
ENDBRANCH  13  14
ENDBRANCH   1  13
BRANCH   2  24
HETATM   24  O1  UNL     1     -12.990 -49.028 -56.210  1.00  0.00    -0.345 OA
ATOM     25  H1  UNL     1     -13.513 -49.821 -56.195  1.00  0.00     0.219 HD
ENDBRANCH   2  24
BRANCH   5  26
HETATM   26  O2  UNL     1     -12.496 -46.921 -60.538  1.00  0.00    -0.345 OA
ATOM     27  H2  UNL     1     -11.875 -46.774 -61.242  1.00  0.00     0.219 HD
ENDBRANCH   5  26
BRANCH  12  28
HETATM   28  C17 UNL     1      -8.297 -45.561 -58.336  1.00  0.00     0.069 C 
HETATM   29 CL2  UNL     1      -6.524 -45.532 -58.041  1.00  0.00    -0.081 Cl
HETATM   30  C18 UNL     1      -8.856 -44.425 -58.672  1.00  0.00     0.212 C 
HETATM   31  F1  UNL     1     -10.135 -44.164 -58.941  1.00  0.00    -0.218 F 
ENDBRANCH  12  28
TORSDOF 8
ENDMDL
MODEL 5
REMARK VINA RESULT: -7.005460791      3.463      7.096
REMARK  8 active torsions:
REMARK  status: ('A' for Active; 'I' for Inactive)
REMARK    1  A    between atoms: C2_2  and  C4_4 
REMARK    2  A    between atoms: C4_4  and  C5_5 
REMARK    3  A    between atoms: C5_5  and  C6_6 
REMARK    4  A    between atoms: C5_5  and  N2_27 
REMARK    5  A    between atoms: C6_6  and  N1_7 
REMARK    6  A    between atoms: C7_8  and  O1_9 
REMARK    7  A    between atoms: C10_13  and  O2_14 
REMARK    8  A    between atoms: C16_22  and  C17_23 
ROOT
HETATM    1  N1  UNL     1     -10.953 -45.824 -57.966  1.00  0.00    -0.280 N 
HETATM    2  C7  UNL     1     -11.643 -45.240 -56.922  1.00  0.00     0.156 A 
HETATM    3  C8  UNL     1     -12.985 -45.361 -57.102  1.00  0.00     0.018 A 
HETATM    4  C9  UNL     1     -13.152 -46.038 -58.290  1.00  0.00     0.017 A 
HETATM    5  C10 UNL     1     -11.901 -46.310 -58.799  1.00  0.00     0.156 A 
HETATM    6  C11 UNL     1     -14.571 -46.307 -58.697  1.00  0.00     0.082 C 
HETATM    7  C12 UNL     1     -15.207 -44.926 -58.621  1.00  0.00    -0.015 C 
HETATM    8  C13 UNL     1     -15.052 -44.273 -57.478  1.00  0.00    -0.015 C 
HETATM    9  C14 UNL     1     -14.261 -45.000 -56.412  1.00  0.00     0.091 C 
HETATM   10  C15 UNL     1     -14.969 -46.340 -56.352  1.00  0.00     0.033 C 
HETATM   11 CL1  UNL     1     -15.484 -46.849 -54.778  1.00  0.00    -0.087 Cl
HETATM   12  C16 UNL     1     -15.129 -47.003 -57.489  1.00  0.00    -0.003 C 
ENDROOT
BRANCH   1  13
HETATM   13  C6  UNL     1      -9.570 -45.974 -58.116  1.00  0.00     0.130 C 
BRANCH  13  14
HETATM   14  C5  UNL     1      -8.766 -46.765 -57.130  1.00  0.00     0.043 C 
BRANCH  14  15
HETATM   15  C4  UNL     1      -9.360 -47.940 -56.517  1.00  0.00     0.008 C 
BRANCH  15  16
HETATM   16  C2  UNL     1      -9.629 -49.227 -57.132  1.00  0.00     0.002 C 
HETATM   17  C1  UNL     1     -11.209 -49.352 -57.046  1.00  0.00     0.013 C 
HETATM   18  C3  UNL     1      -9.447 -49.337 -58.651  1.00  0.00     0.013 C 
ENDBRANCH  15  16
ENDBRANCH  14  15
BRANCH  14  19
HETATM   19  N2  UNL     1      -7.993 -45.933 -56.326  1.00  0.00    -0.380 N 
HETATM   20  C19 UNL     1      -6.921 -45.156 -56.683  1.00  0.00     0.123 C 
HETATM   21  C20 UNL     1      -5.881 -45.368 -55.542  1.00  0.00     0.021 C 
HETATM   22  C21 UNL     1      -6.732 -45.594 -54.332  1.00  0.00     0.021 C 
HETATM   23  C22 UNL     1      -8.003 -46.152 -54.909  1.00  0.00     0.123 C 
ENDBRANCH  14  19
ENDBRANCH  13  14
ENDBRANCH   1  13
BRANCH   2  24
HETATM   24  O1  UNL     1     -11.050 -44.625 -55.856  1.00  0.00    -0.345 OA
ATOM     25  H1  UNL     1     -10.215 -44.174 -55.894  1.00  0.00     0.219 HD
ENDBRANCH   2  24
BRANCH   5  26
HETATM   26  O2  UNL     1     -11.710 -47.003 -60.018  1.00  0.00    -0.345 OA
ATOM     27  H2  UNL     1     -11.757 -47.941 -60.166  1.00  0.00     0.219 HD
ENDBRANCH   5  26
BRANCH  12  28
HETATM   28  C17 UNL     1     -15.778 -48.282 -57.538  1.00  0.00     0.069 C 
HETATM   29 CL2  UNL     1     -17.365 -48.421 -56.707  1.00  0.00    -0.081 Cl
HETATM   30  C18 UNL     1     -15.326 -49.363 -58.126  1.00  0.00     0.212 C 
HETATM   31  F1  UNL     1     -14.190 -49.540 -58.802  1.00  0.00    -0.218 F 
ENDBRANCH  12  28
TORSDOF 8
ENDMDL
