MODEL 1
REMARK VINA RESULT: -7.090776124      0.000      0.000
REMARK  7 active torsions:
REMARK  status: ('A' for Active; 'I' for Inactive)
REMARK    1  A    between atoms: C2_2  and  C3_3 
REMARK    2  A    between atoms: N2_12  and  C10_14 
REMARK    3  A    between atoms: C11_17  and  N4_18 
REMARK    4  A    between atoms: N6_24  and  C13_26 
REMARK    5  A    between atoms: C13_26  and  C14_27 
REMARK    6  A    between atoms: C14_27  and  C15_28 
REMARK    7  A    between atoms: C15_28  and  O1_29 
ROOT
HETATM    1  C10 UNL     1      29.354  26.855  -2.208  1.00  0.00     0.713 A 
HETATM    2  N3  UNL     1      29.171  26.109  -3.297  1.00  0.00    -0.021 N 
ATOM      3  H3  UNL     1      29.106  26.565  -4.207  1.00  0.00     0.203 HD
HETATM    4  C11 UNL     1      29.070  24.753  -3.226  1.00  0.00     0.705 A 
HETATM    5  N5  UNL     1      29.159  24.181  -2.014  1.00  0.00    -0.022 N 
ATOM      6  H5  UNL     1      29.084  23.166  -1.947  1.00  0.00     0.203 HD
HETATM    7  C12 UNL     1      29.342  24.887  -0.885  1.00  0.00     0.707 A 
HETATM    8  N6  UNL     1      29.435  24.378   0.289  1.00  0.00    -0.225 N 
ATOM      9  H6  UNL     1      29.576  24.991   1.091  1.00  0.00     0.177 HD
HETATM   10  N7  UNL     1      29.438  26.245  -1.018  1.00  0.00    -0.021 N 
ATOM     11  H7  UNL     1      29.578  26.814  -0.183  1.00  0.00     0.203 HD
ENDROOT
BRANCH   1  12
HETATM   12  N2  UNL     1      29.459  28.261  -2.278  1.00  0.00    -0.175 N 
HETATM   13  C9  UNL     1      28.416  28.948  -2.552  1.00  0.00     0.128 A 
HETATM   14  C3  UNL     1      28.535  30.316  -2.618  1.00  0.00    -0.008 A 
HETATM   15  N1  UNL     1      27.225  28.366  -2.769  1.00  0.00    -0.345 N 
HETATM   16  C4  UNL     1      27.473  31.143  -2.901  1.00  0.00    -0.050 A 
HETATM   17  C5  UNL     1      27.640  32.611  -2.963  1.00  0.00     0.049 C 
HETATM   18  C6  UNL     1      26.262  30.514  -3.119  1.00  0.00     0.032 A 
HETATM   19  C7  UNL     1      26.145  29.140  -3.052  1.00  0.00     0.007 A 
HETATM   20  C8  UNL     1      24.810  28.492  -3.295  1.00  0.00     0.068 C 
ATOM     21  H1  UNL     1      27.132  27.351  -2.721  1.00  0.00     0.167 HD
ATOM     22  H2  UNL     1      30.353  28.722  -2.113  1.00  0.00     0.186 HD
BRANCH  14  23
HETATM   23  C2  UNL     1      29.860  30.920  -2.374  1.00  0.00     0.038 C 
HETATM   24  C1  UNL     1      29.989  31.119  -0.860  1.00  0.00     0.010 C 
ENDBRANCH  14  23
ENDBRANCH   1  12
BRANCH   4  25
HETATM   25  N4  UNL     1      28.894  24.122  -4.329  1.00  0.00    -0.234 N 
ATOM     26  H42 UNL     1      28.124  23.482  -4.525  1.00  0.00     0.174 HD
ATOM     27  H41 UNL     1      29.581  24.279  -5.067  1.00  0.00     0.174 HD
ENDBRANCH   4  25
BRANCH   8  28
HETATM   28  C13 UNL     1      29.344  22.956   0.492  1.00  0.00     0.140 C 
BRANCH  28  29
HETATM   29  C14 UNL     1      29.391  22.554   1.953  1.00  0.00     0.046 C 
BRANCH  29  30
HETATM   30  C15 UNL     1      30.036  23.721   2.693  1.00  0.00     0.165 C 
BRANCH  30  31
HETATM   31  O1  UNL     1      31.400  23.770   2.398  1.00  0.00    -0.401 OA
ATOM     32  H1  UNL     1      31.886  24.034   3.170  1.00  0.00     0.209 HD
ENDBRANCH  30  31
ENDBRANCH  29  30
ENDBRANCH  28  29
ENDBRANCH   8  28
TORSDOF 7
ENDMDL
MODEL 2
REMARK VINA RESULT: -6.872342916      1.081      1.185
REMARK  7 active torsions:
REMARK  status: ('A' for Active; 'I' for Inactive)
REMARK    1  A    between atoms: C2_2  and  C3_3 
REMARK    2  A    between atoms: N2_12  and  C10_14 
REMARK    3  A    between atoms: C11_17  and  N4_18 
REMARK    4  A    between atoms: N6_24  and  C13_26 
REMARK    5  A    between atoms: C13_26  and  C14_27 
REMARK    6  A    between atoms: C14_27  and  C15_28 
REMARK    7  A    between atoms: C15_28  and  O1_29 
ROOT
HETATM    1  C10 UNL     1      29.448  26.997  -2.047  1.00  0.00     0.713 A 
HETATM    2  N3  UNL     1      29.100  26.133  -3.001  1.00  0.00    -0.021 N 
ATOM      3  H3  UNL     1      28.830  26.487  -3.918  1.00  0.00     0.203 HD
HETATM    4  C11 UNL     1      29.096  24.790  -2.781  1.00  0.00     0.705 A 
HETATM    5  N5  UNL     1      29.455  24.353  -1.563  1.00  0.00    -0.022 N 
ATOM      6  H5  UNL     1      29.456  23.349  -1.385  1.00  0.00     0.203 HD
HETATM    7  C12 UNL     1      29.815  25.181  -0.567  1.00  0.00     0.707 A 
HETATM    8  N6  UNL     1      30.167  24.803   0.607  1.00  0.00    -0.225 N 
ATOM      9  H6  UNL     1      30.426  25.503   1.302  1.00  0.00     0.177 HD
HETATM   10  N7  UNL     1      29.801  26.520  -0.846  1.00  0.00    -0.021 N 
ATOM     11  H7  UNL     1      30.069  27.179  -0.115  1.00  0.00     0.203 HD
ENDROOT
BRANCH   1  12
HETATM   12  N2  UNL     1      29.453  28.391  -2.272  1.00  0.00    -0.175 N 
HETATM   13  C9  UNL     1      28.353  28.977  -2.558  1.00  0.00     0.128 A 
HETATM   14  C3  UNL     1      28.375  30.334  -2.774  1.00  0.00    -0.008 A 
HETATM   15  N1  UNL     1      27.196  28.301  -2.644  1.00  0.00    -0.345 N 
HETATM   16  C4  UNL     1      27.246  31.057  -3.083  1.00  0.00    -0.050 A 
HETATM   17  C5  UNL     1      27.308  32.517  -3.309  1.00  0.00     0.049 C 
HETATM   18  C6  UNL     1      26.072  30.332  -3.165  1.00  0.00     0.032 A 
HETATM   19  C7  UNL     1      26.053  28.970  -2.947  1.00  0.00     0.007 A 
HETATM   20  C8  UNL     1      24.755  28.216  -3.044  1.00  0.00     0.068 C 
ATOM     21  H1  UNL     1      27.175  27.293  -2.484  1.00  0.00     0.167 HD
ATOM     22  H2  UNL     1      30.321  28.923  -2.207  1.00  0.00     0.186 HD
BRANCH  14  23
HETATM   23  C2  UNL     1      29.665  31.043  -2.671  1.00  0.00     0.038 C 
HETATM   24  C1  UNL     1      29.910  31.312  -1.182  1.00  0.00     0.010 C 
ENDBRANCH  14  23
ENDBRANCH   1  12
BRANCH   4  25
HETATM   25  N4  UNL     1      28.745  24.039  -3.761  1.00  0.00    -0.234 N 
ATOM     26  H42 UNL     1      28.128  23.229  -3.689  1.00  0.00     0.174 HD
ATOM     27  H41 UNL     1      29.113  24.277  -4.681  1.00  0.00     0.174 HD
ENDBRANCH   4  25
BRANCH   8  28
HETATM   28  C13 UNL     1      30.204  23.408   0.960  1.00  0.00     0.140 C 
BRANCH  28  29
HETATM   29  C14 UNL     1      29.242  23.045   2.074  1.00  0.00     0.046 C 
BRANCH  29  30
HETATM   30  C15 UNL     1      28.096  22.287   1.414  1.00  0.00     0.165 C 
BRANCH  30  31
HETATM   31  O1  UNL     1      27.351  23.159   0.618  1.00  0.00    -0.401 OA
ATOM     32  H1  UNL     1      26.765  22.663   0.060  1.00  0.00     0.209 HD
ENDBRANCH  30  31
ENDBRANCH  29  30
ENDBRANCH  28  29
ENDBRANCH   8  28
TORSDOF 7
ENDMDL
MODEL 3
REMARK VINA RESULT: -5.957543843      1.358      2.684
REMARK  7 active torsions:
REMARK  status: ('A' for Active; 'I' for Inactive)
REMARK    1  A    between atoms: C2_2  and  C3_3 
REMARK    2  A    between atoms: N2_12  and  C10_14 
REMARK    3  A    between atoms: C11_17  and  N4_18 
REMARK    4  A    between atoms: N6_24  and  C13_26 
REMARK    5  A    between atoms: C13_26  and  C14_27 
REMARK    6  A    between atoms: C14_27  and  C15_28 
REMARK    7  A    between atoms: C15_28  and  O1_29 
ROOT
HETATM    1  C10 UNL     1      28.556  26.741  -2.698  1.00  0.00     0.713 A 
HETATM    2  N3  UNL     1      29.856  26.616  -2.964  1.00  0.00    -0.021 N 
ATOM      3  H3  UNL     1      30.319  27.329  -3.526  1.00  0.00     0.203 HD
HETATM    4  C11 UNL     1      30.581  25.559  -2.505  1.00  0.00     0.705 A 
HETATM    5  N5  UNL     1      29.943  24.635  -1.769  1.00  0.00    -0.022 N 
ATOM      6  H5  UNL     1      30.475  23.838  -1.419  1.00  0.00     0.203 HD
HETATM    7  C12 UNL     1      28.635  24.713  -1.471  1.00  0.00     0.707 A 
HETATM    8  N6  UNL     1      27.992  23.853  -0.769  1.00  0.00    -0.225 N 
ATOM      9  H6  UNL     1      26.998  23.994  -0.592  1.00  0.00     0.177 HD
HETATM   10  N7  UNL     1      27.958  25.797  -1.959  1.00  0.00    -0.021 N 
ATOM     11  H7  UNL     1      26.963  25.890  -1.753  1.00  0.00     0.203 HD
ENDROOT
BRANCH   1  12
HETATM   12  N2  UNL     1      27.801  27.835  -3.173  1.00  0.00    -0.175 N 
HETATM   13  C9  UNL     1      28.129  29.018  -2.815  1.00  0.00     0.128 A 
HETATM   14  C3  UNL     1      27.383  30.072  -3.285  1.00  0.00    -0.008 A 
HETATM   15  N1  UNL     1      29.175  29.243  -2.003  1.00  0.00    -0.345 N 
HETATM   16  C4  UNL     1      27.657  31.380  -2.961  1.00  0.00    -0.050 A 
HETATM   17  C5  UNL     1      26.832  32.489  -3.488  1.00  0.00     0.049 C 
HETATM   18  C6  UNL     1      28.739  31.579  -2.125  1.00  0.00     0.032 A 
HETATM   19  C7  UNL     1      29.486  30.519  -1.655  1.00  0.00     0.007 A 
HETATM   20  C8  UNL     1      30.658  30.776  -0.747  1.00  0.00     0.068 C 
ATOM     21  H1  UNL     1      29.731  28.464  -1.652  1.00  0.00     0.167 HD
ATOM     22  H2  UNL     1      27.005  27.684  -3.793  1.00  0.00     0.186 HD
BRANCH  14  23
HETATM   23  C2  UNL     1      26.240  29.785  -4.174  1.00  0.00     0.038 C 
HETATM   24  C1  UNL     1      26.722  30.015  -5.611  1.00  0.00     0.010 C 
ENDBRANCH  14  23
ENDBRANCH   1  12
BRANCH   4  25
HETATM   25  N4  UNL     1      31.826  25.527  -2.815  1.00  0.00    -0.234 N 
ATOM     26  H42 UNL     1      32.276  24.795  -3.366  1.00  0.00     0.174 HD
ATOM     27  H41 UNL     1      32.406  26.298  -2.484  1.00  0.00     0.174 HD
ENDBRANCH   4  25
BRANCH   8  28
HETATM   28  C13 UNL     1      28.650  22.694  -0.227  1.00  0.00     0.140 C 
BRANCH  28  29
HETATM   29  C14 UNL     1      28.578  22.614   1.285  1.00  0.00     0.046 C 
BRANCH  29  30
HETATM   30  C15 UNL     1      29.778  23.397   1.808  1.00  0.00     0.165 C 
BRANCH  30  31
HETATM   31  O1  UNL     1      30.825  23.325   0.886  1.00  0.00    -0.401 OA
ATOM     32  H1  UNL     1      31.559  23.843   1.195  1.00  0.00     0.209 HD
ENDBRANCH  30  31
ENDBRANCH  29  30
ENDBRANCH  28  29
ENDBRANCH   8  28
TORSDOF 7
ENDMDL
MODEL 4
REMARK VINA RESULT: -5.935561598      1.203      2.616
REMARK  7 active torsions:
REMARK  status: ('A' for Active; 'I' for Inactive)
REMARK    1  A    between atoms: C2_2  and  C3_3 
REMARK    2  A    between atoms: N2_12  and  C10_14 
REMARK    3  A    between atoms: C11_17  and  N4_18 
REMARK    4  A    between atoms: N6_24  and  C13_26 
REMARK    5  A    between atoms: C13_26  and  C14_27 
REMARK    6  A    between atoms: C14_27  and  C15_28 
REMARK    7  A    between atoms: C15_28  and  O1_29 
ROOT
HETATM    1  C10 UNL     1      28.333  27.051  -2.902  1.00  0.00     0.713 A 
HETATM    2  N3  UNL     1      28.417  25.973  -3.681  1.00  0.00    -0.021 N 
ATOM      3  H3  UNL     1      27.975  25.989  -4.600  1.00  0.00     0.203 HD
HETATM    4  C11 UNL     1      29.077  24.851  -3.282  1.00  0.00     0.705 A 
HETATM    5  N5  UNL     1      29.647  24.860  -2.067  1.00  0.00    -0.022 N 
ATOM      6  H5  UNL     1      30.145  24.025  -1.755  1.00  0.00     0.203 HD
HETATM    7  C12 UNL     1      29.593  25.919  -1.242  1.00  0.00     0.707 A 
HETATM    8  N6  UNL     1      30.127  25.966  -0.076  1.00  0.00    -0.225 N 
ATOM      9  H6  UNL     1      30.036  26.814   0.483  1.00  0.00     0.177 HD
HETATM   10  N7  UNL     1      28.917  27.018  -1.697  1.00  0.00    -0.021 N 
ATOM     11  H7  UNL     1      28.855  27.841  -1.097  1.00  0.00     0.203 HD
ENDROOT
BRANCH   1  12
HETATM   12  N2  UNL     1      27.649  28.215  -3.312  1.00  0.00    -0.175 N 
HETATM   13  C9  UNL     1      28.067  29.355  -2.910  1.00  0.00     0.128 A 
HETATM   14  C3  UNL     1      27.389  30.479  -3.317  1.00  0.00    -0.008 A 
HETATM   15  N1  UNL     1      29.142  29.470  -2.113  1.00  0.00    -0.345 N 
HETATM   16  C4  UNL     1      27.762  31.749  -2.944  1.00  0.00    -0.050 A 
HETATM   17  C5  UNL     1      27.008  32.936  -3.403  1.00  0.00     0.049 C 
HETATM   18  C6  UNL     1      28.871  31.834  -2.124  1.00  0.00     0.032 A 
HETATM   19  C7  UNL     1      29.550  30.704  -1.717  1.00  0.00     0.007 A 
HETATM   20  C8  UNL     1      30.754  30.836  -0.825  1.00  0.00     0.068 C 
ATOM     21  H1  UNL     1      29.648  28.638  -1.808  1.00  0.00     0.167 HD
ATOM     22  H2  UNL     1      26.832  28.149  -3.920  1.00  0.00     0.186 HD
BRANCH  14  23
HETATM   23  C2  UNL     1      26.212  30.313  -4.193  1.00  0.00     0.038 C 
HETATM   24  C1  UNL     1      26.734  30.209  -5.630  1.00  0.00     0.010 C 
ENDBRANCH  14  23
ENDBRANCH   1  12
BRANCH   4  25
HETATM   25  N4  UNL     1      29.101  23.866  -4.104  1.00  0.00    -0.234 N 
ATOM     26  H42 UNL     1      29.330  22.902  -3.859  1.00  0.00     0.174 HD
ATOM     27  H41 UNL     1      28.871  24.067  -5.076  1.00  0.00     0.174 HD
ENDBRANCH   4  25
BRANCH   8  28
HETATM   28  C13 UNL     1      30.853  24.843   0.456  1.00  0.00     0.140 C 
BRANCH  28  29
HETATM   29  C14 UNL     1      30.014  23.960   1.359  1.00  0.00     0.046 C 
BRANCH  29  30
HETATM   30  C15 UNL     1      30.498  24.227   2.780  1.00  0.00     0.165 C 
BRANCH  30  31
HETATM   31  O1  UNL     1      31.221  25.421   2.814  1.00  0.00    -0.401 OA
ATOM     32  H1  UNL     1      31.687  25.490   3.640  1.00  0.00     0.209 HD
ENDBRANCH  30  31
ENDBRANCH  29  30
ENDBRANCH  28  29
ENDBRANCH   8  28
TORSDOF 7
ENDMDL
MODEL 5
REMARK VINA RESULT: -5.914246273      1.504      2.798
REMARK  7 active torsions:
REMARK  status: ('A' for Active; 'I' for Inactive)
REMARK    1  A    between atoms: C2_2  and  C3_3 
REMARK    2  A    between atoms: N2_12  and  C10_14 
REMARK    3  A    between atoms: C11_17  and  N4_18 
REMARK    4  A    between atoms: N6_24  and  C13_26 
REMARK    5  A    between atoms: C13_26  and  C14_27 
REMARK    6  A    between atoms: C14_27  and  C15_28 
REMARK    7  A    between atoms: C15_28  and  O1_29 
ROOT
HETATM    1  C10 UNL     1      28.336  26.936  -3.090  1.00  0.00     0.713 A 
HETATM    2  N3  UNL     1      28.792  26.092  -4.015  1.00  0.00    -0.021 N 
ATOM      3  H3  UNL     1      28.635  26.303  -5.000  1.00  0.00     0.203 HD
HETATM    4  C11 UNL     1      29.461  24.955  -3.679  1.00  0.00     0.705 A 
HETATM    5  N5  UNL     1      29.652  24.704  -2.373  1.00  0.00    -0.022 N 
ATOM      6  H5  UNL     1      30.151  23.856  -2.108  1.00  0.00     0.203 HD
HETATM    7  C12 UNL     1      29.213  25.522  -1.401  1.00  0.00     0.707 A 
HETATM    8  N6  UNL     1      29.378  25.318  -0.145  1.00  0.00    -0.225 N 
ATOM      9  H6  UNL     1      29.012  25.994   0.525  1.00  0.00     0.177 HD
HETATM   10  N7  UNL     1      28.548  26.649  -1.799  1.00  0.00    -0.021 N 
ATOM     11  H7  UNL     1      28.201  27.293  -1.088  1.00  0.00     0.203 HD
ENDROOT
BRANCH   1  12
HETATM   12  N2  UNL     1      27.641  28.115  -3.435  1.00  0.00    -0.175 N 
HETATM   13  C9  UNL     1      28.064  29.237  -2.991  1.00  0.00     0.128 A 
HETATM   14  C3  UNL     1      27.375  30.376  -3.336  1.00  0.00    -0.008 A 
HETATM   15  N1  UNL     1      29.154  29.321  -2.210  1.00  0.00    -0.345 N 
HETATM   16  C4  UNL     1      27.752  31.630  -2.913  1.00  0.00    -0.050 A 
HETATM   17  C5  UNL     1      26.986  32.833  -3.305  1.00  0.00     0.049 C 
HETATM   18  C6  UNL     1      28.876  31.682  -2.112  1.00  0.00     0.032 A 
HETATM   19  C7  UNL     1      29.565  30.537  -1.768  1.00  0.00     0.007 A 
HETATM   20  C8  UNL     1      30.785  30.635  -0.894  1.00  0.00     0.068 C 
ATOM     21  H1  UNL     1      29.667  28.478  -1.952  1.00  0.00     0.167 HD
ATOM     22  H2  UNL     1      26.814  28.073  -4.030  1.00  0.00     0.186 HD
BRANCH  14  23
HETATM   23  C2  UNL     1      26.183  30.244  -4.195  1.00  0.00     0.038 C 
HETATM   24  C1  UNL     1      26.676  30.216  -5.646  1.00  0.00     0.010 C 
ENDBRANCH  14  23
ENDBRANCH   1  12
BRANCH   4  25
HETATM   25  N4  UNL     1      29.859  24.206  -4.641  1.00  0.00    -0.234 N 
ATOM     26  H42 UNL     1      30.782  23.774  -4.707  1.00  0.00     0.174 HD
ATOM     27  H41 UNL     1      29.197  24.031  -5.397  1.00  0.00     0.174 HD
ENDBRANCH   4  25
BRANCH   8  28
HETATM   28  C13 UNL     1      30.072  24.152   0.335  1.00  0.00     0.140 C 
BRANCH  28  29
HETATM   29  C14 UNL     1      29.175  23.184   1.081  1.00  0.00     0.046 C 
BRANCH  29  30
HETATM   30  C15 UNL     1      28.977  21.990   0.155  1.00  0.00     0.165 C 
BRANCH  30  31
HETATM   31  O1  UNL     1      28.267  22.387  -0.980  1.00  0.00    -0.401 OA
ATOM     32  H1  UNL     1      28.494  21.827  -1.713  1.00  0.00     0.209 HD
ENDBRANCH  30  31
ENDBRANCH  29  30
ENDBRANCH  28  29
ENDBRANCH   8  28
TORSDOF 7
ENDMDL
