MODEL 1
REMARK VINA RESULT: -5.366782110      0.000      0.000
REMARK  11 active torsions:
REMARK  status: ('A' for Active; 'I' for Inactive)
REMARK    1  A    between atoms: O1_2  and  C2_3 
REMARK    2  A    between atoms: C6_9  and  C7_10 
REMARK    3  A    between atoms: C7_10  and  N2_11 
REMARK    4  A    between atoms: C7_10  and  C8_15 
REMARK    5  A    between atoms: C7_10  and  C11_24 
REMARK    6  A    between atoms: C8_15  and  N3_16 
REMARK    7  A    between atoms: N3_16  and  C9_18 
REMARK    8  A    between atoms: C9_18  and  C10_19 
REMARK    9  A    between atoms: C10_19  and  N4_20 
REMARK   10  A    between atoms: C11_24  and  N5_25 
REMARK   11  A    between atoms: C11_24  and  N6_29 
ROOT
HETATM    1  C7  UNL     1      -8.156  -6.706 -42.708  1.00  0.00     0.238 C 
ENDROOT
BRANCH   1   2
HETATM    2  C6  UNL     1      -7.210  -7.476 -43.534  1.00  0.00     0.038 A 
HETATM    3  C2  UNL     1      -6.757  -7.049 -44.747  1.00  0.00     0.151 A 
HETATM    4  N1  UNL     1      -5.914  -7.832 -45.504  1.00  0.00    -0.346 N 
HETATM    5  C3  UNL     1      -5.489  -9.034 -45.116  1.00  0.00     0.090 A 
ATOM      6  H1  UNL     1      -5.599  -7.475 -46.406  1.00  0.00     0.167 HD
HETATM    7  C4  UNL     1      -5.922  -9.500 -43.896  1.00  0.00     0.018 A 
HETATM    8  C5  UNL     1      -6.782  -8.724 -43.106  1.00  0.00     0.016 A 
BRANCH   3   9
HETATM    9  O1  UNL     1      -7.142  -5.817 -45.219  1.00  0.00    -0.340 OA
HETATM   10  C1  UNL     1      -6.689  -5.414 -46.494  1.00  0.00     0.211 C 
ENDBRANCH   3   9
ENDBRANCH   1   2
BRANCH   1  11
HETATM   11  N2  UNL     1      -7.584  -5.287 -42.742  1.00  0.00    -0.057 N 
ATOM     12  H23 UNL     1      -6.575  -5.241 -42.883  1.00  0.00     0.276 HD
ATOM     13  H22 UNL     1      -7.833  -4.751 -43.573  1.00  0.00     0.276 HD
ATOM     14  H21 UNL     1      -7.907  -4.879 -41.864  1.00  0.00     0.276 HD
ENDBRANCH   1  11
BRANCH   1  15
HETATM   15  C8  UNL     1      -9.491  -6.547 -43.286  1.00  0.00     0.103 C 
BRANCH  15  16
HETATM   16  N3  UNL     1      -9.800  -5.356 -43.935  1.00  0.00    -0.398 N 
ATOM     17  H3  UNL     1      -9.047  -4.675 -44.026  1.00  0.00     0.158 HD
BRANCH  16  18
HETATM   18  C9  UNL     1     -11.026  -5.006 -44.468  1.00  0.00     0.146 C 
BRANCH  18  19
HETATM   19  C10 UNL     1     -12.102  -5.477 -43.450  1.00  0.00     0.249 C 
BRANCH  19  20
HETATM   20  N4  UNL     1     -13.377  -4.867 -43.720  1.00  0.00    -0.078 N 
ATOM     21  H43 UNL     1     -13.389  -3.886 -43.443  1.00  0.00     0.274 HD
ATOM     22  H42 UNL     1     -13.531  -4.749 -44.721  1.00  0.00     0.274 HD
ATOM     23  H41 UNL     1     -14.136  -5.389 -43.284  1.00  0.00     0.274 HD
ENDBRANCH  19  20
ENDBRANCH  18  19
ENDBRANCH  16  18
ENDBRANCH  15  16
ENDBRANCH   1  15
BRANCH   1  24
HETATM   24  C11 UNL     1      -8.040  -7.023 -41.264  1.00  0.00     0.423 C 
BRANCH  24  25
HETATM   25  N5  UNL     1      -7.122  -6.311 -40.460  1.00  0.00    -0.047 N 
ATOM     26  H53 UNL     1      -6.803  -6.925 -39.711  1.00  0.00     0.276 HD
ATOM     27  H52 UNL     1      -6.262  -6.176 -40.992  1.00  0.00     0.276 HD
ATOM     28  H51 UNL     1      -7.393  -5.416 -40.052  1.00  0.00     0.276 HD
ENDBRANCH  24  25
BRANCH  24  29
HETATM   29  N6  UNL     1      -9.397  -6.634 -40.706  1.00  0.00    -0.047 N 
ATOM     30  H63 UNL     1     -10.153  -7.275 -40.947  1.00  0.00     0.276 HD
ATOM     31  H62 UNL     1      -9.485  -6.741 -39.695  1.00  0.00     0.276 HD
ATOM     32  H61 UNL     1      -9.528  -5.681 -41.044  1.00  0.00     0.276 HD
ENDBRANCH  24  29
ENDBRANCH   1  24
TORSDOF 11
ENDMDL
MODEL 2
REMARK VINA RESULT: -5.284353636      1.986      5.487
REMARK  11 active torsions:
REMARK  status: ('A' for Active; 'I' for Inactive)
REMARK    1  A    between atoms: O1_2  and  C2_3 
REMARK    2  A    between atoms: C6_9  and  C7_10 
REMARK    3  A    between atoms: C7_10  and  N2_11 
REMARK    4  A    between atoms: C7_10  and  C8_15 
REMARK    5  A    between atoms: C7_10  and  C11_24 
REMARK    6  A    between atoms: C8_15  and  N3_16 
REMARK    7  A    between atoms: N3_16  and  C9_18 
REMARK    8  A    between atoms: C9_18  and  C10_19 
REMARK    9  A    between atoms: C10_19  and  N4_20 
REMARK   10  A    between atoms: C11_24  and  N5_25 
REMARK   11  A    between atoms: C11_24  and  N6_29 
ROOT
HETATM    1  C7  UNL     1      -8.461  -5.712 -44.097  1.00  0.00     0.238 C 
ENDROOT
BRANCH   1   2
HETATM    2  C6  UNL     1      -9.917  -5.638 -43.889  1.00  0.00     0.038 A 
HETATM    3  C2  UNL     1     -10.554  -6.227 -42.837  1.00  0.00     0.151 A 
HETATM    4  N1  UNL     1     -11.925  -6.171 -42.718  1.00  0.00    -0.346 N 
HETATM    5  C3  UNL     1     -12.710  -5.553 -43.599  1.00  0.00     0.090 A 
ATOM      6  H1  UNL     1     -12.361  -6.626 -41.916  1.00  0.00     0.167 HD
HETATM    7  C4  UNL     1     -12.106  -4.945 -44.675  1.00  0.00     0.018 A 
HETATM    8  C5  UNL     1     -10.711  -4.987 -44.821  1.00  0.00     0.016 A 
BRANCH   3   9
HETATM    9  O1  UNL     1      -9.817  -6.879 -41.878  1.00  0.00    -0.340 OA
HETATM   10  C1  UNL     1     -10.345  -8.059 -41.312  1.00  0.00     0.211 C 
ENDBRANCH   3   9
ENDBRANCH   1   2
BRANCH   1  11
HETATM   11  N2  UNL     1      -7.891  -4.963 -42.890  1.00  0.00    -0.057 N 
ATOM     12  H23 UNL     1      -8.374  -4.093 -42.666  1.00  0.00     0.276 HD
ATOM     13  H22 UNL     1      -8.062  -5.414 -41.992  1.00  0.00     0.276 HD
ATOM     14  H21 UNL     1      -6.904  -4.850 -43.125  1.00  0.00     0.276 HD
ENDBRANCH   1  11
BRANCH   1  15
HETATM   15  C8  UNL     1      -7.887  -7.052 -43.964  1.00  0.00     0.103 C 
BRANCH  15  16
HETATM   16  N3  UNL     1      -7.032  -7.310 -42.899  1.00  0.00    -0.398 N 
ATOM     17  H3  UNL     1      -6.550  -6.508 -42.493  1.00  0.00     0.158 HD
BRANCH  16  18
HETATM   18  C9  UNL     1      -6.771  -8.545 -42.335  1.00  0.00     0.146 C 
BRANCH  18  19
HETATM   19  C10 UNL     1      -6.322  -8.277 -40.871  1.00  0.00     0.249 C 
BRANCH  19  20
HETATM   20  N4  UNL     1      -7.085  -7.211 -40.279  1.00  0.00    -0.078 N 
ATOM     21  H43 UNL     1      -8.049  -7.209 -40.614  1.00  0.00     0.274 HD
ATOM     22  H42 UNL     1      -7.263  -7.383 -39.290  1.00  0.00     0.274 HD
ATOM     23  H41 UNL     1      -6.635  -6.308 -40.428  1.00  0.00     0.274 HD
ENDBRANCH  19  20
ENDBRANCH  18  19
ENDBRANCH  16  18
ENDBRANCH  15  16
ENDBRANCH   1  15
BRANCH   1  24
HETATM   24  C11 UNL     1      -7.999  -4.849 -45.211  1.00  0.00     0.423 C 
BRANCH  24  25
HETATM   25  N5  UNL     1      -7.367  -3.617 -44.928  1.00  0.00    -0.047 N 
ATOM     26  H53 UNL     1      -8.087  -2.923 -44.728  1.00  0.00     0.276 HD
ATOM     27  H52 UNL     1      -6.901  -3.691 -44.024  1.00  0.00     0.276 HD
ATOM     28  H51 UNL     1      -6.710  -3.219 -45.599  1.00  0.00     0.276 HD
ENDBRANCH  24  25
BRANCH  24  29
HETATM   29  N6  UNL     1      -6.913  -5.676 -45.873  1.00  0.00    -0.047 N 
ATOM     30  H63 UNL     1      -6.389  -6.275 -45.234  1.00  0.00     0.276 HD
ATOM     31  H62 UNL     1      -7.259  -6.430 -46.467  1.00  0.00     0.276 HD
ATOM     32  H61 UNL     1      -6.347  -4.980 -46.359  1.00  0.00     0.276 HD
ENDBRANCH  24  29
ENDBRANCH   1  24
TORSDOF 11
ENDMDL
MODEL 3
REMARK VINA RESULT: -5.256226047      2.113      3.159
REMARK  11 active torsions:
REMARK  status: ('A' for Active; 'I' for Inactive)
REMARK    1  A    between atoms: O1_2  and  C2_3 
REMARK    2  A    between atoms: C6_9  and  C7_10 
REMARK    3  A    between atoms: C7_10  and  N2_11 
REMARK    4  A    between atoms: C7_10  and  C8_15 
REMARK    5  A    between atoms: C7_10  and  C11_24 
REMARK    6  A    between atoms: C8_15  and  N3_16 
REMARK    7  A    between atoms: N3_16  and  C9_18 
REMARK    8  A    between atoms: C9_18  and  C10_19 
REMARK    9  A    between atoms: C10_19  and  N4_20 
REMARK   10  A    between atoms: C11_24  and  N5_25 
REMARK   11  A    between atoms: C11_24  and  N6_29 
ROOT
HETATM    1  C7  UNL     1      -8.429  -7.391 -42.010  1.00  0.00     0.238 C 
ENDROOT
BRANCH   1   2
HETATM    2  C6  UNL     1      -8.024  -6.415 -43.037  1.00  0.00     0.038 A 
HETATM    3  C2  UNL     1      -6.854  -5.716 -42.985  1.00  0.00     0.151 A 
HETATM    4  N1  UNL     1      -6.547  -4.777 -43.944  1.00  0.00    -0.346 N 
HETATM    5  C3  UNL     1      -7.351  -4.490 -44.969  1.00  0.00     0.090 A 
ATOM      6  H1  UNL     1      -5.662  -4.276 -43.867  1.00  0.00     0.167 HD
HETATM    7  C4  UNL     1      -8.540  -5.175 -45.057  1.00  0.00     0.018 A 
HETATM    8  C5  UNL     1      -8.878  -6.136 -44.093  1.00  0.00     0.016 A 
BRANCH   3   9
HETATM    9  O1  UNL     1      -5.966  -5.957 -41.965  1.00  0.00    -0.340 OA
HETATM   10  C1  UNL     1      -4.586  -5.960 -42.262  1.00  0.00     0.211 C 
ENDBRANCH   3   9
ENDBRANCH   1   2
BRANCH   1  11
HETATM   11  N2  UNL     1      -8.072  -6.692 -40.695  1.00  0.00    -0.057 N 
ATOM     12  H23 UNL     1      -7.994  -5.678 -40.764  1.00  0.00     0.276 HD
ATOM     13  H22 UNL     1      -8.818  -6.694 -40.000  1.00  0.00     0.276 HD
ATOM     14  H21 UNL     1      -7.217  -7.164 -40.400  1.00  0.00     0.276 HD
ENDBRANCH   1  11
BRANCH   1  15
HETATM   15  C8  UNL     1      -9.873  -7.605 -41.898  1.00  0.00     0.103 C 
BRANCH  15  16
HETATM   16  N3  UNL     1     -10.595  -6.827 -40.999  1.00  0.00    -0.398 N 
ATOM     17  H3  UNL     1     -10.183  -6.689 -40.076  1.00  0.00     0.158 HD
BRANCH  16  18
HETATM   18  C9  UNL     1     -11.816  -6.223 -41.233  1.00  0.00     0.146 C 
BRANCH  18  19
HETATM   19  C10 UNL     1     -12.214  -6.580 -42.692  1.00  0.00     0.249 C 
BRANCH  19  20
HETATM   20  N4  UNL     1     -12.946  -5.507 -43.310  1.00  0.00    -0.078 N 
ATOM     21  H43 UNL     1     -13.710  -5.857 -43.887  1.00  0.00     0.274 HD
ATOM     22  H42 UNL     1     -13.492  -4.984 -42.626  1.00  0.00     0.274 HD
ATOM     23  H41 UNL     1     -12.326  -4.895 -43.841  1.00  0.00     0.274 HD
ENDBRANCH  19  20
ENDBRANCH  18  19
ENDBRANCH  16  18
ENDBRANCH  15  16
ENDBRANCH   1  15
BRANCH   1  24
HETATM   24  C11 UNL     1      -7.530  -8.569 -41.958  1.00  0.00     0.423 C 
BRANCH  24  25
HETATM   25  N5  UNL     1      -6.538  -8.739 -42.950  1.00  0.00    -0.047 N 
ATOM     26  H53 UNL     1      -6.966  -9.183 -43.762  1.00  0.00     0.276 HD
ATOM     27  H52 UNL     1      -6.294  -7.823 -43.325  1.00  0.00     0.276 HD
ATOM     28  H51 UNL     1      -5.676  -9.236 -42.724  1.00  0.00     0.276 HD
ENDBRANCH  24  25
BRANCH  24  29
HETATM   29  N6  UNL     1      -6.740  -8.355 -40.680  1.00  0.00    -0.047 N 
ATOM     30  H63 UNL     1      -6.180  -7.502 -40.667  1.00  0.00     0.276 HD
ATOM     31  H62 UNL     1      -7.309  -8.121 -39.866  1.00  0.00     0.276 HD
ATOM     32  H61 UNL     1      -6.201  -9.216 -40.586  1.00  0.00     0.276 HD
ENDBRANCH  24  29
ENDBRANCH   1  24
TORSDOF 11
ENDMDL
MODEL 4
REMARK VINA RESULT: -5.133374867      1.659      5.035
REMARK  11 active torsions:
REMARK  status: ('A' for Active; 'I' for Inactive)
REMARK    1  A    between atoms: O1_2  and  C2_3 
REMARK    2  A    between atoms: C6_9  and  C7_10 
REMARK    3  A    between atoms: C7_10  and  N2_11 
REMARK    4  A    between atoms: C7_10  and  C8_15 
REMARK    5  A    between atoms: C7_10  and  C11_24 
REMARK    6  A    between atoms: C8_15  and  N3_16 
REMARK    7  A    between atoms: N3_16  and  C9_18 
REMARK    8  A    between atoms: C9_18  and  C10_19 
REMARK    9  A    between atoms: C10_19  and  N4_20 
REMARK   10  A    between atoms: C11_24  and  N5_25 
REMARK   11  A    between atoms: C11_24  and  N6_29 
ROOT
HETATM    1  C7  UNL     1      -8.463  -7.136 -42.398  1.00  0.00     0.238 C 
ENDROOT
BRANCH   1   2
HETATM    2  C6  UNL     1      -9.588  -6.380 -42.975  1.00  0.00     0.038 A 
HETATM    3  C2  UNL     1      -9.425  -5.257 -43.732  1.00  0.00     0.151 A 
HETATM    4  N1  UNL     1     -10.514  -4.557 -44.204  1.00  0.00    -0.346 N 
HETATM    5  C3  UNL     1     -11.774  -4.918 -43.963  1.00  0.00     0.090 A 
ATOM      6  H1  UNL     1     -10.347  -3.722 -44.765  1.00  0.00     0.167 HD
HETATM    7  C4  UNL     1     -11.980  -6.048 -43.206  1.00  0.00     0.018 A 
HETATM    8  C5  UNL     1     -10.890  -6.778 -42.711  1.00  0.00     0.016 A 
BRANCH   3   9
HETATM    9  O1  UNL     1      -8.158  -4.820 -44.032  1.00  0.00    -0.340 OA
HETATM   10  C1  UNL     1      -7.762  -4.785 -45.387  1.00  0.00     0.211 C 
ENDBRANCH   3   9
ENDBRANCH   1   2
BRANCH   1  11
HETATM   11  N2  UNL     1      -9.150  -8.278 -41.646  1.00  0.00    -0.057 N 
ATOM     12  H23 UNL     1      -9.990  -8.004 -41.138  1.00  0.00     0.276 HD
ATOM     13  H22 UNL     1      -9.607  -8.965 -42.246  1.00  0.00     0.276 HD
ATOM     14  H21 UNL     1      -8.406  -8.658 -41.059  1.00  0.00     0.276 HD
ENDBRANCH   1  11
BRANCH   1  15
HETATM   15  C8  UNL     1      -7.622  -7.831 -43.374  1.00  0.00     0.103 C 
BRANCH  15  16
HETATM   16  N3  UNL     1      -7.078  -9.063 -43.029  1.00  0.00    -0.398 N 
ATOM     17  H3  UNL     1      -7.726  -9.771 -42.684  1.00  0.00     0.158 HD
BRANCH  16  18
HETATM   18  C9  UNL     1      -5.746  -9.423 -43.108  1.00  0.00     0.146 C 
BRANCH  18  19
HETATM   19  C10 UNL     1      -5.251  -9.610 -41.646  1.00  0.00     0.249 C 
BRANCH  19  20
HETATM   20  N4  UNL     1      -4.301  -8.592 -41.284  1.00  0.00    -0.078 N 
ATOM     21  H43 UNL     1      -3.634  -8.931 -40.591  1.00  0.00     0.274 HD
ATOM     22  H42 UNL     1      -3.651  -8.398 -42.045  1.00  0.00     0.274 HD
ATOM     23  H41 UNL     1      -4.771  -7.744 -40.968  1.00  0.00     0.274 HD
ENDBRANCH  19  20
ENDBRANCH  18  19
ENDBRANCH  16  18
ENDBRANCH  15  16
ENDBRANCH   1  15
BRANCH   1  24
HETATM   24  C11 UNL     1      -7.807  -6.415 -41.281  1.00  0.00     0.423 C 
BRANCH  24  25
HETATM   25  N5  UNL     1      -7.396  -7.127 -40.132  1.00  0.00    -0.047 N 
ATOM     26  H53 UNL     1      -8.221  -7.526 -39.686  1.00  0.00     0.276 HD
ATOM     27  H52 UNL     1      -6.901  -7.967 -40.430  1.00  0.00     0.276 HD
ATOM     28  H51 UNL     1      -6.837  -6.659 -39.418  1.00  0.00     0.276 HD
ENDBRANCH  24  25
BRANCH  24  29
HETATM   29  N6  UNL     1      -6.508  -5.922 -41.892  1.00  0.00    -0.047 N 
ATOM     30  H63 UNL     1      -6.605  -5.523 -42.826  1.00  0.00     0.276 HD
ATOM     31  H62 UNL     1      -6.128  -5.081 -41.456  1.00  0.00     0.276 HD
ATOM     32  H61 UNL     1      -5.897  -6.737 -41.843  1.00  0.00     0.276 HD
ENDBRANCH  24  29
ENDBRANCH   1  24
TORSDOF 11
ENDMDL
MODEL 5
REMARK VINA RESULT: -5.111508883      2.685      5.204
REMARK  11 active torsions:
REMARK  status: ('A' for Active; 'I' for Inactive)
REMARK    1  A    between atoms: O1_2  and  C2_3 
REMARK    2  A    between atoms: C6_9  and  C7_10 
REMARK    3  A    between atoms: C7_10  and  N2_11 
REMARK    4  A    between atoms: C7_10  and  C8_15 
REMARK    5  A    between atoms: C7_10  and  C11_24 
REMARK    6  A    between atoms: C8_15  and  N3_16 
REMARK    7  A    between atoms: N3_16  and  C9_18 
REMARK    8  A    between atoms: C9_18  and  C10_19 
REMARK    9  A    between atoms: C10_19  and  N4_20 
REMARK   10  A    between atoms: C11_24  and  N5_25 
REMARK   11  A    between atoms: C11_24  and  N6_29 
ROOT
HETATM    1  C7  UNL     1     -10.030  -7.005 -41.953  1.00  0.00     0.238 C 
ENDROOT
BRANCH   1   2
HETATM    2  C6  UNL     1     -10.676  -6.161 -42.973  1.00  0.00     0.038 A 
HETATM    3  C2  UNL     1      -9.978  -5.406 -43.870  1.00  0.00     0.151 A 
HETATM    4  N1  UNL     1     -10.631  -4.592 -44.769  1.00  0.00    -0.346 N 
HETATM    5  C3  UNL     1     -11.958  -4.485 -44.828  1.00  0.00     0.090 A 
ATOM      6  H1  UNL     1     -10.071  -4.044 -45.422  1.00  0.00     0.167 HD
HETATM    7  C4  UNL     1     -12.698  -5.232 -43.940  1.00  0.00     0.018 A 
HETATM    8  C5  UNL     1     -12.059  -6.068 -43.013  1.00  0.00     0.016 A 
BRANCH   3   9
HETATM    9  O1  UNL     1      -8.605  -5.464 -43.882  1.00  0.00    -0.340 OA
HETATM   10  C1  UNL     1      -7.883  -4.254 -43.968  1.00  0.00     0.211 C 
ENDBRANCH   3   9
ENDBRANCH   1   2
BRANCH   1  11
HETATM   11  N2  UNL     1      -9.181  -7.975 -42.780  1.00  0.00    -0.057 N 
ATOM     12  H23 UNL     1      -8.242  -7.639 -42.991  1.00  0.00     0.276 HD
ATOM     13  H22 UNL     1      -8.884  -8.811 -42.277  1.00  0.00     0.276 HD
ATOM     14  H21 UNL     1      -9.760  -8.157 -43.600  1.00  0.00     0.276 HD
ENDBRANCH   1  11
BRANCH   1  15
HETATM   15  C8  UNL     1      -9.043  -6.319 -41.119  1.00  0.00     0.103 C 
BRANCH  15  16
HETATM   16  N3  UNL     1      -7.698  -6.636 -41.277  1.00  0.00    -0.398 N 
ATOM     17  H3  UNL     1      -7.387  -6.858 -42.223  1.00  0.00     0.158 HD
BRANCH  16  18
HETATM   18  C9  UNL     1      -6.742  -6.679 -40.280  1.00  0.00     0.146 C 
BRANCH  18  19
HETATM   19  C10 UNL     1      -5.360  -6.622 -40.990  1.00  0.00     0.249 C 
BRANCH  19  20
HETATM   20  N4  UNL     1      -4.410  -5.864 -40.220  1.00  0.00    -0.078 N 
ATOM     21  H43 UNL     1      -4.578  -4.862 -40.299  1.00  0.00     0.274 HD
ATOM     22  H42 UNL     1      -4.570  -5.971 -39.218  1.00  0.00     0.274 HD
ATOM     23  H41 UNL     1      -3.452  -6.106 -40.474  1.00  0.00     0.274 HD
ENDBRANCH  19  20
ENDBRANCH  18  19
ENDBRANCH  16  18
ENDBRANCH  15  16
ENDBRANCH   1  15
BRANCH   1  24
HETATM   24  C11 UNL     1     -10.979  -7.942 -41.305  1.00  0.00     0.423 C 
BRANCH  24  25
HETATM   25  N5  UNL     1     -10.523  -9.199 -40.848  1.00  0.00    -0.047 N 
ATOM     26  H53 UNL     1     -10.542  -9.199 -39.829  1.00  0.00     0.276 HD
ATOM     27  H52 UNL     1     -11.232  -9.900 -41.063  1.00  0.00     0.276 HD
ATOM     28  H51 UNL     1      -9.616  -9.551 -41.155  1.00  0.00     0.276 HD
ENDBRANCH  24  25
BRANCH  24  29
HETATM   29  N6  UNL     1     -11.385  -7.214 -40.037  1.00  0.00    -0.047 N 
ATOM     30  H63 UNL     1     -12.324  -6.816 -40.060  1.00  0.00     0.276 HD
ATOM     31  H62 UNL     1     -11.546  -7.822 -39.234  1.00  0.00     0.276 HD
ATOM     32  H61 UNL     1     -10.639  -6.530 -39.907  1.00  0.00     0.276 HD
ENDBRANCH  24  29
ENDBRANCH   1  24
TORSDOF 11
ENDMDL
