MODEL 1
REMARK VINA RESULT: -6.894524653      0.000      0.000
REMARK  9 active torsions:
REMARK  status: ('A' for Active; 'I' for Inactive)
REMARK    1  A    between atoms: C4_5  and  C5_6 
REMARK    2  A    between atoms: C5_6  and  N2_7 
REMARK    3  A    between atoms: N2_7  and  N3_9 
REMARK    4  A    between atoms: N3_9  and  C6_11 
REMARK    5  A    between atoms: C6_11  and  O1_12 
REMARK    6  A    between atoms: C6_11  and  C7_14 
REMARK    7  A    between atoms: C7_14  and  C8_15 
REMARK    8  A    between atoms: C8_15  and  N4_16 
REMARK    9  A    between atoms: N4_16  and  C9_19 
ROOT
HETATM    1  C6  UNL     1     -12.602  -5.135 -43.603  1.00  0.00     0.234 C 
ENDROOT
BRANCH   1   2
HETATM    2  N3  UNL     1     -12.510  -6.332 -42.792  1.00  0.00    -0.308 N 
ATOM      3  H3  UNL     1     -12.858  -7.228 -43.132  1.00  0.00     0.183 HD
BRANCH   2   4
HETATM    4  N2  UNL     1     -11.933  -6.217 -41.539  1.00  0.00    -0.312 N 
ATOM      5  H2  UNL     1     -12.033  -5.349 -41.013  1.00  0.00     0.185 HD
BRANCH   4   6
HETATM    6  C5  UNL     1     -11.278  -7.188 -41.041  1.00  0.00     0.137 C 
BRANCH   6   7
HETATM    7  C4  UNL     1      -9.838  -7.270 -41.241  1.00  0.00     0.066 A 
HETATM    8  C3  UNL     1      -9.180  -8.107 -42.154  1.00  0.00     0.051 A 
HETATM    9  C2  UNL     1      -7.827  -7.874 -42.023  1.00  0.00     0.112 A 
HETATM   10  N1  UNL     1      -7.672  -6.935 -41.073  1.00  0.00    -0.307 N 
HETATM   11  C1  UNL     1      -6.357  -6.427 -40.657  1.00  0.00     0.177 C 
HETATM   12  N6  UNL     1      -8.853  -6.596 -40.630  1.00  0.00    -0.298 N 
ATOM     13  H6  UNL     1      -9.009  -5.899 -39.902  1.00  0.00     0.187 HD
ENDBRANCH   6   7
ENDBRANCH   4   6
ENDBRANCH   2   4
ENDBRANCH   1   2
BRANCH   1  14
HETATM   14  O1  UNL     1     -13.919  -4.805 -43.911  1.00  0.00    -0.376 OA
ATOM     15  H1  UNL     1     -14.104  -4.888 -44.839  1.00  0.00     0.212 HD
ENDBRANCH   1  14
BRANCH   1  16
HETATM   16  C7  UNL     1     -11.895  -5.340 -44.948  1.00  0.00     0.082 C 
BRANCH  16  17
HETATM   17  C8  UNL     1     -10.444  -5.641 -44.620  1.00  0.00     0.237 C 
BRANCH  17  18
HETATM   18  N4  UNL     1      -9.785  -4.494 -44.031  1.00  0.00    -0.068 N 
ATOM     19  H42 UNL     1      -9.990  -3.622 -44.519  1.00  0.00     0.277 HD
ATOM     20  H41 UNL     1     -10.172  -4.232 -43.124  1.00  0.00     0.277 HD
BRANCH  18  21
HETATM   21  C9  UNL     1      -8.365  -4.792 -43.976  1.00  0.00     0.236 C 
HETATM   22  C10 UNL     1      -7.809  -5.356 -45.266  1.00  0.00     0.267 C 
HETATM   23  N5  UNL     1      -7.495  -3.980 -45.653  1.00  0.00    -0.071 N 
HETATM   24  C11 UNL     1      -7.540  -3.561 -44.276  1.00  0.00     0.267 C 
ATOM     25  H52 UNL     1      -6.662  -3.790 -46.212  1.00  0.00     0.277 HD
ATOM     26  H51 UNL     1      -8.075  -3.505 -46.345  1.00  0.00     0.277 HD
ENDBRANCH  18  21
ENDBRANCH  17  18
ENDBRANCH  16  17
ENDBRANCH   1  16
TORSDOF 9
ENDMDL
MODEL 2
REMARK VINA RESULT: -6.321319361      0.879      1.193
REMARK  9 active torsions:
REMARK  status: ('A' for Active; 'I' for Inactive)
REMARK    1  A    between atoms: C4_5  and  C5_6 
REMARK    2  A    between atoms: C5_6  and  N2_7 
REMARK    3  A    between atoms: N2_7  and  N3_9 
REMARK    4  A    between atoms: N3_9  and  C6_11 
REMARK    5  A    between atoms: C6_11  and  O1_12 
REMARK    6  A    between atoms: C6_11  and  C7_14 
REMARK    7  A    between atoms: C7_14  and  C8_15 
REMARK    8  A    between atoms: C8_15  and  N4_16 
REMARK    9  A    between atoms: N4_16  and  C9_19 
ROOT
HETATM    1  C6  UNL     1     -12.564  -5.158 -43.600  1.00  0.00     0.234 C 
ENDROOT
BRANCH   1   2
HETATM    2  N3  UNL     1     -12.472  -6.371 -42.812  1.00  0.00    -0.308 N 
ATOM      3  H3  UNL     1     -12.786  -7.268 -43.184  1.00  0.00     0.183 HD
BRANCH   2   4
HETATM    4  N2  UNL     1     -11.943  -6.271 -41.537  1.00  0.00    -0.312 N 
ATOM      5  H2  UNL     1     -12.107  -5.429 -40.985  1.00  0.00     0.185 HD
BRANCH   4   6
HETATM    6  C5  UNL     1     -11.253  -7.223 -41.050  1.00  0.00     0.137 C 
BRANCH   6   7
HETATM    7  C4  UNL     1      -9.848  -7.358 -41.410  1.00  0.00     0.066 A 
HETATM    8  C3  UNL     1      -8.785  -6.622 -40.868  1.00  0.00     0.051 A 
HETATM    9  C2  UNL     1      -7.629  -7.058 -41.479  1.00  0.00     0.112 A 
HETATM   10  N1  UNL     1      -7.977  -8.019 -42.354  1.00  0.00    -0.307 N 
HETATM   11  C1  UNL     1      -7.001  -8.726 -43.196  1.00  0.00     0.177 C 
HETATM   12  N6  UNL     1      -9.272  -8.180 -42.298  1.00  0.00    -0.298 N 
ATOM     13  H6  UNL     1      -9.786  -8.852 -42.867  1.00  0.00     0.187 HD
ENDBRANCH   6   7
ENDBRANCH   4   6
ENDBRANCH   2   4
ENDBRANCH   1   2
BRANCH   1  14
HETATM   14  O1  UNL     1     -13.882  -4.817 -43.891  1.00  0.00    -0.376 OA
ATOM     15  H1  UNL     1     -13.942  -4.163 -44.578  1.00  0.00     0.212 HD
ENDBRANCH   1  14
BRANCH   1  16
HETATM   16  C7  UNL     1     -11.869  -5.342 -44.954  1.00  0.00     0.082 C 
BRANCH  16  17
HETATM   17  C8  UNL     1     -10.408  -5.613 -44.644  1.00  0.00     0.237 C 
BRANCH  17  18
HETATM   18  N4  UNL     1      -9.755  -4.440 -44.100  1.00  0.00    -0.068 N 
ATOM     19  H42 UNL     1      -9.954  -3.591 -44.628  1.00  0.00     0.277 HD
ATOM     20  H41 UNL     1     -10.152  -4.139 -43.210  1.00  0.00     0.277 HD
BRANCH  18  21
HETATM   21  C9  UNL     1      -8.336  -4.736 -44.016  1.00  0.00     0.236 C 
HETATM   22  C10 UNL     1      -7.760  -5.328 -45.284  1.00  0.00     0.267 C 
HETATM   23  N5  UNL     1      -7.441  -3.961 -45.698  1.00  0.00    -0.071 N 
HETATM   24  C11 UNL     1      -7.508  -3.510 -44.332  1.00  0.00     0.267 C 
ATOM     25  H52 UNL     1      -6.600  -3.783 -46.247  1.00  0.00     0.277 HD
ATOM     26  H51 UNL     1      -8.011  -3.503 -46.409  1.00  0.00     0.277 HD
ENDBRANCH  18  21
ENDBRANCH  17  18
ENDBRANCH  16  17
ENDBRANCH   1  16
TORSDOF 9
ENDMDL
MODEL 3
REMARK VINA RESULT: -6.264957255      2.032      3.906
REMARK  9 active torsions:
REMARK  status: ('A' for Active; 'I' for Inactive)
REMARK    1  A    between atoms: C4_5  and  C5_6 
REMARK    2  A    between atoms: C5_6  and  N2_7 
REMARK    3  A    between atoms: N2_7  and  N3_9 
REMARK    4  A    between atoms: N3_9  and  C6_11 
REMARK    5  A    between atoms: C6_11  and  O1_12 
REMARK    6  A    between atoms: C6_11  and  C7_14 
REMARK    7  A    between atoms: C7_14  and  C8_15 
REMARK    8  A    between atoms: C8_15  and  N4_16 
REMARK    9  A    between atoms: N4_16  and  C9_19 
ROOT
HETATM    1  C6  UNL     1     -11.012  -7.954 -40.855  1.00  0.00     0.234 C 
ENDROOT
BRANCH   1   2
HETATM    2  N3  UNL     1      -9.798  -7.170 -40.749  1.00  0.00    -0.308 N 
ATOM      3  H3  UNL     1      -9.818  -6.206 -40.416  1.00  0.00     0.183 HD
BRANCH   2   4
HETATM    4  N2  UNL     1      -8.608  -7.776 -41.116  1.00  0.00    -0.312 N 
ATOM      5  H2  UNL     1      -8.557  -8.792 -41.185  1.00  0.00     0.185 HD
BRANCH   4   6
HETATM    6  C5  UNL     1      -7.578  -7.072 -41.367  1.00  0.00     0.137 C 
BRANCH   6   7
HETATM    7  C4  UNL     1      -7.443  -6.422 -42.662  1.00  0.00     0.066 A 
HETATM    8  C3  UNL     1      -7.454  -7.061 -43.910  1.00  0.00     0.051 A 
HETATM    9  C2  UNL     1      -7.299  -6.087 -44.873  1.00  0.00     0.112 A 
HETATM   10  N1  UNL     1      -7.199  -4.906 -44.236  1.00  0.00    -0.307 N 
HETATM   11  C1  UNL     1      -7.023  -3.629 -44.941  1.00  0.00     0.177 C 
HETATM   12  N6  UNL     1      -7.285  -5.122 -42.951  1.00  0.00    -0.298 N 
ATOM     13  H6  UNL     1      -7.238  -4.385 -42.247  1.00  0.00     0.187 HD
ENDBRANCH   6   7
ENDBRANCH   4   6
ENDBRANCH   2   4
ENDBRANCH   1   2
BRANCH   1  14
HETATM   14  O1  UNL     1     -10.760  -9.323 -40.848  1.00  0.00    -0.376 OA
ATOM     15  H1  UNL     1     -11.452  -9.814 -40.420  1.00  0.00     0.212 HD
ENDBRANCH   1  14
BRANCH   1  16
HETATM   16  C7  UNL     1     -11.725  -7.665 -42.182  1.00  0.00     0.082 C 
BRANCH  16  17
HETATM   17  C8  UNL     1     -12.154  -6.211 -42.122  1.00  0.00     0.237 C 
BRANCH  17  18
HETATM   18  N4  UNL     1     -12.900  -5.829 -43.304  1.00  0.00    -0.068 N 
ATOM     19  H42 UNL     1     -12.970  -6.579 -43.991  1.00  0.00     0.277 HD
ATOM     20  H41 UNL     1     -13.899  -5.717 -43.127  1.00  0.00     0.277 HD
BRANCH  18  21
HETATM   21  C9  UNL     1     -12.281  -4.628 -43.836  1.00  0.00     0.236 C 
HETATM   22  C10 UNL     1     -10.771  -4.695 -43.895  1.00  0.00     0.267 C 
HETATM   23  N5  UNL     1     -10.914  -5.213 -45.257  1.00  0.00    -0.071 N 
HETATM   24  C11 UNL     1     -12.242  -4.664 -45.347  1.00  0.00     0.267 C 
ATOM     25  H52 UNL     1     -10.219  -4.974 -45.964  1.00  0.00     0.277 HD
ATOM     26  H51 UNL     1     -10.765  -6.206 -45.437  1.00  0.00     0.277 HD
ENDBRANCH  18  21
ENDBRANCH  17  18
ENDBRANCH  16  17
ENDBRANCH   1  16
TORSDOF 9
ENDMDL
MODEL 4
REMARK VINA RESULT: -6.108693901      1.447      3.671
REMARK  9 active torsions:
REMARK  status: ('A' for Active; 'I' for Inactive)
REMARK    1  A    between atoms: C4_5  and  C5_6 
REMARK    2  A    between atoms: C5_6  and  N2_7 
REMARK    3  A    between atoms: N2_7  and  N3_9 
REMARK    4  A    between atoms: N3_9  and  C6_11 
REMARK    5  A    between atoms: C6_11  and  O1_12 
REMARK    6  A    between atoms: C6_11  and  C7_14 
REMARK    7  A    between atoms: C7_14  and  C8_15 
REMARK    8  A    between atoms: C8_15  and  N4_16 
REMARK    9  A    between atoms: N4_16  and  C9_19 
ROOT
HETATM    1  C6  UNL     1     -11.530  -4.965 -44.863  1.00  0.00     0.234 C 
ENDROOT
BRANCH   1   2
HETATM    2  N3  UNL     1     -10.476  -4.294 -44.129  1.00  0.00    -0.308 N 
ATOM      3  H3  UNL     1     -10.685  -3.714 -43.316  1.00  0.00     0.183 HD
BRANCH   2   4
HETATM    4  N2  UNL     1      -9.175  -4.467 -44.569  1.00  0.00    -0.312 N 
ATOM      5  H2  UNL     1      -8.589  -3.653 -44.751  1.00  0.00     0.185 HD
BRANCH   4   6
HETATM    6  C5  UNL     1      -8.707  -5.637 -44.748  1.00  0.00     0.137 C 
BRANCH   6   7
HETATM    7  C4  UNL     1      -7.777  -6.201 -43.780  1.00  0.00     0.066 A 
HETATM    8  C3  UNL     1      -7.132  -7.442 -43.885  1.00  0.00     0.051 A 
HETATM    9  C2  UNL     1      -6.343  -7.590 -42.764  1.00  0.00     0.112 A 
HETATM   10  N1  UNL     1      -6.502  -6.487 -42.012  1.00  0.00    -0.307 N 
HETATM   11  C1  UNL     1      -5.812  -6.285 -40.730  1.00  0.00     0.177 C 
HETATM   12  N6  UNL     1      -7.340  -5.690 -42.620  1.00  0.00    -0.298 N 
ATOM     13  H6  UNL     1      -7.629  -4.783 -42.254  1.00  0.00     0.187 HD
ENDBRANCH   6   7
ENDBRANCH   4   6
ENDBRANCH   2   4
ENDBRANCH   1   2
BRANCH   1  14
HETATM   14  O1  UNL     1     -11.937  -4.242 -45.982  1.00  0.00    -0.376 OA
ATOM     15  H1  UNL     1     -12.858  -4.013 -45.947  1.00  0.00     0.212 HD
ENDBRANCH   1  14
BRANCH   1  16
HETATM   16  C7  UNL     1     -12.779  -5.123 -43.988  1.00  0.00     0.082 C 
BRANCH  16  17
HETATM   17  C8  UNL     1     -12.333  -5.880 -42.751  1.00  0.00     0.237 C 
BRANCH  17  18
HETATM   18  N4  UNL     1     -11.615  -7.089 -43.099  1.00  0.00    -0.068 N 
ATOM     19  H42 UNL     1     -12.074  -7.628 -43.833  1.00  0.00     0.277 HD
ATOM     20  H41 UNL     1     -10.742  -6.906 -43.595  1.00  0.00     0.277 HD
BRANCH  18  21
HETATM   21  C9  UNL     1     -11.424  -7.846 -41.875  1.00  0.00     0.236 C 
HETATM   22  C10 UNL     1      -9.975  -8.152 -41.566  1.00  0.00     0.267 C 
HETATM   23  N5  UNL     1      -9.947  -6.910 -40.791  1.00  0.00    -0.071 N 
HETATM   24  C11 UNL     1     -11.382  -6.930 -40.673  1.00  0.00     0.267 C 
ATOM     25  H52 UNL     1      -9.372  -6.852 -39.950  1.00  0.00     0.277 HD
ATOM     26  H51 UNL     1      -9.484  -6.086 -41.174  1.00  0.00     0.277 HD
ENDBRANCH  18  21
ENDBRANCH  17  18
ENDBRANCH  16  17
ENDBRANCH   1  16
TORSDOF 9
ENDMDL
MODEL 5
REMARK VINA RESULT: -6.028502470      1.860      5.202
REMARK  9 active torsions:
REMARK  status: ('A' for Active; 'I' for Inactive)
REMARK    1  A    between atoms: C4_5  and  C5_6 
REMARK    2  A    between atoms: C5_6  and  N2_7 
REMARK    3  A    between atoms: N2_7  and  N3_9 
REMARK    4  A    between atoms: N3_9  and  C6_11 
REMARK    5  A    between atoms: C6_11  and  O1_12 
REMARK    6  A    between atoms: C6_11  and  C7_14 
REMARK    7  A    between atoms: C7_14  and  C8_15 
REMARK    8  A    between atoms: C8_15  and  N4_16 
REMARK    9  A    between atoms: N4_16  and  C9_19 
ROOT
HETATM    1  C6  UNL     1     -11.641  -4.973 -45.048  1.00  0.00     0.234 C 
ENDROOT
BRANCH   1   2
HETATM    2  N3  UNL     1     -10.507  -4.446 -44.315  1.00  0.00    -0.308 N 
ATOM      3  H3  UNL     1     -10.632  -3.768 -43.564  1.00  0.00     0.183 HD
BRANCH   2   4
HETATM    4  N2  UNL     1      -9.247  -4.896 -44.670  1.00  0.00    -0.312 N 
ATOM      5  H2  UNL     1      -9.147  -5.591 -45.410  1.00  0.00     0.185 HD
BRANCH   4   6
HETATM    6  C5  UNL     1      -8.213  -4.447 -44.079  1.00  0.00     0.137 C 
BRANCH   6   7
HETATM    7  C4  UNL     1      -7.129  -3.865 -44.857  1.00  0.00     0.066 A 
HETATM    8  C3  UNL     1      -5.840  -4.399 -45.002  1.00  0.00     0.051 A 
HETATM    9  C2  UNL     1      -5.129  -3.542 -45.814  1.00  0.00     0.112 A 
HETATM   10  N1  UNL     1      -5.951  -2.532 -46.149  1.00  0.00    -0.307 N 
HETATM   11  C1  UNL     1      -5.539  -1.418 -47.014  1.00  0.00     0.177 C 
HETATM   12  N6  UNL     1      -7.110  -2.738 -45.583  1.00  0.00    -0.298 N 
ATOM     13  H6  UNL     1      -7.910  -2.112 -45.681  1.00  0.00     0.187 HD
ENDBRANCH   6   7
ENDBRANCH   4   6
ENDBRANCH   2   4
ENDBRANCH   1   2
BRANCH   1  14
HETATM   14  O1  UNL     1     -12.047  -4.123 -46.073  1.00  0.00    -0.376 OA
ATOM     15  H1  UNL     1     -11.314  -3.780 -46.569  1.00  0.00     0.212 HD
ENDBRANCH   1  14
BRANCH   1  16
HETATM   16  C7  UNL     1     -12.854  -5.126 -44.124  1.00  0.00     0.082 C 
BRANCH  16  17
HETATM   17  C8  UNL     1     -12.303  -5.524 -42.767  1.00  0.00     0.237 C 
BRANCH  17  18
HETATM   18  N4  UNL     1     -12.399  -6.953 -42.553  1.00  0.00    -0.068 N 
ATOM     19  H42 UNL     1     -13.036  -7.201 -41.796  1.00  0.00     0.277 HD
ATOM     20  H41 UNL     1     -12.891  -7.437 -43.304  1.00  0.00     0.277 HD
BRANCH  18  21
HETATM   21  C9  UNL     1     -11.051  -7.451 -42.346  1.00  0.00     0.236 C 
HETATM   22  C10 UNL     1     -10.213  -6.583 -41.433  1.00  0.00     0.267 C 
HETATM   23  N5  UNL     1     -10.680  -7.416 -40.323  1.00  0.00    -0.071 N 
HETATM   24  C11 UNL     1     -11.017  -8.478 -41.236  1.00  0.00     0.267 C 
ATOM     25  H52 UNL     1     -10.059  -7.605 -39.536  1.00  0.00     0.277 HD
ATOM     26  H51 UNL     1     -11.390  -7.055 -39.685  1.00  0.00     0.277 HD
ENDBRANCH  18  21
ENDBRANCH  17  18
ENDBRANCH  16  17
ENDBRANCH   1  16
TORSDOF 9
ENDMDL
