MODEL 1
REMARK VINA RESULT: -6.878718684      0.000      0.000
REMARK  12 active torsions:
REMARK  status: ('A' for Active; 'I' for Inactive)
REMARK    1  A    between atoms: N1_2  and  C2_4 
REMARK    2  A    between atoms: C2_4  and  C3_5 
REMARK    3  A    between atoms: C3_5  and  N2_6 
REMARK    4  A    between atoms: C4_12  and  S1_13 
REMARK    5  A    between atoms: S1_13  and  C5_14 
REMARK    6  A    between atoms: C5_14  and  C6_15 
REMARK    7  A    between atoms: C6_15  and  N6_16 
REMARK    8  A    between atoms: N6_16  and  C7_18 
REMARK    9  A    between atoms: C8_21  and  N8_22 
REMARK   10  A    between atoms: C9_27  and  N10_28 
REMARK   11  A    between atoms: C10_31  and  C11_32 
REMARK   12  A    between atoms: C11_32  and  N11_33 
ROOT
HETATM    1  C7  UNL     1      -7.513  27.695 -24.488  1.00  0.00     0.132 A 
HETATM    2  N7  UNL     1      -6.254  28.050 -24.773  1.00  0.00    -0.176 N 
ATOM      3  H7  UNL     1      -6.027  29.022 -24.985  1.00  0.00     0.186 HD
HETATM    4  C8  UNL     1      -5.272  27.090 -24.776  1.00  0.00     0.679 A 
HETATM    5  N9  UNL     1      -5.493  25.811 -24.504  1.00  0.00    -0.177 N 
ATOM      6  H9  UNL     1      -4.719  25.146 -24.518  1.00  0.00     0.186 HD
HETATM    7  C9  UNL     1      -6.753  25.383 -24.207  1.00  0.00     0.126 A 
HETATM    8  C10 UNL     1      -7.726  26.307 -24.202  1.00  0.00     0.056 A 
ENDROOT
BRANCH   1   9
HETATM    9  N6  UNL     1      -8.651  28.479 -24.680  1.00  0.00    -0.354 N 
ATOM     10  H6  UNL     1      -9.459  27.930 -24.387  1.00  0.00     0.166 HD
BRANCH   9  11
HETATM   11  C6  UNL     1      -9.106  29.695 -25.107  1.00  0.00     0.073 C 
BRANCH  11  12
HETATM   12  C5  UNL     1     -10.505  30.206 -24.932  1.00  0.00     0.127 C 
BRANCH  12  13
HETATM   13  S1  UNL     1     -11.643  29.216 -25.883  1.00  0.00    -0.086 SA
BRANCH  13  14
HETATM   14  C4  UNL     1     -12.257  27.728 -25.174  1.00  0.00     0.175 A 
HETATM   15  N2  UNL     1     -12.645  26.608 -25.826  1.00  0.00    -0.251 N 
HETATM   16  N3  UNL     1     -13.155  25.721 -24.959  1.00  0.00    -0.002 NA
HETATM   17  N4  UNL     1     -13.078  26.290 -23.717  1.00  0.00    -0.224 N 
HETATM   18  N5  UNL     1     -12.545  27.475 -23.863  1.00  0.00    -0.266 N 
ATOM     19  H4  UNL     1     -13.381  25.867 -22.839  1.00  0.00     0.205 HD
ATOM     20  H5  UNL     1     -12.366  28.126 -23.097  1.00  0.00     0.190 HD
BRANCH  15  21
HETATM   21  C3  UNL     1     -12.405  26.414 -27.203  1.00  0.00     0.168 C 
BRANCH  21  22
HETATM   22  C2  UNL     1     -11.689  25.100 -27.520  1.00  0.00     0.139 C 
BRANCH  22  23
HETATM   23  N1  UNL     1     -12.851  24.221 -27.820  1.00  0.00    -0.406 N 
HETATM   24  C1  UNL     1     -12.492  23.191 -28.477  1.00  0.00     0.112 C 
ATOM     25  H1  UNL     1     -13.811  24.418 -27.536  1.00  0.00     0.158 HD
ENDBRANCH  22  23
ENDBRANCH  21  22
ENDBRANCH  15  21
ENDBRANCH  13  14
ENDBRANCH  12  13
ENDBRANCH  11  12
ENDBRANCH   9  11
ENDBRANCH   1   9
BRANCH   8  26
HETATM   26  C11 UNL     1      -9.084  26.079 -23.627  1.00  0.00     0.275 C 
BRANCH  26  27
HETATM   27  N11 UNL     1      -9.839  25.166 -24.487  1.00  0.00    -0.075 N 
ATOM     28 3H11 UNL     1      -9.227  24.573 -25.047  1.00  0.00     0.274 HD
ATOM     29 2H11 UNL     1     -10.306  24.434 -23.952  1.00  0.00     0.274 HD
ATOM     30 1H11 UNL     1     -10.493  25.696 -25.063  1.00  0.00     0.274 HD
ENDBRANCH  26  27
ENDBRANCH   8  26
BRANCH   4  31
HETATM   31  N8  UNL     1      -4.112  27.459 -25.110  1.00  0.00    -0.234 N 
ATOM     32  H82 UNL     1      -3.784  27.278 -26.059  1.00  0.00     0.174 HD
ATOM     33  H81 UNL     1      -3.569  27.967 -24.412  1.00  0.00     0.174 HD
ENDBRANCH   4  31
BRANCH   7  34
HETATM   34  N10 UNL     1      -6.900  24.160 -23.875  1.00  0.00    -0.384 N 
ATOM     35 2H10 UNL     1      -6.223  23.419 -24.052  1.00  0.00     0.157 HD
ATOM     36 1H10 UNL     1      -7.791  23.887 -23.460  1.00  0.00     0.157 HD
ENDBRANCH   7  34
TORSDOF 12
ENDMDL
MODEL 2
REMARK VINA RESULT: -6.857248236      1.733      2.285
REMARK  12 active torsions:
REMARK  status: ('A' for Active; 'I' for Inactive)
REMARK    1  A    between atoms: N1_2  and  C2_4 
REMARK    2  A    between atoms: C2_4  and  C3_5 
REMARK    3  A    between atoms: C3_5  and  N2_6 
REMARK    4  A    between atoms: C4_12  and  S1_13 
REMARK    5  A    between atoms: S1_13  and  C5_14 
REMARK    6  A    between atoms: C5_14  and  C6_15 
REMARK    7  A    between atoms: C6_15  and  N6_16 
REMARK    8  A    between atoms: N6_16  and  C7_18 
REMARK    9  A    between atoms: C8_21  and  N8_22 
REMARK   10  A    between atoms: C9_27  and  N10_28 
REMARK   11  A    between atoms: C10_31  and  C11_32 
REMARK   12  A    between atoms: C11_32  and  N11_33 
ROOT
HETATM    1  C7  UNL     1      -7.575  27.693 -24.531  1.00  0.00     0.132 A 
HETATM    2  N7  UNL     1      -6.318  28.077 -24.784  1.00  0.00    -0.176 N 
ATOM      3  H7  UNL     1      -6.109  29.052 -24.999  1.00  0.00     0.186 HD
HETATM    4  C8  UNL     1      -5.313  27.142 -24.752  1.00  0.00     0.679 A 
HETATM    5  N9  UNL     1      -5.509  25.859 -24.476  1.00  0.00    -0.177 N 
ATOM      6  H9  UNL     1      -4.719  25.214 -24.463  1.00  0.00     0.186 HD
HETATM    7  C9  UNL     1      -6.766  25.403 -24.209  1.00  0.00     0.126 A 
HETATM    8  C10 UNL     1      -7.761  26.303 -24.239  1.00  0.00     0.056 A 
ENDROOT
BRANCH   1   9
HETATM    9  N6  UNL     1      -8.726  28.447 -24.760  1.00  0.00    -0.354 N 
ATOM     10  H6  UNL     1      -9.531  27.853 -24.561  1.00  0.00     0.166 HD
BRANCH   9  11
HETATM   11  C6  UNL     1      -9.197  29.669 -25.148  1.00  0.00     0.073 C 
BRANCH  11  12
HETATM   12  C5  UNL     1     -10.392  30.362 -24.564  1.00  0.00     0.127 C 
BRANCH  12  13
HETATM   13  S1  UNL     1     -11.839  30.024 -25.551  1.00  0.00    -0.086 SA
BRANCH  13  14
HETATM   14  C4  UNL     1     -12.071  28.393 -26.171  1.00  0.00     0.175 A 
HETATM   15  N2  UNL     1     -12.489  27.307 -25.482  1.00  0.00    -0.251 N 
HETATM   16  N3  UNL     1     -12.442  26.218 -26.262  1.00  0.00    -0.002 NA
HETATM   17  N4  UNL     1     -11.991  26.626 -27.488  1.00  0.00    -0.224 N 
HETATM   18  N5  UNL     1     -11.777  27.915 -27.416  1.00  0.00    -0.266 N 
ATOM     19  H4  UNL     1     -11.848  26.035 -28.307  1.00  0.00     0.205 HD
ATOM     20  H5  UNL     1     -11.437  28.488 -28.188  1.00  0.00     0.190 HD
BRANCH  15  21
HETATM   21  C3  UNL     1     -13.006  27.396 -24.172  1.00  0.00     0.168 C 
BRANCH  21  22
HETATM   22  C2  UNL     1     -13.697  26.116 -23.698  1.00  0.00     0.139 C 
BRANCH  22  23
HETATM   23  N1  UNL     1     -14.850  26.065 -24.635  1.00  0.00    -0.406 N 
HETATM   24  C1  UNL     1     -15.916  25.711 -24.034  1.00  0.00     0.112 C 
ATOM     25  H1  UNL     1     -14.794  26.284 -25.630  1.00  0.00     0.158 HD
ENDBRANCH  22  23
ENDBRANCH  21  22
ENDBRANCH  15  21
ENDBRANCH  13  14
ENDBRANCH  12  13
ENDBRANCH  11  12
ENDBRANCH   9  11
ENDBRANCH   1   9
BRANCH   8  26
HETATM   26  C11 UNL     1      -9.129  26.045 -23.698  1.00  0.00     0.275 C 
BRANCH  26  27
HETATM   27  N11 UNL     1      -9.889  25.226 -24.644  1.00  0.00    -0.075 N 
ATOM     28 3H11 UNL     1     -10.894  25.291 -24.485  1.00  0.00     0.274 HD
ATOM     29 2H11 UNL     1      -9.863  25.608 -25.589  1.00  0.00     0.274 HD
ATOM     30 1H11 UNL     1      -9.557  24.262 -24.610  1.00  0.00     0.274 HD
ENDBRANCH  26  27
ENDBRANCH   8  26
BRANCH   4  31
HETATM   31  N8  UNL     1      -4.153  27.537 -25.058  1.00  0.00    -0.234 N 
ATOM     32  H82 UNL     1      -4.002  28.522 -25.274  1.00  0.00     0.174 HD
ATOM     33  H81 UNL     1      -3.406  26.842 -25.032  1.00  0.00     0.174 HD
ENDBRANCH   4  31
BRANCH   7  34
HETATM   34  N10 UNL     1      -6.892  24.179 -23.870  1.00  0.00    -0.384 N 
ATOM     35 2H10 UNL     1      -6.229  23.658 -23.297  1.00  0.00     0.157 HD
ATOM     36 1H10 UNL     1      -7.680  23.661 -24.257  1.00  0.00     0.157 HD
ENDBRANCH   7  34
TORSDOF 12
ENDMDL
MODEL 3
REMARK VINA RESULT: -6.851522826      1.858      2.272
REMARK  12 active torsions:
REMARK  status: ('A' for Active; 'I' for Inactive)
REMARK    1  A    between atoms: N1_2  and  C2_4 
REMARK    2  A    between atoms: C2_4  and  C3_5 
REMARK    3  A    between atoms: C3_5  and  N2_6 
REMARK    4  A    between atoms: C4_12  and  S1_13 
REMARK    5  A    between atoms: S1_13  and  C5_14 
REMARK    6  A    between atoms: C5_14  and  C6_15 
REMARK    7  A    between atoms: C6_15  and  N6_16 
REMARK    8  A    between atoms: N6_16  and  C7_18 
REMARK    9  A    between atoms: C8_21  and  N8_22 
REMARK   10  A    between atoms: C9_27  and  N10_28 
REMARK   11  A    between atoms: C10_31  and  C11_32 
REMARK   12  A    between atoms: C11_32  and  N11_33 
ROOT
HETATM    1  C7  UNL     1      -7.494  27.768 -24.521  1.00  0.00     0.132 A 
HETATM    2  N7  UNL     1      -6.224  28.105 -24.775  1.00  0.00    -0.176 N 
ATOM      3  H7  UNL     1      -5.977  29.073 -24.978  1.00  0.00     0.186 HD
HETATM    4  C8  UNL     1      -5.257  27.129 -24.760  1.00  0.00     0.679 A 
HETATM    5  N9  UNL     1      -5.505  25.852 -24.500  1.00  0.00    -0.177 N 
ATOM      6  H9  UNL     1      -4.742  25.174 -24.500  1.00  0.00     0.186 HD
HETATM    7  C9  UNL     1      -6.778  25.443 -24.234  1.00  0.00     0.126 A 
HETATM    8  C10 UNL     1      -7.736  26.383 -24.247  1.00  0.00     0.056 A 
ENDROOT
BRANCH   1   9
HETATM    9  N6  UNL     1      -8.615  28.571 -24.735  1.00  0.00    -0.354 N 
ATOM     10  H6  UNL     1      -9.421  28.094 -24.331  1.00  0.00     0.166 HD
BRANCH   9  11
HETATM   11  C6  UNL     1      -9.055  29.747 -25.275  1.00  0.00     0.073 C 
BRANCH  11  12
HETATM   12  C5  UNL     1      -9.809  30.811 -24.535  1.00  0.00     0.127 C 
BRANCH  12  13
HETATM   13  S1  UNL     1     -11.563  30.505 -24.639  1.00  0.00    -0.086 SA
BRANCH  13  14
HETATM   14  C4  UNL     1     -12.266  30.178 -26.219  1.00  0.00     0.175 A 
HETATM   15  N2  UNL     1     -12.317  28.990 -26.864  1.00  0.00    -0.251 N 
HETATM   16  N3  UNL     1     -12.832  29.150 -28.091  1.00  0.00    -0.002 NA
HETATM   17  N4  UNL     1     -13.128  30.479 -28.226  1.00  0.00    -0.224 N 
HETATM   18  N5  UNL     1     -12.788  31.071 -27.110  1.00  0.00    -0.266 N 
ATOM     19  H4  UNL     1     -13.539  30.926 -29.046  1.00  0.00     0.205 HD
ATOM     20  H5  UNL     1     -12.898  32.069 -26.929  1.00  0.00     0.190 HD
BRANCH  15  21
HETATM   21  C3  UNL     1     -11.977  27.774 -26.233  1.00  0.00     0.168 C 
BRANCH  21  22
HETATM   22  C2  UNL     1     -12.639  26.549 -26.868  1.00  0.00     0.139 C 
BRANCH  22  23
HETATM   23  N1  UNL     1     -11.792  26.377 -28.078  1.00  0.00    -0.406 N 
HETATM   24  C1  UNL     1     -12.201  25.403 -28.791  1.00  0.00     0.112 C 
ATOM     25  H1  UNL     1     -10.989  26.963 -28.307  1.00  0.00     0.158 HD
ENDBRANCH  22  23
ENDBRANCH  21  22
ENDBRANCH  15  21
ENDBRANCH  13  14
ENDBRANCH  12  13
ENDBRANCH  11  12
ENDBRANCH   9  11
ENDBRANCH   1   9
BRANCH   8  26
HETATM   26  C11 UNL     1      -9.111  26.173 -23.704  1.00  0.00     0.275 C 
BRANCH  26  27
HETATM   27  N11 UNL     1      -9.890  25.351 -24.631  1.00  0.00    -0.075 N 
ATOM     28 3H11 UNL     1     -10.544  25.908 -25.180  1.00  0.00     0.274 HD
ATOM     29 2H11 UNL     1      -9.320  24.994 -25.398  1.00  0.00     0.274 HD
ATOM     30 1H11 UNL     1     -10.358  24.603 -24.120  1.00  0.00     0.274 HD
ENDBRANCH  26  27
ENDBRANCH   8  26
BRANCH   4  31
HETATM   31  N8  UNL     1      -4.084  27.480 -25.066  1.00  0.00    -0.234 N 
ATOM     32  H82 UNL     1      -3.807  28.454 -24.943  1.00  0.00     0.174 HD
ATOM     33  H81 UNL     1      -3.451  26.748 -25.387  1.00  0.00     0.174 HD
ENDBRANCH   4  31
BRANCH   7  34
HETATM   34  N10 UNL     1      -6.952  24.221 -23.911  1.00  0.00    -0.384 N 
ATOM     35 2H10 UNL     1      -6.644  23.795 -23.038  1.00  0.00     0.157 HD
ATOM     36 1H10 UNL     1      -7.371  23.604 -24.607  1.00  0.00     0.157 HD
ENDBRANCH   7  34
TORSDOF 12
ENDMDL
MODEL 4
REMARK VINA RESULT: -6.844806993      1.724      2.544
REMARK  12 active torsions:
REMARK  status: ('A' for Active; 'I' for Inactive)
REMARK    1  A    between atoms: N1_2  and  C2_4 
REMARK    2  A    between atoms: C2_4  and  C3_5 
REMARK    3  A    between atoms: C3_5  and  N2_6 
REMARK    4  A    between atoms: C4_12  and  S1_13 
REMARK    5  A    between atoms: S1_13  and  C5_14 
REMARK    6  A    between atoms: C5_14  and  C6_15 
REMARK    7  A    between atoms: C6_15  and  N6_16 
REMARK    8  A    between atoms: N6_16  and  C7_18 
REMARK    9  A    between atoms: C8_21  and  N8_22 
REMARK   10  A    between atoms: C9_27  and  N10_28 
REMARK   11  A    between atoms: C10_31  and  C11_32 
REMARK   12  A    between atoms: C11_32  and  N11_33 
ROOT
HETATM    1  C7  UNL     1      -7.498  27.712 -24.535  1.00  0.00     0.132 A 
HETATM    2  N7  UNL     1      -6.226  28.053 -24.773  1.00  0.00    -0.176 N 
ATOM      3  H7  UNL     1      -5.980  29.022 -24.974  1.00  0.00     0.186 HD
HETATM    4  C8  UNL     1      -5.256  27.082 -24.743  1.00  0.00     0.679 A 
HETATM    5  N9  UNL     1      -5.501  25.804 -24.484  1.00  0.00    -0.177 N 
ATOM      6  H9  UNL     1      -4.735  25.130 -24.472  1.00  0.00     0.186 HD
HETATM    7  C9  UNL     1      -6.776  25.390 -24.233  1.00  0.00     0.126 A 
HETATM    8  C10 UNL     1      -7.738  26.326 -24.262  1.00  0.00     0.056 A 
ENDROOT
BRANCH   1   9
HETATM    9  N6  UNL     1      -8.620  28.509 -24.766  1.00  0.00    -0.354 N 
ATOM     10  H6  UNL     1      -9.447  27.950 -24.556  1.00  0.00     0.166 HD
BRANCH   9  11
HETATM   11  C6  UNL     1      -9.043  29.746 -25.163  1.00  0.00     0.073 C 
BRANCH  11  12
HETATM   12  C5  UNL     1     -10.215  30.486 -24.590  1.00  0.00     0.127 C 
BRANCH  12  13
HETATM   13  S1  UNL     1     -11.679  30.152 -25.553  1.00  0.00    -0.086 SA
BRANCH  13  14
HETATM   14  C4  UNL     1     -12.014  28.490 -26.025  1.00  0.00     0.175 A 
HETATM   15  N2  UNL     1     -12.491  27.496 -25.241  1.00  0.00    -0.251 N 
HETATM   16  N3  UNL     1     -12.516  26.341 -25.922  1.00  0.00    -0.002 NA
HETATM   17  N4  UNL     1     -12.052  26.612 -27.180  1.00  0.00    -0.224 N 
HETATM   18  N5  UNL     1     -11.761  27.887 -27.223  1.00  0.00    -0.266 N 
ATOM     19  H4  UNL     1     -11.952  25.944 -27.944  1.00  0.00     0.205 HD
ATOM     20  H5  UNL     1     -11.393  28.368 -28.045  1.00  0.00     0.190 HD
BRANCH  15  21
HETATM   21  C3  UNL     1     -12.989  27.732 -23.942  1.00  0.00     0.168 C 
BRANCH  21  22
HETATM   22  C2  UNL     1     -13.887  26.609 -23.418  1.00  0.00     0.139 C 
BRANCH  22  23
HETATM   23  N1  UNL     1     -12.871  25.697 -22.831  1.00  0.00    -0.406 N 
HETATM   24  C1  UNL     1     -12.427  26.152 -21.726  1.00  0.00     0.112 C 
ATOM     25  H1  UNL     1     -12.568  24.821 -23.257  1.00  0.00     0.158 HD
ENDBRANCH  22  23
ENDBRANCH  21  22
ENDBRANCH  15  21
ENDBRANCH  13  14
ENDBRANCH  12  13
ENDBRANCH  11  12
ENDBRANCH   9  11
ENDBRANCH   1   9
BRANCH   8  26
HETATM   26  C11 UNL     1      -9.118  26.111 -23.736  1.00  0.00     0.275 C 
BRANCH  26  27
HETATM   27  N11 UNL     1      -9.874  25.263 -24.660  1.00  0.00    -0.075 N 
ATOM     28 3H11 UNL     1     -10.582  25.790 -25.171  1.00  0.00     0.274 HD
ATOM     29 2H11 UNL     1      -9.309  24.964 -25.455  1.00  0.00     0.274 HD
ATOM     30 1H11 UNL     1     -10.274  24.473 -24.155  1.00  0.00     0.274 HD
ENDBRANCH  26  27
ENDBRANCH   8  26
BRANCH   4  31
HETATM   31  N8  UNL     1      -4.080  27.438 -25.035  1.00  0.00    -0.234 N 
ATOM     32  H82 UNL     1      -3.445  27.720 -24.289  1.00  0.00     0.174 HD
ATOM     33  H81 UNL     1      -3.810  27.382 -26.017  1.00  0.00     0.174 HD
ENDBRANCH   4  31
BRANCH   7  34
HETATM   34  N10 UNL     1      -6.949  24.168 -23.911  1.00  0.00    -0.384 N 
ATOM     35 2H10 UNL     1      -6.654  23.367 -24.468  1.00  0.00     0.157 HD
ATOM     36 1H10 UNL     1      -7.483  23.974 -23.064  1.00  0.00     0.157 HD
ENDBRANCH   7  34
TORSDOF 12
ENDMDL
MODEL 5
REMARK VINA RESULT: -6.837698457      1.358      1.514
REMARK  12 active torsions:
REMARK  status: ('A' for Active; 'I' for Inactive)
REMARK    1  A    between atoms: N1_2  and  C2_4 
REMARK    2  A    between atoms: C2_4  and  C3_5 
REMARK    3  A    between atoms: C3_5  and  N2_6 
REMARK    4  A    between atoms: C4_12  and  S1_13 
REMARK    5  A    between atoms: S1_13  and  C5_14 
REMARK    6  A    between atoms: C5_14  and  C6_15 
REMARK    7  A    between atoms: C6_15  and  N6_16 
REMARK    8  A    between atoms: N6_16  and  C7_18 
REMARK    9  A    between atoms: C8_21  and  N8_22 
REMARK   10  A    between atoms: C9_27  and  N10_28 
REMARK   11  A    between atoms: C10_31  and  C11_32 
REMARK   12  A    between atoms: C11_32  and  N11_33 
ROOT
HETATM    1  C7  UNL     1      -7.714  28.084 -24.664  1.00  0.00     0.132 A 
HETATM    2  N7  UNL     1      -6.798  28.992 -25.020  1.00  0.00    -0.176 N 
ATOM      3  H7  UNL     1      -7.083  29.930 -25.301  1.00  0.00     0.186 HD
HETATM    4  C8  UNL     1      -5.469  28.644 -25.004  1.00  0.00     0.679 A 
HETATM    5  N9  UNL     1      -5.026  27.446 -24.646  1.00  0.00    -0.177 N 
ATOM      6  H9  UNL     1      -4.025  27.250 -24.650  1.00  0.00     0.186 HD
HETATM    7  C9  UNL     1      -5.908  26.476 -24.272  1.00  0.00     0.126 A 
HETATM    8  C10 UNL     1      -7.211  26.797 -24.285  1.00  0.00     0.056 A 
ENDROOT
BRANCH   1   9
HETATM    9  N6  UNL     1      -9.092  28.188 -24.857  1.00  0.00    -0.354 N 
ATOM     10  H6  UNL     1      -9.428  27.284 -25.191  1.00  0.00     0.166 HD
BRANCH   9  11
HETATM   11  C6  UNL     1     -10.168  29.026 -24.775  1.00  0.00     0.073 C 
BRANCH  11  12
HETATM   12  C5  UNL     1     -11.303  28.886 -23.806  1.00  0.00     0.127 C 
BRANCH  12  13
HETATM   13  S1  UNL     1     -11.718  27.164 -23.593  1.00  0.00    -0.086 SA
BRANCH  13  14
HETATM   14  C4  UNL     1     -13.175  26.550 -24.366  1.00  0.00     0.175 A 
HETATM   15  N2  UNL     1     -13.378  26.345 -25.688  1.00  0.00    -0.251 N 
HETATM   16  N3  UNL     1     -14.646  25.971 -25.909  1.00  0.00    -0.002 NA
HETATM   17  N4  UNL     1     -15.265  25.924 -24.690  1.00  0.00    -0.224 N 
HETATM   18  N5  UNL     1     -14.380  26.269 -23.789  1.00  0.00    -0.266 N 
ATOM     19  H4  UNL     1     -16.236  25.668 -24.514  1.00  0.00     0.205 HD
ATOM     20  H5  UNL     1     -14.566  26.321 -22.787  1.00  0.00     0.190 HD
BRANCH  15  21
HETATM   21  C3  UNL     1     -12.331  26.413 -26.631  1.00  0.00     0.168 C 
BRANCH  21  22
HETATM   22  C2  UNL     1     -11.728  25.050 -26.975  1.00  0.00     0.139 C 
BRANCH  22  23
HETATM   23  N1  UNL     1     -12.838  24.450 -27.762  1.00  0.00    -0.406 N 
HETATM   24  C1  UNL     1     -12.430  23.463 -28.457  1.00  0.00     0.112 C 
ATOM     25  H1  UNL     1     -13.801  24.785 -27.747  1.00  0.00     0.158 HD
ENDBRANCH  22  23
ENDBRANCH  21  22
ENDBRANCH  15  21
ENDBRANCH  13  14
ENDBRANCH  12  13
ENDBRANCH  11  12
ENDBRANCH   9  11
ENDBRANCH   1   9
BRANCH   8  26
HETATM   26  C11 UNL     1      -8.275  25.971 -23.642  1.00  0.00     0.275 C 
BRANCH  26  27
HETATM   27  N11 UNL     1      -8.724  24.932 -24.570  1.00  0.00    -0.075 N 
ATOM     28 3H11 UNL     1      -8.119  24.111 -24.549  1.00  0.00     0.274 HD
ATOM     29 2H11 UNL     1      -9.588  24.487 -24.259  1.00  0.00     0.274 HD
ATOM     30 1H11 UNL     1      -8.810  25.321 -25.509  1.00  0.00     0.274 HD
ENDBRANCH  26  27
ENDBRANCH   8  26
BRANCH   4  31
HETATM   31  N8  UNL     1      -4.645  29.512 -25.407  1.00  0.00    -0.234 N 
ATOM     32  H82 UNL     1      -3.899  29.819 -24.784  1.00  0.00     0.174 HD
ATOM     33  H81 UNL     1      -4.747  29.833 -26.370  1.00  0.00     0.174 HD
ENDBRANCH   4  31
BRANCH   7  34
HETATM   34  N10 UNL     1      -5.429  25.368 -23.860  1.00  0.00    -0.384 N 
ATOM     35 2H10 UNL     1      -5.449  25.042 -22.894  1.00  0.00     0.157 HD
ATOM     36 1H10 UNL     1      -4.926  24.790 -24.534  1.00  0.00     0.157 HD
ENDBRANCH   7  34
TORSDOF 12
ENDMDL
