MODEL 1
REMARK VINA RESULT: -6.163771118      0.000      0.000
REMARK  11 active torsions:
REMARK  status: ('A' for Active; 'I' for Inactive)
REMARK    1  A    between atoms: O1_2  and  C2_3 
REMARK    2  A    between atoms: C4_5  and  C5_6 
REMARK    3  A    between atoms: C5_6  and  N1_7 
REMARK    4  A    between atoms: N1_7  and  C6_8 
REMARK    5  A    between atoms: C9_11  and  O2_12 
REMARK    6  A    between atoms: C9_11  and  C10_14 
REMARK    7  A    between atoms: C10_14  and  C11_15 
REMARK    8  A    between atoms: C10_14  and  C17_21 
REMARK    9  A    between atoms: C11_15  and  C12_16 
REMARK   10  A    between atoms: C12_16  and  C13_17 
REMARK   11  A    between atoms: C17_21  and  O3_24 
ROOT
HETATM    1  C2  UNL     1      20.659  -1.003 -29.727  1.00  0.00     0.132 C 
HETATM    2  C3  UNL     1      22.155  -0.899 -29.652  1.00  0.00     0.046 C 
HETATM    3  C4  UNL     1      22.402  -0.515 -28.269  1.00  0.00     0.076 C 
HETATM    4  C9  UNL     1      21.216  -1.074 -27.454  1.00  0.00     0.083 C 
HETATM    5  C20 UNL     1      20.097  -0.706 -28.344  1.00  0.00     0.011 C 
HETATM    6  C21 UNL     1      18.899  -1.660 -28.229  1.00  0.00     0.020 C 
HETATM    7  C22 UNL     1      19.597   0.664 -28.403  1.00  0.00     0.020 C 
ENDROOT
BRANCH   4   8
HETATM    8  O2  UNL     1      21.252  -2.442 -27.658  1.00  0.00    -0.388 OA
ATOM      9  H2  UNL     1      20.616  -2.607 -28.345  1.00  0.00     0.210 HD
ENDBRANCH   4   8
BRANCH   4  10
HETATM   10  C10 UNL     1      21.311  -0.749 -26.068  1.00  0.00     0.055 C 
BRANCH  10  11
HETATM   11  C11 UNL     1      21.193   0.766 -25.794  1.00  0.00     0.014 C 
BRANCH  11  12
HETATM   12  C12 UNL     1      20.229   1.224 -24.828  1.00  0.00     0.028 C 
BRANCH  12  13
HETATM   13  C13 UNL     1      20.803   2.015 -23.716  1.00  0.00    -0.025 C 
HETATM   14  C14 UNL     1      21.162   1.797 -22.512  1.00  0.00    -0.091 C 
HETATM   15  C15 UNL     1      21.723   3.005 -21.737  1.00  0.00     0.042 C 
HETATM   16  C16 UNL     1      21.128   0.565 -21.736  1.00  0.00     0.042 C 
ENDBRANCH  12  13
ENDBRANCH  11  12
ENDBRANCH  10  11
BRANCH  10  17
HETATM   17  C17 UNL     1      22.253  -1.293 -25.084  1.00  0.00     0.057 C 
HETATM   18  C18 UNL     1      21.795  -2.093 -23.950  1.00  0.00     0.045 C 
HETATM   19  C19 UNL     1      23.347  -0.349 -24.598  1.00  0.00     0.045 C 
BRANCH  17  20
HETATM   20  O3  UNL     1      23.087  -2.183 -25.853  1.00  0.00    -0.390 OA
ATOM     21  H3  UNL     1      23.909  -1.714 -25.937  1.00  0.00     0.210 HD
ENDBRANCH  17  20
ENDBRANCH  10  17
ENDBRANCH   4  10
BRANCH   3  22
HETATM   22  C5  UNL     1      22.783   0.831 -27.978  1.00  0.00     0.162 C 
BRANCH  22  23
HETATM   23  N1  UNL     1      23.243   1.504 -28.939  1.00  0.00    -0.431 NA
BRANCH  23  24
HETATM   24  C6  UNL     1      23.694   2.117 -29.960  1.00  0.00     0.053 C 
HETATM   25  C7  UNL     1      22.658   2.739 -30.757  1.00  0.00     0.079 C 
HETATM   26  C8  UNL     1      25.129   2.064 -30.120  1.00  0.00     0.079 C 
ENDBRANCH  23  24
ENDBRANCH  22  23
ENDBRANCH   3  22
BRANCH   1  27
HETATM   27  O1  UNL     1      20.298  -2.247 -30.224  1.00  0.00    -0.390 OA
HETATM   28  C1  UNL     1      20.507  -2.353 -31.598  1.00  0.00     0.202 C 
ENDBRANCH   1  27
TORSDOF 11
ENDMDL
MODEL 2
REMARK VINA RESULT: -6.142727018      2.262      4.368
REMARK  11 active torsions:
REMARK  status: ('A' for Active; 'I' for Inactive)
REMARK    1  A    between atoms: O1_2  and  C2_3 
REMARK    2  A    between atoms: C4_5  and  C5_6 
REMARK    3  A    between atoms: C5_6  and  N1_7 
REMARK    4  A    between atoms: N1_7  and  C6_8 
REMARK    5  A    between atoms: C9_11  and  O2_12 
REMARK    6  A    between atoms: C9_11  and  C10_14 
REMARK    7  A    between atoms: C10_14  and  C11_15 
REMARK    8  A    between atoms: C10_14  and  C17_21 
REMARK    9  A    between atoms: C11_15  and  C12_16 
REMARK   10  A    between atoms: C12_16  and  C13_17 
REMARK   11  A    between atoms: C17_21  and  O3_24 
ROOT
HETATM    1  C2  UNL     1      22.089   1.010 -29.729  1.00  0.00     0.132 C 
HETATM    2  C3  UNL     1      20.594   0.899 -29.642  1.00  0.00     0.046 C 
HETATM    3  C4  UNL     1      20.360   0.508 -28.260  1.00  0.00     0.076 C 
HETATM    4  C9  UNL     1      21.550   1.068 -27.452  1.00  0.00     0.083 C 
HETATM    5  C20 UNL     1      22.664   0.709 -28.353  1.00  0.00     0.011 C 
HETATM    6  C21 UNL     1      23.858   1.667 -28.243  1.00  0.00     0.020 C 
HETATM    7  C22 UNL     1      23.168  -0.659 -28.423  1.00  0.00     0.020 C 
ENDROOT
BRANCH   4   8
HETATM    8  O2  UNL     1      21.508   2.437 -27.649  1.00  0.00    -0.388 OA
ATOM      9  H2  UNL     1      21.493   2.812 -26.776  1.00  0.00     0.210 HD
ENDBRANCH   4   8
BRANCH   4  10
HETATM   10  C10 UNL     1      21.469   0.736 -26.066  1.00  0.00     0.055 C 
BRANCH  10  11
HETATM   11  C11 UNL     1      21.606  -0.779 -25.800  1.00  0.00     0.014 C 
BRANCH  11  12
HETATM   12  C12 UNL     1      22.557  -1.227 -24.816  1.00  0.00     0.028 C 
BRANCH  12  13
HETATM   13  C13 UNL     1      21.969  -2.021 -23.713  1.00  0.00    -0.025 C 
HETATM   14  C14 UNL     1      21.614  -1.810 -22.507  1.00  0.00    -0.091 C 
HETATM   15  C15 UNL     1      21.033  -3.016 -21.744  1.00  0.00     0.042 C 
HETATM   16  C16 UNL     1      21.667  -0.587 -21.718  1.00  0.00     0.042 C 
ENDBRANCH  12  13
ENDBRANCH  11  12
ENDBRANCH  10  11
BRANCH  10  17
HETATM   17  C17 UNL     1      20.526   1.264 -25.075  1.00  0.00     0.057 C 
HETATM   18  C18 UNL     1      20.982   2.065 -23.940  1.00  0.00     0.045 C 
HETATM   19  C19 UNL     1      19.447   0.304 -24.585  1.00  0.00     0.045 C 
BRANCH  17  20
HETATM   20  O3  UNL     1      19.677   2.147 -25.834  1.00  0.00    -0.390 OA
ATOM     21  H3  UNL     1      19.412   1.625 -26.583  1.00  0.00     0.210 HD
ENDBRANCH  17  20
ENDBRANCH  10  17
ENDBRANCH   4  10
BRANCH   3  22
HETATM   22  C5  UNL     1      19.987  -0.841 -27.972  1.00  0.00     0.162 C 
BRANCH  22  23
HETATM   23  N1  UNL     1      19.522  -1.511 -28.933  1.00  0.00    -0.431 NA
BRANCH  23  24
HETATM   24  C6  UNL     1      19.071  -2.123 -29.954  1.00  0.00     0.053 C 
HETATM   25  C7  UNL     1      20.109  -2.729 -30.762  1.00  0.00     0.079 C 
HETATM   26  C8  UNL     1      17.634  -2.086 -30.103  1.00  0.00     0.079 C 
ENDBRANCH  23  24
ENDBRANCH  22  23
ENDBRANCH   3  22
BRANCH   1  27
HETATM   27  O1  UNL     1      22.440   2.258 -30.223  1.00  0.00    -0.390 OA
HETATM   28  C1  UNL     1      22.342   2.329 -31.612  1.00  0.00     0.202 C 
ENDBRANCH   1  27
TORSDOF 11
ENDMDL
MODEL 3
REMARK VINA RESULT: -6.039095555      1.954      3.673
REMARK  11 active torsions:
REMARK  status: ('A' for Active; 'I' for Inactive)
REMARK    1  A    between atoms: O1_2  and  C2_3 
REMARK    2  A    between atoms: C4_5  and  C5_6 
REMARK    3  A    between atoms: C5_6  and  N1_7 
REMARK    4  A    between atoms: N1_7  and  C6_8 
REMARK    5  A    between atoms: C9_11  and  O2_12 
REMARK    6  A    between atoms: C9_11  and  C10_14 
REMARK    7  A    between atoms: C10_14  and  C11_15 
REMARK    8  A    between atoms: C10_14  and  C17_21 
REMARK    9  A    between atoms: C11_15  and  C12_16 
REMARK   10  A    between atoms: C12_16  and  C13_17 
REMARK   11  A    between atoms: C17_21  and  O3_24 
ROOT
HETATM    1  C2  UNL     1      21.771   0.884 -29.006  1.00  0.00     0.132 C 
HETATM    2  C3  UNL     1      20.276   0.755 -28.944  1.00  0.00     0.046 C 
HETATM    3  C4  UNL     1      20.051  -0.063 -27.761  1.00  0.00     0.076 C 
HETATM    4  C9  UNL     1      21.252   0.202 -26.827  1.00  0.00     0.083 C 
HETATM    5  C20 UNL     1      22.355   0.151 -27.807  1.00  0.00     0.011 C 
HETATM    6  C21 UNL     1      23.557   1.017 -27.405  1.00  0.00     0.020 C 
HETATM    7  C22 UNL     1      22.851  -1.123 -28.321  1.00  0.00     0.020 C 
ENDROOT
BRANCH   4   8
HETATM    8  O2  UNL     1      21.216   1.561 -26.569  1.00  0.00    -0.388 OA
ATOM      9  H2  UNL     1      20.796   1.641 -25.721  1.00  0.00     0.210 HD
ENDBRANCH   4   8
BRANCH   4  10
HETATM   10  C10 UNL     1      21.179  -0.561 -25.623  1.00  0.00     0.055 C 
BRANCH  10  11
HETATM   11  C11 UNL     1      20.133  -0.018 -24.626  1.00  0.00     0.014 C 
BRANCH  11  12
HETATM   12  C12 UNL     1      19.940   1.405 -24.528  1.00  0.00     0.028 C 
BRANCH  12  13
HETATM   13  C13 UNL     1      20.786   2.070 -23.512  1.00  0.00    -0.025 C 
HETATM   14  C14 UNL     1      21.177   1.821 -22.325  1.00  0.00    -0.091 C 
HETATM   15  C15 UNL     1      22.087   2.876 -21.668  1.00  0.00     0.042 C 
HETATM   16  C16 UNL     1      20.897   0.674 -21.471  1.00  0.00     0.042 C 
ENDBRANCH  12  13
ENDBRANCH  11  12
ENDBRANCH  10  11
BRANCH  10  17
HETATM   17  C17 UNL     1      22.295  -1.090 -24.832  1.00  0.00     0.057 C 
HETATM   18  C18 UNL     1      23.283  -0.205 -24.219  1.00  0.00     0.045 C 
HETATM   19  C19 UNL     1      23.023  -2.300 -25.408  1.00  0.00     0.045 C 
BRANCH  17  20
HETATM   20  O3  UNL     1      21.654  -1.753 -23.724  1.00  0.00    -0.390 OA
ATOM     21  H3  UNL     1      21.130  -2.433 -24.133  1.00  0.00     0.210 HD
ENDBRANCH  17  20
ENDBRANCH  10  17
ENDBRANCH   4  10
BRANCH   3  22
HETATM   22  C5  UNL     1      19.672  -1.431 -27.922  1.00  0.00     0.162 C 
BRANCH  22  23
HETATM   23  N1  UNL     1      19.314  -1.781 -29.079  1.00  0.00    -0.431 NA
BRANCH  23  24
HETATM   24  C6  UNL     1      18.972  -2.056 -30.274  1.00  0.00     0.053 C 
HETATM   25  C7  UNL     1      20.079  -2.495 -31.098  1.00  0.00     0.079 C 
HETATM   26  C8  UNL     1      17.569  -1.873 -30.566  1.00  0.00     0.079 C 
ENDBRANCH  23  24
ENDBRANCH  22  23
ENDBRANCH   3  22
BRANCH   1  27
HETATM   27  O1  UNL     1      22.126   2.223 -29.072  1.00  0.00    -0.390 OA
HETATM   28  C1  UNL     1      22.552   2.599 -30.345  1.00  0.00     0.202 C 
ENDBRANCH   1  27
TORSDOF 11
ENDMDL
MODEL 4
REMARK VINA RESULT: -6.030090725      1.426      2.516
REMARK  11 active torsions:
REMARK  status: ('A' for Active; 'I' for Inactive)
REMARK    1  A    between atoms: O1_2  and  C2_3 
REMARK    2  A    between atoms: C4_5  and  C5_6 
REMARK    3  A    between atoms: C5_6  and  N1_7 
REMARK    4  A    between atoms: N1_7  and  C6_8 
REMARK    5  A    between atoms: C9_11  and  O2_12 
REMARK    6  A    between atoms: C9_11  and  C10_14 
REMARK    7  A    between atoms: C10_14  and  C11_15 
REMARK    8  A    between atoms: C10_14  and  C17_21 
REMARK    9  A    between atoms: C11_15  and  C12_16 
REMARK   10  A    between atoms: C12_16  and  C13_17 
REMARK   11  A    between atoms: C17_21  and  O3_24 
ROOT
HETATM    1  C2  UNL     1      21.003  -0.889 -29.006  1.00  0.00     0.132 C 
HETATM    2  C3  UNL     1      22.499  -0.756 -28.948  1.00  0.00     0.046 C 
HETATM    3  C4  UNL     1      22.724   0.065 -27.767  1.00  0.00     0.076 C 
HETATM    4  C9  UNL     1      21.526  -0.200 -26.830  1.00  0.00     0.083 C 
HETATM    5  C20 UNL     1      20.420  -0.154 -27.808  1.00  0.00     0.011 C 
HETATM    6  C21 UNL     1      19.222  -1.022 -27.401  1.00  0.00     0.020 C 
HETATM    7  C22 UNL     1      19.920   1.117 -28.325  1.00  0.00     0.020 C 
ENDROOT
BRANCH   4   8
HETATM    8  O2  UNL     1      21.565  -1.558 -26.569  1.00  0.00    -0.388 OA
ATOM      9  H2  UNL     1      21.638  -1.972 -27.420  1.00  0.00     0.210 HD
ENDBRANCH   4   8
BRANCH   4  10
HETATM   10  C10 UNL     1      21.598   0.567 -25.628  1.00  0.00     0.055 C 
BRANCH  10  11
HETATM   11  C11 UNL     1      22.640   0.022 -24.627  1.00  0.00     0.014 C 
BRANCH  11  12
HETATM   12  C12 UNL     1      22.826  -1.401 -24.522  1.00  0.00     0.028 C 
BRANCH  12  13
HETATM   13  C13 UNL     1      21.971  -2.057 -23.507  1.00  0.00    -0.025 C 
HETATM   14  C14 UNL     1      21.583  -1.804 -22.319  1.00  0.00    -0.091 C 
HETATM   15  C15 UNL     1      20.660  -2.850 -21.664  1.00  0.00     0.042 C 
HETATM   16  C16 UNL     1      21.876  -0.662 -21.465  1.00  0.00     0.042 C 
ENDBRANCH  12  13
ENDBRANCH  11  12
ENDBRANCH  10  11
BRANCH  10  17
HETATM   17  C17 UNL     1      20.483   1.103 -24.841  1.00  0.00     0.057 C 
HETATM   18  C18 UNL     1      19.495   0.222 -24.221  1.00  0.00     0.045 C 
HETATM   19  C19 UNL     1      19.756   2.308 -25.427  1.00  0.00     0.045 C 
BRANCH  17  20
HETATM   20  O3  UNL     1      21.124   1.775 -23.739  1.00  0.00    -0.390 OA
ATOM     21  H3  UNL     1      20.401   2.083 -23.204  1.00  0.00     0.210 HD
ENDBRANCH  17  20
ENDBRANCH  10  17
ENDBRANCH   4  10
BRANCH   3  22
HETATM   22  C5  UNL     1      23.099   1.434 -27.933  1.00  0.00     0.162 C 
BRANCH  22  23
HETATM   23  N1  UNL     1      23.478   1.776 -29.085  1.00  0.00    -0.431 NA
BRANCH  23  24
HETATM   24  C6  UNL     1      23.817   2.055 -30.280  1.00  0.00     0.053 C 
HETATM   25  C7  UNL     1      22.707   2.488 -31.103  1.00  0.00     0.079 C 
HETATM   26  C8  UNL     1      25.221   1.882 -30.573  1.00  0.00     0.079 C 
ENDBRANCH  23  24
ENDBRANCH  22  23
ENDBRANCH   3  22
BRANCH   1  27
HETATM   27  O1  UNL     1      20.652  -2.229 -29.068  1.00  0.00    -0.390 OA
HETATM   28  C1  UNL     1      20.207  -2.605 -30.334  1.00  0.00     0.202 C 
ENDBRANCH   1  27
TORSDOF 11
ENDMDL
MODEL 5
REMARK VINA RESULT: -5.938809150      3.577      7.517
REMARK  11 active torsions:
REMARK  status: ('A' for Active; 'I' for Inactive)
REMARK    1  A    between atoms: O1_2  and  C2_3 
REMARK    2  A    between atoms: C4_5  and  C5_6 
REMARK    3  A    between atoms: C5_6  and  N1_7 
REMARK    4  A    between atoms: N1_7  and  C6_8 
REMARK    5  A    between atoms: C9_11  and  O2_12 
REMARK    6  A    between atoms: C9_11  and  C10_14 
REMARK    7  A    between atoms: C10_14  and  C11_15 
REMARK    8  A    between atoms: C10_14  and  C17_21 
REMARK    9  A    between atoms: C11_15  and  C12_16 
REMARK   10  A    between atoms: C12_16  and  C13_17 
REMARK   11  A    between atoms: C17_21  and  O3_24 
ROOT
HETATM    1  C2  UNL     1      23.508   1.980 -32.631  1.00  0.00     0.132 C 
HETATM    2  C3  UNL     1      23.470   1.188 -31.355  1.00  0.00     0.046 C 
HETATM    3  C4  UNL     1      22.340   0.290 -31.543  1.00  0.00     0.076 C 
HETATM    4  C9  UNL     1      22.214   0.078 -33.067  1.00  0.00     0.083 C 
HETATM    5  C20 UNL     1      22.397   1.466 -33.536  1.00  0.00     0.011 C 
HETATM    6  C21 UNL     1      23.009   1.550 -34.941  1.00  0.00     0.020 C 
HETATM    7  C22 UNL     1      21.319   2.445 -33.437  1.00  0.00     0.020 C 
ENDROOT
BRANCH   4   8
HETATM    8  O2  UNL     1      23.423  -0.473 -33.455  1.00  0.00    -0.388 OA
ATOM      9  H2  UNL     1      23.476  -0.318 -34.391  1.00  0.00     0.210 HD
ENDBRANCH   4   8
BRANCH   4  10
HETATM   10  C10 UNL     1      21.119  -0.771 -33.407  1.00  0.00     0.055 C 
BRANCH  10  11
HETATM   11  C11 UNL     1      21.231  -2.179 -32.783  1.00  0.00     0.014 C 
BRANCH  11  12
HETATM   12  C12 UNL     1      20.472  -2.475 -31.596  1.00  0.00     0.028 C 
BRANCH  12  13
HETATM   13  C13 UNL     1      19.013  -2.265 -31.732  1.00  0.00    -0.025 C 
HETATM   14  C14 UNL     1      18.060  -1.869 -30.983  1.00  0.00    -0.091 C 
HETATM   15  C15 UNL     1      16.660  -1.826 -31.624  1.00  0.00     0.042 C 
HETATM   16  C16 UNL     1      18.083  -1.440 -29.592  1.00  0.00     0.042 C 
ENDBRANCH  12  13
ENDBRANCH  11  12
ENDBRANCH  10  11
BRANCH  10  17
HETATM   17  C17 UNL     1      20.485  -0.931 -34.720  1.00  0.00     0.057 C 
HETATM   18  C18 UNL     1      19.596   0.092 -35.267  1.00  0.00     0.045 C 
HETATM   19  C19 UNL     1      19.889  -2.301 -35.024  1.00  0.00     0.045 C 
BRANCH  17  20
HETATM   20  O3  UNL     1      21.593  -0.988 -35.639  1.00  0.00    -0.390 OA
ATOM     21  H3  UNL     1      21.618  -1.897 -35.915  1.00  0.00     0.210 HD
ENDBRANCH  17  20
ENDBRANCH  10  17
ENDBRANCH   4  10
BRANCH   3  22
HETATM   22  C5  UNL     1      21.121   0.550 -30.844  1.00  0.00     0.162 C 
BRANCH  22  23
HETATM   23  N1  UNL     1      21.154   0.420 -29.591  1.00  0.00    -0.431 NA
BRANCH  23  24
HETATM   24  C6  UNL     1      21.174   0.205 -28.336  1.00  0.00     0.053 C 
HETATM   25  C7  UNL     1      22.074  -0.862 -27.953  1.00  0.00     0.079 C 
HETATM   26  C8  UNL     1      20.301   1.053 -27.558  1.00  0.00     0.079 C 
ENDBRANCH  23  24
ENDBRANCH  22  23
ENDBRANCH   3  22
BRANCH   1  27
HETATM   27  O1  UNL     1      24.773   1.902 -33.195  1.00  0.00    -0.390 OA
HETATM   28  C1  UNL     1      25.787   2.056 -32.252  1.00  0.00     0.202 C 
ENDBRANCH   1  27
TORSDOF 11
ENDMDL
