MODEL 1
REMARK VINA RESULT: -7.923246137      0.000      0.000
REMARK  6 active torsions:
REMARK  status: ('A' for Active; 'I' for Inactive)
REMARK    1  A    between atoms: S1_2  and  C2_3 
REMARK    2  A    between atoms: C2_3  and  C3_4 
REMARK    3  A    between atoms: C3_4  and  C4_5 
REMARK    4  A    between atoms: C4_5  and  C18_19 
REMARK    5  A    between atoms: C5_6  and  C6_7 
REMARK       I    between atoms: C18_19  and  N1_21 
REMARK    6  A    between atoms: N1_21  and  C19_23 
ROOT
HETATM    1  C4  UNL     1      21.482  -0.499 -27.226  1.00  0.00     0.026 C 
HETATM    2  C5  UNL     1      21.072  -0.643 -25.846  1.00  0.00    -0.000 C 
ENDROOT
BRANCH   1   3
HETATM    3  C3  UNL     1      22.719   0.201 -27.646  1.00  0.00     0.000 C 
BRANCH   3   4
HETATM    4  C2  UNL     1      23.129   0.281 -29.036  1.00  0.00     0.101 C 
BRANCH   4   5
HETATM    5  S1  UNL     1      23.244   2.035 -29.507  1.00  0.00    -0.170 SA
HETATM    6  C1  UNL     1      22.326   2.296 -31.039  1.00  0.00     0.090 C 
ENDBRANCH   4   5
ENDBRANCH   3   4
ENDBRANCH   1   3
BRANCH   1   7
HETATM    7  C18 UNL     1      20.355  -0.240 -28.189  1.00  0.00     0.251 C 
HETATM    8  O1  UNL     1      19.889   0.910 -28.213  1.00  0.00    -0.268 OA
HETATM    9  N1  UNL     1      19.821  -1.215 -29.040  1.00  0.00    -0.351 N 
ATOM     10  H1  UNL     1      20.215  -2.155 -29.011  1.00  0.00     0.163 HD
BRANCH   9  11
HETATM   11  C19 UNL     1      18.729  -0.945 -29.964  1.00  0.00     0.112 C 
HETATM   12  C20 UNL     1      19.163  -1.311 -31.343  1.00  0.00     0.054 C 
HETATM   13  C21 UNL     1      17.925  -1.836 -31.996  1.00  0.00     0.234 C 
HETATM   14  N2  UNL     1      17.006  -2.219 -30.970  1.00  0.00    -0.073 N 
HETATM   15  C22 UNL     1      17.520  -1.777 -29.713  1.00  0.00     0.257 C 
ATOM     16  H22 UNL     1      16.059  -1.881 -31.147  1.00  0.00     0.277 HD
ATOM     17  H21 UNL     1      16.803  -3.218 -30.980  1.00  0.00     0.277 HD
ENDBRANCH   9  11
ENDBRANCH   1   7
BRANCH   2  18
HETATM   18  C6  UNL     1      20.831   0.390 -24.849  1.00  0.00    -0.017 C 
HETATM   19  C7  UNL     1      19.962   1.570 -25.270  1.00  0.00     0.020 C 
HETATM   20  C8  UNL     1      19.795  -0.273 -23.803  1.00  0.00     0.020 C 
HETATM   21  C9  UNL     1      20.985  -0.733 -23.085  1.00  0.00     0.003 C 
HETATM   22  C10 UNL     1      20.939  -0.852 -21.605  1.00  0.00    -0.043 C 
HETATM   23  C16 UNL     1      21.678   0.487 -23.644  1.00  0.00    -0.029 C 
HETATM   24  C11 UNL     1      22.061  -1.762 -21.152  1.00  0.00     0.015 C 
HETATM   25  C12 UNL     1      19.632  -1.596 -21.261  1.00  0.00     0.015 C 
HETATM   26  C13 UNL     1      20.988   0.375 -20.797  1.00  0.00     0.009 C 
HETATM   27  C14 UNL     1      22.015   1.342 -21.368  1.00  0.00     0.002 C 
HETATM   28  C15 UNL     1      21.489   1.680 -22.749  1.00  0.00     0.010 C 
HETATM   29  C17 UNL     1      23.162   0.190 -23.725  1.00  0.00     0.016 C 
ENDBRANCH   2  18
TORSDOF 6
ENDMDL
MODEL 2
REMARK VINA RESULT: -7.906649068      2.405      4.423
REMARK  6 active torsions:
REMARK  status: ('A' for Active; 'I' for Inactive)
REMARK    1  A    between atoms: S1_2  and  C2_3 
REMARK    2  A    between atoms: C2_3  and  C3_4 
REMARK    3  A    between atoms: C3_4  and  C4_5 
REMARK    4  A    between atoms: C4_5  and  C18_19 
REMARK    5  A    between atoms: C5_6  and  C6_7 
REMARK       I    between atoms: C18_19  and  N1_21 
REMARK    6  A    between atoms: N1_21  and  C19_23 
ROOT
HETATM    1  C4  UNL     1      21.304   0.528 -27.205  1.00  0.00     0.026 C 
HETATM    2  C5  UNL     1      21.721   0.660 -25.826  1.00  0.00    -0.000 C 
ENDROOT
BRANCH   1   3
HETATM    3  C3  UNL     1      20.058  -0.158 -27.624  1.00  0.00     0.000 C 
BRANCH   3   4
HETATM    4  C2  UNL     1      19.653  -0.244 -29.015  1.00  0.00     0.101 C 
BRANCH   4   5
HETATM    5  S1  UNL     1      19.445  -1.998 -29.451  1.00  0.00    -0.170 SA
HETATM    6  C1  UNL     1      20.380  -2.348 -30.955  1.00  0.00     0.090 C 
ENDBRANCH   4   5
ENDBRANCH   3   4
ENDBRANCH   1   3
BRANCH   1   7
HETATM    7  C18 UNL     1      22.425   0.262 -28.174  1.00  0.00     0.251 C 
HETATM    8  O1  UNL     1      22.884  -0.891 -28.199  1.00  0.00    -0.268 OA
HETATM    9  N1  UNL     1      22.960   1.233 -29.028  1.00  0.00    -0.351 N 
ATOM     10  H1  UNL     1      22.571   2.176 -28.997  1.00  0.00     0.163 HD
BRANCH   9  11
HETATM   11  C19 UNL     1      24.046   0.957 -29.957  1.00  0.00     0.112 C 
HETATM   12  C20 UNL     1      23.600   1.305 -31.337  1.00  0.00     0.054 C 
HETATM   13  C21 UNL     1      24.831   1.827 -32.006  1.00  0.00     0.234 C 
HETATM   14  N2  UNL     1      25.756   2.225 -30.992  1.00  0.00    -0.073 N 
HETATM   15  C22 UNL     1      25.254   1.797 -29.726  1.00  0.00     0.257 C 
ATOM     16  H22 UNL     1      26.703   1.889 -31.172  1.00  0.00     0.277 HD
ATOM     17  H21 UNL     1      25.955   3.225 -31.015  1.00  0.00     0.277 HD
ENDBRANCH   9  11
ENDBRANCH   1   7
BRANCH   2  18
HETATM   18  C6  UNL     1      21.955  -0.380 -24.835  1.00  0.00    -0.017 C 
HETATM   19  C7  UNL     1      22.825  -1.558 -25.259  1.00  0.00     0.020 C 
HETATM   20  C8  UNL     1      22.985   0.274 -23.778  1.00  0.00     0.020 C 
HETATM   21  C9  UNL     1      21.792   0.730 -23.064  1.00  0.00     0.003 C 
HETATM   22  C10 UNL     1      21.829   0.838 -21.583  1.00  0.00    -0.043 C 
HETATM   23  C16 UNL     1      21.100  -0.485 -23.636  1.00  0.00    -0.029 C 
HETATM   24  C11 UNL     1      20.705   1.746 -21.130  1.00  0.00     0.015 C 
HETATM   25  C12 UNL     1      23.135   1.578 -21.226  1.00  0.00     0.015 C 
HETATM   26  C13 UNL     1      21.774  -0.395 -20.784  1.00  0.00     0.009 C 
HETATM   27  C14 UNL     1      20.749  -1.356 -21.368  1.00  0.00     0.002 C 
HETATM   28  C15 UNL     1      21.283  -1.685 -22.749  1.00  0.00     0.010 C 
HETATM   29  C17 UNL     1      19.617  -0.186 -23.723  1.00  0.00     0.016 C 
ENDBRANCH   2  18
TORSDOF 6
ENDMDL
MODEL 3
REMARK VINA RESULT: -7.590822704      2.267      4.007
REMARK  6 active torsions:
REMARK  status: ('A' for Active; 'I' for Inactive)
REMARK    1  A    between atoms: S1_2  and  C2_3 
REMARK    2  A    between atoms: C2_3  and  C3_4 
REMARK    3  A    between atoms: C3_4  and  C4_5 
REMARK    4  A    between atoms: C4_5  and  C18_19 
REMARK    5  A    between atoms: C5_6  and  C6_7 
REMARK       I    between atoms: C18_19  and  N1_21 
REMARK    6  A    between atoms: N1_21  and  C19_23 
ROOT
HETATM    1  C4  UNL     1      20.816   1.027 -27.763  1.00  0.00     0.026 C 
HETATM    2  C5  UNL     1      21.194   1.016 -26.367  1.00  0.00    -0.000 C 
ENDROOT
BRANCH   1   3
HETATM    3  C3  UNL     1      19.648   0.291 -28.303  1.00  0.00     0.000 C 
BRANCH   3   4
HETATM    4  C2  UNL     1      19.656  -1.150 -28.477  1.00  0.00     0.101 C 
BRANCH   4   5
HETATM    5  S1  UNL     1      18.969  -1.540 -30.117  1.00  0.00    -0.170 SA
HETATM    6  C1  UNL     1      20.204  -2.443 -31.074  1.00  0.00     0.090 C 
ENDBRANCH   4   5
ENDBRANCH   3   4
ENDBRANCH   1   3
BRANCH   1   7
HETATM    7  C18 UNL     1      21.974   0.995 -28.724  1.00  0.00     0.251 C 
HETATM    8  O1  UNL     1      23.112   1.037 -28.233  1.00  0.00    -0.268 OA
HETATM    9  N1  UNL     1      21.827   0.920 -30.114  1.00  0.00    -0.351 N 
ATOM     10  H1  UNL     1      20.885   0.884 -30.503  1.00  0.00     0.163 HD
BRANCH   9  11
HETATM   11  C19 UNL     1      22.959   0.891 -31.028  1.00  0.00     0.112 C 
HETATM   12  C20 UNL     1      22.546   0.205 -32.286  1.00  0.00     0.054 C 
HETATM   13  C21 UNL     1      23.296   0.920 -33.364  1.00  0.00     0.234 C 
HETATM   14  N2  UNL     1      23.693   2.197 -32.861  1.00  0.00    -0.073 N 
HETATM   15  C22 UNL     1      23.407   2.243 -31.462  1.00  0.00     0.257 C 
ATOM     16  H22 UNL     1      24.669   2.414 -33.068  1.00  0.00     0.277 HD
ATOM     17  H21 UNL     1      23.266   2.969 -33.373  1.00  0.00     0.277 HD
ENDBRANCH   9  11
ENDBRANCH   1   7
BRANCH   2  18
HETATM   18  C6  UNL     1      21.507  -0.119 -25.511  1.00  0.00    -0.017 C 
HETATM   19  C7  UNL     1      22.287  -1.267 -26.142  1.00  0.00     0.020 C 
HETATM   20  C8  UNL     1      22.672   0.410 -24.526  1.00  0.00     0.020 C 
HETATM   21  C9  UNL     1      21.583   0.819 -23.637  1.00  0.00     0.003 C 
HETATM   22  C10 UNL     1      21.793   0.783 -22.167  1.00  0.00    -0.043 C 
HETATM   23  C16 UNL     1      20.793  -0.322 -24.235  1.00  0.00    -0.029 C 
HETATM   24  C11 UNL     1      20.757   1.665 -21.504  1.00  0.00     0.015 C 
HETATM   25  C12 UNL     1      23.153   1.460 -21.898  1.00  0.00     0.015 C 
HETATM   26  C13 UNL     1      21.793  -0.520 -21.486  1.00  0.00     0.009 C 
HETATM   27  C14 UNL     1      20.679  -1.400 -22.033  1.00  0.00     0.002 C 
HETATM   28  C15 UNL     1      21.040  -1.605 -23.491  1.00  0.00     0.010 C 
HETATM   29  C17 UNL     1      19.320   0.013 -24.120  1.00  0.00     0.016 C 
ENDBRANCH   2  18
TORSDOF 6
ENDMDL
MODEL 4
REMARK VINA RESULT: -7.505601872      1.359      1.458
REMARK  6 active torsions:
REMARK  status: ('A' for Active; 'I' for Inactive)
REMARK    1  A    between atoms: S1_2  and  C2_3 
REMARK    2  A    between atoms: C2_3  and  C3_4 
REMARK    3  A    between atoms: C3_4  and  C4_5 
REMARK    4  A    between atoms: C4_5  and  C18_19 
REMARK    5  A    between atoms: C5_6  and  C6_7 
REMARK       I    between atoms: C18_19  and  N1_21 
REMARK    6  A    between atoms: N1_21  and  C19_23 
ROOT
HETATM    1  C4  UNL     1      22.014  -0.998 -27.767  1.00  0.00     0.026 C 
HETATM    2  C5  UNL     1      21.636  -1.000 -26.370  1.00  0.00    -0.000 C 
ENDROOT
BRANCH   1   3
HETATM    3  C3  UNL     1      23.157  -0.224 -28.307  1.00  0.00     0.000 C 
BRANCH   3   4
HETATM    4  C2  UNL     1      23.093   1.212 -28.506  1.00  0.00     0.101 C 
BRANCH   4   5
HETATM    5  S1  UNL     1      23.550   1.580 -30.228  1.00  0.00    -0.170 SA
HETATM    6  C1  UNL     1      25.349   1.554 -30.381  1.00  0.00     0.090 C 
ENDBRANCH   4   5
ENDBRANCH   3   4
ENDBRANCH   1   3
BRANCH   1   7
HETATM    7  C18 UNL     1      20.855  -1.001 -28.728  1.00  0.00     0.251 C 
HETATM    8  O1  UNL     1      19.719  -1.084 -28.237  1.00  0.00    -0.268 OA
HETATM    9  N1  UNL     1      20.998  -0.918 -30.117  1.00  0.00    -0.351 N 
ATOM     10  H1  UNL     1      21.939  -0.849 -30.507  1.00  0.00     0.163 HD
BRANCH   9  11
HETATM   11  C19 UNL     1      19.866  -0.925 -31.030  1.00  0.00     0.112 C 
HETATM   12  C20 UNL     1      20.238  -0.177 -32.267  1.00  0.00     0.054 C 
HETATM   13  C21 UNL     1      19.528  -0.899 -33.367  1.00  0.00     0.234 C 
HETATM   14  N2  UNL     1      19.205  -2.212 -32.904  1.00  0.00    -0.073 N 
HETATM   15  C22 UNL     1      19.495  -2.286 -31.508  1.00  0.00     0.257 C 
ATOM     16  H22 UNL     1      18.243  -2.477 -33.119  1.00  0.00     0.277 HD
ATOM     17  H21 UNL     1      19.674  -2.942 -33.440  1.00  0.00     0.277 HD
ENDBRANCH   9  11
ENDBRANCH   1   7
BRANCH   2  18
HETATM   18  C6  UNL     1      21.287   0.123 -25.514  1.00  0.00    -0.017 C 
HETATM   19  C7  UNL     1      20.490   1.258 -26.149  1.00  0.00     0.020 C 
HETATM   20  C8  UNL     1      20.121  -0.435 -24.546  1.00  0.00     0.020 C 
HETATM   21  C9  UNL     1      21.207  -0.825 -23.645  1.00  0.00     0.003 C 
HETATM   22  C10 UNL     1      20.976  -0.802 -22.178  1.00  0.00    -0.043 C 
HETATM   23  C16 UNL     1      21.979   0.336 -24.227  1.00  0.00    -0.029 C 
HETATM   24  C11 UNL     1      22.023  -1.664 -21.505  1.00  0.00     0.015 C 
HETATM   25  C12 UNL     1      19.628  -1.508 -21.931  1.00  0.00     0.015 C 
HETATM   26  C13 UNL     1      20.940   0.498 -21.491  1.00  0.00     0.009 C 
HETATM   27  C14 UNL     1      22.042   1.405 -22.019  1.00  0.00     0.002 C 
HETATM   28  C15 UNL     1      21.695   1.609 -23.481  1.00  0.00     0.010 C 
HETATM   29  C17 UNL     1      23.458   0.032 -24.094  1.00  0.00     0.016 C 
ENDBRANCH   2  18
TORSDOF 6
ENDMDL
MODEL 5
REMARK VINA RESULT: -7.461333454      1.420      1.671
REMARK  6 active torsions:
REMARK  status: ('A' for Active; 'I' for Inactive)
REMARK    1  A    between atoms: S1_2  and  C2_3 
REMARK    2  A    between atoms: C2_3  and  C3_4 
REMARK    3  A    between atoms: C3_4  and  C4_5 
REMARK    4  A    between atoms: C4_5  and  C18_19 
REMARK    5  A    between atoms: C5_6  and  C6_7 
REMARK       I    between atoms: C18_19  and  N1_21 
REMARK    6  A    between atoms: N1_21  and  C19_23 
ROOT
HETATM    1  C4  UNL     1      21.857   0.069 -28.351  1.00  0.00     0.026 C 
HETATM    2  C5  UNL     1      22.014   0.097 -26.913  1.00  0.00    -0.000 C 
ENDROOT
BRANCH   1   3
HETATM    3  C3  UNL     1      21.786   1.288 -29.193  1.00  0.00     0.000 C 
BRANCH   3   4
HETATM    4  C2  UNL     1      22.892   2.222 -29.295  1.00  0.00     0.101 C 
BRANCH   4   5
HETATM    5  S1  UNL     1      24.421   1.281 -29.590  1.00  0.00    -0.170 SA
HETATM    6  C1  UNL     1      25.273   1.972 -31.023  1.00  0.00     0.090 C 
ENDBRANCH   4   5
ENDBRANCH   3   4
ENDBRANCH   1   3
BRANCH   1   7
HETATM    7  C18 UNL     1      20.924  -0.998 -28.857  1.00  0.00     0.251 C 
HETATM    8  O1  UNL     1      21.080  -2.142 -28.403  1.00  0.00    -0.268 OA
HETATM    9  N1  UNL     1      19.913  -0.764 -29.796  1.00  0.00    -0.351 N 
ATOM     10  H1  UNL     1      19.795   0.182 -30.160  1.00  0.00     0.163 HD
BRANCH   9  11
HETATM   11  C19 UNL     1      19.022  -1.810 -30.275  1.00  0.00     0.112 C 
HETATM   12  C20 UNL     1      17.611  -1.397 -30.020  1.00  0.00     0.054 C 
HETATM   13  C21 UNL     1      16.846  -1.947 -31.180  1.00  0.00     0.234 C 
HETATM   14  N2  UNL     1      17.766  -2.199 -32.244  1.00  0.00    -0.073 N 
HETATM   15  C22 UNL     1      19.094  -2.024 -31.747  1.00  0.00     0.257 C 
ATOM     16  H22 UNL     1      17.627  -3.113 -32.675  1.00  0.00     0.277 HD
ATOM     17  H21 UNL     1      17.579  -1.626 -33.067  1.00  0.00     0.277 HD
ENDBRANCH   9  11
ENDBRANCH   1   7
BRANCH   2  18
HETATM   18  C6  UNL     1      21.180   0.746 -25.913  1.00  0.00    -0.017 C 
HETATM   19  C7  UNL     1      20.032   1.612 -26.423  1.00  0.00     0.020 C 
HETATM   20  C8  UNL     1      20.284  -0.440 -25.282  1.00  0.00     0.020 C 
HETATM   21  C9  UNL     1      21.373  -0.599 -24.316  1.00  0.00     0.003 C 
HETATM   22  C10 UNL     1      21.057  -1.037 -22.932  1.00  0.00    -0.043 C 
HETATM   23  C16 UNL     1      21.639   0.875 -24.515  1.00  0.00    -0.029 C 
HETATM   24  C11 UNL     1      22.319  -1.574 -22.290  1.00  0.00     0.015 C 
HETATM   25  C12 UNL     1      20.104  -2.242 -23.056  1.00  0.00     0.015 C 
HETATM   26  C13 UNL     1      20.447  -0.069 -22.008  1.00  0.00     0.009 C 
HETATM   27  C14 UNL     1      21.113   1.291 -22.155  1.00  0.00     0.002 C 
HETATM   28  C15 UNL     1      20.810   1.710 -23.580  1.00  0.00     0.010 C 
HETATM   29  C17 UNL     1      23.100   1.135 -24.210  1.00  0.00     0.016 C 
ENDBRANCH   2  18
TORSDOF 6
ENDMDL
