MODEL 1
REMARK VINA RESULT: -8.196911133      0.000      0.000
REMARK  8 active torsions:
REMARK  status: ('A' for Active; 'I' for Inactive)
REMARK       I    between atoms: C1_2  and  N1_3 
REMARK    1  A    between atoms: C1_2  and  O2_23 
REMARK    2  A    between atoms: N1_3  and  C2_5 
REMARK    3  A    between atoms: C7_10  and  N2_11 
REMARK    4  A    between atoms: N2_11  and  C8_13 
REMARK    5  A    between atoms: C8_13  and  C9_14 
REMARK    6  A    between atoms: C11_16  and  C12_17 
REMARK    7  A    between atoms: O2_23  and  C16_24 
REMARK    8  A    between atoms: C16_24  and  C17_25 
ROOT
HETATM    1  C2  UNL     1      23.404   1.164 -30.004  1.00  0.00     0.109 C 
HETATM    2  C3  UNL     1      24.822   1.731 -29.736  1.00  0.00     0.027 C 
HETATM    3  C4  UNL     1      25.433   2.316 -30.967  1.00  0.00     0.002 C 
HETATM    4  C5  UNL     1      25.247   1.478 -32.189  1.00  0.00     0.002 C 
HETATM    5  C6  UNL     1      23.799   1.204 -32.383  1.00  0.00     0.027 C 
HETATM    6  C7  UNL     1      22.940   1.804 -31.249  1.00  0.00     0.099 C 
ENDROOT
BRANCH   1   7
HETATM    7  N1  UNL     1      22.679   1.409 -28.808  1.00  0.00    -0.330 N 
HETATM    8  C1  UNL     1      22.458   0.364 -27.879  1.00  0.00     0.360 C 
HETATM    9  O1  UNL     1      22.894  -0.803 -28.083  1.00  0.00    -0.239 OA
ATOM     10  H1  UNL     1      22.317   2.342 -28.617  1.00  0.00     0.165 HD
BRANCH   8  11
HETATM   11  O2  UNL     1      21.753   0.544 -26.694  1.00  0.00    -0.304 OA
BRANCH  11  12
HETATM   12  C16 UNL     1      21.054  -0.498 -26.057  1.00  0.00     0.185 C 
BRANCH  12  13
HETATM   13  C17 UNL     1      21.334  -0.542 -24.568  1.00  0.00     0.010 C 
HETATM   14  C18 UNL     1      22.521   0.360 -24.316  1.00  0.00     0.007 C 
HETATM   15  C19 UNL     1      23.062   0.212 -22.930  1.00  0.00     0.000 C 
HETATM   16  C20 UNL     1      22.034   0.673 -21.932  1.00  0.00     0.000 C 
HETATM   17  C21 UNL     1      21.135  -0.498 -21.618  1.00  0.00     0.000 C 
HETATM   18  C22 UNL     1      19.929  -0.552 -22.495  1.00  0.00     0.000 C 
HETATM   19  C23 UNL     1      20.140   0.041 -23.860  1.00  0.00     0.007 C 
ENDBRANCH  12  13
ENDBRANCH  11  12
ENDBRANCH   8  11
ENDBRANCH   1   7
BRANCH   6  20
HETATM   20  N2  UNL     1      21.602   1.638 -31.669  1.00  0.00    -0.415 N 
ATOM     21  H2  UNL     1      20.835   2.004 -31.105  1.00  0.00     0.153 HD
BRANCH  20  22
HETATM   22  C8  UNL     1      21.336   0.960 -32.881  1.00  0.00     0.119 C 
BRANCH  22  23
HETATM   23  C9  UNL     1      20.570  -0.339 -32.596  1.00  0.00     0.010 A 
HETATM   24  C10 UNL     1      21.377  -1.609 -33.006  1.00  0.00     0.014 A 
HETATM   25  C11 UNL     1      20.997  -1.300 -31.586  1.00  0.00     0.018 A 
BRANCH  25  26
HETATM   26  C12 UNL     1      19.965  -2.253 -30.968  1.00  0.00     0.108 A 
HETATM   27  C13 UNL     1      20.161  -2.259 -29.499  1.00  0.00    -0.000 A 
HETATM   28  C14 UNL     1      19.056  -1.782 -28.936  1.00  0.00     0.015 A 
HETATM   29  C15 UNL     1      18.115  -1.453 -30.003  1.00  0.00     0.083 A 
HETATM   30  N3  UNL     1      18.624  -1.717 -31.144  1.00  0.00    -0.391 N 
ATOM     31  H3  UNL     1      18.162  -1.574 -32.041  1.00  0.00     0.159 HD
ENDBRANCH  25  26
ENDBRANCH  22  23
ENDBRANCH  20  22
ENDBRANCH   6  20
TORSDOF 8
ENDMDL
MODEL 2
REMARK VINA RESULT: -8.181093626      1.449      4.557
REMARK  8 active torsions:
REMARK  status: ('A' for Active; 'I' for Inactive)
REMARK       I    between atoms: C1_2  and  N1_3 
REMARK    1  A    between atoms: C1_2  and  O2_23 
REMARK    2  A    between atoms: N1_3  and  C2_5 
REMARK    3  A    between atoms: C7_10  and  N2_11 
REMARK    4  A    between atoms: N2_11  and  C8_13 
REMARK    5  A    between atoms: C8_13  and  C9_14 
REMARK    6  A    between atoms: C11_16  and  C12_17 
REMARK    7  A    between atoms: O2_23  and  C16_24 
REMARK    8  A    between atoms: C16_24  and  C17_25 
ROOT
HETATM    1  C2  UNL     1      19.341  -1.161 -30.074  1.00  0.00     0.109 C 
HETATM    2  C3  UNL     1      17.923  -1.745 -29.842  1.00  0.00     0.027 C 
HETATM    3  C4  UNL     1      17.348  -2.330 -31.091  1.00  0.00     0.002 C 
HETATM    4  C5  UNL     1      17.554  -1.484 -32.304  1.00  0.00     0.002 C 
HETATM    5  C6  UNL     1      19.002  -1.193 -32.462  1.00  0.00     0.027 C 
HETATM    6  C7  UNL     1      19.841  -1.790 -31.311  1.00  0.00     0.099 C 
ENDROOT
BRANCH   1   7
HETATM    7  N1  UNL     1      20.040  -1.404 -28.863  1.00  0.00    -0.330 N 
HETATM    8  C1  UNL     1      20.245  -0.357 -27.933  1.00  0.00     0.360 C 
HETATM    9  O1  UNL     1      19.815   0.810 -28.148  1.00  0.00    -0.239 OA
ATOM     10  H1  UNL     1      20.396  -2.338 -28.661  1.00  0.00     0.165 HD
BRANCH   8  11
HETATM   11  O2  UNL     1      20.924  -0.535 -26.732  1.00  0.00    -0.304 OA
BRANCH  11  12
HETATM   12  C16 UNL     1      21.650   0.495 -26.107  1.00  0.00     0.185 C 
BRANCH  12  13
HETATM   13  C17 UNL     1      21.406   0.533 -24.611  1.00  0.00     0.010 C 
HETATM   14  C18 UNL     1      20.221  -0.363 -24.334  1.00  0.00     0.007 C 
HETATM   15  C19 UNL     1      19.715  -0.219 -22.935  1.00  0.00     0.000 C 
HETATM   16  C20 UNL     1      20.765  -0.690 -21.965  1.00  0.00     0.000 C 
HETATM   17  C21 UNL     1      21.678   0.474 -21.667  1.00  0.00     0.000 C 
HETATM   18  C22 UNL     1      22.863   0.525 -22.573  1.00  0.00     0.000 C 
HETATM   19  C23 UNL     1      22.614  -0.060 -23.936  1.00  0.00     0.007 C 
ENDBRANCH  12  13
ENDBRANCH  11  12
ENDBRANCH   8  11
ENDBRANCH   1   7
BRANCH   6  20
HETATM   20  N2  UNL     1      21.187  -1.608 -31.699  1.00  0.00    -0.415 N 
ATOM     21  H2  UNL     1      21.944  -1.970 -31.120  1.00  0.00     0.153 HD
BRANCH  20  22
HETATM   22  C8  UNL     1      21.474  -0.918 -32.899  1.00  0.00     0.119 C 
BRANCH  22  23
HETATM   23  C9  UNL     1      22.221   0.386 -32.588  1.00  0.00     0.010 A 
HETATM   24  C10 UNL     1      21.405   1.651 -32.992  1.00  0.00     0.014 A 
HETATM   25  C11 UNL     1      21.769   1.329 -31.572  1.00  0.00     0.018 A 
BRANCH  25  26
HETATM   26  C12 UNL     1      22.782   2.286 -30.928  1.00  0.00     0.108 A 
HETATM   27  C13 UNL     1      22.610   2.220 -29.457  1.00  0.00    -0.000 A 
HETATM   28  C14 UNL     1      23.739   1.754 -28.933  1.00  0.00     0.015 A 
HETATM   29  C15 UNL     1      24.671   1.502 -30.028  1.00  0.00     0.083 A 
HETATM   30  N3  UNL     1      24.135   1.801 -31.148  1.00  0.00    -0.391 N 
ATOM     31  H3  UNL     1      24.586   1.712 -32.059  1.00  0.00     0.159 HD
ENDBRANCH  25  26
ENDBRANCH  22  23
ENDBRANCH  20  22
ENDBRANCH   6  20
TORSDOF 8
ENDMDL
MODEL 3
REMARK VINA RESULT: -8.179573729      1.538      4.523
REMARK  8 active torsions:
REMARK  status: ('A' for Active; 'I' for Inactive)
REMARK       I    between atoms: C1_2  and  N1_3 
REMARK    1  A    between atoms: C1_2  and  O2_23 
REMARK    2  A    between atoms: N1_3  and  C2_5 
REMARK    3  A    between atoms: C7_10  and  N2_11 
REMARK    4  A    between atoms: N2_11  and  C8_13 
REMARK    5  A    between atoms: C8_13  and  C9_14 
REMARK    6  A    between atoms: C11_16  and  C12_17 
REMARK    7  A    between atoms: O2_23  and  C16_24 
REMARK    8  A    between atoms: C16_24  and  C17_25 
ROOT
HETATM    1  C2  UNL     1      18.720  -1.459 -30.470  1.00  0.00     0.109 C 
HETATM    2  C3  UNL     1      17.204  -1.736 -30.304  1.00  0.00     0.027 C 
HETATM    3  C4  UNL     1      16.609  -2.349 -31.530  1.00  0.00     0.002 C 
HETATM    4  C5  UNL     1      17.057  -1.709 -32.802  1.00  0.00     0.002 C 
HETATM    5  C6  UNL     1      18.541  -1.714 -32.862  1.00  0.00     0.027 C 
HETATM    6  C7  UNL     1      19.169  -2.314 -31.585  1.00  0.00     0.099 C 
ENDROOT
BRANCH   1   7
HETATM    7  N1  UNL     1      19.276  -1.681 -29.182  1.00  0.00    -0.330 N 
HETATM    8  C1  UNL     1      19.816  -0.603 -28.441  1.00  0.00     0.360 C 
HETATM    9  O1  UNL     1      19.818   0.574 -28.896  1.00  0.00    -0.239 OA
ATOM     10  H1  UNL     1      19.286  -2.621 -28.789  1.00  0.00     0.165 HD
BRANCH   8  11
HETATM   11  O2  UNL     1      20.375  -0.760 -27.178  1.00  0.00    -0.304 OA
BRANCH  11  12
HETATM   12  C16 UNL     1      20.551   0.311 -26.282  1.00  0.00     0.185 C 
BRANCH  12  13
HETATM   13  C17 UNL     1      21.060  -0.155 -24.933  1.00  0.00     0.010 C 
HETATM   14  C18 UNL     1      22.430   0.454 -24.744  1.00  0.00     0.007 C 
HETATM   15  C19 UNL     1      23.152  -0.127 -23.570  1.00  0.00     0.000 C 
HETATM   16  C20 UNL     1      22.419   0.219 -22.302  1.00  0.00     0.000 C 
HETATM   17  C21 UNL     1      21.365  -0.837 -22.072  1.00  0.00     0.000 C 
HETATM   18  C22 UNL     1      20.045  -0.474 -22.665  1.00  0.00     0.000 C 
HETATM   19  C23 UNL     1      20.144   0.407 -23.879  1.00  0.00     0.007 C 
ENDBRANCH  12  13
ENDBRANCH  11  12
ENDBRANCH   8  11
ENDBRANCH   1   7
BRANCH   6  20
HETATM   20  N2  UNL     1      20.547  -2.434 -31.869  1.00  0.00    -0.415 N 
ATOM     21  H2  UNL     1      21.160  -2.954 -31.241  1.00  0.00     0.153 HD
BRANCH  20  22
HETATM   22  C8  UNL     1      21.069  -1.825 -33.033  1.00  0.00     0.119 C 
BRANCH  22  23
HETATM   23  C9  UNL     1      22.046  -0.707 -32.646  1.00  0.00     0.010 A 
HETATM   24  C10 UNL     1      21.425   0.713 -32.817  1.00  0.00     0.014 A 
HETATM   25  C11 UNL     1      21.840   0.153 -31.487  1.00  0.00     0.018 A 
BRANCH  25  26
HETATM   26  C12 UNL     1      23.046   0.846 -30.839  1.00  0.00     0.108 A 
HETATM   27  C13 UNL     1      22.755   2.297 -30.753  1.00  0.00    -0.000 A 
HETATM   28  C14 UNL     1      22.729   2.634 -29.468  1.00  0.00     0.015 A 
HETATM   29  C15 UNL     1      22.997   1.432 -28.684  1.00  0.00     0.083 A 
HETATM   30  N3  UNL     1      23.175   0.428 -29.452  1.00  0.00    -0.391 N 
ATOM     31  H3  UNL     1      23.378  -0.522 -29.142  1.00  0.00     0.159 HD
ENDBRANCH  25  26
ENDBRANCH  22  23
ENDBRANCH  20  22
ENDBRANCH   6  20
TORSDOF 8
ENDMDL
MODEL 4
REMARK VINA RESULT: -8.108593025      1.384      4.354
REMARK  8 active torsions:
REMARK  status: ('A' for Active; 'I' for Inactive)
REMARK       I    between atoms: C1_2  and  N1_3 
REMARK    1  A    between atoms: C1_2  and  O2_23 
REMARK    2  A    between atoms: N1_3  and  C2_5 
REMARK    3  A    between atoms: C7_10  and  N2_11 
REMARK    4  A    between atoms: N2_11  and  C8_13 
REMARK    5  A    between atoms: C8_13  and  C9_14 
REMARK    6  A    between atoms: C11_16  and  C12_17 
REMARK    7  A    between atoms: O2_23  and  C16_24 
REMARK    8  A    between atoms: C16_24  and  C17_25 
ROOT
HETATM    1  C2  UNL     1      19.909  -1.012 -29.289  1.00  0.00     0.109 C 
HETATM    2  C3  UNL     1      18.614  -1.583 -28.657  1.00  0.00     0.027 C 
HETATM    3  C4  UNL     1      17.772  -2.304 -29.659  1.00  0.00     0.002 C 
HETATM    4  C5  UNL     1      17.644  -1.589 -30.965  1.00  0.00     0.002 C 
HETATM    5  C6  UNL     1      18.998  -1.301 -31.504  1.00  0.00     0.027 C 
HETATM    6  C7  UNL     1      20.114  -1.763 -30.542  1.00  0.00     0.099 C 
ENDROOT
BRANCH   1   7
HETATM    7  N1  UNL     1      20.892  -1.117 -28.270  1.00  0.00    -0.330 N 
HETATM    8  C1  UNL     1      21.085  -0.058 -27.351  1.00  0.00     0.360 C 
HETATM    9  O1  UNL     1      20.397   0.998 -27.408  1.00  0.00    -0.239 OA
ATOM     10  H1  UNL     1      21.461  -1.960 -28.200  1.00  0.00     0.165 HD
BRANCH   8  11
HETATM   11  O2  UNL     1      22.034  -0.104 -26.335  1.00  0.00    -0.304 OA
BRANCH  11  12
HETATM   12  C16 UNL     1      22.194  -1.219 -25.491  1.00  0.00     0.185 C 
BRANCH  12  13
HETATM   13  C17 UNL     1      21.999  -0.858 -24.032  1.00  0.00     0.010 C 
HETATM   14  C18 UNL     1      22.685   0.470 -23.811  1.00  0.00     0.007 C 
HETATM   15  C19 UNL     1      22.788   0.821 -22.361  1.00  0.00     0.000 C 
HETATM   16  C20 UNL     1      21.411   1.019 -21.787  1.00  0.00     0.000 C 
HETATM   17  C21 UNL     1      20.895  -0.327 -21.341  1.00  0.00     0.000 C 
HETATM   18  C22 UNL     1      20.107  -1.024 -22.399  1.00  0.00     0.000 C 
HETATM   19  C23 UNL     1      20.524  -0.672 -23.800  1.00  0.00     0.007 C 
ENDBRANCH  12  13
ENDBRANCH  11  12
ENDBRANCH   8  11
ENDBRANCH   1   7
BRANCH   6  20
HETATM   20  N2  UNL     1      21.317  -1.607 -31.267  1.00  0.00    -0.415 N 
ATOM     21  H2  UNL     1      22.186  -2.010 -30.917  1.00  0.00     0.153 HD
BRANCH  20  22
HETATM   22  C8  UNL     1      21.303  -0.888 -32.484  1.00  0.00     0.119 C 
BRANCH  22  23
HETATM   23  C9  UNL     1      22.141   0.390 -32.346  1.00  0.00     0.010 A 
HETATM   24  C10 UNL     1      21.393   1.653 -32.870  1.00  0.00     0.014 A 
HETATM   25  C11 UNL     1      21.786   1.469 -31.433  1.00  0.00     0.018 A 
BRANCH  25  26
HETATM   26  C12 UNL     1      22.880   2.423 -30.932  1.00  0.00     0.108 A 
HETATM   27  C13 UNL     1      22.822   2.458 -29.451  1.00  0.00    -0.000 A 
HETATM   28  C14 UNL     1      23.971   1.980 -28.985  1.00  0.00     0.015 A 
HETATM   29  C15 UNL     1      24.805   1.622 -30.129  1.00  0.00     0.083 A 
HETATM   30  N3  UNL     1      24.194   1.871 -31.222  1.00  0.00    -0.391 N 
ATOM     31  H3  UNL     1      24.569   1.707 -32.156  1.00  0.00     0.159 HD
ENDBRANCH  25  26
ENDBRANCH  22  23
ENDBRANCH  20  22
ENDBRANCH   6  20
TORSDOF 8
ENDMDL
MODEL 5
REMARK VINA RESULT: -8.000981139      1.777      2.881
REMARK  8 active torsions:
REMARK  status: ('A' for Active; 'I' for Inactive)
REMARK       I    between atoms: C1_2  and  N1_3 
REMARK    1  A    between atoms: C1_2  and  O2_23 
REMARK    2  A    between atoms: N1_3  and  C2_5 
REMARK    3  A    between atoms: C7_10  and  N2_11 
REMARK    4  A    between atoms: N2_11  and  C8_13 
REMARK    5  A    between atoms: C8_13  and  C9_14 
REMARK    6  A    between atoms: C11_16  and  C12_17 
REMARK    7  A    between atoms: O2_23  and  C16_24 
REMARK    8  A    between atoms: C16_24  and  C17_25 
ROOT
HETATM    1  C2  UNL     1      21.818   0.956 -29.376  1.00  0.00     0.109 C 
HETATM    2  C3  UNL     1      22.609   2.290 -29.364  1.00  0.00     0.027 C 
HETATM    3  C4  UNL     1      23.040   2.698 -30.734  1.00  0.00     0.002 C 
HETATM    4  C5  UNL     1      23.594   1.577 -31.551  1.00  0.00     0.002 C 
HETATM    5  C6  UNL     1      22.605   0.470 -31.604  1.00  0.00     0.027 C 
HETATM    6  C7  UNL     1      21.347   0.777 -30.763  1.00  0.00     0.099 C 
ENDROOT
BRANCH   1   7
HETATM    7  N1  UNL     1      20.850   1.094 -28.347  1.00  0.00    -0.330 N 
HETATM    8  C1  UNL     1      21.110   0.592 -27.049  1.00  0.00     0.360 C 
HETATM    9  O1  UNL     1      22.196   0.015 -26.771  1.00  0.00    -0.239 OA
ATOM     10  H1  UNL     1      19.964   1.558 -28.543  1.00  0.00     0.165 HD
BRANCH   8  11
HETATM   11  O2  UNL     1      20.199   0.696 -26.003  1.00  0.00    -0.304 OA
BRANCH  11  12
HETATM   12  C16 UNL     1      20.223   1.751 -25.073  1.00  0.00     0.185 C 
BRANCH  12  13
HETATM   13  C17 UNL     1      20.495   1.261 -23.665  1.00  0.00     0.010 C 
HETATM   14  C18 UNL     1      20.054  -0.184 -23.609  1.00  0.00     0.007 C 
HETATM   15  C19 UNL     1      20.030  -0.716 -22.211  1.00  0.00     0.000 C 
HETATM   16  C20 UNL     1      21.428  -0.738 -21.653  1.00  0.00     0.000 C 
HETATM   17  C21 UNL     1      21.707   0.616 -21.046  1.00  0.00     0.000 C 
HETATM   18  C22 UNL     1      22.349   1.559 -22.008  1.00  0.00     0.000 C 
HETATM   19  C23 UNL     1      21.983   1.308 -23.444  1.00  0.00     0.007 C 
ENDBRANCH  12  13
ENDBRANCH  11  12
ENDBRANCH   8  11
ENDBRANCH   1   7
BRANCH   6  20
HETATM   20  N2  UNL     1      20.434  -0.257 -31.068  1.00  0.00    -0.415 N 
ATOM     21  H2  UNL     1      19.721  -0.120 -31.785  1.00  0.00     0.153 HD
BRANCH  20  22
HETATM   22  C8  UNL     1      20.519  -1.483 -30.370  1.00  0.00     0.119 C 
BRANCH  22  23
HETATM   23  C9  UNL     1      19.184  -2.234 -30.468  1.00  0.00     0.010 A 
HETATM   24  C10 UNL     1      18.303  -2.051 -29.195  1.00  0.00     0.014 A 
HETATM   25  C11 UNL     1      17.900  -1.550 -30.551  1.00  0.00     0.018 A 
BRANCH  25  26
HETATM   26  C12 UNL     1      16.701  -2.273 -31.181  1.00  0.00     0.108 A 
HETATM   27  C13 UNL     1      15.674  -1.258 -31.518  1.00  0.00    -0.000 A 
HETATM   28  C14 UNL     1      15.508  -1.266 -32.837  1.00  0.00     0.015 A 
HETATM   29  C15 UNL     1      16.408  -2.271 -33.396  1.00  0.00     0.083 A 
HETATM   30  N3  UNL     1      17.078  -2.836 -32.467  1.00  0.00    -0.391 N 
ATOM     31  H3  UNL     1      17.771  -3.571 -32.606  1.00  0.00     0.159 HD
ENDBRANCH  25  26
ENDBRANCH  22  23
ENDBRANCH  20  22
ENDBRANCH   6  20
TORSDOF 8
ENDMDL
