MODEL 1
REMARK VINA RESULT: -8.726521152      0.000      0.000
REMARK  12 active torsions:
REMARK  status: ('A' for Active; 'I' for Inactive)
REMARK    1  A    between atoms: C2_2  and  C3_3 
REMARK    2  A    between atoms: C4_4  and  C5_5 
REMARK    3  A    between atoms: C5_5  and  N1_6 
REMARK    4  A    between atoms: N1_6  and  C6_9 
REMARK    5  A    between atoms: C6_9  and  C7_10 
REMARK    6  A    between atoms: C9_12  and  C10_13 
REMARK    7  A    between atoms: C10_13  and  C11_14 
REMARK    8  A    between atoms: C11_14  and  C12_15 
REMARK    9  A    between atoms: C14_17  and  C15_18 
REMARK   10  A    between atoms: C15_18  and  O1_19 
REMARK   11  A    between atoms: O1_19  and  C16_20 
REMARK   12  A    between atoms: C16_20  and  C17_21 
ROOT
HETATM    1  C10 UNL     1      -7.627   0.943  18.576  1.00  0.00     0.031 C 
ENDROOT
BRANCH   1   2
HETATM    2  C9  UNL     1      -7.850   0.885  17.122  1.00  0.00    -0.022 C 
HETATM    3  C7  UNL     1      -8.991   1.329  16.614  1.00  0.00    -0.062 C 
HETATM    4  C8  UNL     1     -10.023   1.876  17.509  1.00  0.00     0.044 C 
BRANCH   3   5
HETATM    5  C6  UNL     1      -9.201   1.262  15.139  1.00  0.00     0.266 C 
BRANCH   5   6
HETATM    6  N1  UNL     1     -10.589   1.319  14.770  1.00  0.00    -0.069 N 
ATOM      7  H12 UNL     1     -10.837   2.250  14.434  1.00  0.00     0.277 HD
ATOM      8  H11 UNL     1     -11.186   1.274  15.595  1.00  0.00     0.277 HD
BRANCH   6   9
HETATM    9  C5  UNL     1     -10.965   0.299  13.799  1.00  0.00     0.260 C 
BRANCH   9  10
HETATM   10  C4  UNL     1      -9.947   0.287  12.731  1.00  0.00     0.000 C 
HETATM   11  C3  UNL     1      -9.535  -0.748  12.050  1.00  0.00    -0.003 C 
BRANCH  11  12
HETATM   12  C2  UNL     1     -10.021  -2.094  12.233  1.00  0.00    -0.011 C 
HETATM   13  C1  UNL     1      -9.271  -3.144  12.384  1.00  0.00     0.011 C 
ENDBRANCH  11  12
ENDBRANCH   9  10
ENDBRANCH   6   9
ENDBRANCH   5   6
ENDBRANCH   3   5
ENDBRANCH   1   2
BRANCH   1  14
HETATM   14  C11 UNL     1      -6.149   0.902  18.928  1.00  0.00     0.037 C 
BRANCH  14  15
HETATM   15  C12 UNL     1      -5.999   0.031  20.110  1.00  0.00    -0.085 C 
HETATM   16  C13 UNL     1      -5.340  -1.279  19.966  1.00  0.00     0.043 C 
HETATM   17  C14 UNL     1      -6.452   0.423  21.278  1.00  0.00     0.001 C 
BRANCH  17  18
HETATM   18  C15 UNL     1      -6.292  -0.476  22.473  1.00  0.00     0.195 C 
BRANCH  18  19
HETATM   19  O1  UNL     1      -5.540   0.093  23.468  1.00  0.00    -0.383 OA
BRANCH  19  20
HETATM   20  C16 UNL     1      -4.287  -0.475  23.641  1.00  0.00     0.206 C 
BRANCH  20  21
HETATM   21  C17 UNL     1      -3.349   0.200  22.708  1.00  0.00    -0.035 A 
HETATM   22  C18 UNL     1      -2.463  -0.607  22.013  1.00  0.00     0.009 A 
HETATM   23  C19 UNL     1      -1.572  -0.023  21.132  1.00  0.00     0.001 A 
HETATM   24  C20 UNL     1      -1.557   1.351  20.939  1.00  0.00     0.000 A 
HETATM   25  C21 UNL     1      -2.433   2.163  21.624  1.00  0.00     0.001 A 
HETATM   26  C22 UNL     1      -3.312   1.559  22.497  1.00  0.00     0.009 A 
ENDBRANCH  20  21
ENDBRANCH  19  20
ENDBRANCH  18  19
ENDBRANCH  17  18
ENDBRANCH  14  15
ENDBRANCH   1  14
TORSDOF 12
ENDMDL
MODEL 2
REMARK VINA RESULT: -8.721604197      3.252     10.121
REMARK  12 active torsions:
REMARK  status: ('A' for Active; 'I' for Inactive)
REMARK    1  A    between atoms: C2_2  and  C3_3 
REMARK    2  A    between atoms: C4_4  and  C5_5 
REMARK    3  A    between atoms: C5_5  and  N1_6 
REMARK    4  A    between atoms: N1_6  and  C6_9 
REMARK    5  A    between atoms: C6_9  and  C7_10 
REMARK    6  A    between atoms: C9_12  and  C10_13 
REMARK    7  A    between atoms: C10_13  and  C11_14 
REMARK    8  A    between atoms: C11_14  and  C12_15 
REMARK    9  A    between atoms: C14_17  and  C15_18 
REMARK   10  A    between atoms: C15_18  and  O1_19 
REMARK   11  A    between atoms: O1_19  and  C16_20 
REMARK   12  A    between atoms: C16_20  and  C17_21 
ROOT
HETATM    1  C10 UNL     1      -7.266   1.023  18.929  1.00  0.00     0.031 C 
ENDROOT
BRANCH   1   2
HETATM    2  C9  UNL     1      -5.866   0.829  19.339  1.00  0.00    -0.022 C 
HETATM    3  C7  UNL     1      -5.589   0.477  20.587  1.00  0.00    -0.062 C 
HETATM    4  C8  UNL     1      -6.685   0.285  21.549  1.00  0.00     0.044 C 
BRANCH   3   5
HETATM    5  C6  UNL     1      -4.165   0.284  20.985  1.00  0.00     0.266 C 
BRANCH   5   6
HETATM    6  N1  UNL     1      -3.879   0.796  22.297  1.00  0.00    -0.069 N 
ATOM      7  H12 UNL     1      -3.647   0.039  22.939  1.00  0.00     0.277 HD
ATOM      8  H11 UNL     1      -4.727   1.142  22.745  1.00  0.00     0.277 HD
BRANCH   6   9
HETATM    9  C5  UNL     1      -2.838   1.817  22.299  1.00  0.00     0.260 C 
BRANCH   9  10
HETATM   10  C4  UNL     1      -1.993   1.610  21.106  1.00  0.00     0.000 C 
HETATM   11  C3  UNL     1      -0.807   1.066  21.068  1.00  0.00    -0.003 C 
BRANCH  11  12
HETATM   12  C2  UNL     1      -0.102   0.559  22.220  1.00  0.00    -0.011 C 
HETATM   13  C1  UNL     1       1.180   0.365  22.284  1.00  0.00     0.011 C 
ENDBRANCH  11  12
ENDBRANCH   9  10
ENDBRANCH   6   9
ENDBRANCH   5   6
ENDBRANCH   3   5
ENDBRANCH   1   2
BRANCH   1  14
HETATM   14  C11 UNL     1      -7.496   0.629  17.478  1.00  0.00     0.037 C 
BRANCH  14  15
HETATM   15  C12 UNL     1      -8.607   1.454  16.966  1.00  0.00    -0.085 C 
HETATM   16  C13 UNL     1      -9.685   1.867  17.883  1.00  0.00     0.043 C 
HETATM   17  C14 UNL     1      -8.634   1.814  15.705  1.00  0.00     0.001 C 
BRANCH  17  18
HETATM   18  C15 UNL     1      -9.774   2.655  15.199  1.00  0.00     0.195 C 
BRANCH  18  19
HETATM   19  O1  UNL     1      -9.642   2.986  13.875  1.00  0.00    -0.383 OA
BRANCH  19  20
HETATM   20  C16 UNL     1     -10.674   2.540  13.064  1.00  0.00     0.206 C 
BRANCH  20  21
HETATM   21  C17 UNL     1     -10.389   1.127  12.703  1.00  0.00    -0.035 A 
HETATM   22  C18 UNL     1      -9.502   0.911  11.661  1.00  0.00     0.009 A 
HETATM   23  C19 UNL     1      -9.206  -0.387  11.290  1.00  0.00     0.001 A 
HETATM   24  C20 UNL     1      -9.782  -1.466  11.945  1.00  0.00     0.000 A 
HETATM   25  C21 UNL     1     -10.666  -1.263  12.983  1.00  0.00     0.001 A 
HETATM   26  C22 UNL     1     -10.947   0.039  13.335  1.00  0.00     0.009 A 
ENDBRANCH  20  21
ENDBRANCH  19  20
ENDBRANCH  18  19
ENDBRANCH  17  18
ENDBRANCH  14  15
ENDBRANCH   1  14
TORSDOF 12
ENDMDL
MODEL 3
REMARK VINA RESULT: -8.644174436      1.021      1.755
REMARK  12 active torsions:
REMARK  status: ('A' for Active; 'I' for Inactive)
REMARK    1  A    between atoms: C2_2  and  C3_3 
REMARK    2  A    between atoms: C4_4  and  C5_5 
REMARK    3  A    between atoms: C5_5  and  N1_6 
REMARK    4  A    between atoms: N1_6  and  C6_9 
REMARK    5  A    between atoms: C6_9  and  C7_10 
REMARK    6  A    between atoms: C9_12  and  C10_13 
REMARK    7  A    between atoms: C10_13  and  C11_14 
REMARK    8  A    between atoms: C11_14  and  C12_15 
REMARK    9  A    between atoms: C14_17  and  C15_18 
REMARK   10  A    between atoms: C15_18  and  O1_19 
REMARK   11  A    between atoms: O1_19  and  C16_20 
REMARK   12  A    between atoms: C16_20  and  C17_21 
ROOT
HETATM    1  C10 UNL     1      -7.902   1.046  18.529  1.00  0.00     0.031 C 
ENDROOT
BRANCH   1   2
HETATM    2  C9  UNL     1      -8.466   1.071  17.170  1.00  0.00    -0.022 C 
HETATM    3  C7  UNL     1      -9.555   1.786  16.923  1.00  0.00    -0.062 C 
HETATM    4  C8  UNL     1     -10.189   2.546  18.011  1.00  0.00     0.044 C 
BRANCH   3   5
HETATM    5  C6  UNL     1     -10.113   1.799  15.540  1.00  0.00     0.266 C 
BRANCH   5   6
HETATM    6  N1  UNL     1      -9.593   0.742  14.719  1.00  0.00    -0.069 N 
ATOM      7  H12 UNL     1      -9.138   0.029  15.289  1.00  0.00     0.277 HD
ATOM      8  H11 UNL     1      -8.790   1.062  14.178  1.00  0.00     0.277 HD
BRANCH   6   9
HETATM    9  C5  UNL     1     -10.599   0.146  13.848  1.00  0.00     0.260 C 
BRANCH   9  10
HETATM   10  C4  UNL     1     -10.025   0.038  12.493  1.00  0.00     0.000 C 
HETATM   11  C3  UNL     1      -9.731   1.019  11.683  1.00  0.00    -0.003 C 
BRANCH  11  12
HETATM   12  C2  UNL     1      -9.923   2.416  11.988  1.00  0.00    -0.011 C 
HETATM   13  C1  UNL     1     -11.072   3.021  12.022  1.00  0.00     0.011 C 
ENDBRANCH  11  12
ENDBRANCH   9  10
ENDBRANCH   6   9
ENDBRANCH   5   6
ENDBRANCH   3   5
ENDBRANCH   1   2
BRANCH   1  14
HETATM   14  C11 UNL     1      -6.434   0.647  18.531  1.00  0.00     0.037 C 
BRANCH  14  15
HETATM   15  C12 UNL     1      -6.150   0.013  19.833  1.00  0.00    -0.085 C 
HETATM   16  C13 UNL     1      -5.296  -1.187  19.883  1.00  0.00     0.043 C 
HETATM   17  C14 UNL     1      -6.655   0.516  20.935  1.00  0.00     0.001 C 
BRANCH  17  18
HETATM   18  C15 UNL     1      -6.354  -0.142  22.254  1.00  0.00     0.195 C 
BRANCH  18  19
HETATM   19  O1  UNL     1      -5.480   0.583  23.021  1.00  0.00    -0.383 OA
BRANCH  19  20
HETATM   20  C16 UNL     1      -4.320  -0.093  23.369  1.00  0.00     0.206 C 
BRANCH  20  21
HETATM   21  C17 UNL     1      -3.214   0.446  22.536  1.00  0.00    -0.035 A 
HETATM   22  C18 UNL     1      -2.027  -0.268  22.531  1.00  0.00     0.009 A 
HETATM   23  C19 UNL     1      -0.969   0.195  21.770  1.00  0.00     0.001 A 
HETATM   24  C20 UNL     1      -1.085   1.355  21.018  1.00  0.00     0.000 A 
HETATM   25  C21 UNL     1      -2.261   2.072  21.016  1.00  0.00     0.001 A 
HETATM   26  C22 UNL     1      -3.301   1.593  21.782  1.00  0.00     0.009 A 
ENDBRANCH  20  21
ENDBRANCH  19  20
ENDBRANCH  18  19
ENDBRANCH  17  18
ENDBRANCH  14  15
ENDBRANCH   1  14
TORSDOF 12
ENDMDL
MODEL 4
REMARK VINA RESULT: -8.615398673      0.940      1.396
REMARK  12 active torsions:
REMARK  status: ('A' for Active; 'I' for Inactive)
REMARK    1  A    between atoms: C2_2  and  C3_3 
REMARK    2  A    between atoms: C4_4  and  C5_5 
REMARK    3  A    between atoms: C5_5  and  N1_6 
REMARK    4  A    between atoms: N1_6  and  C6_9 
REMARK    5  A    between atoms: C6_9  and  C7_10 
REMARK    6  A    between atoms: C9_12  and  C10_13 
REMARK    7  A    between atoms: C10_13  and  C11_14 
REMARK    8  A    between atoms: C11_14  and  C12_15 
REMARK    9  A    between atoms: C14_17  and  C15_18 
REMARK   10  A    between atoms: C15_18  and  O1_19 
REMARK   11  A    between atoms: O1_19  and  C16_20 
REMARK   12  A    between atoms: C16_20  and  C17_21 
ROOT
HETATM    1  C10 UNL     1      -7.636   0.950  18.597  1.00  0.00     0.031 C 
ENDROOT
BRANCH   1   2
HETATM    2  C9  UNL     1      -7.858   0.885  17.143  1.00  0.00    -0.022 C 
HETATM    3  C7  UNL     1      -8.991   1.345  16.630  1.00  0.00    -0.062 C 
HETATM    4  C8  UNL     1     -10.015   1.914  17.519  1.00  0.00     0.044 C 
BRANCH   3   5
HETATM    5  C6  UNL     1      -9.198   1.271  15.155  1.00  0.00     0.266 C 
BRANCH   5   6
HETATM    6  N1  UNL     1     -10.582   1.367  14.781  1.00  0.00    -0.069 N 
ATOM      7  H12 UNL     1     -10.808   2.309  14.463  1.00  0.00     0.277 HD
ATOM      8  H11 UNL     1     -11.185   1.318  15.603  1.00  0.00     0.277 HD
BRANCH   6   9
HETATM    9  C5  UNL     1     -10.978   0.375  13.789  1.00  0.00     0.260 C 
BRANCH   9  10
HETATM   10  C4  UNL     1      -9.931   0.327  12.749  1.00  0.00     0.000 C 
HETATM   11  C3  UNL     1      -9.524  -0.725  12.091  1.00  0.00    -0.003 C 
BRANCH  11  12
HETATM   12  C2  UNL     1     -10.046  -2.058  12.276  1.00  0.00    -0.011 C 
HETATM   13  C1  UNL     1      -9.333  -3.143  12.287  1.00  0.00     0.011 C 
ENDBRANCH  11  12
ENDBRANCH   9  10
ENDBRANCH   6   9
ENDBRANCH   5   6
ENDBRANCH   3   5
ENDBRANCH   1   2
BRANCH   1  14
HETATM   14  C11 UNL     1      -6.158   0.928  18.951  1.00  0.00     0.037 C 
BRANCH  14  15
HETATM   15  C12 UNL     1      -5.982  -0.028  20.061  1.00  0.00    -0.085 C 
HETATM   16  C13 UNL     1      -6.494   0.315  21.400  1.00  0.00     0.043 C 
HETATM   17  C14 UNL     1      -5.373  -1.171  19.855  1.00  0.00     0.001 C 
BRANCH  17  18
HETATM   18  C15 UNL     1      -5.202  -2.135  20.998  1.00  0.00     0.195 C 
BRANCH  18  19
HETATM   19  O1  UNL     1      -3.891  -2.471  21.218  1.00  0.00    -0.383 OA
BRANCH  19  20
HETATM   20  C16 UNL     1      -3.383  -2.043  22.434  1.00  0.00     0.206 C 
BRANCH  20  21
HETATM   21  C17 UNL     1      -3.048  -0.601  22.305  1.00  0.00    -0.035 A 
HETATM   22  C18 UNL     1      -2.250  -0.235  21.233  1.00  0.00     0.009 A 
HETATM   23  C19 UNL     1      -1.913   1.096  21.071  1.00  0.00     0.001 A 
HETATM   24  C20 UNL     1      -2.362   2.059  21.962  1.00  0.00     0.000 A 
HETATM   25  C21 UNL     1      -3.157   1.707  23.031  1.00  0.00     0.001 A 
HETATM   26  C22 UNL     1      -3.480   0.375  23.173  1.00  0.00     0.009 A 
ENDBRANCH  20  21
ENDBRANCH  19  20
ENDBRANCH  18  19
ENDBRANCH  17  18
ENDBRANCH  14  15
ENDBRANCH   1  14
TORSDOF 12
ENDMDL
MODEL 5
REMARK VINA RESULT: -8.570465556      1.000      1.618
REMARK  12 active torsions:
REMARK  status: ('A' for Active; 'I' for Inactive)
REMARK    1  A    between atoms: C2_2  and  C3_3 
REMARK    2  A    between atoms: C4_4  and  C5_5 
REMARK    3  A    between atoms: C5_5  and  N1_6 
REMARK    4  A    between atoms: N1_6  and  C6_9 
REMARK    5  A    between atoms: C6_9  and  C7_10 
REMARK    6  A    between atoms: C9_12  and  C10_13 
REMARK    7  A    between atoms: C10_13  and  C11_14 
REMARK    8  A    between atoms: C11_14  and  C12_15 
REMARK    9  A    between atoms: C14_17  and  C15_18 
REMARK   10  A    between atoms: C15_18  and  O1_19 
REMARK   11  A    between atoms: O1_19  and  C16_20 
REMARK   12  A    between atoms: C16_20  and  C17_21 
ROOT
HETATM    1  C10 UNL     1      -7.613   0.984  18.673  1.00  0.00     0.031 C 
ENDROOT
BRANCH   1   2
HETATM    2  C9  UNL     1      -7.811   0.817  17.224  1.00  0.00    -0.022 C 
HETATM    3  C7  UNL     1      -8.912   1.283  16.653  1.00  0.00    -0.062 C 
HETATM    4  C8  UNL     1      -9.927   1.962  17.473  1.00  0.00     0.044 C 
BRANCH   3   5
HETATM    5  C6  UNL     1      -9.096   1.105  15.183  1.00  0.00     0.266 C 
BRANCH   5   6
HETATM    6  N1  UNL     1     -10.186   1.880  14.660  1.00  0.00    -0.069 N 
ATOM      7  H12 UNL     1      -9.854   2.772  14.292  1.00  0.00     0.277 HD
ATOM      8  H11 UNL     1     -10.784   2.222  15.412  1.00  0.00     0.277 HD
BRANCH   6   9
HETATM    9  C5  UNL     1     -10.969   1.165  13.660  1.00  0.00     0.260 C 
BRANCH   9  10
HETATM   10  C4  UNL     1     -10.118   0.966  12.470  1.00  0.00     0.000 C 
HETATM   11  C3  UNL     1      -9.723  -0.172  11.968  1.00  0.00    -0.003 C 
BRANCH  11  12
HETATM   12  C2  UNL     1     -10.061  -1.466  12.509  1.00  0.00    -0.011 C 
HETATM   13  C1  UNL     1      -9.680  -2.604  12.014  1.00  0.00     0.011 C 
ENDBRANCH  11  12
ENDBRANCH   9  10
ENDBRANCH   6   9
ENDBRANCH   5   6
ENDBRANCH   3   5
ENDBRANCH   1   2
BRANCH   1  14
HETATM   14  C11 UNL     1      -6.142   0.964  19.055  1.00  0.00     0.037 C 
BRANCH  14  15
HETATM   15  C12 UNL     1      -5.976  -0.036  20.127  1.00  0.00    -0.085 C 
HETATM   16  C13 UNL     1      -6.515   0.244  21.469  1.00  0.00     0.043 C 
HETATM   17  C14 UNL     1      -5.351  -1.164  19.884  1.00  0.00     0.001 C 
BRANCH  17  18
HETATM   18  C15 UNL     1      -5.191  -2.174  20.987  1.00  0.00     0.195 C 
BRANCH  18  19
HETATM   19  O1  UNL     1      -3.878  -2.476  21.243  1.00  0.00    -0.383 OA
BRANCH  19  20
HETATM   20  C16 UNL     1      -3.400  -1.991  22.451  1.00  0.00     0.206 C 
BRANCH  20  21
HETATM   21  C17 UNL     1      -3.003  -0.574  22.245  1.00  0.00    -0.035 A 
HETATM   22  C18 UNL     1      -3.487   0.353  23.154  1.00  0.00     0.009 A 
HETATM   23  C19 UNL     1      -3.143   1.684  23.003  1.00  0.00     0.001 A 
HETATM   24  C20 UNL     1      -2.327   2.096  21.960  1.00  0.00     0.000 A 
HETATM   25  C21 UNL     1      -1.841   1.183  21.049  1.00  0.00     0.001 A 
HETATM   26  C22 UNL     1      -2.196  -0.137  21.219  1.00  0.00     0.009 A 
ENDBRANCH  20  21
ENDBRANCH  19  20
ENDBRANCH  18  19
ENDBRANCH  17  18
ENDBRANCH  14  15
ENDBRANCH   1  14
TORSDOF 12
ENDMDL
