MODEL 1
REMARK VINA RESULT: -8.527942538      0.000      0.000
REMARK  4 active torsions:
REMARK  status: ('A' for Active; 'I' for Inactive)
REMARK    1  A    between atoms: N1_1  and  C1_4 
REMARK    2  A    between atoms: C2_7  and  N3_8 
REMARK    3  A    between atoms: N4_11  and  C3_12 
REMARK    4  A    between atoms: C4_15  and  N6_16 
ROOT
HETATM    1  C1  UNL     1      24.792  25.266 110.700  1.00  0.00     0.138 A 
HETATM    2  N2  UNL     1      26.113  25.048 110.597  1.00  0.00    -0.175 N 
ATOM      3  H2  UNL     1      26.679  25.084 111.444  1.00  0.00     0.186 HD
HETATM    4  C2  UNL     1      26.734  24.780 109.410  1.00  0.00     0.687 A 
HETATM    5  N4  UNL     1      26.018  24.725 108.273  1.00  0.00    -0.117 N 
HETATM    6  C8  UNL     1      24.695  24.940 108.357  1.00  0.00     0.146 A 
HETATM    7  C9  UNL     1      24.050  25.212 109.546  1.00  0.00     0.094 A 
HETATM    8 CL1  UNL     1      22.324  25.492 109.643  1.00  0.00    -0.079 Cl
ENDROOT
BRANCH   5   9
HETATM    9  C3  UNL     1      26.662  24.444 107.018  1.00  0.00     0.283 A 
HETATM   10  N5  UNL     1      26.865  25.311 105.994  1.00  0.00    -0.150 N 
HETATM   11  C4  UNL     1      27.497  24.671 105.000  1.00  0.00     0.705 A 
ATOM     12  H5  UNL     1      26.582  26.291 105.983  1.00  0.00     0.188 HD
HETATM   13  N7  UNL     1      27.671  23.418 105.432  1.00  0.00    -0.087 N 
HETATM   14  O2  UNL     1      27.170  23.311 106.624  1.00  0.00    -0.184 OA
ATOM     15  H7  UNL     1      28.123  22.668 104.909  1.00  0.00     0.214 HD
BRANCH  11  16
HETATM   16  N6  UNL     1      27.907  25.187 103.744  1.00  0.00    -0.193 N 
HETATM   17  C5  UNL     1      27.874  24.504 102.446  1.00  0.00     0.170 C 
HETATM   18  C6  UNL     1      28.854  25.345 101.651  1.00  0.00     0.190 C 
HETATM   19  O1  UNL     1      29.498  26.173 102.586  1.00  0.00    -0.370 OA
HETATM   20  C7  UNL     1      28.451  26.498 103.446  1.00  0.00     0.311 C 
ENDBRANCH  11  16
ENDBRANCH   5   9
BRANCH   4  21
HETATM   21  N3  UNL     1      28.007  24.578 109.370  1.00  0.00    -0.234 N 
ATOM     22  H32 UNL     1      28.465  24.095 110.143  1.00  0.00     0.174 HD
ATOM     23  H31 UNL     1      28.557  24.899 108.573  1.00  0.00     0.174 HD
ENDBRANCH   4  21
BRANCH   1  24
HETATM   24  N1  UNL     1      24.277  25.514 111.862  1.00  0.00    -0.384 N 
ATOM     25  H12 UNL     1      24.785  25.990 112.607  1.00  0.00     0.157 HD
ATOM     26  H11 UNL     1      23.318  25.227 112.056  1.00  0.00     0.157 HD
ENDBRANCH   1  24
TORSDOF 4
ENDMDL
MODEL 2
REMARK VINA RESULT: -8.474452453      2.895      6.879
REMARK  4 active torsions:
REMARK  status: ('A' for Active; 'I' for Inactive)
REMARK    1  A    between atoms: N1_1  and  C1_4 
REMARK    2  A    between atoms: C2_7  and  N3_8 
REMARK    3  A    between atoms: N4_11  and  C3_12 
REMARK    4  A    between atoms: C4_15  and  N6_16 
ROOT
HETATM    1  C1  UNL     1      28.208  25.708 102.741  1.00  0.00     0.138 A 
HETATM    2  N2  UNL     1      28.872  26.212 103.793  1.00  0.00    -0.175 N 
ATOM      3  H2  UNL     1      29.727  26.740 103.621  1.00  0.00     0.186 HD
HETATM    4  C2  UNL     1      28.456  26.051 105.085  1.00  0.00     0.687 A 
HETATM    5  N4  UNL     1      27.332  25.361 105.348  1.00  0.00    -0.117 N 
HETATM    6  C8  UNL     1      26.654  24.849 104.307  1.00  0.00     0.146 A 
HETATM    7  C9  UNL     1      27.059  25.001 102.998  1.00  0.00     0.094 A 
HETATM    8 CL1  UNL     1      26.167  24.328 101.649  1.00  0.00    -0.079 Cl
ENDROOT
BRANCH   5   9
HETATM    9  C3  UNL     1      26.885  25.185 106.704  1.00  0.00     0.283 A 
HETATM   10  N5  UNL     1      25.610  25.281 107.160  1.00  0.00    -0.150 N 
HETATM   11  C4  UNL     1      25.602  25.051 108.481  1.00  0.00     0.705 A 
ATOM     12  H5  UNL     1      24.791  25.493 106.590  1.00  0.00     0.188 HD
HETATM   13  N7  UNL     1      26.876  24.818 108.814  1.00  0.00    -0.087 N 
HETATM   14  O2  UNL     1      27.611  24.903 107.748  1.00  0.00    -0.184 OA
ATOM     15  H7  UNL     1      27.214  24.609 109.753  1.00  0.00     0.214 HD
BRANCH  11  16
HETATM   16  N6  UNL     1      24.493  25.049 109.366  1.00  0.00    -0.193 N 
HETATM   17  C5  UNL     1      23.095  24.743 109.044  1.00  0.00     0.170 C 
HETATM   18  C6  UNL     1      22.381  25.374 110.223  1.00  0.00     0.190 C 
HETATM   19  O1  UNL     1      23.346  26.150 110.888  1.00  0.00    -0.370 OA
HETATM   20  C7  UNL     1      24.478  25.344 110.786  1.00  0.00     0.311 C 
ENDBRANCH  11  16
ENDBRANCH   5   9
BRANCH   4  21
HETATM   21  N3  UNL     1      29.133  26.558 106.058  1.00  0.00    -0.234 N 
ATOM     22  H32 UNL     1      29.992  27.071 105.859  1.00  0.00     0.174 HD
ATOM     23  H31 UNL     1      28.817  26.449 107.021  1.00  0.00     0.174 HD
ENDBRANCH   4  21
BRANCH   1  24
HETATM   24  N1  UNL     1      28.667  25.904 101.547  1.00  0.00    -0.384 N 
ATOM     25  H12 UNL     1      29.351  25.289 101.104  1.00  0.00     0.157 HD
ATOM     26  H11 UNL     1      28.338  26.706 101.009  1.00  0.00     0.157 HD
ENDBRANCH   1  24
TORSDOF 4
ENDMDL
MODEL 3
REMARK VINA RESULT: -8.394503233      2.152      3.099
REMARK  4 active torsions:
REMARK  status: ('A' for Active; 'I' for Inactive)
REMARK    1  A    between atoms: N1_1  and  C1_4 
REMARK    2  A    between atoms: C2_7  and  N3_8 
REMARK    3  A    between atoms: N4_11  and  C3_12 
REMARK    4  A    between atoms: C4_15  and  N6_16 
ROOT
HETATM    1  C1  UNL     1      26.327  24.907 108.093  1.00  0.00     0.138 A 
HETATM    2  N2  UNL     1      27.665  24.822 108.023  1.00  0.00    -0.175 N 
ATOM      3  H2  UNL     1      28.211  25.052 108.852  1.00  0.00     0.186 HD
HETATM    4  C2  UNL     1      28.330  24.439 106.892  1.00  0.00     0.687 A 
HETATM    5  N4  UNL     1      27.641  24.127 105.780  1.00  0.00    -0.117 N 
HETATM    6  C8  UNL     1      26.301  24.207 105.832  1.00  0.00     0.146 A 
HETATM    7  C9  UNL     1      25.613  24.591 106.964  1.00  0.00     0.094 A 
HETATM    8 CL1  UNL     1      23.865  24.692 107.019  1.00  0.00    -0.079 Cl
ENDROOT
BRANCH   5   9
HETATM    9  C3  UNL     1      28.330  23.724 104.584  1.00  0.00     0.283 A 
HETATM   10  N5  UNL     1      28.473  24.445 103.443  1.00  0.00    -0.150 N 
HETATM   11  C4  UNL     1      29.179  23.726 102.558  1.00  0.00     0.705 A 
ATOM     12  H5  UNL     1      28.104  25.383 103.285  1.00  0.00     0.188 HD
HETATM   13  N7  UNL     1      29.457  22.571 103.172  1.00  0.00    -0.087 N 
HETATM   14  O2  UNL     1      28.946  22.597 104.365  1.00  0.00    -0.184 OA
ATOM     15  H7  UNL     1      29.984  21.797 102.770  1.00  0.00     0.214 HD
BRANCH  11  16
HETATM   16  N6  UNL     1      29.564  24.085 101.241  1.00  0.00    -0.193 N 
HETATM   17  C5  UNL     1      30.646  23.504 100.439  1.00  0.00     0.170 C 
HETATM   18  C6  UNL     1      30.856  24.594  99.405  1.00  0.00     0.190 C 
HETATM   19  O1  UNL     1      30.128  25.705  99.862  1.00  0.00    -0.370 OA
HETATM   20  C7  UNL     1      28.986  25.101 100.383  1.00  0.00     0.311 C 
ENDBRANCH  11  16
ENDBRANCH   5   9
BRANCH   4  21
HETATM   21  N3  UNL     1      29.618  24.374 106.881  1.00  0.00    -0.234 N 
ATOM     22  H32 UNL     1      30.166  25.227 106.986  1.00  0.00     0.174 HD
ATOM     23  H31 UNL     1      30.089  23.477 106.768  1.00  0.00     0.174 HD
ENDBRANCH   4  21
BRANCH   1  24
HETATM   24  N1  UNL     1      25.771  25.277 109.202  1.00  0.00    -0.384 N 
ATOM     25  H12 UNL     1      24.762  25.374 109.315  1.00  0.00     0.157 HD
ATOM     26  H11 UNL     1      26.357  25.484 110.011  1.00  0.00     0.157 HD
ENDBRANCH   1  24
TORSDOF 4
ENDMDL
MODEL 4
REMARK VINA RESULT: -8.346967822      1.499      1.645
REMARK  4 active torsions:
REMARK  status: ('A' for Active; 'I' for Inactive)
REMARK    1  A    between atoms: N1_1  and  C1_4 
REMARK    2  A    between atoms: C2_7  and  N3_8 
REMARK    3  A    between atoms: N4_11  and  C3_12 
REMARK    4  A    between atoms: C4_15  and  N6_16 
ROOT
HETATM    1  C1  UNL     1      24.417  25.205 110.944  1.00  0.00     0.138 A 
HETATM    2  N2  UNL     1      25.748  25.181 110.772  1.00  0.00    -0.175 N 
ATOM      3  H2  UNL     1      26.344  25.128 111.598  1.00  0.00     0.186 HD
HETATM    4  C2  UNL     1      26.343  25.225 109.543  1.00  0.00     0.687 A 
HETATM    5  N4  UNL     1      25.588  25.294 108.433  1.00  0.00    -0.117 N 
HETATM    6  C8  UNL     1      24.253  25.318 108.585  1.00  0.00     0.146 A 
HETATM    7  C9  UNL     1      23.635  25.276 109.817  1.00  0.00     0.094 A 
HETATM    8 CL1  UNL     1      21.894  25.308 110.003  1.00  0.00    -0.079 Cl
ENDROOT
BRANCH   5   9
HETATM    9  C3  UNL     1      26.203  25.341 107.134  1.00  0.00     0.283 A 
HETATM   10  N5  UNL     1      26.325  24.316 106.252  1.00  0.00    -0.150 N 
HETATM   11  C4  UNL     1      26.957  24.758 105.155  1.00  0.00     0.705 A 
ATOM     12  H5  UNL     1      25.989  23.364 106.400  1.00  0.00     0.188 HD
HETATM   13  N7  UNL     1      27.214  26.050 105.383  1.00  0.00    -0.087 N 
HETATM   14  O2  UNL     1      26.758  26.368 106.556  1.00  0.00    -0.184 OA
ATOM     15  H7  UNL     1      27.691  26.682 104.740  1.00  0.00     0.214 HD
BRANCH  11  16
HETATM   16  N6  UNL     1      27.296  24.032 103.984  1.00  0.00    -0.193 N 
HETATM   17  C5  UNL     1      28.312  22.983 103.849  1.00  0.00     0.170 C 
HETATM   18  C6  UNL     1      28.524  22.977 102.348  1.00  0.00     0.190 C 
HETATM   19  O1  UNL     1      27.869  24.121 101.861  1.00  0.00    -0.370 OA
HETATM   20  C7  UNL     1      26.726  24.154 102.656  1.00  0.00     0.311 C 
ENDBRANCH  11  16
ENDBRANCH   5   9
BRANCH   4  21
HETATM   21  N3  UNL     1      27.628  25.199 109.437  1.00  0.00    -0.234 N 
ATOM     22  H32 UNL     1      28.200  25.657 110.146  1.00  0.00     0.174 HD
ATOM     23  H31 UNL     1      28.073  24.726 108.651  1.00  0.00     0.174 HD
ENDBRANCH   4  21
BRANCH   1  24
HETATM   24  N1  UNL     1      23.930  25.160 112.142  1.00  0.00    -0.384 N 
ATOM     25  H12 UNL     1      24.369  24.643 112.904  1.00  0.00     0.157 HD
ATOM     26  H11 UNL     1      23.066  25.661 112.351  1.00  0.00     0.157 HD
ENDBRANCH   1  24
TORSDOF 4
ENDMDL
MODEL 5
REMARK VINA RESULT: -8.310862764      2.873      6.965
REMARK  4 active torsions:
REMARK  status: ('A' for Active; 'I' for Inactive)
REMARK    1  A    between atoms: N1_1  and  C1_4 
REMARK    2  A    between atoms: C2_7  and  N3_8 
REMARK    3  A    between atoms: N4_11  and  C3_12 
REMARK    4  A    between atoms: C4_15  and  N6_16 
ROOT
HETATM    1  C1  UNL     1      28.329  25.648 102.452  1.00  0.00     0.138 A 
HETATM    2  N2  UNL     1      28.977  26.182 103.499  1.00  0.00    -0.175 N 
ATOM      3  H2  UNL     1      29.840  26.696 103.325  1.00  0.00     0.186 HD
HETATM    4  C2  UNL     1      28.535  26.069 104.787  1.00  0.00     0.687 A 
HETATM    5  N4  UNL     1      27.400  25.399 105.052  1.00  0.00    -0.117 N 
HETATM    6  C8  UNL     1      26.737  24.858 104.016  1.00  0.00     0.146 A 
HETATM    7  C9  UNL     1      27.168  24.961 102.710  1.00  0.00     0.094 A 
HETATM    8 CL1  UNL     1      26.296  24.250 101.367  1.00  0.00    -0.079 Cl
ENDROOT
BRANCH   5   9
HETATM    9  C3  UNL     1      26.925  25.274 106.403  1.00  0.00     0.283 A 
HETATM   10  N5  UNL     1      25.640  25.377 106.828  1.00  0.00    -0.150 N 
HETATM   11  C4  UNL     1      25.606  25.200 108.157  1.00  0.00     0.705 A 
ATOM     12  H5  UNL     1      24.832  25.560 106.234  1.00  0.00     0.188 HD
HETATM   13  N7  UNL     1      26.874  24.991 108.526  1.00  0.00    -0.087 N 
HETATM   14  O2  UNL     1      27.631  25.039 107.473  1.00  0.00    -0.184 OA
ATOM     15  H7  UNL     1      27.194  24.822 109.479  1.00  0.00     0.214 HD
BRANCH  11  16
HETATM   16  N6  UNL     1      24.478  25.224 109.018  1.00  0.00    -0.193 N 
HETATM   17  C5  UNL     1      24.476  25.225 110.485  1.00  0.00     0.170 C 
HETATM   18  C6  UNL     1      23.060  24.768 110.773  1.00  0.00     0.190 C 
HETATM   19  O1  UNL     1      22.541  24.322 109.546  1.00  0.00    -0.370 OA
HETATM   20  C7  UNL     1      23.074  25.253 108.657  1.00  0.00     0.311 C 
ENDBRANCH  11  16
ENDBRANCH   5   9
BRANCH   4  21
HETATM   21  N3  UNL     1      29.199  26.603 105.755  1.00  0.00    -0.234 N 
ATOM     22  H32 UNL     1      28.900  26.446 106.717  1.00  0.00     0.174 HD
ATOM     23  H31 UNL     1      30.017  27.181 105.563  1.00  0.00     0.174 HD
ENDBRANCH   4  21
BRANCH   1  24
HETATM   24  N1  UNL     1      28.812  25.798 101.260  1.00  0.00    -0.384 N 
ATOM     25  H12 UNL     1      29.788  26.034 101.080  1.00  0.00     0.157 HD
ATOM     26  H11 UNL     1      28.201  25.678 100.453  1.00  0.00     0.157 HD
ENDBRANCH   1  24
TORSDOF 4
ENDMDL
