MODEL 1
REMARK VINA RESULT: -4.891099890      0.000      0.000
REMARK  2 active torsions:
REMARK  status: ('A' for Active; 'I' for Inactive)
REMARK    1  A    between atoms: O1_1  and  C1_3 
REMARK    2  A    between atoms: C1_3  and  C2_5 
ROOT
HETATM    1  C2  UNL     1      27.994  14.006  17.984  1.00  0.00     0.039 A 
HETATM    2  C3  UNL     1      28.228  12.601  17.635  1.00  0.00     0.033 A 
HETATM    3  C4  UNL     1      27.062  11.935  18.386  1.00  0.00     0.238 C 
HETATM    4  N1  UNL     1      26.858  12.778  19.542  1.00  0.00    -0.069 N 
ATOM      5  H11 UNL     1      26.935  12.276  20.427  1.00  0.00     0.277 HD
ATOM      6  H12 UNL     1      25.891  13.084  19.655  1.00  0.00     0.277 HD
HETATM    7  C5  UNL     1      27.811  13.892  19.418  1.00  0.00     0.204 A 
HETATM    8  C6  UNL     1      28.962  13.218  18.745  1.00  0.00     0.038 A 
ENDROOT
BRANCH   1   9
HETATM    9  C1  UNL     1      28.285  15.174  17.182  1.00  0.00     0.225 C 
HETATM   10 CL1  UNL     1      29.129  14.663  15.678  1.00  0.00    -0.095 Cl
BRANCH   9  11
HETATM   11  O1  UNL     1      29.089  16.143  17.765  1.00  0.00    -0.380 OA
ATOM     12  H1  UNL     1      28.777  16.978  17.436  1.00  0.00     0.211 HD
ENDBRANCH   9  11
ENDBRANCH   1   9
TORSDOF 2
ENDMDL
MODEL 2
REMARK VINA RESULT: -4.806777805      1.822      2.303
REMARK  2 active torsions:
REMARK  status: ('A' for Active; 'I' for Inactive)
REMARK    1  A    between atoms: O1_1  and  C1_3 
REMARK    2  A    between atoms: C1_3  and  C2_5 
ROOT
HETATM    1  C2  UNL     1      28.861  13.820  17.763  1.00  0.00     0.039 A 
HETATM    2  C3  UNL     1      27.670  14.615  18.076  1.00  0.00     0.033 A 
HETATM    3  C4  UNL     1      27.974  15.000  19.534  1.00  0.00     0.238 C 
HETATM    4  N1  UNL     1      28.735  13.882  20.044  1.00  0.00    -0.069 N 
ATOM      5  H11 UNL     1      28.316  13.451  20.869  1.00  0.00     0.277 HD
ATOM      6  H12 UNL     1      29.616  14.156  20.479  1.00  0.00     0.277 HD
HETATM    7  C5  UNL     1      28.905  12.948  18.920  1.00  0.00     0.204 A 
HETATM    8  C6  UNL     1      27.627  13.152  18.174  1.00  0.00     0.038 A 
ENDROOT
BRANCH   1   9
HETATM    9  C1  UNL     1      29.520  13.685  16.481  1.00  0.00     0.225 C 
HETATM   10 CL1  UNL     1      29.187  15.148  15.490  1.00  0.00    -0.095 Cl
BRANCH   9  11
HETATM   11  O1  UNL     1      29.147  12.599  15.702  1.00  0.00    -0.380 OA
ATOM     12  H1  UNL     1      29.180  11.841  16.274  1.00  0.00     0.211 HD
ENDBRANCH   9  11
ENDBRANCH   1   9
TORSDOF 2
ENDMDL
MODEL 3
REMARK VINA RESULT: -4.562676936      1.589      1.590
REMARK  2 active torsions:
REMARK  status: ('A' for Active; 'I' for Inactive)
REMARK    1  A    between atoms: O1_1  and  C1_3 
REMARK    2  A    between atoms: C1_3  and  C2_5 
ROOT
HETATM    1  C2  UNL     1      28.444  13.445  17.962  1.00  0.00     0.039 A 
HETATM    2  C3  UNL     1      28.142  12.117  18.505  1.00  0.00     0.033 A 
HETATM    3  C4  UNL     1      26.776  12.392  19.155  1.00  0.00     0.238 C 
HETATM    4  N1  UNL     1      26.852  13.775  19.569  1.00  0.00    -0.069 N 
ATOM      5  H11 UNL     1      26.688  13.908  20.567  1.00  0.00     0.277 HD
ATOM      6  H12 UNL     1      26.070  14.340  19.236  1.00  0.00     0.277 HD
HETATM    7  C5  UNL     1      28.162  14.271  19.120  1.00  0.00     0.204 A 
HETATM    8  C6  UNL     1      29.001  13.042  19.252  1.00  0.00     0.038 A 
ENDROOT
BRANCH   1   9
HETATM    9  C1  UNL     1      29.197  13.760  16.767  1.00  0.00     0.225 C 
HETATM   10 CL1  UNL     1      28.773  15.421  16.222  1.00  0.00    -0.095 Cl
BRANCH   9  11
HETATM   11  O1  UNL     1      28.997  12.932  15.671  1.00  0.00    -0.380 OA
ATOM     12  H1  UNL     1      29.668  13.165  15.040  1.00  0.00     0.211 HD
ENDBRANCH   9  11
ENDBRANCH   1   9
TORSDOF 2
ENDMDL
MODEL 4
REMARK VINA RESULT: -4.397323730      1.347      1.347
REMARK  2 active torsions:
REMARK  status: ('A' for Active; 'I' for Inactive)
REMARK    1  A    between atoms: O1_1  and  C1_3 
REMARK    2  A    between atoms: C1_3  and  C2_5 
ROOT
HETATM    1  C2  UNL     1      28.116  14.243  17.773  1.00  0.00     0.039 A 
HETATM    2  C3  UNL     1      28.305  12.816  17.494  1.00  0.00     0.033 A 
HETATM    3  C4  UNL     1      27.142  12.222  18.306  1.00  0.00     0.238 C 
HETATM    4  N1  UNL     1      26.987  13.130  19.420  1.00  0.00    -0.069 N 
ATOM      5  H11 UNL     1      27.072  12.674  20.328  1.00  0.00     0.277 HD
ATOM      6  H12 UNL     1      26.031  13.467  19.537  1.00  0.00     0.277 HD
HETATM    7  C5  UNL     1      27.965  14.210  19.214  1.00  0.00     0.204 A 
HETATM    8  C6  UNL     1      29.082  13.471  18.552  1.00  0.00     0.038 A 
ENDROOT
BRANCH   1   9
HETATM    9  C1  UNL     1      28.417  15.359  16.903  1.00  0.00     0.225 C 
HETATM   10 CL1  UNL     1      27.028  16.502  16.906  1.00  0.00    -0.095 Cl
BRANCH   9  11
HETATM   11  O1  UNL     1      28.667  15.060  15.571  1.00  0.00    -0.380 OA
ATOM     12  H1  UNL     1      29.550  14.713  15.540  1.00  0.00     0.211 HD
ENDBRANCH   9  11
ENDBRANCH   1   9
TORSDOF 2
ENDMDL
MODEL 5
REMARK VINA RESULT: -4.351232792      1.758      2.154
REMARK  2 active torsions:
REMARK  status: ('A' for Active; 'I' for Inactive)
REMARK    1  A    between atoms: O1_1  and  C1_3 
REMARK    2  A    between atoms: C1_3  and  C2_5 
ROOT
HETATM    1  C2  UNL     1      28.704  12.919  18.011  1.00  0.00     0.039 A 
HETATM    2  C3  UNL     1      28.759  13.342  19.414  1.00  0.00     0.033 A 
HETATM    3  C4  UNL     1      28.546  11.990  20.116  1.00  0.00     0.238 C 
HETATM    4  N1  UNL     1      27.701  11.248  19.207  1.00  0.00    -0.069 N 
ATOM      5  H11 UNL     1      26.828  10.934  19.631  1.00  0.00     0.277 HD
ATOM      6  H12 UNL     1      28.068  10.325  18.975  1.00  0.00     0.277 HD
HETATM    7  C5  UNL     1      27.502  12.109  18.030  1.00  0.00     0.204 A 
HETATM    8  C6  UNL     1      27.510  13.465  18.654  1.00  0.00     0.038 A 
ENDROOT
BRANCH   1   9
HETATM    9  C1  UNL     1      29.409  13.496  16.887  1.00  0.00     0.225 C 
HETATM   10 CL1  UNL     1      29.049  15.256  16.805  1.00  0.00    -0.095 Cl
BRANCH   9  11
HETATM   11  O1  UNL     1      29.108  12.982  15.634  1.00  0.00    -0.380 OA
ATOM     12  H1  UNL     1      29.815  13.253  15.061  1.00  0.00     0.211 HD
ENDBRANCH   9  11
ENDBRANCH   1   9
TORSDOF 2
ENDMDL
