MODEL 1
REMARK VINA RESULT: -7.024509119      0.000      0.000
REMARK  6 active torsions:
REMARK  status: ('A' for Active; 'I' for Inactive)
REMARK    1  A    between atoms: O1_2  and  C2_3 
REMARK    2  A    between atoms: C5_7  and  C6_8 
REMARK    3  A    between atoms: C6_8  and  N1_9 
REMARK    4  A    between atoms: N1_9  and  N2_11 
REMARK    5  A    between atoms: N2_11  and  C7_13 
REMARK    6  A    between atoms: N4_22  and  O3_23 
ROOT
HETATM    1  C6  UNL     1      46.529  47.826  34.155  1.00  0.00     0.120 C 
ENDROOT
BRANCH   1   2
HETATM    2  C5  UNL     1      45.749  48.385  33.066  1.00  0.00     0.000 A 
HETATM    3  C4  UNL     1      46.106  48.092  31.758  1.00  0.00     0.038 A 
HETATM    4  C3  UNL     1      45.412  48.583  30.689  1.00  0.00     0.065 A 
HETATM    5  C2  UNL     1      44.321  49.397  30.942  1.00  0.00     0.186 A 
HETATM    6 BR1  UNL     1      45.944  48.150  28.905  1.00  0.00    -0.046 Br
HETATM    7  N4  UNL     1      43.970  49.686  32.204  1.00  0.00    -0.211 N 
HETATM    8  C11 UNL     1      44.669  49.190  33.252  1.00  0.00     0.138 A 
BRANCH   5   9
HETATM    9  O1  UNL     1      43.627  49.889  29.839  1.00  0.00    -0.338 OA
HETATM   10  C1  UNL     1      44.210  51.022  29.185  1.00  0.00     0.211 C 
ENDBRANCH   5   9
BRANCH   7  11
HETATM   11  O3  UNL     1      42.882  50.496  32.456  1.00  0.00    -0.281 OA
ATOM     12  H3  UNL     1      42.897  51.107  33.184  1.00  0.00     0.245 HD
ENDBRANCH   7  11
ENDBRANCH   1   2
BRANCH   1  13
HETATM   13  N1  UNL     1      47.656  48.370  34.483  1.00  0.00    -0.309 N 
ATOM     14  H1  UNL     1      48.506  48.110  33.983  1.00  0.00     0.186 HD
BRANCH  13  15
HETATM   15  N2  UNL     1      47.722  49.290  35.493  1.00  0.00    -0.277 N 
ATOM     16  H2  UNL     1      47.733  50.271  35.214  1.00  0.00     0.189 HD
BRANCH  15  17
HETATM   17  C7  UNL     1      47.772  49.053  36.753  1.00  0.00     0.204 A 
HETATM   18  O2  UNL     1      47.352  47.917  37.284  1.00  0.00    -0.217 OA
HETATM   19  N3  UNL     1      47.507  47.921  38.555  1.00  0.00    -0.262 N 
HETATM   20  C8  UNL     1      48.048  49.076  38.982  1.00  0.00     0.050 A 
ATOM     21  H3  UNL     1      47.252  47.145  39.166  1.00  0.00     0.194 HD
HETATM   22  C9  UNL     1      48.399  49.513  40.356  1.00  0.00     0.072 C 
HETATM   23  C10 UNL     1      48.221  49.816  37.806  1.00  0.00     0.089 A 
HETATM   24 BR2  UNL     1      48.944  51.551  37.689  1.00  0.00    -0.044 Br
ENDBRANCH  15  17
ENDBRANCH  13  15
ENDBRANCH   1  13
TORSDOF 6
ENDMDL
MODEL 2
REMARK VINA RESULT: -6.923717203      3.465      4.153
REMARK  6 active torsions:
REMARK  status: ('A' for Active; 'I' for Inactive)
REMARK    1  A    between atoms: O1_2  and  C2_3 
REMARK    2  A    between atoms: C5_7  and  C6_8 
REMARK    3  A    between atoms: C6_8  and  N1_9 
REMARK    4  A    between atoms: N1_9  and  N2_11 
REMARK    5  A    between atoms: N2_11  and  C7_13 
REMARK    6  A    between atoms: N4_22  and  O3_23 
ROOT
HETATM    1  C6  UNL     1      44.601  49.508  33.432  1.00  0.00     0.120 C 
ENDROOT
BRANCH   1   2
HETATM    2  C5  UNL     1      44.671  50.090  32.104  1.00  0.00     0.000 A 
HETATM    3  C4  UNL     1      44.591  49.260  30.996  1.00  0.00     0.038 A 
HETATM    4  C3  UNL     1      44.647  49.744  29.721  1.00  0.00     0.065 A 
HETATM    5  C2  UNL     1      44.788  51.111  29.552  1.00  0.00     0.186 A 
HETATM    6 BR1  UNL     1      44.531  48.559  28.226  1.00  0.00    -0.046 Br
HETATM    7  N4  UNL     1      44.867  51.922  30.618  1.00  0.00    -0.211 N 
HETATM    8  C11 UNL     1      44.809  51.423  31.876  1.00  0.00     0.138 A 
BRANCH   5   9
HETATM    9  O1  UNL     1      44.843  51.586  28.243  1.00  0.00    -0.338 OA
HETATM   10  C1  UNL     1      46.154  51.819  27.716  1.00  0.00     0.211 C 
ENDBRANCH   5   9
BRANCH   7  11
HETATM   11  O3  UNL     1      45.006  53.283  30.450  1.00  0.00    -0.281 OA
ATOM     12  H3  UNL     1      44.263  53.861  30.579  1.00  0.00     0.245 HD
ENDBRANCH   7  11
ENDBRANCH   1   2
BRANCH   1  13
HETATM   13  N1  UNL     1      45.598  49.645  34.246  1.00  0.00    -0.309 N 
ATOM     14  H1  UNL     1      45.519  50.286  35.037  1.00  0.00     0.186 HD
BRANCH  13  15
HETATM   15  N2  UNL     1      46.756  48.942  34.061  1.00  0.00    -0.277 N 
ATOM     16  H2  UNL     1      47.612  49.490  33.974  1.00  0.00     0.189 HD
BRANCH  15  17
HETATM   17  C7  UNL     1      46.882  47.668  33.983  1.00  0.00     0.204 A 
HETATM   18  O2  UNL     1      46.643  46.862  35.004  1.00  0.00    -0.217 OA
HETATM   19  N3  UNL     1      46.838  45.639  34.679  1.00  0.00    -0.262 N 
HETATM   20  C8  UNL     1      47.232  45.527  33.397  1.00  0.00     0.050 A 
ATOM     21  H3  UNL     1      46.712  44.849  35.312  1.00  0.00     0.194 HD
HETATM   22  C9  UNL     1      47.566  44.317  32.605  1.00  0.00     0.072 C 
HETATM   23  C10 UNL     1      47.261  46.851  32.943  1.00  0.00     0.089 A 
HETATM   24 BR2  UNL     1      47.734  47.413  31.209  1.00  0.00    -0.044 Br
ENDBRANCH  15  17
ENDBRANCH  13  15
ENDBRANCH   1  13
TORSDOF 6
ENDMDL
MODEL 3
REMARK VINA RESULT: -6.844060395      2.593      2.724
REMARK  6 active torsions:
REMARK  status: ('A' for Active; 'I' for Inactive)
REMARK    1  A    between atoms: O1_2  and  C2_3 
REMARK    2  A    between atoms: C5_7  and  C6_8 
REMARK    3  A    between atoms: C6_8  and  N1_9 
REMARK    4  A    between atoms: N1_9  and  N2_11 
REMARK    5  A    between atoms: N2_11  and  C7_13 
REMARK    6  A    between atoms: N4_22  and  O3_23 
ROOT
HETATM    1  C6  UNL     1      46.536  50.676  34.949  1.00  0.00     0.120 C 
ENDROOT
BRANCH   1   2
HETATM    2  C5  UNL     1      45.824  50.877  33.700  1.00  0.00     0.000 A 
HETATM    3  C4  UNL     1      46.322  51.782  32.775  1.00  0.00     0.038 A 
HETATM    4  C3  UNL     1      45.703  52.015  31.581  1.00  0.00     0.065 A 
HETATM    5  C2  UNL     1      44.541  51.314  31.305  1.00  0.00     0.186 A 
HETATM    6 BR1  UNL     1      46.430  53.273  30.338  1.00  0.00    -0.046 Br
HETATM    7  N4  UNL     1      44.052  50.436  32.194  1.00  0.00    -0.211 N 
HETATM    8  C11 UNL     1      44.680  50.218  33.374  1.00  0.00     0.138 A 
BRANCH   5   9
HETATM    9  O1  UNL     1      43.924  51.565  30.081  1.00  0.00    -0.338 OA
HETATM   10  C1  UNL     1      44.283  50.689  29.006  1.00  0.00     0.211 C 
ENDBRANCH   5   9
BRANCH   7  11
HETATM   11  O3  UNL     1      42.896  49.736  31.919  1.00  0.00    -0.281 OA
ATOM     12  H3  UNL     1      42.865  48.795  32.039  1.00  0.00     0.245 HD
ENDBRANCH   7  11
ENDBRANCH   1   2
BRANCH   1  13
HETATM   13  N1  UNL     1      47.565  51.410  35.227  1.00  0.00    -0.309 N 
ATOM     14  H1  UNL     1      47.603  52.373  34.892  1.00  0.00     0.186 HD
BRANCH  13  15
HETATM   15  N2  UNL     1      48.603  50.910  35.963  1.00  0.00    -0.277 N 
ATOM     16  H2  UNL     1      49.408  50.566  35.439  1.00  0.00     0.189 HD
BRANCH  15  17
HETATM   17  C7  UNL     1      48.675  50.826  37.241  1.00  0.00     0.204 A 
HETATM   18  O2  UNL     1      49.157  51.800  37.995  1.00  0.00    -0.217 OA
HETATM   19  N3  UNL     1      49.123  51.480  39.235  1.00  0.00    -0.262 N 
HETATM   20  C8  UNL     1      48.609  50.249  39.411  1.00  0.00     0.050 A 
ATOM     21  H3  UNL     1      49.444  52.082  39.993  1.00  0.00     0.194 HD
HETATM   22  C9  UNL     1      48.383  49.480  40.661  1.00  0.00     0.072 C 
HETATM   23  C10 UNL     1      48.317  49.822  38.110  1.00  0.00     0.089 A 
HETATM   24 BR2  UNL     1      47.564  48.162  37.635  1.00  0.00    -0.044 Br
ENDBRANCH  15  17
ENDBRANCH  13  15
ENDBRANCH   1  13
TORSDOF 6
ENDMDL
MODEL 4
REMARK VINA RESULT: -6.754615126      1.945      2.003
REMARK  6 active torsions:
REMARK  status: ('A' for Active; 'I' for Inactive)
REMARK    1  A    between atoms: O1_2  and  C2_3 
REMARK    2  A    between atoms: C5_7  and  C6_8 
REMARK    3  A    between atoms: C6_8  and  N1_9 
REMARK    4  A    between atoms: N1_9  and  N2_11 
REMARK    5  A    between atoms: N2_11  and  C7_13 
REMARK    6  A    between atoms: N4_22  and  O3_23 
ROOT
HETATM    1  C6  UNL     1      45.978  48.968  34.198  1.00  0.00     0.120 C 
ENDROOT
BRANCH   1   2
HETATM    2  C5  UNL     1      45.837  49.930  33.121  1.00  0.00     0.000 A 
HETATM    3  C4  UNL     1      45.234  49.537  31.936  1.00  0.00     0.038 A 
HETATM    4  C3  UNL     1      45.067  50.394  30.886  1.00  0.00     0.065 A 
HETATM    5  C2  UNL     1      45.522  51.693  31.031  1.00  0.00     0.186 A 
HETATM    6 BR1  UNL     1      44.229  49.802  29.273  1.00  0.00    -0.046 Br
HETATM    7  N4  UNL     1      46.107  52.083  32.174  1.00  0.00    -0.211 N 
HETATM    8  C11 UNL     1      46.264  51.219  33.205  1.00  0.00     0.138 A 
BRANCH   5   9
HETATM    9  O1  UNL     1      45.343  52.552  29.949  1.00  0.00    -0.338 OA
HETATM   10  C1  UNL     1      46.484  52.741  29.103  1.00  0.00     0.211 C 
ENDBRANCH   5   9
BRANCH   7  11
HETATM   11  O3  UNL     1      46.559  53.378  32.319  1.00  0.00    -0.281 OA
ATOM     12  H3  UNL     1      46.948  53.661  33.139  1.00  0.00     0.245 HD
ENDBRANCH   7  11
ENDBRANCH   1   2
BRANCH   1  13
HETATM   13  N1  UNL     1      47.155  48.552  34.537  1.00  0.00    -0.309 N 
ATOM     14  H1  UNL     1      47.549  47.727  34.082  1.00  0.00     0.186 HD
BRANCH  13  15
HETATM   15  N2  UNL     1      47.880  49.203  35.497  1.00  0.00    -0.277 N 
ATOM     16  H2  UNL     1      48.507  49.939  35.172  1.00  0.00     0.189 HD
BRANCH  15  17
HETATM   17  C7  UNL     1      47.856  48.989  36.761  1.00  0.00     0.204 A 
HETATM   18  O2  UNL     1      47.412  47.859  37.287  1.00  0.00    -0.217 OA
HETATM   19  N3  UNL     1      47.491  47.886  38.565  1.00  0.00    -0.262 N 
HETATM   20  C8  UNL     1      48.000  49.052  39.003  1.00  0.00     0.050 A 
ATOM     21  H3  UNL     1      47.204  47.120  39.174  1.00  0.00     0.194 HD
HETATM   22  C9  UNL     1      48.268  49.515  40.387  1.00  0.00     0.072 C 
HETATM   23  C10 UNL     1      48.239  49.772  37.825  1.00  0.00     0.089 A 
HETATM   24 BR2  UNL     1      48.959  51.508  37.721  1.00  0.00    -0.044 Br
ENDBRANCH  15  17
ENDBRANCH  13  15
ENDBRANCH   1  13
TORSDOF 6
ENDMDL
MODEL 5
REMARK VINA RESULT: -6.708778260      3.047      7.108
REMARK  6 active torsions:
REMARK  status: ('A' for Active; 'I' for Inactive)
REMARK    1  A    between atoms: O1_2  and  C2_3 
REMARK    2  A    between atoms: C5_7  and  C6_8 
REMARK    3  A    between atoms: C6_8  and  N1_9 
REMARK    4  A    between atoms: N1_9  and  N2_11 
REMARK    5  A    between atoms: N2_11  and  C7_13 
REMARK    6  A    between atoms: N4_22  and  O3_23 
ROOT
HETATM    1  C6  UNL     1      45.982  50.774  34.920  1.00  0.00     0.120 C 
ENDROOT
BRANCH   1   2
HETATM    2  C5  UNL     1      47.393  50.644  35.234  1.00  0.00     0.000 A 
HETATM    3  C4  UNL     1      48.221  49.955  34.361  1.00  0.00     0.038 A 
HETATM    4  C3  UNL     1      49.557  49.800  34.596  1.00  0.00     0.065 A 
HETATM    5  C2  UNL     1      50.081  50.359  35.750  1.00  0.00     0.186 A 
HETATM    6 BR1  UNL     1      50.655  48.840  33.361  1.00  0.00    -0.046 Br
HETATM    7  N4  UNL     1      49.288  51.028  36.600  1.00  0.00    -0.211 N 
HETATM    8  C11 UNL     1      47.964  51.171  36.350  1.00  0.00     0.138 A 
BRANCH   5   9
HETATM    9  O1  UNL     1      51.446  50.190  35.972  1.00  0.00    -0.338 OA
HETATM   10  C1  UNL     1      52.298  51.213  35.442  1.00  0.00     0.211 C 
ENDBRANCH   5   9
BRANCH   7  11
HETATM   11  O3  UNL     1      49.810  51.586  37.748  1.00  0.00    -0.281 OA
ATOM     12  H3  UNL     1      50.749  51.705  37.839  1.00  0.00     0.245 HD
ENDBRANCH   7  11
ENDBRANCH   1   2
BRANCH   1  13
HETATM   13  N1  UNL     1      45.519  51.908  34.502  1.00  0.00    -0.309 N 
ATOM     14  H1  UNL     1      45.504  52.710  35.133  1.00  0.00     0.186 HD
BRANCH  13  15
HETATM   15  N2  UNL     1      45.048  52.045  33.226  1.00  0.00    -0.277 N 
ATOM     16  H2  UNL     1      44.925  52.999  32.886  1.00  0.00     0.189 HD
BRANCH  15  17
HETATM   17  C7  UNL     1      44.745  51.104  32.409  1.00  0.00     0.204 A 
HETATM   18  O2  UNL     1      43.570  50.497  32.421  1.00  0.00    -0.217 OA
HETATM   19  N3  UNL     1      43.509  49.597  31.512  1.00  0.00    -0.262 N 
HETATM   20  C8  UNL     1      44.655  49.527  30.811  1.00  0.00     0.050 A 
ATOM     21  H3  UNL     1      42.695  49.007  31.342  1.00  0.00     0.194 HD
HETATM   22  C9  UNL     1      45.027  48.642  29.679  1.00  0.00     0.072 C 
HETATM   23  C10 UNL     1      45.462  50.511  31.395  1.00  0.00     0.089 A 
HETATM   24 BR2  UNL     1      47.221  50.945  30.882  1.00  0.00    -0.044 Br
ENDBRANCH  15  17
ENDBRANCH  13  15
ENDBRANCH   1  13
TORSDOF 6
ENDMDL
