MODEL 1
REMARK VINA RESULT: -7.420420193      0.000      0.000
REMARK  11 active torsions:
REMARK  status: ('A' for Active; 'I' for Inactive)
REMARK    1  A    between atoms: C2_2  and  C4_4 
REMARK    2  A    between atoms: C4_4  and  C5_5 
REMARK    3  A    between atoms: C5_5  and  N1_6 
REMARK    4  A    between atoms: N1_6  and  C6_7 
REMARK    5  A    between atoms: N1_6  and  C10_15 
REMARK    6  A    between atoms: C6_7  and  O1_8 
REMARK    7  A    between atoms: C6_7  and  C7_10 
REMARK    8  A    between atoms: C7_10  and  C8_11 
REMARK    9  A    between atoms: C8_11  and  C9_12 
REMARK   10  A    between atoms: C24_30  and  O5_32 
REMARK   11  A    between atoms: C30_38  and  O6_39 
ROOT
HETATM    1  C10 UNL     1      52.511  37.506  11.826  1.00  0.00     0.033 C 
HETATM    2  C11 UNL     1      51.460  36.494  12.271  1.00  0.00     0.039 C 
HETATM    3  C12 UNL     1      53.801  36.801  11.392  1.00  0.00     0.032 C 
HETATM    4  C13 UNL     1      54.232  37.499  10.087  1.00  0.00     0.015 C 
HETATM    5  C14 UNL     1      53.330  37.040   8.980  1.00  0.00    -0.002 C 
HETATM    6  C15 UNL     1      53.326  35.501   9.106  1.00  0.00     0.019 C 
HETATM    7  C16 UNL     1      53.787  37.345   7.607  1.00  0.00     0.071 C 
HETATM    8  C17 UNL     1      54.554  38.567   7.385  1.00  0.00     0.133 C 
HETATM    9  O4  UNL     1      54.889  39.376   8.216  1.00  0.00    -0.298 OA
HETATM   10  C18 UNL     1      54.988  38.883   6.004  1.00  0.00     0.088 C 
HETATM   11  C19 UNL     1      53.919  38.658   4.980  1.00  0.00    -0.031 C 
HETATM   12  C20 UNL     1      53.098  39.956   4.919  1.00  0.00     0.016 C 
HETATM   13  C21 UNL     1      54.608  38.582   3.626  1.00  0.00     0.010 C 
HETATM   14  C22 UNL     1      55.548  37.420   3.531  1.00  0.00     0.004 C 
HETATM   15  C23 UNL     1      55.054  36.222   4.256  1.00  0.00     0.038 C 
HETATM   16  C24 UNL     1      53.564  36.215   4.486  1.00  0.00     0.059 C 
HETATM   17  C25 UNL     1      52.902  36.034   3.123  1.00  0.00     0.046 C 
HETATM   18  C26 UNL     1      53.071  37.461   5.186  1.00  0.00     0.033 C 
HETATM   19  C27 UNL     1      52.657  37.210   6.615  1.00  0.00     0.005 C 
HETATM   20  C28 UNL     1      51.405  37.947   6.992  1.00  0.00     0.009 C 
HETATM   21  C29 UNL     1      51.474  38.600   8.329  1.00  0.00     0.039 C 
HETATM   22  C30 UNL     1      51.958  37.556   9.346  1.00  0.00     0.068 C 
HETATM   23  C31 UNL     1      51.906  38.260  10.674  1.00  0.00     0.069 C 
ENDROOT
BRANCH   1  24
HETATM   24  N1  UNL     1      52.822  38.333  12.954  1.00  0.00    -0.356 N 
BRANCH  24  25
HETATM   25  C5  UNL     1      54.093  39.064  13.063  1.00  0.00     0.126 C 
BRANCH  25  26
HETATM   26  C4  UNL     1      53.970  40.504  12.662  1.00  0.00     0.024 C 
BRANCH  26  27
HETATM   27  C2  UNL     1      54.881  40.870  11.524  1.00  0.00    -0.021 C 
HETATM   28  C1  UNL     1      56.165  40.099  11.533  1.00  0.00     0.009 C 
HETATM   29  C3  UNL     1      55.184  42.350  11.479  1.00  0.00     0.009 C 
ENDBRANCH  26  27
ENDBRANCH  25  26
ENDBRANCH  24  25
BRANCH  24  30
HETATM   30  C6  UNL     1      51.902  38.513  14.018  1.00  0.00     0.114 C 
BRANCH  30  31
HETATM   31  O1  UNL     1      52.416  38.244  15.188  1.00  0.00    -0.349 OA
ATOM     32  H1  UNL     1      52.908  38.970  15.553  1.00  0.00     0.219 HD
ENDBRANCH  30  31
BRANCH  30  33
HETATM   33  C7  UNL     1      50.514  38.932  13.993  1.00  0.00     0.094 C 
BRANCH  33  34
HETATM   34  C8  UNL     1      50.384  40.283  13.286  1.00  0.00     0.121 C 
BRANCH  34  35
HETATM   35  C9  UNL     1      49.367  41.084  13.991  1.00  0.00     0.172 C 
HETATM   36  O2  UNL     1      48.527  40.544  14.721  1.00  0.00    -0.648 OA
HETATM   37  O3  UNL     1      49.297  42.474  13.872  1.00  0.00    -0.648 OA
ENDBRANCH  34  35
ENDBRANCH  33  34
ENDBRANCH  30  33
ENDBRANCH  24  30
ENDBRANCH   1  24
BRANCH  22  38
HETATM   38  O6  UNL     1      50.986  36.574   9.341  1.00  0.00    -0.389 OA
ATOM     39  H6  UNL     1      50.170  36.855   8.946  1.00  0.00     0.210 HD
ENDBRANCH  22  38
BRANCH  16  40
HETATM   40  O5  UNL     1      53.287  35.040   5.188  1.00  0.00    -0.390 OA
ATOM     41  H5  UNL     1      52.340  34.975   5.229  1.00  0.00     0.210 HD
ENDBRANCH  16  40
TORSDOF 11
ENDMDL
MODEL 2
REMARK VINA RESULT: -7.287524253      1.702      3.151
REMARK  11 active torsions:
REMARK  status: ('A' for Active; 'I' for Inactive)
REMARK    1  A    between atoms: C2_2  and  C4_4 
REMARK    2  A    between atoms: C4_4  and  C5_5 
REMARK    3  A    between atoms: C5_5  and  N1_6 
REMARK    4  A    between atoms: N1_6  and  C6_7 
REMARK    5  A    between atoms: N1_6  and  C10_15 
REMARK    6  A    between atoms: C6_7  and  O1_8 
REMARK    7  A    between atoms: C6_7  and  C7_10 
REMARK    8  A    between atoms: C7_10  and  C8_11 
REMARK    9  A    between atoms: C8_11  and  C9_12 
REMARK   10  A    between atoms: C24_30  and  O5_32 
REMARK   11  A    between atoms: C30_38  and  O6_39 
ROOT
HETATM    1  C10 UNL     1      52.751  37.378  12.007  1.00  0.00     0.033 C 
HETATM    2  C11 UNL     1      51.727  36.347  12.473  1.00  0.00     0.039 C 
HETATM    3  C12 UNL     1      54.013  36.693  11.470  1.00  0.00     0.032 C 
HETATM    4  C13 UNL     1      54.366  37.443  10.171  1.00  0.00     0.015 C 
HETATM    5  C14 UNL     1      53.399  37.027   9.102  1.00  0.00    -0.002 C 
HETATM    6  C15 UNL     1      53.402  35.485   9.166  1.00  0.00     0.019 C 
HETATM    7  C16 UNL     1      53.774  37.388   7.717  1.00  0.00     0.071 C 
HETATM    8  C17 UNL     1      54.527  38.619   7.500  1.00  0.00     0.133 C 
HETATM    9  O4  UNL     1      54.912  39.395   8.341  1.00  0.00    -0.298 OA
HETATM   10  C18 UNL     1      54.879  38.991   6.109  1.00  0.00     0.088 C 
HETATM   11  C19 UNL     1      53.751  38.805   5.142  1.00  0.00    -0.031 C 
HETATM   12  C20 UNL     1      52.929  40.104   5.182  1.00  0.00     0.016 C 
HETATM   13  C21 UNL     1      54.359  38.785   3.748  1.00  0.00     0.010 C 
HETATM   14  C22 UNL     1      55.291  37.629   3.551  1.00  0.00     0.004 C 
HETATM   15  C23 UNL     1      54.840  36.402   4.255  1.00  0.00     0.038 C 
HETATM   16  C24 UNL     1      53.366  36.383   4.573  1.00  0.00     0.059 C 
HETATM   17  C25 UNL     1      52.624  36.256   3.245  1.00  0.00     0.046 C 
HETATM   18  C26 UNL     1      52.916  37.599   5.349  1.00  0.00     0.033 C 
HETATM   19  C27 UNL     1      52.587  37.291   6.789  1.00  0.00     0.005 C 
HETATM   20  C28 UNL     1      51.360  38.010   7.270  1.00  0.00     0.009 C 
HETATM   21  C29 UNL     1      51.509  38.609   8.625  1.00  0.00     0.039 C 
HETATM   22  C30 UNL     1      52.051  37.526   9.569  1.00  0.00     0.068 C 
HETATM   23  C31 UNL     1      52.079  38.177  10.924  1.00  0.00     0.069 C 
ENDROOT
BRANCH   1  24
HETATM   24  N1  UNL     1      53.128  38.160  13.147  1.00  0.00    -0.356 N 
BRANCH  24  25
HETATM   25  C5  UNL     1      52.568  37.917  14.484  1.00  0.00     0.126 C 
BRANCH  25  26
HETATM   26  C4  UNL     1      51.794  39.089  15.011  1.00  0.00     0.024 C 
BRANCH  26  27
HETATM   27  C2  UNL     1      50.400  39.161  14.457  1.00  0.00    -0.021 C 
HETATM   28  C1  UNL     1      50.227  40.257  13.450  1.00  0.00     0.009 C 
HETATM   29  C3  UNL     1      49.354  39.304  15.539  1.00  0.00     0.009 C 
ENDBRANCH  26  27
ENDBRANCH  25  26
ENDBRANCH  24  25
BRANCH  24  30
HETATM   30  C6  UNL     1      54.089  39.198  13.050  1.00  0.00     0.114 C 
BRANCH  30  31
HETATM   31  O1  UNL     1      55.167  38.963  13.749  1.00  0.00    -0.349 OA
ATOM     32  H1  UNL     1      55.573  39.755  14.082  1.00  0.00     0.219 HD
ENDBRANCH  30  31
BRANCH  30  33
HETATM   33  C7  UNL     1      54.045  40.447  12.315  1.00  0.00     0.094 C 
BRANCH  33  34
HETATM   34  C8  UNL     1      55.332  40.628  11.506  1.00  0.00     0.121 C 
BRANCH  34  35
HETATM   35  C9  UNL     1      55.561  42.071  11.310  1.00  0.00     0.172 C 
HETATM   36  O2  UNL     1      55.073  42.666  10.342  1.00  0.00    -0.648 OA
HETATM   37  O3  UNL     1      56.331  42.831  12.194  1.00  0.00    -0.648 OA
ENDBRANCH  34  35
ENDBRANCH  33  34
ENDBRANCH  30  33
ENDBRANCH  24  30
ENDBRANCH   1  24
BRANCH  22  38
HETATM   38  O6  UNL     1      51.081  36.543   9.582  1.00  0.00    -0.389 OA
ATOM     39  H6  UNL     1      51.285  35.822  10.166  1.00  0.00     0.210 HD
ENDBRANCH  22  38
BRANCH  16  40
HETATM   40  O5  UNL     1      53.130  35.181   5.242  1.00  0.00    -0.390 OA
ATOM     41  H5  UNL     1      52.277  34.880   4.951  1.00  0.00     0.210 HD
ENDBRANCH  16  40
TORSDOF 11
ENDMDL
MODEL 3
REMARK VINA RESULT: -7.205495000      1.337      2.119
REMARK  11 active torsions:
REMARK  status: ('A' for Active; 'I' for Inactive)
REMARK    1  A    between atoms: C2_2  and  C4_4 
REMARK    2  A    between atoms: C4_4  and  C5_5 
REMARK    3  A    between atoms: C5_5  and  N1_6 
REMARK    4  A    between atoms: N1_6  and  C6_7 
REMARK    5  A    between atoms: N1_6  and  C10_15 
REMARK    6  A    between atoms: C6_7  and  O1_8 
REMARK    7  A    between atoms: C6_7  and  C7_10 
REMARK    8  A    between atoms: C7_10  and  C8_11 
REMARK    9  A    between atoms: C8_11  and  C9_12 
REMARK   10  A    between atoms: C24_30  and  O5_32 
REMARK   11  A    between atoms: C30_38  and  O6_39 
ROOT
HETATM    1  C10 UNL     1      52.636  37.620  12.082  1.00  0.00     0.033 C 
HETATM    2  C11 UNL     1      51.723  36.501  12.573  1.00  0.00     0.039 C 
HETATM    3  C12 UNL     1      53.991  37.065  11.631  1.00  0.00     0.032 C 
HETATM    4  C13 UNL     1      54.307  37.780  10.303  1.00  0.00     0.015 C 
HETATM    5  C14 UNL     1      53.442  37.192   9.227  1.00  0.00    -0.002 C 
HETATM    6  C15 UNL     1      53.625  35.667   9.383  1.00  0.00     0.019 C 
HETATM    7  C16 UNL     1      53.829  37.518   7.838  1.00  0.00     0.071 C 
HETATM    8  C17 UNL     1      54.439  38.818   7.574  1.00  0.00     0.133 C 
HETATM    9  O4  UNL     1      54.693  39.680   8.380  1.00  0.00    -0.298 OA
HETATM   10  C18 UNL     1      54.802  39.153   6.176  1.00  0.00     0.088 C 
HETATM   11  C19 UNL     1      53.745  38.779   5.183  1.00  0.00    -0.031 C 
HETATM   12  C20 UNL     1      52.774  39.968   5.117  1.00  0.00     0.016 C 
HETATM   13  C21 UNL     1      54.409  38.755   3.814  1.00  0.00     0.010 C 
HETATM   14  C22 UNL     1      55.479  37.712   3.719  1.00  0.00     0.004 C 
HETATM   15  C23 UNL     1      55.148  36.480   4.480  1.00  0.00     0.038 C 
HETATM   16  C24 UNL     1      53.675  36.300   4.746  1.00  0.00     0.059 C 
HETATM   17  C25 UNL     1      53.009  36.011   3.403  1.00  0.00     0.046 C 
HETATM   18  C26 UNL     1      53.052  37.494   5.433  1.00  0.00     0.033 C 
HETATM   19  C27 UNL     1      52.702  37.228   6.876  1.00  0.00     0.005 C 
HETATM   20  C28 UNL     1      51.379  37.818   7.270  1.00  0.00     0.009 C 
HETATM   21  C29 UNL     1      51.399  38.504   8.591  1.00  0.00     0.039 C 
HETATM   22  C30 UNL     1      52.026  37.548   9.617  1.00  0.00     0.068 C 
HETATM   23  C31 UNL     1      51.920  38.271  10.931  1.00  0.00     0.069 C 
ENDROOT
BRANCH   1  24
HETATM   24  N1  UNL     1      52.870  38.504  13.186  1.00  0.00    -0.356 N 
BRANCH  24  25
HETATM   25  C5  UNL     1      54.025  38.349  14.082  1.00  0.00     0.126 C 
BRANCH  25  26
HETATM   26  C4  UNL     1      53.652  38.451  15.532  1.00  0.00     0.024 C 
BRANCH  26  27
HETATM   27  C2  UNL     1      53.522  37.109  16.194  1.00  0.00    -0.021 C 
HETATM   28  C1  UNL     1      54.336  36.045  15.523  1.00  0.00     0.009 C 
HETATM   29  C3  UNL     1      52.085  36.651  16.296  1.00  0.00     0.009 C 
ENDBRANCH  26  27
ENDBRANCH  25  26
ENDBRANCH  24  25
BRANCH  24  30
HETATM   30  C6  UNL     1      52.009  39.598  13.457  1.00  0.00     0.114 C 
BRANCH  30  31
HETATM   31  O1  UNL     1      52.485  40.738  13.035  1.00  0.00    -0.349 OA
ATOM     32  H1  UNL     1      52.096  41.487  13.473  1.00  0.00     0.219 HD
ENDBRANCH  30  31
BRANCH  30  33
HETATM   33  C7  UNL     1      50.720  39.631  14.120  1.00  0.00     0.094 C 
BRANCH  33  34
HETATM   34  C8  UNL     1      49.771  40.577  13.380  1.00  0.00     0.121 C 
BRANCH  34  35
HETATM   35  C9  UNL     1      49.193  41.517  14.357  1.00  0.00     0.172 C 
HETATM   36  O2  UNL     1      48.710  41.111  15.421  1.00  0.00    -0.648 OA
HETATM   37  O3  UNL     1      49.160  42.897  14.137  1.00  0.00    -0.648 OA
ENDBRANCH  34  35
ENDBRANCH  33  34
ENDBRANCH  30  33
ENDBRANCH  24  30
ENDBRANCH   1  24
BRANCH  22  38
HETATM   38  O6  UNL     1      51.180  36.458   9.655  1.00  0.00    -0.389 OA
ATOM     39  H6  UNL     1      50.373  36.592   9.172  1.00  0.00     0.210 HD
ENDBRANCH  22  38
BRANCH  16  40
HETATM   40  O5  UNL     1      53.556  35.117   5.478  1.00  0.00    -0.390 OA
ATOM     41  H5  UNL     1      53.136  34.491   4.899  1.00  0.00     0.210 HD
ENDBRANCH  16  40
TORSDOF 11
ENDMDL
MODEL 4
REMARK VINA RESULT: -7.098281840      1.128      1.550
REMARK  11 active torsions:
REMARK  status: ('A' for Active; 'I' for Inactive)
REMARK    1  A    between atoms: C2_2  and  C4_4 
REMARK    2  A    between atoms: C4_4  and  C5_5 
REMARK    3  A    between atoms: C5_5  and  N1_6 
REMARK    4  A    between atoms: N1_6  and  C6_7 
REMARK    5  A    between atoms: N1_6  and  C10_15 
REMARK    6  A    between atoms: C6_7  and  O1_8 
REMARK    7  A    between atoms: C6_7  and  C7_10 
REMARK    8  A    between atoms: C7_10  and  C8_11 
REMARK    9  A    between atoms: C8_11  and  C9_12 
REMARK   10  A    between atoms: C24_30  and  O5_32 
REMARK   11  A    between atoms: C30_38  and  O6_39 
ROOT
HETATM    1  C10 UNL     1      52.608  37.612  11.812  1.00  0.00     0.033 C 
HETATM    2  C11 UNL     1      51.549  36.621  12.287  1.00  0.00     0.039 C 
HETATM    3  C12 UNL     1      53.878  36.882  11.360  1.00  0.00     0.032 C 
HETATM    4  C13 UNL     1      54.295  37.561  10.041  1.00  0.00     0.015 C 
HETATM    5  C14 UNL     1      53.364  37.106   8.956  1.00  0.00    -0.002 C 
HETATM    6  C15 UNL     1      53.337  35.569   9.096  1.00  0.00     0.019 C 
HETATM    7  C16 UNL     1      53.798  37.391   7.571  1.00  0.00     0.071 C 
HETATM    8  C17 UNL     1      54.580  38.599   7.323  1.00  0.00     0.133 C 
HETATM    9  O4  UNL     1      54.945  39.410   8.139  1.00  0.00    -0.298 OA
HETATM   10  C18 UNL     1      54.993  38.896   5.931  1.00  0.00     0.088 C 
HETATM   11  C19 UNL     1      53.900  38.678   4.930  1.00  0.00    -0.031 C 
HETATM   12  C20 UNL     1      53.099  39.989   4.873  1.00  0.00     0.016 C 
HETATM   13  C21 UNL     1      54.561  38.579   3.564  1.00  0.00     0.010 C 
HETATM   14  C22 UNL     1      55.481  37.401   3.462  1.00  0.00     0.004 C 
HETATM   15  C23 UNL     1      54.982  36.218   4.207  1.00  0.00     0.038 C 
HETATM   16  C24 UNL     1      53.496  36.237   4.467  1.00  0.00     0.059 C 
HETATM   17  C25 UNL     1      52.805  36.054   3.118  1.00  0.00     0.046 C 
HETATM   18  C26 UNL     1      53.037  37.497   5.163  1.00  0.00     0.033 C 
HETATM   19  C27 UNL     1      52.647  37.266   6.603  1.00  0.00     0.005 C 
HETATM   20  C28 UNL     1      51.415  38.027   6.998  1.00  0.00     0.009 C 
HETATM   21  C29 UNL     1      51.520  38.691   8.326  1.00  0.00     0.039 C 
HETATM   22  C30 UNL     1      52.007  37.648   9.344  1.00  0.00     0.068 C 
HETATM   23  C31 UNL     1      51.993  38.366  10.665  1.00  0.00     0.069 C 
ENDROOT
BRANCH   1  24
HETATM   24  N1  UNL     1      52.954  38.445  12.926  1.00  0.00    -0.356 N 
BRANCH  24  25
HETATM   25  C5  UNL     1      54.233  39.167  12.997  1.00  0.00     0.126 C 
BRANCH  25  26
HETATM   26  C4  UNL     1      54.114  40.600  12.572  1.00  0.00     0.024 C 
BRANCH  26  27
HETATM   27  C2  UNL     1      55.002  40.937  11.408  1.00  0.00    -0.021 C 
HETATM   28  C1  UNL     1      56.307  40.203  11.438  1.00  0.00     0.009 C 
HETATM   29  C3  UNL     1      55.263  42.421  11.289  1.00  0.00     0.009 C 
ENDBRANCH  26  27
ENDBRANCH  25  26
ENDBRANCH  24  25
BRANCH  24  30
HETATM   30  C6  UNL     1      52.064  38.638  14.013  1.00  0.00     0.114 C 
BRANCH  30  31
HETATM   31  O1  UNL     1      51.184  39.578  13.790  1.00  0.00    -0.349 OA
ATOM     32  H1  UNL     1      50.823  39.945  14.589  1.00  0.00     0.219 HD
ENDBRANCH  30  31
BRANCH  30  33
HETATM   33  C7  UNL     1      51.997  37.970  15.298  1.00  0.00     0.094 C 
BRANCH  33  34
HETATM   34  C8  UNL     1      52.795  38.754  16.342  1.00  0.00     0.121 C 
BRANCH  34  35
HETATM   35  C9  UNL     1      51.852  39.541  17.157  1.00  0.00     0.172 C 
HETATM   36  O2  UNL     1      52.253  40.241  18.094  1.00  0.00    -0.648 OA
HETATM   37  O3  UNL     1      50.475  39.539  16.917  1.00  0.00    -0.648 OA
ENDBRANCH  34  35
ENDBRANCH  33  34
ENDBRANCH  30  33
ENDBRANCH  24  30
ENDBRANCH   1  24
BRANCH  22  38
HETATM   38  O6  UNL     1      51.020  36.682   9.367  1.00  0.00    -0.389 OA
ATOM     39  H6  UNL     1      50.225  36.947   8.920  1.00  0.00     0.210 HD
ENDBRANCH  22  38
BRANCH  16  40
HETATM   40  O5  UNL     1      53.214  35.073   5.185  1.00  0.00    -0.390 OA
ATOM     41  H5  UNL     1      52.767  35.353   5.975  1.00  0.00     0.210 HD
ENDBRANCH  16  40
TORSDOF 11
ENDMDL
MODEL 5
REMARK VINA RESULT: -7.074428951      1.415      3.277
REMARK  11 active torsions:
REMARK  status: ('A' for Active; 'I' for Inactive)
REMARK    1  A    between atoms: C2_2  and  C4_4 
REMARK    2  A    between atoms: C4_4  and  C5_5 
REMARK    3  A    between atoms: C5_5  and  N1_6 
REMARK    4  A    between atoms: N1_6  and  C6_7 
REMARK    5  A    between atoms: N1_6  and  C10_15 
REMARK    6  A    between atoms: C6_7  and  O1_8 
REMARK    7  A    between atoms: C6_7  and  C7_10 
REMARK    8  A    between atoms: C7_10  and  C8_11 
REMARK    9  A    between atoms: C8_11  and  C9_12 
REMARK   10  A    between atoms: C24_30  and  O5_32 
REMARK   11  A    between atoms: C30_38  and  O6_39 
ROOT
HETATM    1  C10 UNL     1      52.745  37.565  11.567  1.00  0.00     0.033 C 
HETATM    2  C11 UNL     1      51.635  36.651  12.077  1.00  0.00     0.039 C 
HETATM    3  C12 UNL     1      53.941  36.749  11.067  1.00  0.00     0.032 C 
HETATM    4  C13 UNL     1      54.358  37.403   9.736  1.00  0.00     0.015 C 
HETATM    5  C14 UNL     1      53.358  37.024   8.684  1.00  0.00    -0.002 C 
HETATM    6  C15 UNL     1      53.226  35.491   8.819  1.00  0.00     0.019 C 
HETATM    7  C16 UNL     1      53.762  37.285   7.285  1.00  0.00     0.071 C 
HETATM    8  C17 UNL     1      54.620  38.434   7.013  1.00  0.00     0.133 C 
HETATM    9  O4  UNL     1      55.071  39.212   7.818  1.00  0.00    -0.298 OA
HETATM   10  C18 UNL     1      55.002  38.709   5.607  1.00  0.00     0.088 C 
HETATM   11  C19 UNL     1      53.861  38.577   4.646  1.00  0.00    -0.031 C 
HETATM   12  C20 UNL     1      53.156  39.942   4.622  1.00  0.00     0.016 C 
HETATM   13  C21 UNL     1      54.465  38.438   3.256  1.00  0.00     0.010 C 
HETATM   14  C22 UNL     1      55.292  37.198   3.117  1.00  0.00     0.004 C 
HETATM   15  C23 UNL     1      54.736  36.049   3.876  1.00  0.00     0.038 C 
HETATM   16  C24 UNL     1      53.266  36.173   4.190  1.00  0.00     0.059 C 
HETATM   17  C25 UNL     1      52.515  36.049   2.866  1.00  0.00     0.046 C 
HETATM   18  C26 UNL     1      52.925  37.459   4.907  1.00  0.00     0.033 C 
HETATM   19  C27 UNL     1      52.571  37.249   6.359  1.00  0.00     0.005 C 
HETATM   20  C28 UNL     1      51.412  38.094   6.800  1.00  0.00     0.009 C 
HETATM   21  C29 UNL     1      51.613  38.740   8.127  1.00  0.00     0.039 C 
HETATM   22  C30 UNL     1      52.059  37.659   9.122  1.00  0.00     0.068 C 
HETATM   23  C31 UNL     1      52.145  38.368  10.446  1.00  0.00     0.069 C 
ENDROOT
BRANCH   1  24
HETATM   24  N1  UNL     1      53.190  38.364  12.671  1.00  0.00    -0.356 N 
BRANCH  24  25
HETATM   25  C5  UNL     1      53.753  37.769  13.891  1.00  0.00     0.126 C 
BRANCH  25  26
HETATM   26  C4  UNL     1      53.570  38.640  15.099  1.00  0.00     0.024 C 
BRANCH  26  27
HETATM   27  C2  UNL     1      52.492  38.138  16.018  1.00  0.00    -0.021 C 
HETATM   28  C1  UNL     1      52.177  36.688  15.812  1.00  0.00     0.009 C 
HETATM   29  C3  UNL     1      51.220  38.948  15.915  1.00  0.00     0.009 C 
ENDBRANCH  26  27
ENDBRANCH  25  26
ENDBRANCH  24  25
BRANCH  24  30
HETATM   30  C6  UNL     1      53.135  39.780  12.631  1.00  0.00     0.114 C 
BRANCH  30  31
HETATM   31  O1  UNL     1      51.919  40.247  12.726  1.00  0.00    -0.349 OA
ATOM     32  H1  UNL     1      51.884  41.197  12.722  1.00  0.00     0.219 HD
ENDBRANCH  30  31
BRANCH  30  33
HETATM   33  C7  UNL     1      54.201  40.754  12.497  1.00  0.00     0.094 C 
BRANCH  33  34
HETATM   34  C8  UNL     1      54.859  40.628  11.122  1.00  0.00     0.121 C 
BRANCH  34  35
HETATM   35  C9  UNL     1      56.223  40.099  11.303  1.00  0.00     0.172 C 
HETATM   36  O2  UNL     1      56.572  39.595  12.378  1.00  0.00    -0.648 OA
HETATM   37  O3  UNL     1      57.181  40.138  10.286  1.00  0.00    -0.648 OA
ENDBRANCH  34  35
ENDBRANCH  33  34
ENDBRANCH  30  33
ENDBRANCH  24  30
ENDBRANCH   1  24
BRANCH  22  38
HETATM   38  O6  UNL     1      51.007  36.766   9.178  1.00  0.00    -0.389 OA
ATOM     39  H6  UNL     1      50.226  37.079   8.737  1.00  0.00     0.210 HD
ENDBRANCH  22  38
BRANCH  16  40
HETATM   40  O5  UNL     1      52.927  35.029   4.914  1.00  0.00    -0.390 OA
ATOM     41  H5  UNL     1      52.004  34.877   4.748  1.00  0.00     0.210 HD
ENDBRANCH  16  40
TORSDOF 11
ENDMDL
