MODEL 1
REMARK VINA RESULT: -9.182024988      0.000      0.000
REMARK  9 active torsions:
REMARK  status: ('A' for Active; 'I' for Inactive)
REMARK    1  A    between atoms: C2_2  and  C4_4 
REMARK    2  A    between atoms: C4_4  and  N1_5 
REMARK    3  A    between atoms: C4_4  and  C11_15 
REMARK       I    between atoms: N1_5  and  C5_7 
REMARK    4  A    between atoms: C5_7  and  C6_9 
REMARK    5  A    between atoms: C6_9  and  N2_10 
REMARK    6  A    between atoms: C11_15  and  O2_16 
REMARK    7  A    between atoms: C11_15  and  C31_38 
REMARK    8  A    between atoms: O2_16  and  C12_17 
REMARK    9  A    between atoms: C26_31  and  O3_32 
ROOT
HETATM    1  C12 UNL     1      54.200  39.998   7.939  1.00  0.00     0.123 C 
HETATM    2  C13 UNL     1      53.868  38.810   8.764  1.00  0.00     0.033 C 
HETATM    3  C14 UNL     1      53.869  37.486   8.081  1.00  0.00     0.012 C 
HETATM    4  C15 UNL     1      53.134  37.475   6.750  1.00  0.00    -0.040 C 
HETATM    5  C16 UNL     1      51.642  37.484   7.124  1.00  0.00     0.015 C 
HETATM    6  C17 UNL     1      53.398  36.154   6.115  1.00  0.00     0.010 C 
HETATM    7  C18 UNL     1      54.175  36.179   4.838  1.00  0.00     0.006 C 
HETATM    8  C19 UNL     1      53.422  37.163   3.941  1.00  0.00    -0.002 C 
HETATM    9  C20 UNL     1      53.729  38.520   4.504  1.00  0.00    -0.005 C 
HETATM   10  C21 UNL     1      55.163  38.749   4.097  1.00  0.00     0.006 C 
HETATM   11  C22 UNL     1      55.346  37.953   2.807  1.00  0.00     0.010 C 
HETATM   12  C23 UNL     1      54.097  37.162   2.599  1.00  0.00    -0.036 C 
HETATM   13  C24 UNL     1      54.497  35.755   2.152  1.00  0.00     0.012 C 
HETATM   14  C25 UNL     1      54.661  35.848   0.632  1.00  0.00     0.032 C 
HETATM   15  C26 UNL     1      53.310  35.925  -0.042  1.00  0.00     0.118 C 
HETATM   16  C27 UNL     1      52.388  36.702   0.874  1.00  0.00     0.032 C 
HETATM   17  C28 UNL     1      53.177  37.789   1.571  1.00  0.00     0.012 C 
HETATM   18  C29 UNL     1      53.446  38.689   5.936  1.00  0.00     0.001 C 
HETATM   19  C30 UNL     1      54.587  39.488   6.547  1.00  0.00     0.037 C 
ENDROOT
BRANCH   1  20
HETATM   20  O2  UNL     1      55.301  40.630   8.435  1.00  0.00    -0.368 OA
BRANCH  20  21
HETATM   21  C11 UNL     1      55.023  41.887   9.051  1.00  0.00     0.245 C 
BRANCH  21  22
HETATM   22  C4  UNL     1      55.137  42.957   8.049  1.00  0.00     0.127 C 
BRANCH  22  23
HETATM   23  C2  UNL     1      56.171  44.010   8.307  1.00  0.00     0.003 C 
HETATM   24  C1  UNL     1      55.633  45.256   8.969  1.00  0.00     0.011 C 
HETATM   25  C3  UNL     1      56.764  44.464   6.977  1.00  0.00     0.011 C 
ENDBRANCH  22  23
BRANCH  22  26
HETATM   26  N1  UNL     1      53.916  43.627   7.651  1.00  0.00    -0.352 N 
HETATM   27  C5  UNL     1      53.405  43.608   6.352  1.00  0.00     0.246 C 
HETATM   28  O1  UNL     1      54.023  42.970   5.462  1.00  0.00    -0.272 OA
ATOM     29  H1  UNL     1      53.398  44.144   8.362  1.00  0.00     0.163 HD
BRANCH  27  30
HETATM   30  C6  UNL     1      52.180  44.299   5.970  1.00  0.00     0.375 C 
BRANCH  30  31
HETATM   31  N2  UNL     1      52.062  45.669   6.377  1.00  0.00     0.103 N 
HETATM   32  C7  UNL     1      53.353  46.347   6.358  1.00  0.00     0.300 C 
HETATM   33  C8  UNL     1      53.548  46.842   4.972  1.00  0.00     0.001 C 
HETATM   34  C9  UNL     1      52.368  46.913   4.411  1.00  0.00     0.001 C 
HETATM   35  C10 UNL     1      51.351  46.473   5.388  1.00  0.00     0.300 C 
ENDBRANCH  30  31
ENDBRANCH  27  30
ENDBRANCH  22  26
ENDBRANCH  21  22
BRANCH  21  36
HETATM   36  C31 UNL     1      55.752  42.009  10.313  1.00  0.00     0.205 C 
HETATM   37  O4  UNL     1      56.908  41.562  10.532  1.00  0.00    -0.646 OA
HETATM   38  O5  UNL     1      55.165  42.657  11.384  1.00  0.00    -0.646 OA
ENDBRANCH  21  36
ENDBRANCH  20  21
ENDBRANCH   1  20
BRANCH  15  39
HETATM   39  O3  UNL     1      52.774  34.659  -0.249  1.00  0.00    -0.396 OA
ATOM     40  H3  UNL     1      53.457  34.008  -0.361  1.00  0.00     0.210 HD
ENDBRANCH  15  39
TORSDOF 9
ENDMDL
MODEL 2
REMARK VINA RESULT: -8.893506698      1.474      2.113
REMARK  9 active torsions:
REMARK  status: ('A' for Active; 'I' for Inactive)
REMARK    1  A    between atoms: C2_2  and  C4_4 
REMARK    2  A    between atoms: C4_4  and  N1_5 
REMARK    3  A    between atoms: C4_4  and  C11_15 
REMARK       I    between atoms: N1_5  and  C5_7 
REMARK    4  A    between atoms: C5_7  and  C6_9 
REMARK    5  A    between atoms: C6_9  and  N2_10 
REMARK    6  A    between atoms: C11_15  and  O2_16 
REMARK    7  A    between atoms: C11_15  and  C31_38 
REMARK    8  A    between atoms: O2_16  and  C12_17 
REMARK    9  A    between atoms: C26_31  and  O3_32 
ROOT
HETATM    1  C12 UNL     1      54.658  39.854   7.784  1.00  0.00     0.123 C 
HETATM    2  C13 UNL     1      54.146  38.758   8.644  1.00  0.00     0.033 C 
HETATM    3  C14 UNL     1      53.909  37.439   7.994  1.00  0.00     0.012 C 
HETATM    4  C15 UNL     1      53.155  37.524   6.676  1.00  0.00    -0.040 C 
HETATM    5  C16 UNL     1      51.695  37.794   7.074  1.00  0.00     0.015 C 
HETATM    6  C17 UNL     1      53.179  36.164   6.069  1.00  0.00     0.010 C 
HETATM    7  C18 UNL     1      53.923  36.029   4.780  1.00  0.00     0.006 C 
HETATM    8  C19 UNL     1      53.330  37.106   3.871  1.00  0.00    -0.002 C 
HETATM    9  C20 UNL     1      53.874  38.403   4.395  1.00  0.00    -0.005 C 
HETATM   10  C21 UNL     1      55.318  38.376   3.960  1.00  0.00     0.006 C 
HETATM   11  C22 UNL     1      55.336  37.533   2.687  1.00  0.00     0.010 C 
HETATM   12  C23 UNL     1      53.967  36.962   2.519  1.00  0.00    -0.036 C 
HETATM   13  C24 UNL     1      54.113  35.498   2.101  1.00  0.00     0.012 C 
HETATM   14  C25 UNL     1      54.260  35.528   0.576  1.00  0.00     0.032 C 
HETATM   15  C26 UNL     1      52.928  35.819  -0.077  1.00  0.00     0.118 C 
HETATM   16  C27 UNL     1      52.170  36.761   0.834  1.00  0.00     0.032 C 
HETATM   17  C28 UNL     1      53.146  37.713   1.490  1.00  0.00     0.012 C 
HETATM   18  C29 UNL     1      53.653  38.649   5.827  1.00  0.00     0.001 C 
HETATM   19  C30 UNL     1      54.925  39.255   6.399  1.00  0.00     0.037 C 
ENDROOT
BRANCH   1  20
HETATM   20  O2  UNL     1      55.860  40.301   8.246  1.00  0.00    -0.368 OA
BRANCH  20  21
HETATM   21  C11 UNL     1      55.832  40.755   9.599  1.00  0.00     0.245 C 
BRANCH  21  22
HETATM   22  C4  UNL     1      55.711  42.220   9.619  1.00  0.00     0.127 C 
BRANCH  22  23
HETATM   23  C2  UNL     1      55.419  42.851  10.946  1.00  0.00     0.003 C 
HETATM   24  C1  UNL     1      56.649  43.270  11.716  1.00  0.00     0.011 C 
HETATM   25  C3  UNL     1      54.694  41.841  11.830  1.00  0.00     0.011 C 
ENDBRANCH  22  23
BRANCH  22  26
HETATM   26  N1  UNL     1      54.834  42.828   8.640  1.00  0.00    -0.352 N 
HETATM   27  C5  UNL     1      55.270  43.691   7.632  1.00  0.00     0.246 C 
HETATM   28  O1  UNL     1      56.495  43.963   7.549  1.00  0.00    -0.272 OA
ATOM     29  H1  UNL     1      53.838  42.613   8.689  1.00  0.00     0.163 HD
BRANCH  27  30
HETATM   30  C6  UNL     1      54.368  44.302   6.664  1.00  0.00     0.375 C 
BRANCH  30  31
HETATM   31  N2  UNL     1      54.230  43.632   5.403  1.00  0.00     0.103 N 
HETATM   32  C7  UNL     1      53.292  42.518   5.489  1.00  0.00     0.300 C 
HETATM   33  C8  UNL     1      51.940  43.087   5.263  1.00  0.00     0.001 C 
HETATM   34  C9  UNL     1      52.093  44.225   4.635  1.00  0.00     0.001 C 
HETATM   35  C10 UNL     1      53.537  44.458   4.421  1.00  0.00     0.300 C 
ENDBRANCH  30  31
ENDBRANCH  27  30
ENDBRANCH  22  26
ENDBRANCH  21  22
BRANCH  21  36
HETATM   36  C31 UNL     1      56.894  40.114  10.374  1.00  0.00     0.205 C 
HETATM   37  O4  UNL     1      58.128  40.261  10.177  1.00  0.00    -0.646 OA
HETATM   38  O5  UNL     1      56.567  39.270  11.418  1.00  0.00    -0.646 OA
ENDBRANCH  21  36
ENDBRANCH  20  21
ENDBRANCH   1  20
BRANCH  15  39
HETATM   39  O3  UNL     1      52.181  34.659  -0.244  1.00  0.00    -0.396 OA
ATOM     40  H3  UNL     1      51.458  34.796  -0.845  1.00  0.00     0.210 HD
ENDBRANCH  15  39
TORSDOF 9
ENDMDL
MODEL 3
REMARK VINA RESULT: -8.773239429      1.347      2.076
REMARK  9 active torsions:
REMARK  status: ('A' for Active; 'I' for Inactive)
REMARK    1  A    between atoms: C2_2  and  C4_4 
REMARK    2  A    between atoms: C4_4  and  N1_5 
REMARK    3  A    between atoms: C4_4  and  C11_15 
REMARK       I    between atoms: N1_5  and  C5_7 
REMARK    4  A    between atoms: C5_7  and  C6_9 
REMARK    5  A    between atoms: C6_9  and  N2_10 
REMARK    6  A    between atoms: C11_15  and  O2_16 
REMARK    7  A    between atoms: C11_15  and  C31_38 
REMARK    8  A    between atoms: O2_16  and  C12_17 
REMARK    9  A    between atoms: C26_31  and  O3_32 
ROOT
HETATM    1  C12 UNL     1      54.263  39.400   8.241  1.00  0.00     0.123 C 
HETATM    2  C13 UNL     1      53.786  38.168   8.917  1.00  0.00     0.033 C 
HETATM    3  C14 UNL     1      53.724  36.924   8.100  1.00  0.00     0.012 C 
HETATM    4  C15 UNL     1      53.075  37.109   6.738  1.00  0.00    -0.040 C 
HETATM    5  C16 UNL     1      51.568  37.209   7.029  1.00  0.00     0.015 C 
HETATM    6  C17 UNL     1      53.272  35.842   5.982  1.00  0.00     0.010 C 
HETATM    7  C18 UNL     1      54.127  35.928   4.759  1.00  0.00     0.006 C 
HETATM    8  C19 UNL     1      53.512  37.057   3.931  1.00  0.00    -0.002 C 
HETATM    9  C20 UNL     1      53.891  38.319   4.649  1.00  0.00    -0.005 C 
HETATM   10  C21 UNL     1      55.361  38.464   4.347  1.00  0.00     0.006 C 
HETATM   11  C22 UNL     1      55.560  37.789   2.992  1.00  0.00     0.010 C 
HETATM   12  C23 UNL     1      54.267  37.133   2.635  1.00  0.00    -0.036 C 
HETATM   13  C24 UNL     1      54.580  35.749   2.065  1.00  0.00     0.012 C 
HETATM   14  C25 UNL     1      54.846  35.979   0.573  1.00  0.00     0.032 C 
HETATM   15  C26 UNL     1      53.550  36.239  -0.160  1.00  0.00     0.118 C 
HETATM   16  C27 UNL     1      52.638  36.996   0.781  1.00  0.00     0.032 C 
HETATM   17  C28 UNL     1      53.466  37.936   1.630  1.00  0.00     0.012 C 
HETATM   18  C29 UNL     1      53.533  38.367   6.074  1.00  0.00     0.001 C 
HETATM   19  C30 UNL     1      54.694  39.000   6.826  1.00  0.00     0.037 C 
ENDROOT
BRANCH   1  20
HETATM   20  O2  UNL     1      55.378  39.883   8.859  1.00  0.00    -0.368 OA
BRANCH  20  21
HETATM   21  C11 UNL     1      55.107  40.650  10.031  1.00  0.00     0.245 C 
BRANCH  21  22
HETATM   22  C4  UNL     1      55.927  41.871  10.014  1.00  0.00     0.127 C 
BRANCH  22  23
HETATM   23  C2  UNL     1      56.535  42.289  11.318  1.00  0.00     0.003 C 
HETATM   24  C1  UNL     1      56.156  43.683  11.758  1.00  0.00     0.011 C 
HETATM   25  C3  UNL     1      58.054  42.290  11.185  1.00  0.00     0.011 C 
ENDBRANCH  22  23
BRANCH  22  26
HETATM   26  N1  UNL     1      55.353  43.049   9.398  1.00  0.00    -0.352 N 
HETATM   27  C5  UNL     1      55.883  43.674   8.267  1.00  0.00     0.246 C 
HETATM   28  O1  UNL     1      56.916  43.196   7.733  1.00  0.00    -0.272 OA
ATOM     29  H1  UNL     1      54.511  43.447   9.815  1.00  0.00     0.163 HD
BRANCH  27  30
HETATM   30  C6  UNL     1      55.295  44.867   7.670  1.00  0.00     0.375 C 
BRANCH  30  31
HETATM   31  N2  UNL     1      54.076  44.684   6.936  1.00  0.00     0.103 N 
HETATM   32  C7  UNL     1      53.514  45.959   6.506  1.00  0.00     0.300 C 
HETATM   33  C8  UNL     1      54.167  46.293   5.215  1.00  0.00     0.001 C 
HETATM   34  C9  UNL     1      54.632  45.178   4.710  1.00  0.00     0.001 C 
HETATM   35  C10 UNL     1      54.311  44.070   5.634  1.00  0.00     0.300 C 
ENDBRANCH  30  31
ENDBRANCH  27  30
ENDBRANCH  22  26
ENDBRANCH  21  22
BRANCH  21  36
HETATM   36  C31 UNL     1      55.123  39.795  11.217  1.00  0.00     0.205 C 
HETATM   37  O4  UNL     1      54.234  39.769  12.107  1.00  0.00    -0.646 OA
HETATM   38  O5  UNL     1      56.179  38.928  11.423  1.00  0.00    -0.646 OA
ENDBRANCH  21  36
ENDBRANCH  20  21
ENDBRANCH   1  20
BRANCH  15  39
HETATM   39  O3  UNL     1      52.929  35.051  -0.528  1.00  0.00    -0.396 OA
ATOM     40  H3  UNL     1      52.393  34.708   0.178  1.00  0.00     0.210 HD
ENDBRANCH  15  39
TORSDOF 9
ENDMDL
MODEL 4
REMARK VINA RESULT: -8.646546157     15.519     19.989
REMARK  9 active torsions:
REMARK  status: ('A' for Active; 'I' for Inactive)
REMARK    1  A    between atoms: C2_2  and  C4_4 
REMARK    2  A    between atoms: C4_4  and  N1_5 
REMARK    3  A    between atoms: C4_4  and  C11_15 
REMARK       I    between atoms: N1_5  and  C5_7 
REMARK    4  A    between atoms: C5_7  and  C6_9 
REMARK    5  A    between atoms: C6_9  and  N2_10 
REMARK    6  A    between atoms: C11_15  and  O2_16 
REMARK    7  A    between atoms: C11_15  and  C31_38 
REMARK    8  A    between atoms: O2_16  and  C12_17 
REMARK    9  A    between atoms: C26_31  and  O3_32 
ROOT
HETATM    1  C12 UNL     1      50.103  56.178  16.831  1.00  0.00     0.123 C 
HETATM    2  C13 UNL     1      49.211  56.222  15.646  1.00  0.00     0.033 C 
HETATM    3  C14 UNL     1      49.383  55.150  14.626  1.00  0.00     0.012 C 
HETATM    4  C15 UNL     1      50.830  54.892  14.236  1.00  0.00    -0.040 C 
HETATM    5  C16 UNL     1      51.209  56.071  13.324  1.00  0.00     0.015 C 
HETATM    6  C17 UNL     1      50.842  53.677  13.375  1.00  0.00     0.010 C 
HETATM    7  C18 UNL     1      51.556  52.485  13.925  1.00  0.00     0.006 C 
HETATM    8  C19 UNL     1      52.947  52.999  14.295  1.00  0.00    -0.002 C 
HETATM    9  C20 UNL     1      52.743  53.822  15.534  1.00  0.00    -0.005 C 
HETATM   10  C21 UNL     1      52.489  52.788  16.602  1.00  0.00     0.006 C 
HETATM   11  C22 UNL     1      53.243  51.542  16.140  1.00  0.00     0.010 C 
HETATM   12  C23 UNL     1      53.755  51.824  14.766  1.00  0.00    -0.036 C 
HETATM   13  C24 UNL     1      53.521  50.579  13.909  1.00  0.00     0.012 C 
HETATM   14  C25 UNL     1      54.743  49.686  14.155  1.00  0.00     0.032 C 
HETATM   15  C26 UNL     1      55.952  50.236  13.432  1.00  0.00     0.118 C 
HETATM   16  C27 UNL     1      55.846  51.746  13.451  1.00  0.00     0.032 C 
HETATM   17  C28 UNL     1      55.227  52.187  14.758  1.00  0.00     0.012 C 
HETATM   18  C29 UNL     1      51.729  54.881  15.429  1.00  0.00     0.001 C 
HETATM   19  C30 UNL     1      50.932  54.895  16.725  1.00  0.00     0.037 C 
ENDROOT
BRANCH   1  20
HETATM   20  O2  UNL     1      49.370  56.068  17.975  1.00  0.00    -0.368 OA
BRANCH  20  21
HETATM   21  C11 UNL     1      48.493  57.167  18.214  1.00  0.00     0.245 C 
BRANCH  21  22
HETATM   22  C4  UNL     1      49.140  58.119  19.130  1.00  0.00     0.127 C 
BRANCH  22  23
HETATM   23  C2  UNL     1      50.129  57.548  20.100  1.00  0.00     0.003 C 
HETATM   24  C1  UNL     1      49.535  57.156  21.431  1.00  0.00     0.011 C 
HETATM   25  C3  UNL     1      51.190  58.600  20.408  1.00  0.00     0.011 C 
ENDBRANCH  22  23
BRANCH  22  26
HETATM   26  N1  UNL     1      48.281  59.028  19.860  1.00  0.00    -0.352 N 
HETATM   27  C5  UNL     1      47.861  60.266  19.369  1.00  0.00     0.246 C 
HETATM   28  O1  UNL     1      48.234  60.627  18.224  1.00  0.00    -0.272 OA
ATOM     29  H1  UNL     1      47.964  58.748  20.788  1.00  0.00     0.163 HD
BRANCH  27  30
HETATM   30  C6  UNL     1      47.006  61.171  20.126  1.00  0.00     0.375 C 
BRANCH  30  31
HETATM   31  N2  UNL     1      46.166  60.577  21.125  1.00  0.00     0.103 N 
HETATM   32  C7  UNL     1      45.609  61.582  22.023  1.00  0.00     0.300 C 
HETATM   33  C8  UNL     1      44.372  62.087  21.374  1.00  0.00     0.001 C 
HETATM   34  C9  UNL     1      43.981  61.180  20.515  1.00  0.00     0.001 C 
HETATM   35  C10 UNL     1      44.931  60.049  20.555  1.00  0.00     0.300 C 
ENDBRANCH  30  31
ENDBRANCH  27  30
ENDBRANCH  22  26
ENDBRANCH  21  22
BRANCH  21  36
HETATM   36  C31 UNL     1      47.145  56.688  18.516  1.00  0.00     0.205 C 
HETATM   37  O4  UNL     1      46.546  56.845  19.612  1.00  0.00    -0.646 OA
HETATM   38  O5  UNL     1      46.429  56.001  17.555  1.00  0.00    -0.646 OA
ENDBRANCH  21  36
ENDBRANCH  20  21
ENDBRANCH   1  20
BRANCH  15  39
HETATM   39  O3  UNL     1      55.992  49.804  12.111  1.00  0.00    -0.396 OA
ATOM     40  H3  UNL     1      55.192  50.027  11.650  1.00  0.00     0.210 HD
ENDBRANCH  15  39
TORSDOF 9
ENDMDL
MODEL 5
REMARK VINA RESULT: -8.486304212      2.880      7.623
REMARK  9 active torsions:
REMARK  status: ('A' for Active; 'I' for Inactive)
REMARK    1  A    between atoms: C2_2  and  C4_4 
REMARK    2  A    between atoms: C4_4  and  N1_5 
REMARK    3  A    between atoms: C4_4  and  C11_15 
REMARK       I    between atoms: N1_5  and  C5_7 
REMARK    4  A    between atoms: C5_7  and  C6_9 
REMARK    5  A    between atoms: C6_9  and  N2_10 
REMARK    6  A    between atoms: C11_15  and  O2_16 
REMARK    7  A    between atoms: C11_15  and  C31_38 
REMARK    8  A    between atoms: O2_16  and  C12_17 
REMARK    9  A    between atoms: C26_31  and  O3_32 
ROOT
HETATM    1  C12 UNL     1      54.629  39.731   9.309  1.00  0.00     0.123 C 
HETATM    2  C13 UNL     1      55.480  40.438  10.298  1.00  0.00     0.033 C 
HETATM    3  C14 UNL     1      55.596  41.917  10.161  1.00  0.00     0.012 C 
HETATM    4  C15 UNL     1      55.869  42.388   8.740  1.00  0.00    -0.040 C 
HETATM    5  C16 UNL     1      57.352  42.066   8.496  1.00  0.00     0.015 C 
HETATM    6  C17 UNL     1      55.756  43.872   8.742  1.00  0.00     0.010 C 
HETATM    7  C18 UNL     1      54.645  44.452   7.928  1.00  0.00     0.006 C 
HETATM    8  C19 UNL     1      54.821  43.842   6.537  1.00  0.00    -0.002 C 
HETATM    9  C20 UNL     1      54.376  42.416   6.676  1.00  0.00    -0.005 C 
HETATM   10  C21 UNL     1      52.876  42.528   6.790  1.00  0.00     0.006 C 
HETATM   11  C22 UNL     1      52.509  43.794   6.018  1.00  0.00     0.010 C 
HETATM   12  C23 UNL     1      53.790  44.460   5.636  1.00  0.00    -0.036 C 
HETATM   13  C24 UNL     1      53.632  45.962   5.881  1.00  0.00     0.012 C 
HETATM   14  C25 UNL     1      52.993  46.513   4.602  1.00  0.00     0.032 C 
HETATM   15  C26 UNL     1      54.010  46.570   3.486  1.00  0.00     0.118 C 
HETATM   16  C27 UNL     1      54.947  45.393   3.662  1.00  0.00     0.032 C 
HETATM   17  C28 UNL     1      54.166  44.210   4.190  1.00  0.00     0.012 C 
HETATM   18  C29 UNL     1      55.033  41.650   7.745  1.00  0.00     0.001 C 
HETATM   19  C30 UNL     1      53.973  40.801   8.430  1.00  0.00     0.037 C 
ENDROOT
BRANCH   1  20
HETATM   20  O2  UNL     1      53.613  39.074   9.937  1.00  0.00    -0.368 OA
BRANCH  20  21
HETATM   21  C11 UNL     1      53.915  37.722  10.278  1.00  0.00     0.245 C 
BRANCH  21  22
HETATM   22  C4  UNL     1      53.324  36.823   9.275  1.00  0.00     0.127 C 
BRANCH  22  23
HETATM   23  C2  UNL     1      53.521  35.354   9.493  1.00  0.00     0.003 C 
HETATM   24  C1  UNL     1      54.273  34.659   8.383  1.00  0.00     0.011 C 
HETATM   25  C3  UNL     1      52.158  34.673   9.566  1.00  0.00     0.011 C 
ENDBRANCH  22  23
BRANCH  22  26
HETATM   26  N1  UNL     1      53.607  37.103   7.882  1.00  0.00    -0.352 N 
HETATM   27  C5  UNL     1      52.637  37.479   6.950  1.00  0.00     0.246 C 
HETATM   28  O1  UNL     1      51.442  37.592   7.325  1.00  0.00    -0.272 OA
ATOM     29  H1  UNL     1      54.572  37.022   7.562  1.00  0.00     0.163 HD
BRANCH  27  30
HETATM   30  C6  UNL     1      52.942  37.745   5.550  1.00  0.00     0.375 C 
BRANCH  30  31
HETATM   31  N2  UNL     1      54.016  38.658   5.289  1.00  0.00     0.103 N 
HETATM   32  C7  UNL     1      55.156  37.982   4.678  1.00  0.00     0.300 C 
HETATM   33  C8  UNL     1      54.901  37.964   3.215  1.00  0.00     0.001 C 
HETATM   34  C9  UNL     1      54.038  38.914   2.956  1.00  0.00     0.001 C 
HETATM   35  C10 UNL     1      53.688  39.595   4.220  1.00  0.00     0.300 C 
ENDBRANCH  30  31
ENDBRANCH  27  30
ENDBRANCH  22  26
ENDBRANCH  21  22
BRANCH  21  36
HETATM   36  C31 UNL     1      53.652  37.482  11.696  1.00  0.00     0.205 C 
HETATM   37  O4  UNL     1      52.513  37.329  12.209  1.00  0.00    -0.646 OA
HETATM   38  O5  UNL     1      54.707  37.411  12.586  1.00  0.00    -0.646 OA
ENDBRANCH  21  36
ENDBRANCH  20  21
ENDBRANCH   1  20
BRANCH  15  39
HETATM   39  O3  UNL     1      54.752  47.745   3.535  1.00  0.00    -0.396 OA
ATOM     40  H3  UNL     1      55.537  47.637   4.059  1.00  0.00     0.210 HD
ENDBRANCH  15  39
TORSDOF 9
ENDMDL
