MODEL 1
REMARK VINA RESULT: -8.678336677      0.000      0.000
REMARK  11 active torsions:
REMARK  status: ('A' for Active; 'I' for Inactive)
REMARK    1  A    between atoms: C2_2  and  O1_3 
REMARK    2  A    between atoms: O1_3  and  C3_4 
REMARK    3  A    between atoms: C6_11  and  C7_12 
REMARK       I    between atoms: C7_12  and  N3_14 
REMARK    4  A    between atoms: N3_14  and  C8_16 
REMARK    5  A    between atoms: C15_23  and  C16_24 
REMARK       I    between atoms: C16_24  and  N4_26 
REMARK    6  A    between atoms: N4_26  and  C18_28 
REMARK    7  A    between atoms: C18_28  and  C19_29 
REMARK    8  A    between atoms: C19_29  and  O4_30 
REMARK    9  A    between atoms: C21_32  and  C22_33 
REMARK   10  A    between atoms: C22_33  and  C23_34 
REMARK   11  A    between atoms: C23_34  and  N5_35 
REMARK       I    between atoms: N5_35  and  C24_37 
ROOT
HETATM    1  C8  UNL     1      19.731  24.871  17.569  1.00  0.00     0.042 A 
HETATM    2  C9  UNL     1      20.513  24.179  18.428  1.00  0.00     0.032 A 
HETATM    3  C10 UNL     1      20.089  23.112  19.185  1.00  0.00     0.033 A 
HETATM    4  C11 UNL     1      18.776  22.732  19.049  1.00  0.00     0.046 A 
HETATM    5  C12 UNL     1      17.909  23.403  18.179  1.00  0.00     0.017 A 
HETATM    6  C13 UNL     1      18.379  24.470  17.439  1.00  0.00    -0.022 A 
HETATM    7  C14 UNL     1      17.561  25.242  16.500  1.00  0.00     0.051 C 
HETATM    8  C15 UNL     1      16.684  22.779  18.275  1.00  0.00     0.068 A 
HETATM    9  C21 UNL     1      16.814  21.730  19.207  1.00  0.00     0.029 A 
HETATM   10  N6  UNL     1      18.074  21.745  19.638  1.00  0.00    -0.353 N 
HETATM   11  C26 UNL     1      18.671  20.863  20.631  1.00  0.00     0.156 C 
ENDROOT
BRANCH   1  12
HETATM   12  N3  UNL     1      20.184  25.986  16.779  1.00  0.00    -0.322 N 
HETATM   13  C7  UNL     1      21.113  25.989  15.749  1.00  0.00     0.262 C 
HETATM   14  O2  UNL     1      21.681  24.928  15.396  1.00  0.00    -0.267 OA
ATOM     15  H3  UNL     1      19.767  26.889  17.006  1.00  0.00     0.169 HD
BRANCH  13  16
HETATM   16  C6  UNL     1      21.501  27.203  15.008  1.00  0.00     0.108 A 
HETATM   17  C3  UNL     1      22.556  28.060  15.189  1.00  0.00     0.175 A 
HETATM   18  N1  UNL     1      22.481  29.045  14.235  1.00  0.00    -0.279 N 
HETATM   19  N2  UNL     1      21.428  28.828  13.481  1.00  0.00    -0.302 N 
ATOM     20  H1  UNL     1      23.137  29.819  14.129  1.00  0.00     0.189 HD
HETATM   21  C4  UNL     1      20.812  27.719  13.923  1.00  0.00     0.042 A 
ATOM     22  H2  UNL     1      21.129  29.404  12.694  1.00  0.00     0.186 HD
HETATM   23  C5  UNL     1      19.562  27.109  13.344  1.00  0.00     0.071 C 
BRANCH  17  24
HETATM   24  O1  UNL     1      23.547  27.972  16.163  1.00  0.00    -0.334 OA
BRANCH  24  25
HETATM   25  C2  UNL     1      24.839  27.505  15.822  1.00  0.00     0.173 C 
HETATM   26  C1  UNL     1      25.079  26.101  16.260  1.00  0.00     0.034 C 
ENDBRANCH  24  25
ENDBRANCH  17  24
ENDBRANCH  13  16
ENDBRANCH   1  12
BRANCH   8  27
HETATM   27  C16 UNL     1      15.447  23.116  17.608  1.00  0.00     0.256 C 
HETATM   28  O3  UNL     1      14.597  23.901  18.156  1.00  0.00    -0.267 OA
HETATM   29  N4  UNL     1      15.081  22.624  16.317  1.00  0.00    -0.350 N 
HETATM   30  C17 UNL     1      13.792  23.001  15.711  1.00  0.00     0.153 C 
BRANCH  29  31
HETATM   31  C18 UNL     1      15.904  21.773  15.498  1.00  0.00     0.151 C 
BRANCH  31  32
HETATM   32  C19 UNL     1      15.898  22.085  14.039  1.00  0.00     0.186 C 
BRANCH  32  33
HETATM   33  O4  UNL     1      15.415  20.977  13.297  1.00  0.00    -0.394 OA
HETATM   34  C20 UNL     1      14.471  21.406  12.381  1.00  0.00     0.201 C 
ENDBRANCH  32  33
ENDBRANCH  31  32
ENDBRANCH  29  31
ENDBRANCH   8  27
BRANCH   9  35
HETATM   35  C22 UNL     1      15.738  20.815  19.652  1.00  0.00     0.078 C 
BRANCH  35  36
HETATM   36  C23 UNL     1      15.464  19.659  18.767  1.00  0.00     0.128 C 
BRANCH  36  37
HETATM   37  N5  UNL     1      14.247  18.945  18.957  1.00  0.00    -0.361 N 
HETATM   38  C24 UNL     1      13.930  18.103  20.036  1.00  0.00     0.213 C 
HETATM   39  C25 UNL     1      12.623  17.420  20.102  1.00  0.00     0.117 C 
HETATM   40  O5  UNL     1      14.764  17.934  20.951  1.00  0.00    -0.274 OA
ATOM     41  H5  UNL     1      13.534  19.055  18.236  1.00  0.00     0.162 HD
ENDBRANCH  36  37
ENDBRANCH  35  36
ENDBRANCH   9  35
TORSDOF 11
ENDMDL
MODEL 2
REMARK VINA RESULT: -8.369075551      3.457      5.863
REMARK  11 active torsions:
REMARK  status: ('A' for Active; 'I' for Inactive)
REMARK    1  A    between atoms: C2_2  and  O1_3 
REMARK    2  A    between atoms: O1_3  and  C3_4 
REMARK    3  A    between atoms: C6_11  and  C7_12 
REMARK       I    between atoms: C7_12  and  N3_14 
REMARK    4  A    between atoms: N3_14  and  C8_16 
REMARK    5  A    between atoms: C15_23  and  C16_24 
REMARK       I    between atoms: C16_24  and  N4_26 
REMARK    6  A    between atoms: N4_26  and  C18_28 
REMARK    7  A    between atoms: C18_28  and  C19_29 
REMARK    8  A    between atoms: C19_29  and  O4_30 
REMARK    9  A    between atoms: C21_32  and  C22_33 
REMARK   10  A    between atoms: C22_33  and  C23_34 
REMARK   11  A    between atoms: C23_34  and  N5_35 
REMARK       I    between atoms: N5_35  and  C24_37 
ROOT
HETATM    1  C8  UNL     1      15.365  21.384  19.237  1.00  0.00     0.042 A 
HETATM    2  C9  UNL     1      15.537  20.502  20.248  1.00  0.00     0.032 A 
HETATM    3  C10 UNL     1      14.741  19.403  20.470  1.00  0.00     0.033 A 
HETATM    4  C11 UNL     1      13.701  19.197  19.598  1.00  0.00     0.046 A 
HETATM    5  C12 UNL     1      13.463  20.070  18.529  1.00  0.00     0.017 A 
HETATM    6  C13 UNL     1      14.289  21.161  18.345  1.00  0.00    -0.022 A 
HETATM    7  C14 UNL     1      14.132  22.137  17.263  1.00  0.00     0.051 C 
HETATM    8  C15 UNL     1      12.364  19.585  17.854  1.00  0.00     0.068 A 
HETATM    9  C21 UNL     1      11.940  18.417  18.518  1.00  0.00     0.029 A 
HETATM   10  N6  UNL     1      12.765  18.231  19.546  1.00  0.00    -0.353 N 
HETATM   11  C26 UNL     1      12.704  17.166  20.538  1.00  0.00     0.156 C 
ENDROOT
BRANCH   1  12
HETATM   12  N3  UNL     1      16.204  22.531  19.011  1.00  0.00    -0.322 N 
HETATM   13  C7  UNL     1      17.509  22.563  18.541  1.00  0.00     0.262 C 
HETATM   14  O2  UNL     1      18.111  21.501  18.251  1.00  0.00    -0.267 OA
ATOM     15  H3  UNL     1      15.786  23.437  19.224  1.00  0.00     0.169 HD
BRANCH  13  16
HETATM   16  C6  UNL     1      18.274  23.808  18.349  1.00  0.00     0.108 A 
HETATM   17  C3  UNL     1      18.234  24.733  17.337  1.00  0.00     0.175 A 
HETATM   18  N1  UNL     1      19.143  25.723  17.619  1.00  0.00    -0.279 N 
HETATM   19  N2  UNL     1      19.736  25.444  18.757  1.00  0.00    -0.302 N 
ATOM     20  H1  UNL     1      19.327  26.541  17.039  1.00  0.00     0.189 HD
HETATM   21  C4  UNL     1      19.232  24.290  19.226  1.00  0.00     0.042 A 
ATOM     22  H2  UNL     1      20.457  26.007  19.208  1.00  0.00     0.186 HD
HETATM   23  C5  UNL     1      19.631  23.604  20.506  1.00  0.00     0.071 C 
BRANCH  17  24
HETATM   24  O1  UNL     1      17.422  24.700  16.206  1.00  0.00    -0.334 OA
BRANCH  24  25
HETATM   25  C2  UNL     1      17.773  23.888  15.102  1.00  0.00     0.173 C 
HETATM   26  C1  UNL     1      16.857  22.725  14.927  1.00  0.00     0.034 C 
ENDBRANCH  24  25
ENDBRANCH  17  24
ENDBRANCH  13  16
ENDBRANCH   1  12
BRANCH   8  27
HETATM   27  C16 UNL     1      11.696  20.145  16.701  1.00  0.00     0.256 C 
HETATM   28  O3  UNL     1      10.532  20.668  16.805  1.00  0.00    -0.267 OA
HETATM   29  N4  UNL     1      12.262  20.169  15.389  1.00  0.00    -0.350 N 
HETATM   30  C17 UNL     1      11.508  20.743  14.260  1.00  0.00     0.153 C 
BRANCH  29  31
HETATM   31  C18 UNL     1      13.575  19.684  15.050  1.00  0.00     0.151 C 
BRANCH  31  32
HETATM   32  C19 UNL     1      13.855  19.557  13.591  1.00  0.00     0.186 C 
BRANCH  32  33
HETATM   33  O4  UNL     1      14.935  20.398  13.218  1.00  0.00    -0.394 OA
HETATM   34  C20 UNL     1      14.501  21.331  12.293  1.00  0.00     0.201 C 
ENDBRANCH  32  33
ENDBRANCH  31  32
ENDBRANCH  29  31
ENDBRANCH   8  27
BRANCH   9  35
HETATM   35  C22 UNL     1      10.769  17.582  18.162  1.00  0.00     0.078 C 
BRANCH  35  36
HETATM   36  C23 UNL     1      11.038  16.138  17.973  1.00  0.00     0.128 C 
BRANCH  36  37
HETATM   37  N5  UNL     1      10.015  15.215  18.332  1.00  0.00    -0.361 N 
HETATM   38  C24 UNL     1       9.674  14.035  17.647  1.00  0.00     0.213 C 
HETATM   39  C25 UNL     1       8.584  13.169  18.134  1.00  0.00     0.117 C 
HETATM   40  O5  UNL     1      10.305  13.718  16.616  1.00  0.00    -0.274 OA
ATOM     41  H5  UNL     1       9.476  15.431  19.170  1.00  0.00     0.162 HD
ENDBRANCH  36  37
ENDBRANCH  35  36
ENDBRANCH   9  35
TORSDOF 11
ENDMDL
MODEL 3
REMARK VINA RESULT: -8.252550573      2.792      4.771
REMARK  11 active torsions:
REMARK  status: ('A' for Active; 'I' for Inactive)
REMARK    1  A    between atoms: C2_2  and  O1_3 
REMARK    2  A    between atoms: O1_3  and  C3_4 
REMARK    3  A    between atoms: C6_11  and  C7_12 
REMARK       I    between atoms: C7_12  and  N3_14 
REMARK    4  A    between atoms: N3_14  and  C8_16 
REMARK    5  A    between atoms: C15_23  and  C16_24 
REMARK       I    between atoms: C16_24  and  N4_26 
REMARK    6  A    between atoms: N4_26  and  C18_28 
REMARK    7  A    between atoms: C18_28  and  C19_29 
REMARK    8  A    between atoms: C19_29  and  O4_30 
REMARK    9  A    between atoms: C21_32  and  C22_33 
REMARK   10  A    between atoms: C22_33  and  C23_34 
REMARK   11  A    between atoms: C23_34  and  N5_35 
REMARK       I    between atoms: N5_35  and  C24_37 
ROOT
HETATM    1  C8  UNL     1      17.270  21.743  18.296  1.00  0.00     0.042 A 
HETATM    2  C9  UNL     1      17.015  20.987  19.388  1.00  0.00     0.032 A 
HETATM    3  C10 UNL     1      15.845  20.298  19.606  1.00  0.00     0.033 A 
HETATM    4  C11 UNL     1      14.875  20.391  18.639  1.00  0.00     0.046 A 
HETATM    5  C12 UNL     1      15.069  21.157  17.482  1.00  0.00     0.017 A 
HETATM    6  C13 UNL     1      16.260  21.833  17.306  1.00  0.00    -0.022 A 
HETATM    7  C14 UNL     1      16.570  22.661  16.138  1.00  0.00     0.051 C 
HETATM    8  C15 UNL     1      13.923  21.039  16.727  1.00  0.00     0.068 A 
HETATM    9  C21 UNL     1      13.036  20.201  17.431  1.00  0.00     0.029 A 
HETATM   10  N6  UNL     1      13.647  19.845  18.559  1.00  0.00    -0.353 N 
HETATM   11  C26 UNL     1      13.109  19.005  19.620  1.00  0.00     0.156 C 
ENDROOT
BRANCH   1  12
HETATM   12  N3  UNL     1      18.498  22.460  18.075  1.00  0.00    -0.322 N 
HETATM   13  C7  UNL     1      18.841  23.732  18.509  1.00  0.00     0.262 C 
HETATM   14  O2  UNL     1      18.037  24.416  19.186  1.00  0.00    -0.267 OA
ATOM     15  H3  UNL     1      19.207  21.969  17.530  1.00  0.00     0.169 HD
BRANCH  13  16
HETATM   16  C6  UNL     1      20.139  24.367  18.218  1.00  0.00     0.108 A 
HETATM   17  C3  UNL     1      20.661  24.830  17.037  1.00  0.00     0.175 A 
HETATM   18  N1  UNL     1      21.911  25.340  17.287  1.00  0.00    -0.279 N 
HETATM   19  N2  UNL     1      22.176  25.209  18.567  1.00  0.00    -0.302 N 
ATOM     20  H1  UNL     1      22.533  25.754  16.592  1.00  0.00     0.189 HD
HETATM   21  C4  UNL     1      21.122  24.623  19.159  1.00  0.00     0.042 A 
ATOM     22  H2  UNL     1      23.036  25.501  19.031  1.00  0.00     0.186 HD
HETATM   23  C5  UNL     1      21.003  24.285  20.623  1.00  0.00     0.071 C 
BRANCH  17  24
HETATM   24  O1  UNL     1      20.051  24.802  15.785  1.00  0.00    -0.334 OA
BRANCH  24  25
HETATM   25  C2  UNL     1      19.041  25.738  15.465  1.00  0.00     0.173 C 
HETATM   26  C1  UNL     1      18.686  25.733  14.017  1.00  0.00     0.034 C 
ENDBRANCH  24  25
ENDBRANCH  17  24
ENDBRANCH  13  16
ENDBRANCH   1  12
BRANCH   8  27
HETATM   27  C16 UNL     1      13.609  21.666  15.464  1.00  0.00     0.256 C 
HETATM   28  O3  UNL     1      13.265  22.899  15.410  1.00  0.00    -0.267 OA
HETATM   29  N4  UNL     1      13.658  20.990  14.206  1.00  0.00    -0.350 N 
HETATM   30  C17 UNL     1      13.306  21.697  12.962  1.00  0.00     0.153 C 
BRANCH  29  31
HETATM   31  C18 UNL     1      14.066  19.621  14.025  1.00  0.00     0.151 C 
BRANCH  31  32
HETATM   32  C19 UNL     1      13.172  18.793  13.165  1.00  0.00     0.186 C 
BRANCH  32  33
HETATM   33  O4  UNL     1      13.760  17.527  12.912  1.00  0.00    -0.394 OA
HETATM   34  C20 UNL     1      12.784  16.632  12.511  1.00  0.00     0.201 C 
ENDBRANCH  32  33
ENDBRANCH  31  32
ENDBRANCH  29  31
ENDBRANCH   8  27
BRANCH   9  35
HETATM   35  C22 UNL     1      11.665  19.826  17.012  1.00  0.00     0.078 C 
BRANCH  35  36
HETATM   36  C23 UNL     1      11.513  18.468  16.439  1.00  0.00     0.128 C 
BRANCH  36  37
HETATM   37  N5  UNL     1      10.935  17.457  17.258  1.00  0.00    -0.361 N 
HETATM   38  C24 UNL     1      10.607  16.148  16.866  1.00  0.00     0.213 C 
HETATM   39  C25 UNL     1      10.008  15.200  17.825  1.00  0.00     0.117 C 
HETATM   40  O5  UNL     1      10.829  15.783  15.691  1.00  0.00    -0.274 OA
ATOM     41  H5  UNL     1      10.740  17.708  18.228  1.00  0.00     0.162 HD
ENDBRANCH  36  37
ENDBRANCH  35  36
ENDBRANCH   9  35
TORSDOF 11
ENDMDL
MODEL 4
REMARK VINA RESULT: -8.223524143      0.810      2.042
REMARK  11 active torsions:
REMARK  status: ('A' for Active; 'I' for Inactive)
REMARK    1  A    between atoms: C2_2  and  O1_3 
REMARK    2  A    between atoms: O1_3  and  C3_4 
REMARK    3  A    between atoms: C6_11  and  C7_12 
REMARK       I    between atoms: C7_12  and  N3_14 
REMARK    4  A    between atoms: N3_14  and  C8_16 
REMARK    5  A    between atoms: C15_23  and  C16_24 
REMARK       I    between atoms: C16_24  and  N4_26 
REMARK    6  A    between atoms: N4_26  and  C18_28 
REMARK    7  A    between atoms: C18_28  and  C19_29 
REMARK    8  A    between atoms: C19_29  and  O4_30 
REMARK    9  A    between atoms: C21_32  and  C22_33 
REMARK   10  A    between atoms: C22_33  and  C23_34 
REMARK   11  A    between atoms: C23_34  and  N5_35 
REMARK       I    between atoms: N5_35  and  C24_37 
ROOT
HETATM    1  C8  UNL     1      19.809  24.858  17.634  1.00  0.00     0.042 A 
HETATM    2  C9  UNL     1      20.582  24.140  18.480  1.00  0.00     0.032 A 
HETATM    3  C10 UNL     1      20.146  23.060  19.211  1.00  0.00     0.033 A 
HETATM    4  C11 UNL     1      18.831  22.695  19.064  1.00  0.00     0.046 A 
HETATM    5  C12 UNL     1      17.972  23.393  18.207  1.00  0.00     0.017 A 
HETATM    6  C13 UNL     1      18.454  24.472  17.492  1.00  0.00    -0.022 A 
HETATM    7  C14 UNL     1      17.645  25.272  16.568  1.00  0.00     0.051 C 
HETATM    8  C15 UNL     1      16.741  22.779  18.286  1.00  0.00     0.068 A 
HETATM    9  C21 UNL     1      16.859  21.709  19.195  1.00  0.00     0.029 A 
HETATM   10  N6  UNL     1      18.118  21.702  19.629  1.00  0.00    -0.353 N 
HETATM   11  C26 UNL     1      18.704  20.793  20.604  1.00  0.00     0.156 C 
ENDROOT
BRANCH   1  12
HETATM   12  N3  UNL     1      20.274  25.986  16.870  1.00  0.00    -0.322 N 
HETATM   13  C7  UNL     1      21.112  25.989  15.764  1.00  0.00     0.262 C 
HETATM   14  O2  UNL     1      21.569  24.915  15.305  1.00  0.00    -0.267 OA
ATOM     15  H3  UNL     1      19.945  26.899  17.182  1.00  0.00     0.169 HD
BRANCH  13  16
HETATM   16  C6  UNL     1      21.523  27.217  15.060  1.00  0.00     0.108 A 
HETATM   17  C3  UNL     1      21.027  27.800  13.922  1.00  0.00     0.175 A 
HETATM   18  N1  UNL     1      21.752  28.940  13.670  1.00  0.00    -0.279 N 
HETATM   19  N2  UNL     1      22.667  29.077  14.602  1.00  0.00    -0.302 N 
ATOM     20  H1  UNL     1      21.603  29.576  12.887  1.00  0.00     0.189 HD
HETATM   21  C4  UNL     1      22.555  28.049  15.461  1.00  0.00     0.042 A 
ATOM     22  H2  UNL     1      23.347  29.834  14.664  1.00  0.00     0.186 HD
HETATM   23  C5  UNL     1      23.409  27.815  16.679  1.00  0.00     0.071 C 
BRANCH  17  24
HETATM   24  O1  UNL     1      19.973  27.341  13.138  1.00  0.00    -0.334 OA
BRANCH  24  25
HETATM   25  C2  UNL     1      18.790  26.862  13.747  1.00  0.00     0.173 C 
HETATM   26  C1  UNL     1      18.553  25.413  13.489  1.00  0.00     0.034 C 
ENDBRANCH  24  25
ENDBRANCH  17  24
ENDBRANCH  13  16
ENDBRANCH   1  12
BRANCH   8  27
HETATM   27  C16 UNL     1      15.509  23.142  17.623  1.00  0.00     0.256 C 
HETATM   28  O3  UNL     1      14.674  23.938  18.178  1.00  0.00    -0.267 OA
HETATM   29  N4  UNL     1      15.132  22.664  16.330  1.00  0.00    -0.350 N 
HETATM   30  C17 UNL     1      13.849  23.068  15.729  1.00  0.00     0.153 C 
BRANCH  29  31
HETATM   31  C18 UNL     1      15.938  21.803  15.505  1.00  0.00     0.151 C 
BRANCH  31  32
HETATM   32  C19 UNL     1      15.842  22.048  14.036  1.00  0.00     0.186 C 
BRANCH  32  33
HETATM   33  O4  UNL     1      15.324  20.904  13.376  1.00  0.00    -0.394 OA
HETATM   34  C20 UNL     1      14.404  21.296  12.419  1.00  0.00     0.201 C 
ENDBRANCH  32  33
ENDBRANCH  31  32
ENDBRANCH  29  31
ENDBRANCH   8  27
BRANCH   9  35
HETATM   35  C22 UNL     1      15.774  20.793  19.617  1.00  0.00     0.078 C 
BRANCH  35  36
HETATM   36  C23 UNL     1      15.495  19.657  18.708  1.00  0.00     0.128 C 
BRANCH  36  37
HETATM   37  N5  UNL     1      14.292  18.922  18.906  1.00  0.00    -0.361 N 
HETATM   38  C24 UNL     1      13.979  18.108  20.008  1.00  0.00     0.213 C 
HETATM   39  C25 UNL     1      12.687  17.398  20.079  1.00  0.00     0.117 C 
HETATM   40  O5  UNL     1      14.806  17.986  20.937  1.00  0.00    -0.274 OA
ATOM     41  H5  UNL     1      13.584  18.995  18.174  1.00  0.00     0.162 HD
ENDBRANCH  36  37
ENDBRANCH  35  36
ENDBRANCH   9  35
TORSDOF 11
ENDMDL
MODEL 5
REMARK VINA RESULT: -8.172973573      3.355      5.469
REMARK  11 active torsions:
REMARK  status: ('A' for Active; 'I' for Inactive)
REMARK    1  A    between atoms: C2_2  and  O1_3 
REMARK    2  A    between atoms: O1_3  and  C3_4 
REMARK    3  A    between atoms: C6_11  and  C7_12 
REMARK       I    between atoms: C7_12  and  N3_14 
REMARK    4  A    between atoms: N3_14  and  C8_16 
REMARK    5  A    between atoms: C15_23  and  C16_24 
REMARK       I    between atoms: C16_24  and  N4_26 
REMARK    6  A    between atoms: N4_26  and  C18_28 
REMARK    7  A    between atoms: C18_28  and  C19_29 
REMARK    8  A    between atoms: C19_29  and  O4_30 
REMARK    9  A    between atoms: C21_32  and  C22_33 
REMARK   10  A    between atoms: C22_33  and  C23_34 
REMARK   11  A    between atoms: C23_34  and  N5_35 
REMARK       I    between atoms: N5_35  and  C24_37 
ROOT
HETATM    1  C8  UNL     1      15.511  21.571  18.964  1.00  0.00     0.042 A 
HETATM    2  C9  UNL     1      15.724  20.755  20.021  1.00  0.00     0.032 A 
HETATM    3  C10 UNL     1      14.944  19.668  20.340  1.00  0.00     0.033 A 
HETATM    4  C11 UNL     1      13.876  19.404  19.519  1.00  0.00     0.046 A 
HETATM    5  C12 UNL     1      13.594  20.207  18.407  1.00  0.00     0.017 A 
HETATM    6  C13 UNL     1      14.406  21.288  18.126  1.00  0.00    -0.022 A 
HETATM    7  C14 UNL     1      14.204  22.193  16.991  1.00  0.00     0.051 C 
HETATM    8  C15 UNL     1      12.475  19.675  17.803  1.00  0.00     0.068 A 
HETATM    9  C21 UNL     1      12.082  18.550  18.553  1.00  0.00     0.029 A 
HETATM   10  N6  UNL     1      12.944  18.432  19.561  1.00  0.00    -0.353 N 
HETATM   11  C26 UNL     1      12.925  17.431  20.619  1.00  0.00     0.156 C 
ENDROOT
BRANCH   1  12
HETATM   12  N3  UNL     1      16.334  22.705  18.637  1.00  0.00    -0.322 N 
HETATM   13  C7  UNL     1      17.608  22.714  18.087  1.00  0.00     0.262 C 
HETATM   14  O2  UNL     1      18.191  21.639  17.807  1.00  0.00    -0.267 OA
ATOM     15  H3  UNL     1      15.930  23.620  18.836  1.00  0.00     0.169 HD
BRANCH  13  16
HETATM   16  C6  UNL     1      18.359  23.948  17.795  1.00  0.00     0.108 A 
HETATM   17  C3  UNL     1      19.437  24.507  18.431  1.00  0.00     0.175 A 
HETATM   18  N1  UNL     1      19.775  25.665  17.772  1.00  0.00    -0.279 N 
HETATM   19  N2  UNL     1      18.951  25.836  16.764  1.00  0.00    -0.302 N 
ATOM     20  H1  UNL     1      20.540  26.289  18.026  1.00  0.00     0.189 HD
HETATM   21  C4  UNL     1      18.081  24.813  16.749  1.00  0.00     0.042 A 
ATOM     22  H2  UNL     1      18.969  26.614  16.104  1.00  0.00     0.186 HD
HETATM   23  C5  UNL     1      16.964  24.613  15.758  1.00  0.00     0.071 C 
BRANCH  17  24
HETATM   24  O1  UNL     1      20.096  24.012  19.552  1.00  0.00    -0.334 OA
BRANCH  24  25
HETATM   25  C2  UNL     1      19.750  24.475  20.843  1.00  0.00     0.173 C 
HETATM   26  C1  UNL     1      18.754  23.599  21.524  1.00  0.00     0.034 C 
ENDBRANCH  24  25
ENDBRANCH  17  24
ENDBRANCH  13  16
ENDBRANCH   1  12
BRANCH   8  27
HETATM   27  C16 UNL     1      11.764  20.159  16.642  1.00  0.00     0.256 C 
HETATM   28  O3  UNL     1      10.582  20.641  16.748  1.00  0.00    -0.267 OA
HETATM   29  N4  UNL     1      12.303  20.149  15.318  1.00  0.00    -0.350 N 
HETATM   30  C17 UNL     1      11.505  20.645  14.182  1.00  0.00     0.153 C 
BRANCH  29  31
HETATM   31  C18 UNL     1      13.628  19.702  14.973  1.00  0.00     0.151 C 
BRANCH  31  32
HETATM   32  C19 UNL     1      13.925  19.643  13.512  1.00  0.00     0.186 C 
BRANCH  32  33
HETATM   33  O4  UNL     1      15.017  20.491  13.194  1.00  0.00    -0.394 OA
HETATM   34  C20 UNL     1      14.617  21.438  12.268  1.00  0.00     0.201 C 
ENDBRANCH  32  33
ENDBRANCH  31  32
ENDBRANCH  29  31
ENDBRANCH   8  27
BRANCH   9  35
HETATM   35  C22 UNL     1      10.905  17.689  18.292  1.00  0.00     0.078 C 
BRANCH  35  36
HETATM   36  C23 UNL     1      11.185  16.245  18.121  1.00  0.00     0.128 C 
BRANCH  36  37
HETATM   37  N5  UNL     1      10.151  15.320  18.443  1.00  0.00    -0.361 N 
HETATM   38  C24 UNL     1       9.755  14.208  17.680  1.00  0.00     0.213 C 
HETATM   39  C25 UNL     1       8.659  13.332  18.136  1.00  0.00     0.117 C 
HETATM   40  O5  UNL     1      10.340  13.960  16.604  1.00  0.00    -0.274 OA
ATOM     41  H5  UNL     1       9.647  15.481  19.316  1.00  0.00     0.162 HD
ENDBRANCH  36  37
ENDBRANCH  35  36
ENDBRANCH   9  35
TORSDOF 11
ENDMDL
