MODEL 1
REMARK VINA RESULT: -8.477426513      0.000      0.000
REMARK  13 active torsions:
REMARK  status: ('A' for Active; 'I' for Inactive)
REMARK    1  A    between atoms: C2_2  and  C3_3 
REMARK    2  A    between atoms: C3_3  and  C4_4 
REMARK    3  A    between atoms: C4_4  and  N1_5 
REMARK       I    between atoms: N1_5  and  C5_7 
REMARK    4  A    between atoms: C5_7  and  C6_9 
REMARK    5  A    between atoms: C6_9  and  N2_10 
REMARK    6  A    between atoms: C6_9  and  C21_34 
REMARK       I    between atoms: N2_10  and  C7_12 
REMARK    7  A    between atoms: C7_12  and  C8_14 
REMARK    8  A    between atoms: C8_14  and  N3_15 
REMARK    9  A    between atoms: C8_14  and  C18_31 
REMARK       I    between atoms: N3_15  and  C9_17 
REMARK   10  A    between atoms: C9_17  and  C10_19 
REMARK       I    between atoms: N4_23  and  C13_24 
REMARK   11  A    between atoms: C13_24  and  O5_26 
REMARK   12  A    between atoms: O5_26  and  C14_27 
REMARK   13  A    between atoms: C21_34  and  C23_36 
ROOT
HETATM    1  C8  UNL     1      14.372  21.752  16.169  1.00  0.00     0.180 C 
ENDROOT
BRANCH   1   2
HETATM    2  C7  UNL     1      13.984  21.175  17.441  1.00  0.00     0.241 C 
HETATM    3  N2  UNL     1      13.372  19.949  17.724  1.00  0.00    -0.346 N 
ATOM      4  H2  UNL     1      13.134  19.330  16.949  1.00  0.00     0.163 HD
HETATM    5  O2  UNL     1      14.234  21.894  18.482  1.00  0.00    -0.271 OA
BRANCH   3   6
HETATM    6  C6  UNL     1      13.054  19.509  19.116  1.00  0.00     0.180 C 
BRANCH   6   7
HETATM    7  C5  UNL     1      11.951  18.548  19.089  1.00  0.00     0.240 C 
HETATM    8  N1  UNL     1      11.601  17.712  17.997  1.00  0.00    -0.359 N 
ATOM      9  H1  UNL     1      12.170  17.792  17.154  1.00  0.00     0.162 HD
HETATM   10  O1  UNL     1      11.221  18.416  20.123  1.00  0.00    -0.271 OA
BRANCH   8  11
HETATM   11  C4  UNL     1      10.529  16.771  17.964  1.00  0.00     0.122 C 
BRANCH  11  12
HETATM   12  C3  UNL     1      10.189  16.238  16.610  1.00  0.00     0.019 C 
BRANCH  12  13
HETATM   13  C2  UNL     1       9.791  14.783  16.702  1.00  0.00    -0.003 C 
HETATM   14  C1  UNL     1       9.374  14.367  18.081  1.00  0.00     0.005 C 
ENDBRANCH  12  13
ENDBRANCH  11  12
ENDBRANCH   8  11
ENDBRANCH   6   7
BRANCH   6  15
HETATM   15  C21 UNL     1      14.335  19.086  19.729  1.00  0.00     0.013 C 
HETATM   16  C22 UNL     1      14.609  17.599  19.548  1.00  0.00     0.012 C 
BRANCH  15  17
HETATM   17  C23 UNL     1      14.634  19.495  21.129  1.00  0.00     0.002 C 
HETATM   18  C24 UNL     1      13.918  18.793  22.222  1.00  0.00     0.005 C 
ENDBRANCH  15  17
ENDBRANCH   6  15
ENDBRANCH   3   6
ENDBRANCH   1   2
BRANCH   1  19
HETATM   19  N3  UNL     1      15.843  21.765  16.038  1.00  0.00    -0.346 N 
HETATM   20  C9  UNL     1      16.570  22.972  16.163  1.00  0.00     0.242 C 
HETATM   21  O3  UNL     1      15.921  24.027  16.382  1.00  0.00    -0.271 OA
ATOM     22  H3  UNL     1      16.340  20.893  15.855  1.00  0.00     0.163 HD
BRANCH  20  23
HETATM   23  C10 UNL     1      18.027  23.075  16.054  1.00  0.00     0.191 C 
HETATM   24  C11 UNL     1      18.770  22.016  16.843  1.00  0.00     0.110 C 
HETATM   25  S1  UNL     1      18.909  22.904  18.448  1.00  0.00    -0.146 SA
HETATM   26  C12 UNL     1      18.795  24.585  17.774  1.00  0.00     0.203 C 
HETATM   27  N4  UNL     1      18.550  24.367  16.386  1.00  0.00    -0.305 N 
HETATM   28  C13 UNL     1      18.810  25.391  15.396  1.00  0.00     0.365 C 
HETATM   29  O4  UNL     1      18.593  25.197  14.171  1.00  0.00    -0.238 OA
BRANCH  28  30
HETATM   30  O5  UNL     1      19.308  26.618  15.749  1.00  0.00    -0.294 OA
BRANCH  30  31
HETATM   31  C14 UNL     1      20.673  26.981  15.630  1.00  0.00     0.061 C 
HETATM   32  C15 UNL     1      20.858  28.171  14.709  1.00  0.00     0.046 C 
HETATM   33  C16 UNL     1      21.542  25.827  15.199  1.00  0.00     0.046 C 
HETATM   34  C17 UNL     1      21.165  27.444  17.006  1.00  0.00     0.046 C 
ENDBRANCH  30  31
ENDBRANCH  28  30
ENDBRANCH  20  23
ENDBRANCH   1  19
BRANCH   1  35
HETATM   35  C18 UNL     1      13.782  21.101  14.939  1.00  0.00     0.009 C 
HETATM   36  C19 UNL     1      14.644  21.293  13.743  1.00  0.00     0.012 C 
HETATM   37  C20 UNL     1      12.348  21.466  14.718  1.00  0.00     0.012 C 
ENDBRANCH   1  35
TORSDOF 13
ENDMDL
MODEL 2
REMARK VINA RESULT: -8.090460871      4.075     10.433
REMARK  13 active torsions:
REMARK  status: ('A' for Active; 'I' for Inactive)
REMARK    1  A    between atoms: C2_2  and  C3_3 
REMARK    2  A    between atoms: C3_3  and  C4_4 
REMARK    3  A    between atoms: C4_4  and  N1_5 
REMARK       I    between atoms: N1_5  and  C5_7 
REMARK    4  A    between atoms: C5_7  and  C6_9 
REMARK    5  A    between atoms: C6_9  and  N2_10 
REMARK    6  A    between atoms: C6_9  and  C21_34 
REMARK       I    between atoms: N2_10  and  C7_12 
REMARK    7  A    between atoms: C7_12  and  C8_14 
REMARK    8  A    between atoms: C8_14  and  N3_15 
REMARK    9  A    between atoms: C8_14  and  C18_31 
REMARK       I    between atoms: N3_15  and  C9_17 
REMARK   10  A    between atoms: C9_17  and  C10_19 
REMARK       I    between atoms: N4_23  and  C13_24 
REMARK   11  A    between atoms: C13_24  and  O5_26 
REMARK   12  A    between atoms: O5_26  and  C14_27 
REMARK   13  A    between atoms: C21_34  and  C23_36 
ROOT
HETATM    1  C8  UNL     1      19.926  25.897  16.074  1.00  0.00     0.180 C 
ENDROOT
BRANCH   1   2
HETATM    2  C7  UNL     1      20.964  26.631  16.769  1.00  0.00     0.241 C 
HETATM    3  N2  UNL     1      22.319  26.329  16.941  1.00  0.00    -0.346 N 
ATOM      4  H2  UNL     1      22.682  25.463  16.542  1.00  0.00     0.163 HD
HETATM    5  O2  UNL     1      20.595  27.738  17.320  1.00  0.00    -0.271 OA
BRANCH   3   6
HETATM    6  C6  UNL     1      23.257  27.223  17.686  1.00  0.00     0.180 C 
BRANCH   6   7
HETATM    7  C5  UNL     1      23.587  26.623  18.979  1.00  0.00     0.240 C 
HETATM    8  N1  UNL     1      22.890  25.558  19.605  1.00  0.00    -0.359 N 
ATOM      9  H1  UNL     1      22.083  25.179  19.108  1.00  0.00     0.162 HD
HETATM   10  O1  UNL     1      24.588  27.066  19.627  1.00  0.00    -0.271 OA
BRANCH   8  11
HETATM   11  C4  UNL     1      23.207  24.966  20.865  1.00  0.00     0.122 C 
BRANCH  11  12
HETATM   12  C3  UNL     1      22.070  24.870  21.830  1.00  0.00     0.019 C 
BRANCH  12  13
HETATM   13  C2  UNL     1      21.324  26.181  21.895  1.00  0.00    -0.003 C 
HETATM   14  C1  UNL     1      21.670  27.003  23.101  1.00  0.00     0.005 C 
ENDBRANCH  12  13
ENDBRANCH  11  12
ENDBRANCH   8  11
ENDBRANCH   6   7
BRANCH   6  15
HETATM   15  C21 UNL     1      24.368  27.538  16.757  1.00  0.00     0.013 C 
HETATM   16  C22 UNL     1      24.103  28.787  15.928  1.00  0.00     0.012 C 
BRANCH  15  17
HETATM   17  C23 UNL     1      24.912  26.455  15.892  1.00  0.00     0.002 C 
HETATM   18  C24 UNL     1      26.145  25.765  16.343  1.00  0.00     0.005 C 
ENDBRANCH  15  17
ENDBRANCH   6  15
ENDBRANCH   3   6
ENDBRANCH   1   2
BRANCH   1  19
HETATM   19  N3  UNL     1      18.878  25.465  17.021  1.00  0.00    -0.346 N 
HETATM   20  C9  UNL     1      19.188  24.604  18.101  1.00  0.00     0.242 C 
HETATM   21  O3  UNL     1      20.380  24.219  18.219  1.00  0.00    -0.271 OA
ATOM     22  H3  UNL     1      17.920  25.792  16.896  1.00  0.00     0.163 HD
BRANCH  20  23
HETATM   23  C10 UNL     1      18.215  24.135  19.089  1.00  0.00     0.191 C 
HETATM   24  C11 UNL     1      18.849  23.521  20.321  1.00  0.00     0.110 C 
HETATM   25  S1  UNL     1      18.975  21.781  19.738  1.00  0.00    -0.146 SA
HETATM   26  C12 UNL     1      17.626  21.861  18.527  1.00  0.00     0.203 C 
HETATM   27  N4  UNL     1      17.234  23.233  18.562  1.00  0.00    -0.305 N 
HETATM   28  C13 UNL     1      15.936  23.667  18.088  1.00  0.00     0.365 C 
HETATM   29  O4  UNL     1      15.592  24.878  18.119  1.00  0.00    -0.238 OA
BRANCH  28  30
HETATM   30  O5  UNL     1      15.023  22.777  17.586  1.00  0.00    -0.294 OA
BRANCH  30  31
HETATM   31  C14 UNL     1      14.826  22.544  16.202  1.00  0.00     0.061 C 
HETATM   32  C15 UNL     1      16.092  22.795  15.406  1.00  0.00     0.046 C 
HETATM   33  C16 UNL     1      13.673  23.337  15.641  1.00  0.00     0.046 C 
HETATM   34  C17 UNL     1      14.504  21.058  16.009  1.00  0.00     0.046 C 
ENDBRANCH  30  31
ENDBRANCH  28  30
ENDBRANCH  20  23
ENDBRANCH   1  19
BRANCH   1  35
HETATM   35  C18 UNL     1      19.267  26.615  14.918  1.00  0.00     0.009 C 
HETATM   36  C19 UNL     1      18.306  25.739  14.197  1.00  0.00     0.012 C 
HETATM   37  C20 UNL     1      20.250  27.303  14.024  1.00  0.00     0.012 C 
ENDBRANCH   1  35
TORSDOF 13
ENDMDL
MODEL 3
REMARK VINA RESULT: -8.074417216      2.518      5.135
REMARK  13 active torsions:
REMARK  status: ('A' for Active; 'I' for Inactive)
REMARK    1  A    between atoms: C2_2  and  C3_3 
REMARK    2  A    between atoms: C3_3  and  C4_4 
REMARK    3  A    between atoms: C4_4  and  N1_5 
REMARK       I    between atoms: N1_5  and  C5_7 
REMARK    4  A    between atoms: C5_7  and  C6_9 
REMARK    5  A    between atoms: C6_9  and  N2_10 
REMARK    6  A    between atoms: C6_9  and  C21_34 
REMARK       I    between atoms: N2_10  and  C7_12 
REMARK    7  A    between atoms: C7_12  and  C8_14 
REMARK    8  A    between atoms: C8_14  and  N3_15 
REMARK    9  A    between atoms: C8_14  and  C18_31 
REMARK       I    between atoms: N3_15  and  C9_17 
REMARK   10  A    between atoms: C9_17  and  C10_19 
REMARK       I    between atoms: N4_23  and  C13_24 
REMARK   11  A    between atoms: C13_24  and  O5_26 
REMARK   12  A    between atoms: O5_26  and  C14_27 
REMARK   13  A    between atoms: C21_34  and  C23_36 
ROOT
HETATM    1  C8  UNL     1      18.814  22.731  17.996  1.00  0.00     0.180 C 
ENDROOT
BRANCH   1   2
HETATM    2  C7  UNL     1      17.725  21.948  17.449  1.00  0.00     0.241 C 
HETATM    3  N2  UNL     1      16.347  22.188  17.465  1.00  0.00    -0.346 N 
ATOM      4  H2  UNL     1      16.002  23.028  17.929  1.00  0.00     0.163 HD
HETATM    5  O2  UNL     1      18.064  20.856  16.852  1.00  0.00    -0.271 OA
BRANCH   3   6
HETATM    6  C6  UNL     1      15.359  21.264  16.829  1.00  0.00     0.180 C 
BRANCH   6   7
HETATM    7  C5  UNL     1      14.325  20.904  17.800  1.00  0.00     0.240 C 
HETATM    8  N1  UNL     1      13.425  19.812  17.692  1.00  0.00    -0.359 N 
ATOM      9  H1  UNL     1      13.508  19.227  16.860  1.00  0.00     0.162 HD
HETATM   10  O1  UNL     1      14.194  21.607  18.851  1.00  0.00    -0.271 OA
BRANCH   8  11
HETATM   11  C4  UNL     1      12.416  19.454  18.635  1.00  0.00     0.122 C 
BRANCH  11  12
HETATM   12  C3  UNL     1      12.735  18.272  19.493  1.00  0.00     0.019 C 
BRANCH  12  13
HETATM   13  C2  UNL     1      13.068  18.718  20.898  1.00  0.00    -0.003 C 
HETATM   14  C1  UNL     1      14.539  18.875  21.140  1.00  0.00     0.005 C 
ENDBRANCH  12  13
ENDBRANCH  11  12
ENDBRANCH   8  11
ENDBRANCH   6   7
BRANCH   6  15
HETATM   15  C21 UNL     1      14.936  21.904  15.561  1.00  0.00     0.013 C 
HETATM   16  C22 UNL     1      13.990  23.077  15.784  1.00  0.00     0.012 C 
BRANCH  15  17
HETATM   17  C23 UNL     1      14.435  21.046  14.453  1.00  0.00     0.002 C 
HETATM   18  C24 UNL     1      14.907  21.348  13.079  1.00  0.00     0.005 C 
ENDBRANCH  15  17
ENDBRANCH   6  15
ENDBRANCH   3   6
ENDBRANCH   1   2
BRANCH   1  19
HETATM   19  N3  UNL     1      18.644  24.158  17.657  1.00  0.00    -0.346 N 
HETATM   20  C9  UNL     1      19.396  24.749  16.613  1.00  0.00     0.242 C 
HETATM   21  O3  UNL     1      20.214  24.020  15.995  1.00  0.00    -0.271 OA
ATOM     22  H3  UNL     1      17.976  24.724  18.180  1.00  0.00     0.163 HD
BRANCH  20  23
HETATM   23  C10 UNL     1      19.285  26.152  16.207  1.00  0.00     0.191 C 
HETATM   24  C11 UNL     1      18.316  26.377  15.063  1.00  0.00     0.110 C 
HETATM   25  S1  UNL     1      19.479  26.146  13.657  1.00  0.00    -0.146 SA
HETATM   26  C12 UNL     1      20.993  26.583  14.556  1.00  0.00     0.203 C 
HETATM   27  N4  UNL     1      20.538  26.772  15.895  1.00  0.00    -0.305 N 
HETATM   28  C13 UNL     1      21.303  27.535  16.859  1.00  0.00     0.365 C 
HETATM   29  O4  UNL     1      20.901  27.700  18.041  1.00  0.00    -0.238 OA
BRANCH  28  30
HETATM   30  O5  UNL     1      22.501  28.112  16.527  1.00  0.00    -0.294 OA
BRANCH  30  31
HETATM   31  C14 UNL     1      23.763  27.549  16.842  1.00  0.00     0.061 C 
HETATM   32  C15 UNL     1      24.060  26.328  15.994  1.00  0.00     0.046 C 
HETATM   33  C16 UNL     1      23.904  27.230  18.309  1.00  0.00     0.046 C 
HETATM   34  C17 UNL     1      24.846  28.573  16.485  1.00  0.00     0.046 C 
ENDBRANCH  30  31
ENDBRANCH  28  30
ENDBRANCH  20  23
ENDBRANCH   1  19
BRANCH   1  35
HETATM   35  C18 UNL     1      19.033  22.612  19.487  1.00  0.00     0.009 C 
HETATM   36  C19 UNL     1      18.752  21.238  19.980  1.00  0.00     0.012 C 
HETATM   37  C20 UNL     1      18.343  23.688  20.265  1.00  0.00     0.012 C 
ENDBRANCH   1  35
TORSDOF 13
ENDMDL
MODEL 4
REMARK VINA RESULT: -7.862349723      3.047      9.931
REMARK  13 active torsions:
REMARK  status: ('A' for Active; 'I' for Inactive)
REMARK    1  A    between atoms: C2_2  and  C3_3 
REMARK    2  A    between atoms: C3_3  and  C4_4 
REMARK    3  A    between atoms: C4_4  and  N1_5 
REMARK       I    between atoms: N1_5  and  C5_7 
REMARK    4  A    between atoms: C5_7  and  C6_9 
REMARK    5  A    between atoms: C6_9  and  N2_10 
REMARK    6  A    between atoms: C6_9  and  C21_34 
REMARK       I    between atoms: N2_10  and  C7_12 
REMARK    7  A    between atoms: C7_12  and  C8_14 
REMARK    8  A    between atoms: C8_14  and  N3_15 
REMARK    9  A    between atoms: C8_14  and  C18_31 
REMARK       I    between atoms: N3_15  and  C9_17 
REMARK   10  A    between atoms: C9_17  and  C10_19 
REMARK       I    between atoms: N4_23  and  C13_24 
REMARK   11  A    between atoms: C13_24  and  O5_26 
REMARK   12  A    between atoms: O5_26  and  C14_27 
REMARK   13  A    between atoms: C21_34  and  C23_36 
ROOT
HETATM    1  C8  UNL     1      19.155  23.988  16.279  1.00  0.00     0.180 C 
ENDROOT
BRANCH   1   2
HETATM    2  C7  UNL     1      19.895  24.661  17.327  1.00  0.00     0.241 C 
HETATM    3  N2  UNL     1      20.922  24.187  18.152  1.00  0.00    -0.346 N 
ATOM      4  H2  UNL     1      21.229  23.221  18.045  1.00  0.00     0.163 HD
HETATM    5  O2  UNL     1      19.567  25.889  17.546  1.00  0.00    -0.271 OA
BRANCH   3   6
HETATM    6  C6  UNL     1      21.587  25.040  19.183  1.00  0.00     0.180 C 
BRANCH   6   7
HETATM    7  C5  UNL     1      21.952  26.329  18.595  1.00  0.00     0.240 C 
HETATM    8  N1  UNL     1      22.671  26.520  17.387  1.00  0.00    -0.359 N 
ATOM      9  H1  UNL     1      22.961  25.681  16.885  1.00  0.00     0.162 HD
HETATM   10  O1  UNL     1      21.605  27.399  19.190  1.00  0.00    -0.271 OA
BRANCH   8  11
HETATM   11  C4  UNL     1      23.028  27.774  16.806  1.00  0.00     0.122 C 
BRANCH  11  12
HETATM   12  C3  UNL     1      22.795  27.885  15.334  1.00  0.00     0.019 C 
BRANCH  12  13
HETATM   13  C2  UNL     1      21.367  28.293  15.057  1.00  0.00    -0.003 C 
HETATM   14  C1  UNL     1      21.071  28.470  13.598  1.00  0.00     0.005 C 
ENDBRANCH  12  13
ENDBRANCH  11  12
ENDBRANCH   8  11
ENDBRANCH   6   7
BRANCH   6  15
HETATM   15  C21 UNL     1      20.699  25.039  20.369  1.00  0.00     0.013 C 
HETATM   16  C22 UNL     1      21.453  25.292  21.667  1.00  0.00     0.012 C 
BRANCH  15  17
HETATM   17  C23 UNL     1      19.737  23.917  20.547  1.00  0.00     0.002 C 
HETATM   18  C24 UNL     1      18.301  24.256  20.701  1.00  0.00     0.005 C 
ENDBRANCH  15  17
ENDBRANCH   6  15
ENDBRANCH   3   6
ENDBRANCH   1   2
BRANCH   1  19
HETATM   19  N3  UNL     1      17.703  24.121  16.507  1.00  0.00    -0.346 N 
HETATM   20  C9  UNL     1      16.852  22.992  16.440  1.00  0.00     0.242 C 
HETATM   21  O3  UNL     1      17.377  21.879  16.175  1.00  0.00    -0.271 OA
ATOM     22  H3  UNL     1      17.307  25.038  16.716  1.00  0.00     0.163 HD
BRANCH  20  23
HETATM   23  C10 UNL     1      15.405  23.033  16.659  1.00  0.00     0.191 C 
HETATM   24  C11 UNL     1      15.013  23.572  18.019  1.00  0.00     0.110 C 
HETATM   25  S1  UNL     1      15.029  21.995  18.966  1.00  0.00    -0.146 SA
HETATM   26  C12 UNL     1      14.730  20.895  17.555  1.00  0.00     0.203 C 
HETATM   27  N4  UNL     1      14.744  21.781  16.437  1.00  0.00    -0.305 N 
HETATM   28  C13 UNL     1      14.133  21.424  15.173  1.00  0.00     0.365 C 
HETATM   29  O4  UNL     1      14.146  22.207  14.188  1.00  0.00    -0.238 OA
BRANCH  28  30
HETATM   30  O5  UNL     1      13.511  20.216  14.995  1.00  0.00    -0.294 OA
BRANCH  30  31
HETATM   31  C14 UNL     1      12.104  20.046  14.984  1.00  0.00     0.061 C 
HETATM   32  C15 UNL     1      11.390  21.320  14.576  1.00  0.00     0.046 C 
HETATM   33  C16 UNL     1      11.574  19.530  16.297  1.00  0.00     0.046 C 
HETATM   34  C17 UNL     1      11.756  19.014  13.905  1.00  0.00     0.046 C 
ENDBRANCH  30  31
ENDBRANCH  28  30
ENDBRANCH  20  23
ENDBRANCH   1  19
BRANCH   1  35
HETATM   35  C18 UNL     1      19.465  24.423  14.865  1.00  0.00     0.009 C 
HETATM   36  C19 UNL     1      20.924  24.611  14.650  1.00  0.00     0.012 C 
HETATM   37  C20 UNL     1      18.632  25.582  14.417  1.00  0.00     0.012 C 
ENDBRANCH   1  35
TORSDOF 13
ENDMDL
MODEL 5
REMARK VINA RESULT: -7.749753642      4.213      7.157
REMARK  13 active torsions:
REMARK  status: ('A' for Active; 'I' for Inactive)
REMARK    1  A    between atoms: C2_2  and  C3_3 
REMARK    2  A    between atoms: C3_3  and  C4_4 
REMARK    3  A    between atoms: C4_4  and  N1_5 
REMARK       I    between atoms: N1_5  and  C5_7 
REMARK    4  A    between atoms: C5_7  and  C6_9 
REMARK    5  A    between atoms: C6_9  and  N2_10 
REMARK    6  A    between atoms: C6_9  and  C21_34 
REMARK       I    between atoms: N2_10  and  C7_12 
REMARK    7  A    between atoms: C7_12  and  C8_14 
REMARK    8  A    between atoms: C8_14  and  N3_15 
REMARK    9  A    between atoms: C8_14  and  C18_31 
REMARK       I    between atoms: N3_15  and  C9_17 
REMARK   10  A    between atoms: C9_17  and  C10_19 
REMARK       I    between atoms: N4_23  and  C13_24 
REMARK   11  A    between atoms: C13_24  and  O5_26 
REMARK   12  A    between atoms: O5_26  and  C14_27 
REMARK   13  A    between atoms: C21_34  and  C23_36 
ROOT
HETATM    1  C8  UNL     1      19.875  26.126  16.010  1.00  0.00     0.180 C 
ENDROOT
BRANCH   1   2
HETATM    2  C7  UNL     1      19.031  25.199  16.736  1.00  0.00     0.241 C 
HETATM    3  N2  UNL     1      19.267  23.871  17.112  1.00  0.00    -0.346 N 
ATOM      4  H2  UNL     1      20.153  23.439  16.851  1.00  0.00     0.163 HD
HETATM    5  O2  UNL     1      17.879  25.653  17.098  1.00  0.00    -0.271 OA
BRANCH   3   6
HETATM    6  C6  UNL     1      18.274  23.062  17.880  1.00  0.00     0.180 C 
BRANCH   6   7
HETATM    7  C5  UNL     1      17.545  22.180  16.968  1.00  0.00     0.240 C 
HETATM    8  N1  UNL     1      16.246  22.412  16.446  1.00  0.00    -0.359 N 
ATOM      9  H1  UNL     1      15.778  23.271  16.737  1.00  0.00     0.162 HD
HETATM   10  O1  UNL     1      18.096  21.102  16.579  1.00  0.00    -0.271 OA
BRANCH   8  11
HETATM   11  C4  UNL     1      15.530  21.559  15.554  1.00  0.00     0.122 C 
BRANCH  11  12
HETATM   12  C3  UNL     1      15.403  22.064  14.153  1.00  0.00     0.019 C 
BRANCH  12  13
HETATM   13  C2  UNL     1      14.674  21.056  13.295  1.00  0.00    -0.003 C 
HETATM   14  C1  UNL     1      13.672  20.241  14.056  1.00  0.00     0.005 C 
ENDBRANCH  12  13
ENDBRANCH  11  12
ENDBRANCH   8  11
ENDBRANCH   6   7
BRANCH   6  15
HETATM   15  C21 UNL     1      19.013  22.444  19.007  1.00  0.00     0.013 C 
HETATM   16  C22 UNL     1      18.180  21.418  19.763  1.00  0.00     0.012 C 
BRANCH  15  17
HETATM   17  C23 UNL     1      19.731  23.327  19.967  1.00  0.00     0.002 C 
HETATM   18  C24 UNL     1      18.920  24.254  20.793  1.00  0.00     0.005 C 
ENDBRANCH  15  17
ENDBRANCH   6  15
ENDBRANCH   3   6
ENDBRANCH   1   2
BRANCH   1  19
HETATM   19  N3  UNL     1      21.168  26.297  16.703  1.00  0.00    -0.346 N 
HETATM   20  C9  UNL     1      21.834  27.545  16.694  1.00  0.00     0.242 C 
HETATM   21  O3  UNL     1      21.290  28.496  16.075  1.00  0.00    -0.271 OA
ATOM     22  H3  UNL     1      21.585  25.506  17.193  1.00  0.00     0.163 HD
BRANCH  20  23
HETATM   23  C10 UNL     1      23.113  27.804  17.360  1.00  0.00     0.191 C 
HETATM   24  C11 UNL     1      24.199  28.287  16.420  1.00  0.00     0.110 C 
HETATM   25  S1  UNL     1      24.884  26.656  15.916  1.00  0.00    -0.146 SA
HETATM   26  C12 UNL     1      24.363  25.739  17.392  1.00  0.00     0.203 C 
HETATM   27  N4  UNL     1      23.607  26.699  18.127  1.00  0.00    -0.305 N 
HETATM   28  C13 UNL     1      23.361  26.552  19.547  1.00  0.00     0.365 C 
HETATM   29  O4  UNL     1      22.693  27.400  20.194  1.00  0.00    -0.238 OA
BRANCH  28  30
HETATM   30  O5  UNL     1      23.847  25.480  20.250  1.00  0.00    -0.294 OA
BRANCH  30  31
HETATM   31  C14 UNL     1      25.000  25.532  21.072  1.00  0.00     0.061 C 
HETATM   32  C15 UNL     1      24.643  25.804  22.520  1.00  0.00     0.046 C 
HETATM   33  C16 UNL     1      26.020  26.524  20.575  1.00  0.00     0.046 C 
HETATM   34  C17 UNL     1      25.657  24.147  21.061  1.00  0.00     0.046 C 
ENDBRANCH  30  31
ENDBRANCH  28  30
ENDBRANCH  20  23
ENDBRANCH   1  19
BRANCH   1  35
HETATM   35  C18 UNL     1      20.143  25.784  14.562  1.00  0.00     0.009 C 
HETATM   36  C19 UNL     1      18.889  25.714  13.768  1.00  0.00     0.012 C 
HETATM   37  C20 UNL     1      21.031  24.590  14.401  1.00  0.00     0.012 C 
ENDBRANCH   1  35
TORSDOF 13
ENDMDL
