MODEL 1
REMARK VINA RESULT: -8.456760782      0.000      0.000
REMARK  12 active torsions:
REMARK  status: ('A' for Active; 'I' for Inactive)
REMARK       I    between atoms: C1_2  and  N1_3 
REMARK    1  A    between atoms: C1_2  and  O7_30 
REMARK       I    between atoms: N1_3  and  C2_5 
REMARK    2  A    between atoms: C2_5  and  C3_7 
REMARK       I    between atoms: C3_7  and  N2_9 
REMARK    3  A    between atoms: C7_13  and  C8_14 
REMARK       I    between atoms: C8_14  and  N3_16 
REMARK    4  A    between atoms: N3_16  and  C9_18 
REMARK    5  A    between atoms: C9_18  and  C10_19 
REMARK    6  A    between atoms: C9_18  and  C17_27 
REMARK    7  A    between atoms: C10_19  and  C11_20 
REMARK    8  A    between atoms: C11_20  and  S1_21 
REMARK    9  A    between atoms: S1_21  and  C12_22 
REMARK   10  A    between atoms: O7_30  and  C18_31 
REMARK   11  A    between atoms: C18_31  and  C19_32 
REMARK   12  A    between atoms: C19_32  and  C20_33 
ROOT
HETATM    1  C3  UNL     1      18.983  26.798  14.219  1.00  0.00     0.312 C 
HETATM    2  O3  UNL     1      18.448  27.692  13.508  1.00  0.00    -0.262 OA
HETATM    3  N2  UNL     1      20.301  26.914  14.726  1.00  0.00    -0.331 N 
HETATM    4  C4  UNL     1      21.134  28.058  14.447  1.00  0.00     0.127 C 
HETATM    5  C5  UNL     1      22.388  27.919  15.235  1.00  0.00     0.022 C 
HETATM    6  C6  UNL     1      22.478  26.414  15.442  1.00  0.00     0.037 C 
HETATM    7  C7  UNL     1      21.007  25.994  15.562  1.00  0.00     0.179 C 
ENDROOT
BRANCH   1   8
HETATM    8  C2  UNL     1      18.204  25.604  14.525  1.00  0.00     0.318 C 
HETATM    9  N1  UNL     1      17.401  25.539  15.722  1.00  0.00    -0.265 N 
HETATM   10  C1  UNL     1      16.669  24.357  15.999  1.00  0.00     0.367 C 
ATOM     11  H1  UNL     1      17.360  26.333  16.361  1.00  0.00     0.174 HD
HETATM   12  O1  UNL     1      15.974  24.277  17.046  1.00  0.00    -0.238 OA
HETATM   13  O2  UNL     1      18.179  24.583  13.796  1.00  0.00    -0.262 OA
BRANCH  10  14
HETATM   14  O7  UNL     1      16.736  23.311  15.109  1.00  0.00    -0.304 OA
BRANCH  14  15
HETATM   15  C18 UNL     1      16.053  22.103  15.220  1.00  0.00     0.181 C 
BRANCH  15  16
HETATM   16  C19 UNL     1      15.065  21.919  14.105  1.00  0.00     0.031 C 
BRANCH  16  17
HETATM   17  C20 UNL     1      13.945  20.980  14.492  1.00  0.00    -0.013 C 
HETATM   18  C21 UNL     1      12.720  21.757  14.885  1.00  0.00     0.005 C 
HETATM   19  C22 UNL     1      11.536  20.879  14.487  1.00  0.00     0.000 C 
HETATM   20  C23 UNL     1      12.135  19.627  13.905  1.00  0.00     0.000 C 
HETATM   21  C24 UNL     1      13.497  20.073  13.392  1.00  0.00     0.005 C 
ENDBRANCH  16  17
ENDBRANCH  15  16
ENDBRANCH  14  15
ENDBRANCH  10  14
ENDBRANCH   1   8
BRANCH   7  22
HETATM   22  C8  UNL     1      20.588  26.102  17.003  1.00  0.00     0.241 C 
HETATM   23  O4  UNL     1      20.464  27.236  17.523  1.00  0.00    -0.271 OA
HETATM   24  N3  UNL     1      20.329  24.977  17.790  1.00  0.00    -0.345 N 
ATOM     25  H3  UNL     1      20.424  24.056  17.362  1.00  0.00     0.163 HD
BRANCH  24  26
HETATM   26  C9  UNL     1      19.926  25.053  19.199  1.00  0.00     0.186 C 
BRANCH  26  27
HETATM   27  C10 UNL     1      18.702  24.264  19.442  1.00  0.00     0.046 C 
BRANCH  27  28
HETATM   28  C11 UNL     1      18.775  22.800  19.607  1.00  0.00     0.077 C 
BRANCH  28  29
HETATM   29  S1  UNL     1      17.848  21.755  18.527  1.00  0.00    -0.164 SA
BRANCH  29  30
HETATM   30  C12 UNL     1      16.429  20.929  19.182  1.00  0.00     0.047 C 
HETATM   31  C13 UNL     1      15.768  19.931  18.311  1.00  0.00     0.015 C 
HETATM   32  C14 UNL     1      14.362  20.425  18.032  1.00  0.00     0.001 C 
HETATM   33  C15 UNL     1      14.250  21.805  18.632  1.00  0.00     0.001 C 
HETATM   34  C16 UNL     1      15.353  21.869  19.691  1.00  0.00     0.015 C 
ENDBRANCH  29  30
ENDBRANCH  28  29
ENDBRANCH  27  28
ENDBRANCH  26  27
BRANCH  26  35
HETATM   35  C17 UNL     1      21.038  24.808  20.101  1.00  0.00     0.196 C 
HETATM   36  O5  UNL     1      21.968  23.980  19.789  1.00  0.00    -0.646 OA
HETATM   37  O6  UNL     1      21.130  25.476  21.342  1.00  0.00    -0.646 OA
ENDBRANCH  26  35
ENDBRANCH  24  26
ENDBRANCH   7  22
TORSDOF 12
ENDMDL
MODEL 2
REMARK VINA RESULT: -8.208464650      1.467      1.999
REMARK  12 active torsions:
REMARK  status: ('A' for Active; 'I' for Inactive)
REMARK       I    between atoms: C1_2  and  N1_3 
REMARK    1  A    between atoms: C1_2  and  O7_30 
REMARK       I    between atoms: N1_3  and  C2_5 
REMARK    2  A    between atoms: C2_5  and  C3_7 
REMARK       I    between atoms: C3_7  and  N2_9 
REMARK    3  A    between atoms: C7_13  and  C8_14 
REMARK       I    between atoms: C8_14  and  N3_16 
REMARK    4  A    between atoms: N3_16  and  C9_18 
REMARK    5  A    between atoms: C9_18  and  C10_19 
REMARK    6  A    between atoms: C9_18  and  C17_27 
REMARK    7  A    between atoms: C10_19  and  C11_20 
REMARK    8  A    between atoms: C11_20  and  S1_21 
REMARK    9  A    between atoms: S1_21  and  C12_22 
REMARK   10  A    between atoms: O7_30  and  C18_31 
REMARK   11  A    between atoms: C18_31  and  C19_32 
REMARK   12  A    between atoms: C19_32  and  C20_33 
ROOT
HETATM    1  C3  UNL     1      20.745  27.845  15.147  1.00  0.00     0.312 C 
HETATM    2  O3  UNL     1      20.441  28.938  14.597  1.00  0.00    -0.262 OA
HETATM    3  N2  UNL     1      22.023  27.600  15.705  1.00  0.00    -0.331 N 
HETATM    4  C4  UNL     1      23.081  28.581  15.664  1.00  0.00     0.127 C 
HETATM    5  C5  UNL     1      24.229  28.055  16.450  1.00  0.00     0.022 C 
HETATM    6  C6  UNL     1      24.010  26.550  16.380  1.00  0.00     0.037 C 
HETATM    7  C7  UNL     1      22.480  26.425  16.378  1.00  0.00     0.179 C 
ENDROOT
BRANCH   1   8
HETATM    8  C2  UNL     1      19.729  26.800  15.207  1.00  0.00     0.318 C 
HETATM    9  N1  UNL     1      19.057  26.500  16.448  1.00  0.00    -0.265 N 
HETATM   10  C1  UNL     1      18.087  25.466  16.475  1.00  0.00     0.367 C 
ATOM     11  H1  UNL     1      19.277  27.024  17.295  1.00  0.00     0.174 HD
HETATM   12  O1  UNL     1      17.501  25.181  17.552  1.00  0.00    -0.238 OA
HETATM   13  O2  UNL     1      19.381  26.110  14.217  1.00  0.00    -0.262 OA
BRANCH  10  14
HETATM   14  O7  UNL     1      17.806  24.789  15.312  1.00  0.00    -0.304 OA
BRANCH  14  15
HETATM   15  C18 UNL     1      17.334  23.483  15.225  1.00  0.00     0.181 C 
BRANCH  15  16
HETATM   16  C19 UNL     1      15.836  23.427  15.306  1.00  0.00     0.031 C 
BRANCH  16  17
HETATM   17  C20 UNL     1      15.301  22.059  14.942  1.00  0.00    -0.013 C 
HETATM   18  C21 UNL     1      13.955  21.837  15.572  1.00  0.00     0.005 C 
HETATM   19  C22 UNL     1      13.198  20.930  14.605  1.00  0.00     0.000 C 
HETATM   20  C23 UNL     1      14.152  20.653  13.474  1.00  0.00     0.000 C 
HETATM   21  C24 UNL     1      15.087  21.855  13.477  1.00  0.00     0.005 C 
ENDBRANCH  16  17
ENDBRANCH  15  16
ENDBRANCH  14  15
ENDBRANCH  10  14
ENDBRANCH   1   8
BRANCH   7  22
HETATM   22  C8  UNL     1      21.998  26.364  17.801  1.00  0.00     0.241 C 
HETATM   23  O4  UNL     1      21.683  27.426  18.389  1.00  0.00    -0.271 OA
HETATM   24  N3  UNL     1      21.884  25.158  18.499  1.00  0.00    -0.345 N 
ATOM     25  H3  UNL     1      22.135  24.295  18.016  1.00  0.00     0.163 HD
BRANCH  24  26
HETATM   26  C9  UNL     1      21.423  25.070  19.890  1.00  0.00     0.186 C 
BRANCH  26  27
HETATM   27  C10 UNL     1      20.124  24.374  19.973  1.00  0.00     0.046 C 
BRANCH  27  28
HETATM   28  C11 UNL     1      19.837  23.218  19.102  1.00  0.00     0.077 C 
BRANCH  28  29
HETATM   29  S1  UNL     1      18.552  22.092  19.547  1.00  0.00    -0.164 SA
BRANCH  29  30
HETATM   30  C12 UNL     1      17.116  22.016  18.519  1.00  0.00     0.047 C 
HETATM   31  C13 UNL     1      15.849  22.520  19.093  1.00  0.00     0.015 C 
HETATM   32  C14 UNL     1      14.881  21.355  19.164  1.00  0.00     0.001 C 
HETATM   33  C15 UNL     1      15.646  20.119  18.759  1.00  0.00     0.001 C 
HETATM   34  C16 UNL     1      16.840  20.636  17.953  1.00  0.00     0.015 C 
ENDBRANCH  29  30
ENDBRANCH  28  29
ENDBRANCH  27  28
ENDBRANCH  26  27
BRANCH  26  35
HETATM   35  C17 UNL     1      22.465  24.595  20.783  1.00  0.00     0.196 C 
HETATM   36  O5  UNL     1      22.329  24.682  22.057  1.00  0.00    -0.646 OA
HETATM   37  O6  UNL     1      23.653  24.021  20.280  1.00  0.00    -0.646 OA
ENDBRANCH  26  35
ENDBRANCH  24  26
ENDBRANCH   7  22
TORSDOF 12
ENDMDL
MODEL 3
REMARK VINA RESULT: -7.938307673      2.098      6.895
REMARK  12 active torsions:
REMARK  status: ('A' for Active; 'I' for Inactive)
REMARK       I    between atoms: C1_2  and  N1_3 
REMARK    1  A    between atoms: C1_2  and  O7_30 
REMARK       I    between atoms: N1_3  and  C2_5 
REMARK    2  A    between atoms: C2_5  and  C3_7 
REMARK       I    between atoms: C3_7  and  N2_9 
REMARK    3  A    between atoms: C7_13  and  C8_14 
REMARK       I    between atoms: C8_14  and  N3_16 
REMARK    4  A    between atoms: N3_16  and  C9_18 
REMARK    5  A    between atoms: C9_18  and  C10_19 
REMARK    6  A    between atoms: C9_18  and  C17_27 
REMARK    7  A    between atoms: C10_19  and  C11_20 
REMARK    8  A    between atoms: C11_20  and  S1_21 
REMARK    9  A    between atoms: S1_21  and  C12_22 
REMARK   10  A    between atoms: O7_30  and  C18_31 
REMARK   11  A    between atoms: C18_31  and  C19_32 
REMARK   12  A    between atoms: C19_32  and  C20_33 
ROOT
HETATM    1  C3  UNL     1      19.932  25.188  18.460  1.00  0.00     0.312 C 
HETATM    2  O3  UNL     1      20.557  26.203  18.871  1.00  0.00    -0.262 OA
HETATM    3  N2  UNL     1      19.636  24.084  19.296  1.00  0.00    -0.331 N 
HETATM    4  C4  UNL     1      20.048  24.032  20.677  1.00  0.00     0.127 C 
HETATM    5  C5  UNL     1      19.462  22.809  21.289  1.00  0.00     0.022 C 
HETATM    6  C6  UNL     1      19.263  21.904  20.082  1.00  0.00     0.037 C 
HETATM    7  C7  UNL     1      18.914  22.895  18.962  1.00  0.00     0.179 C 
ENDROOT
BRANCH   1   8
HETATM    8  C2  UNL     1      19.502  25.163  17.067  1.00  0.00     0.318 C 
HETATM    9  N1  UNL     1      18.148  25.513  16.710  1.00  0.00    -0.265 N 
HETATM   10  C1  UNL     1      17.758  25.461  15.348  1.00  0.00     0.367 C 
ATOM     11  H1  UNL     1      17.480  25.793  17.428  1.00  0.00     0.174 HD
HETATM   12  O1  UNL     1      16.577  25.749  15.021  1.00  0.00    -0.238 OA
HETATM   13  O2  UNL     1      20.253  24.845  16.112  1.00  0.00    -0.262 OA
BRANCH  10  14
HETATM   14  O7  UNL     1      18.687  25.093  14.405  1.00  0.00    -0.304 OA
BRANCH  14  15
HETATM   15  C18 UNL     1      19.051  25.837  13.286  1.00  0.00     0.181 C 
BRANCH  15  16
HETATM   16  C19 UNL     1      19.274  27.282  13.629  1.00  0.00     0.031 C 
BRANCH  16  17
HETATM   17  C20 UNL     1      20.711  27.555  14.015  1.00  0.00    -0.013 C 
HETATM   18  C21 UNL     1      21.276  28.670  13.181  1.00  0.00     0.005 C 
HETATM   19  C22 UNL     1      22.291  29.375  14.078  1.00  0.00     0.000 C 
HETATM   20  C23 UNL     1      22.279  28.618  15.379  1.00  0.00     0.000 C 
HETATM   21  C24 UNL     1      20.891  27.995  15.432  1.00  0.00     0.005 C 
ENDBRANCH  16  17
ENDBRANCH  15  16
ENDBRANCH  14  15
ENDBRANCH  10  14
ENDBRANCH   1   8
BRANCH   7  22
HETATM   22  C8  UNL     1      17.427  23.118  18.959  1.00  0.00     0.241 C 
HETATM   23  O4  UNL     1      16.967  24.204  19.387  1.00  0.00    -0.271 OA
HETATM   24  N3  UNL     1      16.529  22.154  18.493  1.00  0.00    -0.345 N 
ATOM     25  H3  UNL     1      16.906  21.274  18.140  1.00  0.00     0.163 HD
BRANCH  24  26
HETATM   26  C9  UNL     1      15.074  22.342  18.485  1.00  0.00     0.186 C 
BRANCH  26  27
HETATM   27  C10 UNL     1      14.609  22.813  17.165  1.00  0.00     0.046 C 
BRANCH  27  28
HETATM   28  C11 UNL     1      15.360  22.472  15.942  1.00  0.00     0.077 C 
BRANCH  28  29
HETATM   29  S1  UNL     1      14.485  21.949  14.500  1.00  0.00    -0.164 SA
BRANCH  29  30
HETATM   30  C12 UNL     1      13.493  20.490  14.610  1.00  0.00     0.047 C 
HETATM   31  C13 UNL     1      13.432  19.625  13.411  1.00  0.00     0.015 C 
HETATM   32  C14 UNL     1      11.993  19.604  12.934  1.00  0.00     0.001 C 
HETATM   33  C15 UNL     1      11.230  20.590  13.783  1.00  0.00     0.001 C 
HETATM   34  C16 UNL     1      12.067  20.750  15.055  1.00  0.00     0.015 C 
ENDBRANCH  29  30
ENDBRANCH  28  29
ENDBRANCH  27  28
ENDBRANCH  26  27
BRANCH  26  35
HETATM   35  C17 UNL     1      14.371  21.201  19.044  1.00  0.00     0.196 C 
HETATM   36  O5  UNL     1      14.716  20.706  20.178  1.00  0.00    -0.646 OA
HETATM   37  O6  UNL     1      13.286  20.606  18.363  1.00  0.00    -0.646 OA
ENDBRANCH  26  35
ENDBRANCH  24  26
ENDBRANCH   7  22
TORSDOF 12
ENDMDL
MODEL 4
REMARK VINA RESULT: -7.823275857      4.830      7.719
REMARK  12 active torsions:
REMARK  status: ('A' for Active; 'I' for Inactive)
REMARK       I    between atoms: C1_2  and  N1_3 
REMARK    1  A    between atoms: C1_2  and  O7_30 
REMARK       I    between atoms: N1_3  and  C2_5 
REMARK    2  A    between atoms: C2_5  and  C3_7 
REMARK       I    between atoms: C3_7  and  N2_9 
REMARK    3  A    between atoms: C7_13  and  C8_14 
REMARK       I    between atoms: C8_14  and  N3_16 
REMARK    4  A    between atoms: N3_16  and  C9_18 
REMARK    5  A    between atoms: C9_18  and  C10_19 
REMARK    6  A    between atoms: C9_18  and  C17_27 
REMARK    7  A    between atoms: C10_19  and  C11_20 
REMARK    8  A    between atoms: C11_20  and  S1_21 
REMARK    9  A    between atoms: S1_21  and  C12_22 
REMARK   10  A    between atoms: O7_30  and  C18_31 
REMARK   11  A    between atoms: C18_31  and  C19_32 
REMARK   12  A    between atoms: C19_32  and  C20_33 
ROOT
HETATM    1  C3  UNL     1      15.043  22.602  16.069  1.00  0.00     0.312 C 
HETATM    2  O3  UNL     1      15.049  23.820  15.740  1.00  0.00    -0.262 OA
HETATM    3  N2  UNL     1      15.734  22.114  17.204  1.00  0.00    -0.331 N 
HETATM    4  C4  UNL     1      16.516  22.975  18.058  1.00  0.00     0.127 C 
HETATM    5  C5  UNL     1      16.989  22.171  19.217  1.00  0.00     0.022 C 
HETATM    6  C6  UNL     1      16.979  20.756  18.657  1.00  0.00     0.037 C 
HETATM    7  C7  UNL     1      15.781  20.773  17.697  1.00  0.00     0.179 C 
ENDROOT
BRANCH   1   8
HETATM    8  C2  UNL     1      14.288  21.671  15.238  1.00  0.00     0.318 C 
HETATM    9  N1  UNL     1      12.930  21.319  15.577  1.00  0.00    -0.265 N 
HETATM   10  C1  UNL     1      12.231  20.398  14.759  1.00  0.00     0.367 C 
ATOM     11  H1  UNL     1      12.479  21.729  16.396  1.00  0.00     0.174 HD
HETATM   12  O1  UNL     1      11.050  20.069  15.048  1.00  0.00    -0.238 OA
HETATM   13  O2  UNL     1      14.751  21.126  14.206  1.00  0.00    -0.262 OA
BRANCH  10  14
HETATM   14  O7  UNL     1      12.864  19.876  13.656  1.00  0.00    -0.304 OA
BRANCH  14  15
HETATM   15  C18 UNL     1      12.277  19.066  12.688  1.00  0.00     0.181 C 
BRANCH  15  16
HETATM   16  C19 UNL     1      12.919  17.709  12.636  1.00  0.00     0.031 C 
BRANCH  16  17
HETATM   17  C20 UNL     1      11.893  16.603  12.534  1.00  0.00    -0.013 C 
HETATM   18  C21 UNL     1      11.040  16.561  13.771  1.00  0.00     0.005 C 
HETATM   19  C22 UNL     1       9.672  16.068  13.306  1.00  0.00     0.000 C 
HETATM   20  C23 UNL     1       9.807  15.827  11.827  1.00  0.00     0.000 C 
HETATM   21  C24 UNL     1      10.931  16.761  11.401  1.00  0.00     0.005 C 
ENDBRANCH  16  17
ENDBRANCH  15  16
ENDBRANCH  14  15
ENDBRANCH  10  14
ENDBRANCH   1   8
BRANCH   7  22
HETATM   22  C8  UNL     1      14.540  20.408  18.465  1.00  0.00     0.241 C 
HETATM   23  O4  UNL     1      13.676  21.289  18.690  1.00  0.00    -0.271 OA
HETATM   24  N3  UNL     1      14.310  19.114  18.939  1.00  0.00    -0.345 N 
ATOM     25  H3  UNL     1      15.011  18.398  18.749  1.00  0.00     0.163 HD
BRANCH  24  26
HETATM   26  C9  UNL     1      13.113  18.732  19.697  1.00  0.00     0.186 C 
BRANCH  26  27
HETATM   27  C10 UNL     1      12.449  17.565  19.084  1.00  0.00     0.046 C 
BRANCH  27  28
HETATM   28  C11 UNL     1      11.018  17.618  18.730  1.00  0.00     0.077 C 
BRANCH  28  29
HETATM   29  S1  UNL     1      10.431  16.700  17.339  1.00  0.00    -0.164 SA
BRANCH  29  30
HETATM   30  C12 UNL     1       9.807  15.070  17.619  1.00  0.00     0.047 C 
HETATM   31  C13 UNL     1      10.087  14.054  16.580  1.00  0.00     0.015 C 
HETATM   32  C14 UNL     1       8.757  13.603  16.009  1.00  0.00     0.001 C 
HETATM   33  C15 UNL     1       7.692  14.478  16.623  1.00  0.00     0.001 C 
HETATM   34  C16 UNL     1       8.319  15.025  17.907  1.00  0.00     0.015 C 
ENDBRANCH  29  30
ENDBRANCH  28  29
ENDBRANCH  27  28
ENDBRANCH  26  27
BRANCH  26  35
HETATM   35  C17 UNL     1      13.369  18.650  21.124  1.00  0.00     0.196 C 
HETATM   36  O5  UNL     1      12.882  17.691  21.826  1.00  0.00    -0.646 OA
HETATM   37  O6  UNL     1      14.164  19.616  21.779  1.00  0.00    -0.646 OA
ENDBRANCH  26  35
ENDBRANCH  24  26
ENDBRANCH   7  22
TORSDOF 12
ENDMDL
MODEL 5
REMARK VINA RESULT: -7.802654920      2.410      3.295
REMARK  12 active torsions:
REMARK  status: ('A' for Active; 'I' for Inactive)
REMARK       I    between atoms: C1_2  and  N1_3 
REMARK    1  A    between atoms: C1_2  and  O7_30 
REMARK       I    between atoms: N1_3  and  C2_5 
REMARK    2  A    between atoms: C2_5  and  C3_7 
REMARK       I    between atoms: C3_7  and  N2_9 
REMARK    3  A    between atoms: C7_13  and  C8_14 
REMARK       I    between atoms: C8_14  and  N3_16 
REMARK    4  A    between atoms: N3_16  and  C9_18 
REMARK    5  A    between atoms: C9_18  and  C10_19 
REMARK    6  A    between atoms: C9_18  and  C17_27 
REMARK    7  A    between atoms: C10_19  and  C11_20 
REMARK    8  A    between atoms: C11_20  and  S1_21 
REMARK    9  A    between atoms: S1_21  and  C12_22 
REMARK   10  A    between atoms: O7_30  and  C18_31 
REMARK   11  A    between atoms: C18_31  and  C19_32 
REMARK   12  A    between atoms: C19_32  and  C20_33 
ROOT
HETATM    1  C3  UNL     1      21.397  27.850  15.359  1.00  0.00     0.312 C 
HETATM    2  O3  UNL     1      20.820  28.911  14.997  1.00  0.00    -0.262 OA
HETATM    3  N2  UNL     1      22.796  27.774  15.563  1.00  0.00    -0.331 N 
HETATM    4  C4  UNL     1      23.667  28.904  15.350  1.00  0.00     0.127 C 
HETATM    5  C5  UNL     1      25.038  28.520  15.781  1.00  0.00     0.022 C 
HETATM    6  C6  UNL     1      25.012  27.005  15.637  1.00  0.00     0.037 C 
HETATM    7  C7  UNL     1      23.563  26.649  15.998  1.00  0.00     0.179 C 
ENDROOT
BRANCH   1   8
HETATM    8  C2  UNL     1      20.580  26.662  15.574  1.00  0.00     0.318 C 
HETATM    9  N1  UNL     1      19.425  26.712  16.438  1.00  0.00    -0.265 N 
HETATM   10  C1  UNL     1      18.662  25.534  16.639  1.00  0.00     0.367 C 
ATOM     11  H1  UNL     1      19.162  27.583  16.899  1.00  0.00     0.174 HD
HETATM   12  O1  UNL     1      17.660  25.556  17.402  1.00  0.00    -0.238 OA
HETATM   13  O2  UNL     1      20.815  25.549  15.042  1.00  0.00    -0.262 OA
BRANCH  10  14
HETATM   14  O7  UNL     1      19.037  24.381  15.992  1.00  0.00    -0.304 OA
BRANCH  14  15
HETATM   15  C18 UNL     1      18.260  23.234  15.855  1.00  0.00     0.181 C 
BRANCH  15  16
HETATM   16  C19 UNL     1      17.146  23.433  14.869  1.00  0.00     0.031 C 
BRANCH  16  17
HETATM   17  C20 UNL     1      15.962  22.539  15.167  1.00  0.00    -0.013 C 
HETATM   18  C21 UNL     1      14.898  23.305  15.902  1.00  0.00     0.005 C 
HETATM   19  C22 UNL     1      13.574  22.679  15.469  1.00  0.00     0.000 C 
HETATM   20  C23 UNL     1      13.940  21.567  14.523  1.00  0.00     0.000 C 
HETATM   21  C24 UNL     1      15.285  21.995  13.952  1.00  0.00     0.005 C 
ENDBRANCH  16  17
ENDBRANCH  15  16
ENDBRANCH  14  15
ENDBRANCH  10  14
ENDBRANCH   1   8
BRANCH   7  22
HETATM   22  C8  UNL     1      23.472  26.444  17.486  1.00  0.00     0.241 C 
HETATM   23  O4  UNL     1      22.688  27.155  18.157  1.00  0.00    -0.271 OA
HETATM   24  N3  UNL     1      24.234  25.481  18.153  1.00  0.00    -0.345 N 
ATOM     25  H3  UNL     1      24.866  24.899  17.604  1.00  0.00     0.163 HD
BRANCH  24  26
HETATM   26  C9  UNL     1      24.171  25.263  19.603  1.00  0.00     0.186 C 
BRANCH  26  27
HETATM   27  C10 UNL     1      23.291  24.124  19.929  1.00  0.00     0.046 C 
BRANCH  27  28
HETATM   28  C11 UNL     1      21.963  24.352  20.530  1.00  0.00     0.077 C 
BRANCH  28  29
HETATM   29  S1  UNL     1      20.510  23.996  19.591  1.00  0.00    -0.164 SA
BRANCH  29  30
HETATM   30  C12 UNL     1      19.242  23.026  20.350  1.00  0.00     0.047 C 
HETATM   31  C13 UNL     1      19.058  21.646  19.849  1.00  0.00     0.015 C 
HETATM   32  C14 UNL     1      17.666  21.555  19.257  1.00  0.00     0.001 C 
HETATM   33  C15 UNL     1      17.081  22.946  19.283  1.00  0.00     0.001 C 
HETATM   34  C16 UNL     1      17.880  23.693  20.353  1.00  0.00     0.015 C 
ENDBRANCH  29  30
ENDBRANCH  28  29
ENDBRANCH  27  28
ENDBRANCH  26  27
BRANCH  26  35
HETATM   35  C17 UNL     1      25.488  25.254  20.214  1.00  0.00     0.196 C 
HETATM   36  O5  UNL     1      25.782  26.074  21.158  1.00  0.00    -0.646 OA
HETATM   37  O6  UNL     1      26.481  24.342  19.794  1.00  0.00    -0.646 OA
ENDBRANCH  26  35
ENDBRANCH  24  26
ENDBRANCH   7  22
TORSDOF 12
ENDMDL
