MODEL 1
REMARK VINA RESULT: -7.350242104      0.000      0.000
REMARK  9 active torsions:
REMARK  status: ('A' for Active; 'I' for Inactive)
REMARK    1  A    between atoms: N1_2  and  C2_4 
REMARK    2  A    between atoms: C3_8  and  N3_9 
REMARK    3  A    between atoms: N3_9  and  C4_11 
REMARK    4  A    between atoms: C4_11  and  C5_12 
REMARK    5  A    between atoms: C5_12  and  N4_13 
REMARK    6  A    between atoms: N4_13  and  C6_15 
REMARK    7  A    between atoms: C6_15  and  C7_16 
REMARK    8  A    between atoms: C7_16  and  C8_17 
REMARK    9  A    between atoms: C8_17  and  N5_18 
ROOT
HETATM    1  C4  UNL     1      -7.804  -8.864  -9.503  1.00  0.00     0.141 C 
ENDROOT
BRANCH   1   2
HETATM    2  N3  UNL     1      -9.103  -9.456  -9.826  1.00  0.00    -0.367 N 
ATOM      3  H3  UNL     1      -9.297  -9.920 -10.713  1.00  0.00     0.161 HD
BRANCH   2   4
HETATM    4  C3  UNL     1      -9.999  -9.337  -8.868  1.00  0.00     0.176 A 
HETATM    5  S1  UNL     1     -11.598  -8.747  -8.923  1.00  0.00     0.039 SA
HETATM    6  N2  UNL     1     -11.993  -8.950  -7.297  1.00  0.00    -0.157 N 
HETATM    7  C2  UNL     1     -10.872  -9.464  -6.783  1.00  0.00     0.686 A 
ATOM      8  H2  UNL     1     -12.870  -8.733  -6.823  1.00  0.00     0.193 HD
HETATM    9  N6  UNL     1      -9.862  -9.660  -7.578  1.00  0.00    -0.169 N 
ATOM     10  H6  UNL     1      -8.988 -10.050  -7.227  1.00  0.00     0.186 HD
BRANCH   7  11
HETATM   11  N1  UNL     1     -10.849  -9.748  -5.489  1.00  0.00    -0.230 N 
HETATM   12  C1  UNL     1     -11.120 -11.081  -4.999  1.00  0.00     0.165 C 
ATOM     13  H1  UNL     1     -10.635  -9.007  -4.822  1.00  0.00     0.177 HD
ENDBRANCH   7  11
ENDBRANCH   2   4
ENDBRANCH   1   2
BRANCH   1  14
HETATM   14  C5  UNL     1      -7.825  -7.433  -9.933  1.00  0.00     0.133 C 
BRANCH  14  15
HETATM   15  N4  UNL     1      -7.719  -6.496  -8.861  1.00  0.00    -0.420 N 
ATOM     16  H4  UNL     1      -8.087  -5.547  -8.926  1.00  0.00     0.153 HD
BRANCH  15  17
HETATM   17  C6  UNL     1      -7.053  -6.987  -7.683  1.00  0.00     0.115 C 
BRANCH  17  18
HETATM   18  C7  UNL     1      -5.612  -6.533  -7.602  1.00  0.00     0.038 C 
BRANCH  18  19
HETATM   19  C8  UNL     1      -5.166  -6.390  -6.202  1.00  0.00     0.118 C 
BRANCH  19  20
HETATM   20  N5  UNL     1      -3.924  -5.752  -5.981  1.00  0.00    -0.408 N 
HETATM   21  C9  UNL     1      -3.091  -6.353  -5.004  1.00  0.00     0.143 C 
HETATM   22  C10 UNL     1      -1.658  -6.520  -5.357  1.00  0.00     0.187 C 
HETATM   23  O1  UNL     1      -1.213  -5.428  -6.086  1.00  0.00    -0.388 OA
HETATM   24  C11 UNL     1      -1.871  -5.508  -7.335  1.00  0.00     0.187 C 
HETATM   25  C12 UNL     1      -3.314  -5.074  -7.039  1.00  0.00     0.143 C 
ENDBRANCH  19  20
ENDBRANCH  18  19
ENDBRANCH  17  18
ENDBRANCH  15  17
ENDBRANCH  14  15
ENDBRANCH   1  14
TORSDOF 9
ENDMDL
MODEL 2
REMARK VINA RESULT: -7.267168087      3.498      7.693
REMARK  9 active torsions:
REMARK  status: ('A' for Active; 'I' for Inactive)
REMARK    1  A    between atoms: N1_2  and  C2_4 
REMARK    2  A    between atoms: C3_8  and  N3_9 
REMARK    3  A    between atoms: N3_9  and  C4_11 
REMARK    4  A    between atoms: C4_11  and  C5_12 
REMARK    5  A    between atoms: C5_12  and  N4_13 
REMARK    6  A    between atoms: N4_13  and  C6_15 
REMARK    7  A    between atoms: C6_15  and  C7_16 
REMARK    8  A    between atoms: C7_16  and  C8_17 
REMARK    9  A    between atoms: C8_17  and  N5_18 
ROOT
HETATM    1  C4  UNL     1      -7.899  -7.429  -9.073  1.00  0.00     0.141 C 
ENDROOT
BRANCH   1   2
HETATM    2  N3  UNL     1      -7.668  -7.204  -7.646  1.00  0.00    -0.367 N 
ATOM      3  H3  UNL     1      -8.377  -7.379  -6.934  1.00  0.00     0.161 HD
BRANCH   2   4
HETATM    4  C3  UNL     1      -6.464  -6.753  -7.362  1.00  0.00     0.176 A 
HETATM    5  S1  UNL     1      -5.136  -6.438  -8.384  1.00  0.00     0.039 SA
HETATM    6  N2  UNL     1      -4.043  -5.907  -7.215  1.00  0.00    -0.157 N 
HETATM    7  C2  UNL     1      -4.753  -5.997  -6.087  1.00  0.00     0.686 A 
ATOM      8  H2  UNL     1      -3.080  -5.595  -7.339  1.00  0.00     0.193 HD
HETATM    9  N6  UNL     1      -5.978  -6.426  -6.160  1.00  0.00    -0.169 N 
ATOM     10  H6  UNL     1      -6.553  -6.510  -5.323  1.00  0.00     0.186 HD
BRANCH   7  11
HETATM   11  N1  UNL     1      -4.169  -5.644  -4.951  1.00  0.00    -0.230 N 
HETATM   12  C1  UNL     1      -3.335  -4.467  -4.860  1.00  0.00     0.165 C 
ATOM     13  H1  UNL     1      -4.311  -6.218  -4.120  1.00  0.00     0.177 HD
ENDBRANCH   7  11
ENDBRANCH   2   4
ENDBRANCH   1   2
BRANCH   1  14
HETATM   14  C5  UNL     1      -7.673  -8.879  -9.358  1.00  0.00     0.133 C 
BRANCH  14  15
HETATM   15  N4  UNL     1      -8.546  -9.427 -10.345  1.00  0.00    -0.420 N 
ATOM     16  H4  UNL     1      -8.520 -10.411 -10.613  1.00  0.00     0.153 HD
BRANCH  15  17
HETATM   17  C6  UNL     1      -9.466  -8.490 -10.935  1.00  0.00     0.115 C 
BRANCH  17  18
HETATM   18  C7  UNL     1     -10.891  -9.000 -10.934  1.00  0.00     0.038 C 
BRANCH  18  19
HETATM   19  C8  UNL     1     -11.712  -8.314  -9.918  1.00  0.00     0.118 C 
BRANCH  19  20
HETATM   20  N5  UNL     1     -11.931  -8.993  -8.697  1.00  0.00    -0.408 N 
HETATM   21  C9  UNL     1     -12.602 -10.238  -8.798  1.00  0.00     0.143 C 
HETATM   22  C10 UNL     1     -12.038 -11.369  -8.019  1.00  0.00     0.187 C 
HETATM   23  O1  UNL     1     -11.567 -10.920  -6.794  1.00  0.00    -0.388 OA
HETATM   24  C11 UNL     1     -10.436 -10.124  -7.086  1.00  0.00     0.187 C 
HETATM   25  C12 UNL     1     -11.017  -8.820  -7.655  1.00  0.00     0.143 C 
ENDBRANCH  19  20
ENDBRANCH  18  19
ENDBRANCH  17  18
ENDBRANCH  15  17
ENDBRANCH  14  15
ENDBRANCH   1  14
TORSDOF 9
ENDMDL
MODEL 3
REMARK VINA RESULT: -7.119055453      3.876      8.426
REMARK  9 active torsions:
REMARK  status: ('A' for Active; 'I' for Inactive)
REMARK    1  A    between atoms: N1_2  and  C2_4 
REMARK    2  A    between atoms: C3_8  and  N3_9 
REMARK    3  A    between atoms: N3_9  and  C4_11 
REMARK    4  A    between atoms: C4_11  and  C5_12 
REMARK    5  A    between atoms: C5_12  and  N4_13 
REMARK    6  A    between atoms: N4_13  and  C6_15 
REMARK    7  A    between atoms: C6_15  and  C7_16 
REMARK    8  A    between atoms: C7_16  and  C8_17 
REMARK    9  A    between atoms: C8_17  and  N5_18 
ROOT
HETATM    1  C4  UNL     1      -5.535  -6.893  -7.592  1.00  0.00     0.141 C 
ENDROOT
BRANCH   1   2
HETATM    2  N3  UNL     1      -5.116  -6.354  -6.297  1.00  0.00    -0.367 N 
ATOM      3  H3  UNL     1      -5.655  -6.484  -5.441  1.00  0.00     0.161 HD
BRANCH   2   4
HETATM    4  C3  UNL     1      -3.982  -5.686  -6.336  1.00  0.00     0.176 A 
HETATM    5  S1  UNL     1      -2.709  -5.741  -7.470  1.00  0.00     0.039 SA
HETATM    6  N2  UNL     1      -1.695  -4.597  -6.761  1.00  0.00    -0.157 N 
HETATM    7  C2  UNL     1      -2.385  -4.222  -5.680  1.00  0.00     0.686 A 
ATOM      8  H2  UNL     1      -0.782  -4.271  -7.079  1.00  0.00     0.193 HD
HETATM    9  N6  UNL     1      -3.543  -4.774  -5.464  1.00  0.00    -0.169 N 
ATOM     10  H6  UNL     1      -4.101  -4.516  -4.651  1.00  0.00     0.186 HD
BRANCH   7  11
HETATM   11  N1  UNL     1      -1.852  -3.307  -4.884  1.00  0.00    -0.230 N 
HETATM   12  C1  UNL     1      -2.308  -3.125  -3.524  1.00  0.00     0.165 C 
ATOM     13  H1  UNL     1      -1.100  -2.716  -5.239  1.00  0.00     0.177 HD
ENDBRANCH   7  11
ENDBRANCH   2   4
ENDBRANCH   1   2
BRANCH   1  14
HETATM   14  C5  UNL     1      -7.026  -6.822  -7.665  1.00  0.00     0.133 C 
BRANCH  14  15
HETATM   15  N4  UNL     1      -7.545  -6.694  -8.988  1.00  0.00    -0.420 N 
ATOM     16  H4  UNL     1      -8.278  -6.026  -9.227  1.00  0.00     0.153 HD
BRANCH  15  17
HETATM   17  C6  UNL     1      -6.958  -7.577  -9.963  1.00  0.00     0.115 C 
BRANCH  17  18
HETATM   18  C7  UNL     1      -7.774  -8.834 -10.169  1.00  0.00     0.038 C 
BRANCH  18  19
HETATM   19  C8  UNL     1      -9.160  -8.523 -10.568  1.00  0.00     0.118 C 
BRANCH  19  20
HETATM   20  N5  UNL     1     -10.199  -9.169  -9.858  1.00  0.00    -0.408 N 
HETATM   21  C9  UNL     1      -9.963  -9.371  -8.475  1.00  0.00     0.143 C 
HETATM   22  C10 UNL     1     -11.075  -9.037  -7.550  1.00  0.00     0.187 C 
HETATM   23  O1  UNL     1     -12.292  -9.388  -8.115  1.00  0.00    -0.388 OA
HETATM   24  C11 UNL     1     -12.483  -8.497  -9.197  1.00  0.00     0.187 C 
HETATM   25  C12 UNL     1     -11.518  -8.995 -10.283  1.00  0.00     0.143 C 
ENDBRANCH  19  20
ENDBRANCH  18  19
ENDBRANCH  17  18
ENDBRANCH  15  17
ENDBRANCH  14  15
ENDBRANCH   1  14
TORSDOF 9
ENDMDL
MODEL 4
REMARK VINA RESULT: -7.090197449      3.918      8.579
REMARK  9 active torsions:
REMARK  status: ('A' for Active; 'I' for Inactive)
REMARK    1  A    between atoms: N1_2  and  C2_4 
REMARK    2  A    between atoms: C3_8  and  N3_9 
REMARK    3  A    between atoms: N3_9  and  C4_11 
REMARK    4  A    between atoms: C4_11  and  C5_12 
REMARK    5  A    between atoms: C5_12  and  N4_13 
REMARK    6  A    between atoms: N4_13  and  C6_15 
REMARK    7  A    between atoms: C6_15  and  C7_16 
REMARK    8  A    between atoms: C7_16  and  C8_17 
REMARK    9  A    between atoms: C8_17  and  N5_18 
ROOT
HETATM    1  C4  UNL     1      -5.431  -6.890  -7.495  1.00  0.00     0.141 C 
ENDROOT
BRANCH   1   2
HETATM    2  N3  UNL     1      -5.066  -6.235  -6.239  1.00  0.00    -0.367 N 
ATOM      3  H3  UNL     1      -5.647  -6.275  -5.402  1.00  0.00     0.161 HD
BRANCH   2   4
HETATM    4  C3  UNL     1      -3.920  -5.587  -6.286  1.00  0.00     0.176 A 
HETATM    5  S1  UNL     1      -2.638  -5.695  -7.405  1.00  0.00     0.039 SA
HETATM    6  N2  UNL     1      -1.612  -4.547  -6.719  1.00  0.00    -0.157 N 
HETATM    7  C2  UNL     1      -2.306  -4.131  -5.656  1.00  0.00     0.686 A 
ATOM      8  H2  UNL     1      -0.691  -4.246  -7.037  1.00  0.00     0.193 HD
HETATM    9  N6  UNL     1      -3.474  -4.657  -5.436  1.00  0.00    -0.169 N 
ATOM     10  H6  UNL     1      -4.035  -4.367  -4.636  1.00  0.00     0.186 HD
BRANCH   7  11
HETATM   11  N1  UNL     1      -1.765  -3.202  -4.881  1.00  0.00    -0.230 N 
HETATM   12  C1  UNL     1      -2.169  -3.033  -3.504  1.00  0.00     0.165 C 
ATOM     13  H1  UNL     1      -1.044  -2.591  -5.266  1.00  0.00     0.177 HD
ENDBRANCH   7  11
ENDBRANCH   2   4
ENDBRANCH   1   2
BRANCH   1  14
HETATM   14  C5  UNL     1      -6.922  -6.879  -7.610  1.00  0.00     0.133 C 
BRANCH  14  15
HETATM   15  N4  UNL     1      -7.408  -6.630  -8.929  1.00  0.00    -0.420 N 
ATOM     16  H4  UNL     1      -7.999  -5.829  -9.152  1.00  0.00     0.153 HD
BRANCH  15  17
HETATM   17  C6  UNL     1      -7.004  -7.592  -9.921  1.00  0.00     0.115 C 
BRANCH  17  18
HETATM   18  C7  UNL     1      -7.770  -8.892  -9.811  1.00  0.00     0.038 C 
BRANCH  18  19
HETATM   19  C8  UNL     1      -9.081  -8.808 -10.483  1.00  0.00     0.118 C 
BRANCH  19  20
HETATM   20  N5  UNL     1     -10.204  -8.509  -9.676  1.00  0.00    -0.408 N 
HETATM   21  C9  UNL     1     -11.446  -8.438 -10.355  1.00  0.00     0.143 C 
HETATM   22  C10 UNL     1     -12.597  -9.129  -9.720  1.00  0.00     0.187 C 
HETATM   23  O1  UNL     1     -12.539  -8.990  -8.342  1.00  0.00    -0.388 OA
HETATM   24  C11 UNL     1     -11.425  -9.755  -7.926  1.00  0.00     0.187 C 
HETATM   25  C12 UNL     1     -10.205  -8.918  -8.341  1.00  0.00     0.143 C 
ENDBRANCH  19  20
ENDBRANCH  18  19
ENDBRANCH  17  18
ENDBRANCH  15  17
ENDBRANCH  14  15
ENDBRANCH   1  14
TORSDOF 9
ENDMDL
MODEL 5
REMARK VINA RESULT: -6.980317527      2.656      4.725
REMARK  9 active torsions:
REMARK  status: ('A' for Active; 'I' for Inactive)
REMARK    1  A    between atoms: N1_2  and  C2_4 
REMARK    2  A    between atoms: C3_8  and  N3_9 
REMARK    3  A    between atoms: N3_9  and  C4_11 
REMARK    4  A    between atoms: C4_11  and  C5_12 
REMARK    5  A    between atoms: C5_12  and  N4_13 
REMARK    6  A    between atoms: N4_13  and  C6_15 
REMARK    7  A    between atoms: C6_15  and  C7_16 
REMARK    8  A    between atoms: C7_16  and  C8_17 
REMARK    9  A    between atoms: C8_17  and  N5_18 
ROOT
HETATM    1  C4  UNL     1      -4.276  -5.911  -6.891  1.00  0.00     0.141 C 
ENDROOT
BRANCH   1   2
HETATM    2  N3  UNL     1      -5.547  -6.463  -6.420  1.00  0.00    -0.367 N 
ATOM      3  H3  UNL     1      -5.765  -6.589  -5.432  1.00  0.00     0.161 HD
BRANCH   2   4
HETATM    4  C3  UNL     1      -6.383  -6.783  -7.385  1.00  0.00     0.176 A 
HETATM    5  S1  UNL     1      -6.112  -6.981  -9.057  1.00  0.00     0.039 SA
HETATM    6  N2  UNL     1      -7.684  -7.377  -9.518  1.00  0.00    -0.157 N 
HETATM    7  C2  UNL     1      -8.349  -7.339  -8.360  1.00  0.00     0.686 A 
ATOM      8  H2  UNL     1      -8.040  -7.592 -10.450  1.00  0.00     0.193 HD
HETATM    9  N6  UNL     1      -7.691  -7.038  -7.280  1.00  0.00    -0.169 N 
ATOM     10  H6  UNL     1      -8.160  -6.998  -6.376  1.00  0.00     0.186 HD
BRANCH   7  11
HETATM   11  N1  UNL     1      -9.646  -7.610  -8.374  1.00  0.00    -0.230 N 
HETATM   12  C1  UNL     1     -10.250  -8.376  -9.440  1.00  0.00     0.165 C 
ATOM     13  H1  UNL     1     -10.233  -7.269  -7.612  1.00  0.00     0.177 HD
ENDBRANCH   7  11
ENDBRANCH   2   4
ENDBRANCH   1   2
BRANCH   1  14
HETATM   14  C5  UNL     1      -3.175  -6.803  -6.415  1.00  0.00     0.133 C 
BRANCH  14  15
HETATM   15  N4  UNL     1      -3.457  -7.482  -5.192  1.00  0.00    -0.420 N 
ATOM     16  H4  UNL     1      -4.395  -7.525  -4.793  1.00  0.00     0.153 HD
BRANCH  15  17
HETATM   17  C6  UNL     1      -2.321  -8.102  -4.561  1.00  0.00     0.115 C 
BRANCH  17  18
HETATM   18  C7  UNL     1      -1.118  -7.186  -4.507  1.00  0.00     0.038 C 
BRANCH  18  19
HETATM   19  C8  UNL     1      -1.078  -6.415  -3.249  1.00  0.00     0.118 C 
BRANCH  19  20
HETATM   20  N5  UNL     1      -1.613  -5.106  -3.275  1.00  0.00    -0.408 N 
HETATM   21  C9  UNL     1      -1.158  -4.278  -4.331  1.00  0.00     0.143 C 
HETATM   22  C10 UNL     1      -2.188  -3.494  -5.059  1.00  0.00     0.187 C 
HETATM   23  O1  UNL     1      -3.158  -3.042  -4.178  1.00  0.00    -0.388 OA
HETATM   24  C11 UNL     1      -3.859  -4.195  -3.755  1.00  0.00     0.187 C 
HETATM   25  C12 UNL     1      -2.902  -4.893  -2.779  1.00  0.00     0.143 C 
ENDBRANCH  19  20
ENDBRANCH  18  19
ENDBRANCH  17  18
ENDBRANCH  15  17
ENDBRANCH  14  15
ENDBRANCH   1  14
TORSDOF 9
ENDMDL
