MODEL 1
REMARK VINA RESULT: -8.283512088      0.000      0.000
REMARK  16 active torsions:
REMARK  status: ('A' for Active; 'I' for Inactive)
REMARK    1  A    between atoms: C2_2  and  C3_3 
REMARK    2  A    between atoms: C3_3  and  C4_4 
REMARK    3  A    between atoms: C4_4  and  C5_5 
REMARK    4  A    between atoms: C5_5  and  C6_6 
REMARK    5  A    between atoms: C6_6  and  C7_7 
REMARK    6  A    between atoms: C8_10  and  O1_11 
REMARK    7  A    between atoms: C9_13  and  C10_14 
REMARK    8  A    between atoms: C10_14  and  C11_15 
REMARK    9  A    between atoms: C11_15  and  C12_16 
REMARK   10  A    between atoms: C12_16  and  C13_17 
REMARK   11  A    between atoms: C13_17  and  O2_18 
REMARK   12  A    between atoms: C15_24  and  C16_25 
REMARK   13  A    between atoms: C18_32  and  C19_33 
REMARK   14  A    between atoms: C19_33  and  O6_34 
REMARK   15  A    between atoms: O6_34  and  C20_35 
REMARK   16  A    between atoms: C20_35  and  C21_36 
ROOT
HETATM    1  C7  UNL     1       7.793 -13.001 -24.957  1.00  0.00     0.175 C 
HETATM    2  N1  UNL     1       7.316 -12.510 -23.690  1.00  0.00    -0.359 N 
ATOM      3  H1  UNL     1       6.382 -12.104 -23.724  1.00  0.00     0.162 HD
HETATM    4  C8  UNL     1       7.900 -12.490 -22.427  1.00  0.00     0.135 C 
HETATM    5  C9  UNL     1       8.348 -13.640 -21.584  1.00  0.00     0.159 C 
HETATM    6  N2  UNL     1       7.224 -14.165 -20.868  1.00  0.00    -0.347 N 
ATOM      7  H2  UNL     1       6.911 -13.557 -20.112  1.00  0.00     0.163 HD
HETATM    8  C14 UNL     1       6.472 -15.320 -20.983  1.00  0.00     0.250 C 
HETATM    9  O3  UNL     1       6.248 -15.965 -19.894  1.00  0.00    -0.271 OA
HETATM   10  C15 UNL     1       5.869 -15.948 -22.183  1.00  0.00     0.266 C 
HETATM   11  N4  UNL     1       4.573 -15.384 -22.502  1.00  0.00    -0.339 N 
ATOM     12  H4  UNL     1       3.770 -15.852 -22.084  1.00  0.00     0.163 HD
HETATM   13  C17 UNL     1       4.282 -14.280 -23.309  1.00  0.00     0.243 C 
HETATM   14  O5  UNL     1       3.596 -13.315 -22.794  1.00  0.00    -0.271 OA
HETATM   15  C18 UNL     1       4.661 -14.050 -24.723  1.00  0.00     0.200 C 
HETATM   16  N5  UNL     1       5.840 -14.696 -25.163  1.00  0.00    -0.344 N 
ATOM     17  H5  UNL     1       5.761 -15.709 -25.252  1.00  0.00     0.163 HD
HETATM   18  C22 UNL     1       7.103 -14.177 -25.499  1.00  0.00     0.241 C 
HETATM   19  O9  UNL     1       7.788 -14.798 -26.412  1.00  0.00    -0.271 OA
ENDROOT
BRANCH   1  20
HETATM   20  C6  UNL     1       7.577 -11.853 -25.968  1.00  0.00     0.035 C 
BRANCH  20  21
HETATM   21  C5  UNL     1       6.553 -10.867 -25.558  1.00  0.00     0.002 C 
BRANCH  21  22
HETATM   22  C4  UNL     1       6.724  -9.585 -26.384  1.00  0.00     0.000 C 
BRANCH  22  23
HETATM   23  C3  UNL     1       5.407  -8.984 -26.783  1.00  0.00    -0.000 C 
BRANCH  23  24
HETATM   24  C2  UNL     1       4.897  -9.628 -28.077  1.00  0.00    -0.005 C 
HETATM   25  C1  UNL     1       3.431  -9.310 -28.283  1.00  0.00     0.005 C 
ENDBRANCH  23  24
ENDBRANCH  22  23
ENDBRANCH  21  22
ENDBRANCH  20  21
ENDBRANCH   1  20
BRANCH   4  26
HETATM   26  O1  UNL     1       8.077 -11.304 -21.910  1.00  0.00    -0.348 OA
ATOM     27  H1  UNL     1       8.200 -11.284 -20.968  1.00  0.00     0.219 HD
ENDBRANCH   4  26
BRANCH   5  28
HETATM   28  C10 UNL     1       9.285 -14.567 -22.234  1.00  0.00     0.034 C 
BRANCH  28  29
HETATM   29  C11 UNL     1      10.075 -15.396 -21.266  1.00  0.00     0.004 C 
BRANCH  29  30
HETATM   30  C12 UNL     1       9.843 -16.876 -21.487  1.00  0.00     0.026 C 
BRANCH  30  31
HETATM   31  C13 UNL     1      10.218 -17.277 -22.905  1.00  0.00     0.164 C 
BRANCH  31  32
HETATM   32  O2  UNL     1       9.130 -17.912 -23.492  1.00  0.00    -0.401 OA
ATOM     33  H2  UNL     1       9.336 -18.092 -24.401  1.00  0.00     0.209 HD
ENDBRANCH  31  32
ENDBRANCH  30  31
ENDBRANCH  29  30
ENDBRANCH  28  29
ENDBRANCH   5  28
BRANCH  15  34
HETATM   34  C19 UNL     1       3.506 -14.698 -25.537  1.00  0.00     0.203 C 
BRANCH  34  35
HETATM   35  O6  UNL     1       2.669 -13.748 -26.030  1.00  0.00    -0.378 OA
BRANCH  35  36
HETATM   36  C20 UNL     1       3.348 -12.804 -26.757  1.00  0.00     0.280 C 
BRANCH  36  37
HETATM   37  C21 UNL     1       3.912 -13.256 -28.032  1.00  0.00     0.197 C 
HETATM   38  O7  UNL     1       3.163 -13.740 -28.954  1.00  0.00    -0.646 OA
HETATM   39  O8  UNL     1       5.254 -13.204 -28.356  1.00  0.00    -0.646 OA
ENDBRANCH  36  37
ENDBRANCH  35  36
ENDBRANCH  34  35
ENDBRANCH  15  34
BRANCH  10  40
HETATM   40  C16 UNL     1       5.650 -17.419 -21.911  1.00  0.00     0.263 C 
HETATM   41  N3  UNL     1       6.647 -18.387 -22.209  1.00  0.00    -0.060 NA
HETATM   42  O4  UNL     1       4.563 -17.770 -21.414  1.00  0.00    -0.274 OA
ENDBRANCH  10  40
TORSDOF 16
ENDMDL
MODEL 2
REMARK VINA RESULT: -8.276377804      2.826      5.964
REMARK  16 active torsions:
REMARK  status: ('A' for Active; 'I' for Inactive)
REMARK    1  A    between atoms: C2_2  and  C3_3 
REMARK    2  A    between atoms: C3_3  and  C4_4 
REMARK    3  A    between atoms: C4_4  and  C5_5 
REMARK    4  A    between atoms: C5_5  and  C6_6 
REMARK    5  A    between atoms: C6_6  and  C7_7 
REMARK    6  A    between atoms: C8_10  and  O1_11 
REMARK    7  A    between atoms: C9_13  and  C10_14 
REMARK    8  A    between atoms: C10_14  and  C11_15 
REMARK    9  A    between atoms: C11_15  and  C12_16 
REMARK   10  A    between atoms: C12_16  and  C13_17 
REMARK   11  A    between atoms: C13_17  and  O2_18 
REMARK   12  A    between atoms: C15_24  and  C16_25 
REMARK   13  A    between atoms: C18_32  and  C19_33 
REMARK   14  A    between atoms: C19_33  and  O6_34 
REMARK   15  A    between atoms: O6_34  and  C20_35 
REMARK   16  A    between atoms: C20_35  and  C21_36 
ROOT
HETATM    1  C7  UNL     1       3.569 -15.759 -22.559  1.00  0.00     0.175 C 
HETATM    2  N1  UNL     1       4.670 -16.436 -23.196  1.00  0.00    -0.359 N 
ATOM      3  H1  UNL     1       4.578 -16.522 -24.209  1.00  0.00     0.162 HD
HETATM    4  C8  UNL     1       5.836 -16.993 -22.681  1.00  0.00     0.135 C 
HETATM    5  C9  UNL     1       6.943 -16.324 -21.934  1.00  0.00     0.159 C 
HETATM    6  N2  UNL     1       7.847 -15.724 -22.870  1.00  0.00    -0.347 N 
ATOM      7  H2  UNL     1       8.416 -16.407 -23.372  1.00  0.00     0.163 HD
HETATM    8  C14 UNL     1       8.115 -14.419 -23.240  1.00  0.00     0.250 C 
HETATM    9  O3  UNL     1       9.354 -14.084 -23.292  1.00  0.00    -0.271 OA
HETATM   10  C15 UNL     1       7.183 -13.321 -23.594  1.00  0.00     0.266 C 
HETATM   11  N4  UNL     1       6.797 -13.361 -24.990  1.00  0.00    -0.339 N 
ATOM     12  H4  UNL     1       7.380 -12.821 -25.629  1.00  0.00     0.163 HD
HETATM   13  C17 UNL     1       5.727 -14.046 -25.574  1.00  0.00     0.243 C 
HETATM   14  O5  UNL     1       5.985 -14.874 -26.531  1.00  0.00    -0.271 OA
HETATM   15  C18 UNL     1       4.285 -13.955 -25.241  1.00  0.00     0.200 C 
HETATM   16  N5  UNL     1       3.977 -13.584 -23.912  1.00  0.00    -0.344 N 
ATOM     17  H5  UNL     1       4.188 -12.612 -23.683  1.00  0.00     0.163 HD
HETATM   18  C22 UNL     1       3.430 -14.329 -22.852  1.00  0.00     0.241 C 
HETATM   19  O9  UNL     1       2.693 -13.698 -21.988  1.00  0.00    -0.271 OA
ENDROOT
BRANCH   1  20
HETATM   20  C6  UNL     1       2.288 -16.447 -23.080  1.00  0.00     0.035 C 
BRANCH  20  21
HETATM   21  C5  UNL     1       1.240 -16.638 -22.053  1.00  0.00     0.002 C 
BRANCH  21  22
HETATM   22  C4  UNL     1      -0.142 -16.496 -22.706  1.00  0.00     0.000 C 
BRANCH  22  23
HETATM   23  C3  UNL     1      -0.703 -17.818 -23.146  1.00  0.00    -0.000 C 
BRANCH  23  24
HETATM   24  C2  UNL     1      -2.231 -17.814 -23.030  1.00  0.00    -0.005 C 
HETATM   25  C1  UNL     1      -2.658 -18.270 -21.651  1.00  0.00     0.005 C 
ENDBRANCH  23  24
ENDBRANCH  22  23
ENDBRANCH  21  22
ENDBRANCH  20  21
ENDBRANCH   1  20
BRANCH   4  26
HETATM   26  O1  UNL     1       5.980 -18.276 -22.880  1.00  0.00    -0.348 OA
ATOM     27  H1  UNL     1       6.859 -18.612 -22.752  1.00  0.00     0.219 HD
ENDBRANCH   4  26
BRANCH   5  28
HETATM   28  C10 UNL     1       6.530 -15.565 -20.745  1.00  0.00     0.034 C 
BRANCH  28  29
HETATM   29  C11 UNL     1       6.481 -16.391 -19.496  1.00  0.00     0.004 C 
BRANCH  29  30
HETATM   30  C12 UNL     1       5.054 -16.675 -19.075  1.00  0.00     0.026 C 
BRANCH  30  31
HETATM   31  C13 UNL     1       4.829 -18.170 -18.900  1.00  0.00     0.164 C 
BRANCH  31  32
HETATM   32  O2  UNL     1       5.678 -18.853 -19.763  1.00  0.00    -0.401 OA
ATOM     33  H2  UNL     1       5.770 -18.349 -20.563  1.00  0.00     0.209 HD
ENDBRANCH  31  32
ENDBRANCH  30  31
ENDBRANCH  29  30
ENDBRANCH  28  29
ENDBRANCH   5  28
BRANCH  15  34
HETATM   34  C19 UNL     1       3.764 -12.789 -26.128  1.00  0.00     0.203 C 
BRANCH  34  35
HETATM   35  O6  UNL     1       3.023 -13.262 -27.164  1.00  0.00    -0.378 OA
BRANCH  35  36
HETATM   36  C20 UNL     1       3.409 -12.706 -28.356  1.00  0.00     0.280 C 
BRANCH  36  37
HETATM   37  C21 UNL     1       4.524 -13.365 -29.043  1.00  0.00     0.197 C 
HETATM   38  O7  UNL     1       5.657 -12.780 -29.184  1.00  0.00    -0.646 OA
HETATM   39  O8  UNL     1       4.468 -14.635 -29.583  1.00  0.00    -0.646 OA
ENDBRANCH  36  37
ENDBRANCH  35  36
ENDBRANCH  34  35
ENDBRANCH  15  34
BRANCH  10  40
HETATM   40  C16 UNL     1       7.878 -11.996 -23.372  1.00  0.00     0.263 C 
HETATM   41  N3  UNL     1       8.449 -11.266 -24.450  1.00  0.00    -0.060 NA
HETATM   42  O4  UNL     1       7.940 -11.552 -22.210  1.00  0.00    -0.274 OA
ENDBRANCH  10  40
TORSDOF 16
ENDMDL
MODEL 3
REMARK VINA RESULT: -8.270405526     10.776     13.814
REMARK  16 active torsions:
REMARK  status: ('A' for Active; 'I' for Inactive)
REMARK    1  A    between atoms: C2_2  and  C3_3 
REMARK    2  A    between atoms: C3_3  and  C4_4 
REMARK    3  A    between atoms: C4_4  and  C5_5 
REMARK    4  A    between atoms: C5_5  and  C6_6 
REMARK    5  A    between atoms: C6_6  and  C7_7 
REMARK    6  A    between atoms: C8_10  and  O1_11 
REMARK    7  A    between atoms: C9_13  and  C10_14 
REMARK    8  A    between atoms: C10_14  and  C11_15 
REMARK    9  A    between atoms: C11_15  and  C12_16 
REMARK   10  A    between atoms: C12_16  and  C13_17 
REMARK   11  A    between atoms: C13_17  and  O2_18 
REMARK   12  A    between atoms: C15_24  and  C16_25 
REMARK   13  A    between atoms: C18_32  and  C19_33 
REMARK   14  A    between atoms: C19_33  and  O6_34 
REMARK   15  A    between atoms: O6_34  and  C20_35 
REMARK   16  A    between atoms: C20_35  and  C21_36 
ROOT
HETATM    1  C7  UNL     1      -6.048 -16.234 -23.560  1.00  0.00     0.175 C 
HETATM    2  N1  UNL     1      -6.147 -17.457 -24.315  1.00  0.00    -0.359 N 
ATOM      3  H1  UNL     1      -5.277 -17.744 -24.762  1.00  0.00     0.162 HD
HETATM    4  C8  UNL     1      -7.216 -18.318 -24.544  1.00  0.00     0.135 C 
HETATM    5  C9  UNL     1      -8.017 -19.101 -23.556  1.00  0.00     0.159 C 
HETATM    6  N2  UNL     1      -7.325 -20.317 -23.248  1.00  0.00    -0.347 N 
ATOM      7  H2  UNL     1      -7.350 -20.996 -24.009  1.00  0.00     0.163 HD
HETATM    8  C14 UNL     1      -6.632 -20.769 -22.140  1.00  0.00     0.250 C 
HETATM    9  O3  UNL     1      -6.917 -21.955 -21.734  1.00  0.00    -0.271 OA
HETATM   10  C15 UNL     1      -5.591 -20.094 -21.328  1.00  0.00     0.266 C 
HETATM   11  N4  UNL     1      -4.267 -20.252 -21.897  1.00  0.00    -0.339 N 
ATOM     12  H4  UNL     1      -3.736 -21.057 -21.567  1.00  0.00     0.163 HD
HETATM   13  C17 UNL     1      -3.625 -19.443 -22.838  1.00  0.00     0.243 C 
HETATM   14  O5  UNL     1      -3.198 -19.995 -23.924  1.00  0.00    -0.271 OA
HETATM   15  C18 UNL     1      -3.353 -17.987 -22.766  1.00  0.00     0.200 C 
HETATM   16  N5  UNL     1      -4.247 -17.226 -21.977  1.00  0.00    -0.344 N 
ATOM     17  H5  UNL     1      -4.168 -17.386 -20.973  1.00  0.00     0.163 HD
HETATM   18  C22 UNL     1      -5.227 -16.287 -22.345  1.00  0.00     0.241 C 
HETATM   19  O9  UNL     1      -5.472 -15.315 -21.518  1.00  0.00    -0.271 OA
ENDROOT
BRANCH   1  20
HETATM   20  C6  UNL     1      -5.384 -15.205 -24.500  1.00  0.00     0.035 C 
BRANCH  20  21
HETATM   21  C5  UNL     1      -6.284 -14.665 -25.543  1.00  0.00     0.002 C 
BRANCH  21  22
HETATM   22  C4  UNL     1      -7.639 -14.315 -24.912  1.00  0.00     0.000 C 
BRANCH  22  23
HETATM   23  C3  UNL     1      -7.677 -12.908 -24.389  1.00  0.00    -0.000 C 
BRANCH  23  24
HETATM   24  C2  UNL     1      -7.740 -12.910 -22.858  1.00  0.00    -0.005 C 
HETATM   25  C1  UNL     1      -8.711 -13.964 -22.370  1.00  0.00     0.005 C 
ENDBRANCH  23  24
ENDBRANCH  22  23
ENDBRANCH  21  22
ENDBRANCH  20  21
ENDBRANCH   1  20
BRANCH   4  26
HETATM   26  O1  UNL     1      -7.563 -18.460 -25.796  1.00  0.00    -0.348 OA
ATOM     27  H1  UNL     1      -8.420 -18.842 -25.940  1.00  0.00     0.219 HD
ENDBRANCH   4  26
BRANCH   5  28
HETATM   28  C10 UNL     1      -8.611 -18.314 -22.465  1.00  0.00     0.034 C 
BRANCH  28  29
HETATM   29  C11 UNL     1     -10.005 -18.738 -22.114  1.00  0.00     0.004 C 
BRANCH  29  30
HETATM   30  C12 UNL     1     -10.008 -19.764 -21.000  1.00  0.00     0.026 C 
BRANCH  30  31
HETATM   31  C13 UNL     1     -10.741 -21.026 -21.429  1.00  0.00     0.164 C 
BRANCH  31  32
HETATM   32  O2  UNL     1      -9.857 -21.839 -22.129  1.00  0.00    -0.401 OA
ATOM     33  H2  UNL     1      -9.972 -21.685 -23.059  1.00  0.00     0.209 HD
ENDBRANCH  31  32
ENDBRANCH  30  31
ENDBRANCH  29  30
ENDBRANCH  28  29
ENDBRANCH   5  28
BRANCH  15  34
HETATM   34  C19 UNL     1      -1.980 -17.893 -22.043  1.00  0.00     0.203 C 
BRANCH  34  35
HETATM   35  O6  UNL     1      -1.313 -16.769 -22.415  1.00  0.00    -0.378 OA
BRANCH  35  36
HETATM   36  C20 UNL     1      -0.015 -17.045 -22.765  1.00  0.00     0.280 C 
BRANCH  36  37
HETATM   37  C21 UNL     1       1.021 -16.355 -21.991  1.00  0.00     0.197 C 
HETATM   38  O7  UNL     1       0.944 -15.098 -21.751  1.00  0.00    -0.646 OA
HETATM   39  O8  UNL     1       2.138 -16.970 -21.460  1.00  0.00    -0.646 OA
ENDBRANCH  36  37
ENDBRANCH  35  36
ENDBRANCH  34  35
ENDBRANCH  15  34
BRANCH  10  40
HETATM   40  C16 UNL     1      -5.554 -20.723 -19.954  1.00  0.00     0.263 C 
HETATM   41  N3  UNL     1      -4.824 -21.916 -19.701  1.00  0.00    -0.060 NA
HETATM   42  O4  UNL     1      -6.184 -20.166 -19.035  1.00  0.00    -0.274 OA
ENDBRANCH  10  40
TORSDOF 16
ENDMDL
MODEL 4
REMARK VINA RESULT: -8.258336186     11.008     14.109
REMARK  16 active torsions:
REMARK  status: ('A' for Active; 'I' for Inactive)
REMARK    1  A    between atoms: C2_2  and  C3_3 
REMARK    2  A    between atoms: C3_3  and  C4_4 
REMARK    3  A    between atoms: C4_4  and  C5_5 
REMARK    4  A    between atoms: C5_5  and  C6_6 
REMARK    5  A    between atoms: C6_6  and  C7_7 
REMARK    6  A    between atoms: C8_10  and  O1_11 
REMARK    7  A    between atoms: C9_13  and  C10_14 
REMARK    8  A    between atoms: C10_14  and  C11_15 
REMARK    9  A    between atoms: C11_15  and  C12_16 
REMARK   10  A    between atoms: C12_16  and  C13_17 
REMARK   11  A    between atoms: C13_17  and  O2_18 
REMARK   12  A    between atoms: C15_24  and  C16_25 
REMARK   13  A    between atoms: C18_32  and  C19_33 
REMARK   14  A    between atoms: C19_33  and  O6_34 
REMARK   15  A    between atoms: O6_34  and  C20_35 
REMARK   16  A    between atoms: C20_35  and  C21_36 
ROOT
HETATM    1  C7  UNL     1      -6.267 -16.314 -23.654  1.00  0.00     0.175 C 
HETATM    2  N1  UNL     1      -6.295 -17.553 -24.388  1.00  0.00    -0.359 N 
ATOM      3  H1  UNL     1      -5.408 -17.798 -24.829  1.00  0.00     0.162 HD
HETATM    4  C8  UNL     1      -7.313 -18.477 -24.604  1.00  0.00     0.135 C 
HETATM    5  C9  UNL     1      -8.070 -19.287 -23.603  1.00  0.00     0.159 C 
HETATM    6  N2  UNL     1      -7.312 -20.457 -23.273  1.00  0.00    -0.347 N 
ATOM      7  H2  UNL     1      -7.296 -21.148 -24.022  1.00  0.00     0.163 HD
HETATM    8  C14 UNL     1      -6.598 -20.849 -22.156  1.00  0.00     0.250 C 
HETATM    9  O3  UNL     1      -6.816 -22.041 -21.729  1.00  0.00    -0.271 OA
HETATM   10  C15 UNL     1      -5.598 -20.102 -21.355  1.00  0.00     0.266 C 
HETATM   11  N4  UNL     1      -4.266 -20.195 -21.918  1.00  0.00    -0.339 N 
ATOM     12  H4  UNL     1      -3.691 -20.963 -21.574  1.00  0.00     0.163 HD
HETATM   13  C17 UNL     1      -3.668 -19.367 -22.873  1.00  0.00     0.243 C 
HETATM   14  O5  UNL     1      -3.209 -19.914 -23.948  1.00  0.00    -0.271 OA
HETATM   15  C18 UNL     1      -3.479 -17.897 -22.826  1.00  0.00     0.200 C 
HETATM   16  N5  UNL     1      -4.417 -17.175 -22.052  1.00  0.00    -0.344 N 
ATOM     17  H5  UNL     1      -4.331 -17.312 -21.045  1.00  0.00     0.163 HD
HETATM   18  C22 UNL     1      -5.447 -16.299 -22.438  1.00  0.00     0.241 C 
HETATM   19  O9  UNL     1      -5.749 -15.328 -21.629  1.00  0.00    -0.271 OA
ENDROOT
BRANCH   1  20
HETATM   20  C6  UNL     1      -5.660 -15.265 -24.612  1.00  0.00     0.035 C 
BRANCH  20  21
HETATM   21  C5  UNL     1      -6.504 -14.952 -25.785  1.00  0.00     0.002 C 
BRANCH  21  22
HETATM   22  C4  UNL     1      -7.924 -14.608 -25.312  1.00  0.00     0.000 C 
BRANCH  22  23
HETATM   23  C3  UNL     1      -8.978 -15.336 -26.096  1.00  0.00    -0.000 C 
BRANCH  23  24
HETATM   24  C2  UNL     1      -9.990 -15.990 -25.149  1.00  0.00    -0.005 C 
HETATM   25  C1  UNL     1     -10.767 -17.070 -25.870  1.00  0.00     0.005 C 
ENDBRANCH  23  24
ENDBRANCH  22  23
ENDBRANCH  21  22
ENDBRANCH  20  21
ENDBRANCH   1  20
BRANCH   4  26
HETATM   26  O1  UNL     1      -7.648 -18.660 -25.853  1.00  0.00    -0.348 OA
ATOM     27  H1  UNL     1      -7.444 -19.518 -26.208  1.00  0.00     0.219 HD
ENDBRANCH   4  26
BRANCH   5  28
HETATM   28  C10 UNL     1      -8.711 -18.516 -22.528  1.00  0.00     0.034 C 
BRANCH  28  29
HETATM   29  C11 UNL     1     -10.201 -18.673 -22.486  1.00  0.00     0.004 C 
BRANCH  29  30
HETATM   30  C12 UNL     1     -10.633 -20.010 -23.049  1.00  0.00     0.026 C 
BRANCH  30  31
HETATM   31  C13 UNL     1     -10.669 -21.070 -21.958  1.00  0.00     0.164 C 
BRANCH  31  32
HETATM   32  O2  UNL     1      -9.852 -22.129 -22.338  1.00  0.00    -0.401 OA
ATOM     33  H2  UNL     1      -9.582 -22.601 -21.559  1.00  0.00     0.209 HD
ENDBRANCH  31  32
ENDBRANCH  30  31
ENDBRANCH  29  30
ENDBRANCH  28  29
ENDBRANCH   5  28
BRANCH  15  34
HETATM   34  C19 UNL     1      -2.116 -17.713 -22.103  1.00  0.00     0.203 C 
BRANCH  34  35
HETATM   35  O6  UNL     1      -1.740 -16.407 -22.103  1.00  0.00    -0.378 OA
BRANCH  35  36
HETATM   36  C20 UNL     1      -0.597 -16.211 -22.837  1.00  0.00     0.280 C 
BRANCH  36  37
HETATM   37  C21 UNL     1       0.633 -16.001 -22.069  1.00  0.00     0.197 C 
HETATM   38  O7  UNL     1       0.974 -14.831 -21.668  1.00  0.00    -0.646 OA
HETATM   39  O8  UNL     1       1.512 -17.005 -21.712  1.00  0.00    -0.646 OA
ENDBRANCH  36  37
ENDBRANCH  35  36
ENDBRANCH  34  35
ENDBRANCH  15  34
BRANCH  10  40
HETATM   40  C16 UNL     1      -5.529 -20.703 -19.969  1.00  0.00     0.263 C 
HETATM   41  N3  UNL     1      -4.773 -21.877 -19.705  1.00  0.00    -0.060 NA
HETATM   42  O4  UNL     1      -6.157 -20.141 -19.052  1.00  0.00    -0.274 OA
ENDBRANCH  10  40
TORSDOF 16
ENDMDL
MODEL 5
REMARK VINA RESULT: -8.251373042      2.841      6.071
REMARK  16 active torsions:
REMARK  status: ('A' for Active; 'I' for Inactive)
REMARK    1  A    between atoms: C2_2  and  C3_3 
REMARK    2  A    between atoms: C3_3  and  C4_4 
REMARK    3  A    between atoms: C4_4  and  C5_5 
REMARK    4  A    between atoms: C5_5  and  C6_6 
REMARK    5  A    between atoms: C6_6  and  C7_7 
REMARK    6  A    between atoms: C8_10  and  O1_11 
REMARK    7  A    between atoms: C9_13  and  C10_14 
REMARK    8  A    between atoms: C10_14  and  C11_15 
REMARK    9  A    between atoms: C11_15  and  C12_16 
REMARK   10  A    between atoms: C12_16  and  C13_17 
REMARK   11  A    between atoms: C13_17  and  O2_18 
REMARK   12  A    between atoms: C15_24  and  C16_25 
REMARK   13  A    between atoms: C18_32  and  C19_33 
REMARK   14  A    between atoms: C19_33  and  O6_34 
REMARK   15  A    between atoms: O6_34  and  C20_35 
REMARK   16  A    between atoms: C20_35  and  C21_36 
ROOT
HETATM    1  C7  UNL     1       3.574 -15.718 -22.524  1.00  0.00     0.175 C 
HETATM    2  N1  UNL     1       4.667 -16.408 -23.159  1.00  0.00    -0.359 N 
ATOM      3  H1  UNL     1       4.575 -16.495 -24.171  1.00  0.00     0.162 HD
HETATM    4  C8  UNL     1       5.826 -16.978 -22.642  1.00  0.00     0.135 C 
HETATM    5  C9  UNL     1       6.941 -16.320 -21.896  1.00  0.00     0.159 C 
HETATM    6  N2  UNL     1       7.852 -15.733 -22.833  1.00  0.00    -0.347 N 
ATOM      7  H2  UNL     1       8.413 -16.424 -23.332  1.00  0.00     0.163 HD
HETATM    8  C14 UNL     1       8.135 -14.431 -23.204  1.00  0.00     0.250 C 
HETATM    9  O3  UNL     1       9.379 -14.111 -23.257  1.00  0.00    -0.271 OA
HETATM   10  C15 UNL     1       7.217 -13.323 -23.561  1.00  0.00     0.266 C 
HETATM   11  N4  UNL     1       6.830 -13.362 -24.957  1.00  0.00    -0.339 N 
ATOM     12  H4  UNL     1       7.420 -12.829 -25.596  1.00  0.00     0.163 HD
HETATM   13  C17 UNL     1       5.753 -14.035 -25.541  1.00  0.00     0.243 C 
HETATM   14  O5  UNL     1       6.002 -14.867 -26.496  1.00  0.00    -0.271 OA
HETATM   15  C18 UNL     1       4.312 -13.926 -25.209  1.00  0.00     0.200 C 
HETATM   16  N5  UNL     1       4.008 -13.549 -23.880  1.00  0.00    -0.344 N 
ATOM     17  H5  UNL     1       4.230 -12.580 -23.652  1.00  0.00     0.163 HD
HETATM   18  C22 UNL     1       3.452 -14.286 -22.819  1.00  0.00     0.241 C 
HETATM   19  O9  UNL     1       2.722 -13.645 -21.956  1.00  0.00    -0.271 OA
ENDROOT
BRANCH   1  20
HETATM   20  C6  UNL     1       2.285 -16.391 -23.044  1.00  0.00     0.035 C 
BRANCH  20  21
HETATM   21  C5  UNL     1       1.239 -16.579 -22.015  1.00  0.00     0.002 C 
BRANCH  21  22
HETATM   22  C4  UNL     1      -0.144 -16.461 -22.669  1.00  0.00     0.000 C 
BRANCH  22  23
HETATM   23  C3  UNL     1      -0.668 -17.787 -23.138  1.00  0.00    -0.000 C 
BRANCH  23  24
HETATM   24  C2  UNL     1      -2.196 -17.827 -23.027  1.00  0.00    -0.005 C 
HETATM   25  C1  UNL     1      -2.614 -18.208 -21.623  1.00  0.00     0.005 C 
ENDBRANCH  23  24
ENDBRANCH  22  23
ENDBRANCH  21  22
ENDBRANCH  20  21
ENDBRANCH   1  20
BRANCH   4  26
HETATM   26  O1  UNL     1       5.955 -18.263 -22.839  1.00  0.00    -0.348 OA
ATOM     27  H1  UNL     1       5.928 -18.541 -23.747  1.00  0.00     0.219 HD
ENDBRANCH   4  26
BRANCH   5  28
HETATM   28  C10 UNL     1       6.536 -15.554 -20.709  1.00  0.00     0.034 C 
BRANCH  28  29
HETATM   29  C11 UNL     1       5.820 -16.379 -19.681  1.00  0.00     0.004 C 
BRANCH  29  30
HETATM   30  C12 UNL     1       5.281 -15.518 -18.558  1.00  0.00     0.026 C 
BRANCH  30  31
HETATM   31  C13 UNL     1       3.936 -14.917 -18.935  1.00  0.00     0.164 C 
BRANCH  31  32
HETATM   32  O2  UNL     1       4.093 -13.548 -19.114  1.00  0.00    -0.401 OA
ATOM     33  H2  UNL     1       4.158 -13.367 -20.044  1.00  0.00     0.209 HD
ENDBRANCH  31  32
ENDBRANCH  30  31
ENDBRANCH  29  30
ENDBRANCH  28  29
ENDBRANCH   5  28
BRANCH  15  34
HETATM   34  C19 UNL     1       3.805 -12.756 -26.097  1.00  0.00     0.203 C 
BRANCH  34  35
HETATM   35  O6  UNL     1       3.018 -13.218 -27.104  1.00  0.00    -0.378 OA
BRANCH  35  36
HETATM   36  C20 UNL     1       3.389 -12.695 -28.316  1.00  0.00     0.280 C 
BRANCH  36  37
HETATM   37  C21 UNL     1       4.501 -13.368 -28.994  1.00  0.00     0.197 C 
HETATM   38  O7  UNL     1       4.386 -14.571 -29.424  1.00  0.00    -0.646 OA
HETATM   39  O8  UNL     1       5.734 -12.793 -29.232  1.00  0.00    -0.646 OA
ENDBRANCH  36  37
ENDBRANCH  35  36
ENDBRANCH  34  35
ENDBRANCH  15  34
BRANCH  10  40
HETATM   40  C16 UNL     1       7.927 -12.006 -23.341  1.00  0.00     0.263 C 
HETATM   41  N3  UNL     1       8.501 -11.282 -24.420  1.00  0.00    -0.060 NA
HETATM   42  O4  UNL     1       7.999 -11.564 -22.179  1.00  0.00    -0.274 OA
ENDBRANCH  10  40
TORSDOF 16
ENDMDL
