MODEL 1
REMARK VINA RESULT: -7.280877826      0.000      0.000
REMARK  6 active torsions:
REMARK  status: ('A' for Active; 'I' for Inactive)
REMARK    1  A    between atoms: C2_2  and  C3_3 
REMARK    2  A    between atoms: C3_3  and  N1_6 
REMARK    3  A    between atoms: C6_7  and  O1_8 
REMARK    4  A    between atoms: C7_10  and  N2_11 
REMARK       I    between atoms: N3_13  and  C8_15 
REMARK    5  A    between atoms: C8_15  and  C9_17 
REMARK    6  A    between atoms: N4_23  and  C14_24 
ROOT
HETATM    1  N1  UNL     1       3.534  19.705  24.537  1.00  0.00    -0.292 N 
HETATM    2  C6  UNL     1       4.472  18.841  24.082  1.00  0.00     0.192 A 
HETATM    3  C7  UNL     1       3.824  17.778  23.486  1.00  0.00     0.178 A 
HETATM    4  N4  UNL     1       2.483  18.004  23.581  1.00  0.00    -0.282 N 
HETATM    5  C17 UNL     1       2.347  19.172  24.219  1.00  0.00     0.186 A 
HETATM    6  S1  UNL     1       0.875  19.823  24.544  1.00  0.00    -0.040 SA
ENDROOT
BRANCH   3   7
HETATM    7  N2  UNL     1       4.485  16.679  22.897  1.00  0.00    -0.279 N 
HETATM    8  N3  UNL     1       5.571  16.282  23.366  1.00  0.00    -0.262 N 
HETATM    9  C8  UNL     1       6.345  15.209  22.893  1.00  0.00     0.294 C 
ATOM     10  H3  UNL     1       5.935  16.788  24.173  1.00  0.00     0.190 HD
HETATM   11  O2  UNL     1       7.413  15.477  22.286  1.00  0.00    -0.264 OA
ATOM     12  H2  UNL     1       4.075  16.209  22.089  1.00  0.00     0.189 HD
BRANCH   9  13
HETATM   13  C9  UNL     1       5.925  13.845  23.100  1.00  0.00     0.150 A 
HETATM   14  O3  UNL     1       4.966  13.441  23.899  1.00  0.00    -0.317 OA
HETATM   15  C10 UNL     1       4.825  12.152  23.869  1.00  0.00     0.143 A 
HETATM   16  C11 UNL     1       5.748  11.656  22.994  1.00  0.00     0.034 A 
HETATM   17  C12 UNL     1       6.464  12.714  22.488  1.00  0.00    -0.021 A 
HETATM   18  C13 UNL     1       7.554  12.622  21.514  1.00  0.00     0.051 C 
ENDBRANCH   9  13
ENDBRANCH   3   7
BRANCH   2  19
HETATM   19  O1  UNL     1       5.849  18.981  24.188  1.00  0.00    -0.343 OA
ATOM     20  H1  UNL     1       6.362  19.741  23.940  1.00  0.00     0.219 HD
ENDBRANCH   2  19
BRANCH   4  21
HETATM   21  C14 UNL     1       1.520  17.082  23.055  1.00  0.00     0.111 C 
HETATM   22  C15 UNL     1       0.565  16.633  24.156  1.00  0.00     0.056 C 
HETATM   23  C16 UNL     1       0.709  17.598  21.923  1.00  0.00     0.056 C 
HETATM   24 CL1  UNL     1       2.330  15.580  22.485  1.00  0.00    -0.096 Cl
ENDBRANCH   4  21
BRANCH   1  25
HETATM   25  C3  UNL     1       3.763  20.965  25.232  1.00  0.00     0.034 C 
HETATM   26  C4  UNL     1       4.459  21.951  24.352  1.00  0.00     0.039 C 
HETATM   27  C5  UNL     1       2.468  21.595  25.699  1.00  0.00     0.039 C 
BRANCH  25  28
HETATM   28  C2  UNL     1       4.601  20.667  26.461  1.00  0.00     0.026 C 
HETATM   29  C1  UNL     1       3.792  20.013  27.548  1.00  0.00     0.007 C 
ENDBRANCH  25  28
ENDBRANCH   1  25
TORSDOF 6
ENDMDL
MODEL 2
REMARK VINA RESULT: -7.272678149      0.459      1.266
REMARK  6 active torsions:
REMARK  status: ('A' for Active; 'I' for Inactive)
REMARK    1  A    between atoms: C2_2  and  C3_3 
REMARK    2  A    between atoms: C3_3  and  N1_6 
REMARK    3  A    between atoms: C6_7  and  O1_8 
REMARK    4  A    between atoms: C7_10  and  N2_11 
REMARK       I    between atoms: N3_13  and  C8_15 
REMARK    5  A    between atoms: C8_15  and  C9_17 
REMARK    6  A    between atoms: N4_23  and  C14_24 
ROOT
HETATM    1  N1  UNL     1       3.573  19.710  24.530  1.00  0.00    -0.292 N 
HETATM    2  C6  UNL     1       4.503  18.837  24.075  1.00  0.00     0.192 A 
HETATM    3  C7  UNL     1       3.846  17.777  23.485  1.00  0.00     0.178 A 
HETATM    4  N4  UNL     1       2.507  18.013  23.583  1.00  0.00    -0.282 N 
HETATM    5  C17 UNL     1       2.381  19.184  24.218  1.00  0.00     0.186 A 
HETATM    6  S1  UNL     1       0.915  19.847  24.545  1.00  0.00    -0.040 SA
ENDROOT
BRANCH   3   7
HETATM    7  N2  UNL     1       4.497  16.671  22.897  1.00  0.00    -0.279 N 
HETATM    8  N3  UNL     1       5.586  16.274  23.359  1.00  0.00    -0.262 N 
HETATM    9  C8  UNL     1       6.351  15.194  22.886  1.00  0.00     0.294 C 
ATOM     10  H3  UNL     1       5.958  16.784  24.160  1.00  0.00     0.190 HD
HETATM   11  O2  UNL     1       7.415  15.454  22.268  1.00  0.00    -0.264 OA
ATOM     12  H2  UNL     1       4.078  16.198  22.096  1.00  0.00     0.189 HD
BRANCH   9  13
HETATM   13  C9  UNL     1       5.928  13.834  23.106  1.00  0.00     0.150 A 
HETATM   14  O3  UNL     1       4.961  13.440  23.902  1.00  0.00    -0.317 OA
HETATM   15  C10 UNL     1       4.819  12.151  23.886  1.00  0.00     0.143 A 
HETATM   16  C11 UNL     1       5.748  11.643  23.025  1.00  0.00     0.034 A 
HETATM   17  C12 UNL     1       6.470  12.695  22.512  1.00  0.00    -0.021 A 
HETATM   18  C13 UNL     1       7.568  12.589  21.548  1.00  0.00     0.051 C 
ENDBRANCH   9  13
ENDBRANCH   3   7
BRANCH   2  19
HETATM   19  O1  UNL     1       5.882  18.967  24.177  1.00  0.00    -0.343 OA
ATOM     20  H1  UNL     1       6.464  19.355  23.534  1.00  0.00     0.219 HD
ENDBRANCH   2  19
BRANCH   4  21
HETATM   21  C14 UNL     1       1.535  17.097  23.062  1.00  0.00     0.111 C 
HETATM   22  C15 UNL     1       0.587  16.650  24.169  1.00  0.00     0.056 C 
HETATM   23  C16 UNL     1       0.718  17.619  21.938  1.00  0.00     0.056 C 
HETATM   24 CL1  UNL     1       2.335  15.593  22.482  1.00  0.00    -0.096 Cl
ENDBRANCH   4  21
BRANCH   1  25
HETATM   25  C3  UNL     1       3.813  20.970  25.221  1.00  0.00     0.034 C 
HETATM   26  C4  UNL     1       2.664  21.335  26.101  1.00  0.00     0.039 C 
HETATM   27  C5  UNL     1       5.057  20.911  26.084  1.00  0.00     0.039 C 
BRANCH  25  28
HETATM   28  C2  UNL     1       4.034  22.038  24.166  1.00  0.00     0.026 C 
HETATM   29  C1  UNL     1       5.372  22.709  24.317  1.00  0.00     0.007 C 
ENDBRANCH  25  28
ENDBRANCH   1  25
TORSDOF 6
ENDMDL
MODEL 3
REMARK VINA RESULT: -6.722478379      2.474      3.262
REMARK  6 active torsions:
REMARK  status: ('A' for Active; 'I' for Inactive)
REMARK    1  A    between atoms: C2_2  and  C3_3 
REMARK    2  A    between atoms: C3_3  and  N1_6 
REMARK    3  A    between atoms: C6_7  and  O1_8 
REMARK    4  A    between atoms: C7_10  and  N2_11 
REMARK       I    between atoms: N3_13  and  C8_15 
REMARK    5  A    between atoms: C8_15  and  C9_17 
REMARK    6  A    between atoms: N4_23  and  C14_24 
ROOT
HETATM    1  N1  UNL     1       1.660  18.800  27.322  1.00  0.00    -0.292 N 
HETATM    2  C6  UNL     1       2.479  17.975  26.627  1.00  0.00     0.192 A 
HETATM    3  C7  UNL     1       2.350  18.273  25.286  1.00  0.00     0.178 A 
HETATM    4  N4  UNL     1       1.447  19.286  25.171  1.00  0.00    -0.282 N 
HETATM    5  C17 UNL     1       1.053  19.577  26.416  1.00  0.00     0.186 A 
HETATM    6  S1  UNL     1      -0.045  20.756  26.731  1.00  0.00    -0.040 SA
ENDROOT
BRANCH   3   7
HETATM    7  N2  UNL     1       3.057  17.611  24.258  1.00  0.00    -0.279 N 
HETATM    8  N3  UNL     1       4.293  17.467  24.346  1.00  0.00    -0.262 N 
HETATM    9  C8  UNL     1       5.131  16.835  23.411  1.00  0.00     0.294 C 
ATOM     10  H3  UNL     1       4.741  17.847  25.180  1.00  0.00     0.190 HD
HETATM   11  O2  UNL     1       5.887  17.561  22.716  1.00  0.00    -0.264 OA
ATOM     12  H2  UNL     1       2.556  17.250  23.445  1.00  0.00     0.189 HD
BRANCH   9  13
HETATM   13  C9  UNL     1       5.122  15.402  23.259  1.00  0.00     0.150 A 
HETATM   14  O3  UNL     1       4.109  14.602  23.494  1.00  0.00    -0.317 OA
HETATM   15  C10 UNL     1       4.411  13.361  23.264  1.00  0.00     0.143 A 
HETATM   16  C11 UNL     1       5.710  13.323  22.848  1.00  0.00     0.034 A 
HETATM   17  C12 UNL     1       6.190  14.612  22.834  1.00  0.00    -0.021 A 
HETATM   18  C13 UNL     1       7.543  15.017  22.448  1.00  0.00     0.051 C 
ENDBRANCH   9  13
ENDBRANCH   3   7
BRANCH   2  19
HETATM   19  O1  UNL     1       3.309  16.995  27.153  1.00  0.00    -0.343 OA
ATOM     20  H1  UNL     1       4.215  17.102  27.420  1.00  0.00     0.219 HD
ENDBRANCH   2  19
BRANCH   4  21
HETATM   21  C14 UNL     1       1.083  19.837  23.898  1.00  0.00     0.111 C 
HETATM   22  C15 UNL     1       0.180  18.867  23.144  1.00  0.00     0.056 C 
HETATM   23  C16 UNL     1       0.400  21.154  23.955  1.00  0.00     0.056 C 
HETATM   24 CL1  UNL     1       2.539  20.039  22.859  1.00  0.00    -0.096 Cl
ENDBRANCH   4  21
BRANCH   1  25
HETATM   25  C3  UNL     1       1.473  18.839  28.766  1.00  0.00     0.034 C 
HETATM   26  C4  UNL     1       0.317  19.708  29.141  1.00  0.00     0.039 C 
HETATM   27  C5  UNL     1       1.220  17.460  29.340  1.00  0.00     0.039 C 
BRANCH  25  28
HETATM   28  C2  UNL     1       2.755  19.368  29.383  1.00  0.00     0.026 C 
HETATM   29  C1  UNL     1       2.800  20.872  29.383  1.00  0.00     0.007 C 
ENDBRANCH  25  28
ENDBRANCH   1  25
TORSDOF 6
ENDMDL
MODEL 4
REMARK VINA RESULT: -6.670213555      2.107      6.772
REMARK  6 active torsions:
REMARK  status: ('A' for Active; 'I' for Inactive)
REMARK    1  A    between atoms: C2_2  and  C3_3 
REMARK    2  A    between atoms: C3_3  and  N1_6 
REMARK    3  A    between atoms: C6_7  and  O1_8 
REMARK    4  A    between atoms: C7_10  and  N2_11 
REMARK       I    between atoms: N3_13  and  C8_15 
REMARK    5  A    between atoms: C8_15  and  C9_17 
REMARK    6  A    between atoms: N4_23  and  C14_24 
ROOT
HETATM    1  N1  UNL     1       4.845  15.650  22.919  1.00  0.00    -0.292 N 
HETATM    2  C6  UNL     1       5.176  16.827  23.502  1.00  0.00     0.192 A 
HETATM    3  C7  UNL     1       4.011  17.510  23.783  1.00  0.00     0.178 A 
HETATM    4  N4  UNL     1       2.967  16.738  23.368  1.00  0.00    -0.282 N 
HETATM    5  C17 UNL     1       3.507  15.627  22.853  1.00  0.00     0.186 A 
HETATM    6  S1  UNL     1       2.589  14.417  22.232  1.00  0.00    -0.040 SA
ENDROOT
BRANCH   3   7
HETATM    7  N2  UNL     1       3.968  18.781  24.395  1.00  0.00    -0.279 N 
HETATM    8  N3  UNL     1       4.844  19.102  25.224  1.00  0.00    -0.262 N 
HETATM    9  C8  UNL     1       4.936  20.323  25.913  1.00  0.00     0.294 C 
ATOM     10  H3  UNL     1       5.565  18.409  25.421  1.00  0.00     0.190 HD
HETATM   11  O2  UNL     1       4.653  20.328  27.139  1.00  0.00    -0.264 OA
ATOM     12  H2  UNL     1       3.222  19.436  24.160  1.00  0.00     0.189 HD
BRANCH   9  13
HETATM   13  C9  UNL     1       5.344  21.528  25.235  1.00  0.00     0.150 A 
HETATM   14  O3  UNL     1       6.524  22.096  25.304  1.00  0.00    -0.317 OA
HETATM   15  C10 UNL     1       6.585  23.171  24.579  1.00  0.00     0.143 A 
HETATM   16  C11 UNL     1       5.367  23.337  23.985  1.00  0.00     0.034 A 
HETATM   17  C12 UNL     1       4.555  22.302  24.384  1.00  0.00    -0.021 A 
HETATM   18  C13 UNL     1       3.162  22.101  23.977  1.00  0.00     0.051 C 
ENDBRANCH   9  13
ENDBRANCH   3   7
BRANCH   2  19
HETATM   19  O1  UNL     1       6.458  17.284  23.775  1.00  0.00    -0.343 OA
ATOM     20  H1  UNL     1       6.766  18.181  23.710  1.00  0.00     0.219 HD
ENDBRANCH   2  19
BRANCH   4  21
HETATM   21  C14 UNL     1       1.605  17.160  23.516  1.00  0.00     0.111 C 
HETATM   22  C15 UNL     1       1.322  18.353  22.608  1.00  0.00     0.056 C 
HETATM   23  C16 UNL     1       0.588  16.115  23.236  1.00  0.00     0.056 C 
HETATM   24 CL1  UNL     1       1.308  17.754  25.189  1.00  0.00    -0.096 Cl
ENDBRANCH   4  21
BRANCH   1  25
HETATM   25  C3  UNL     1       5.756  14.611  22.456  1.00  0.00     0.034 C 
HETATM   26  C4  UNL     1       5.553  14.319  21.006  1.00  0.00     0.039 C 
HETATM   27  C5  UNL     1       7.205  15.006  22.651  1.00  0.00     0.039 C 
BRANCH  25  28
HETATM   28  C2  UNL     1       5.500  13.369  23.289  1.00  0.00     0.026 C 
HETATM   29  C1  UNL     1       5.663  12.109  22.483  1.00  0.00     0.007 C 
ENDBRANCH  25  28
ENDBRANCH   1  25
TORSDOF 6
ENDMDL
MODEL 5
REMARK VINA RESULT: -6.661494945      1.447      2.214
REMARK  6 active torsions:
REMARK  status: ('A' for Active; 'I' for Inactive)
REMARK    1  A    between atoms: C2_2  and  C3_3 
REMARK    2  A    between atoms: C3_3  and  N1_6 
REMARK    3  A    between atoms: C6_7  and  O1_8 
REMARK    4  A    between atoms: C7_10  and  N2_11 
REMARK       I    between atoms: N3_13  and  C8_15 
REMARK    5  A    between atoms: C8_15  and  C9_17 
REMARK    6  A    between atoms: N4_23  and  C14_24 
ROOT
HETATM    1  N1  UNL     1       3.411  20.332  24.362  1.00  0.00    -0.292 N 
HETATM    2  C6  UNL     1       4.119  19.179  24.307  1.00  0.00     0.192 A 
HETATM    3  C7  UNL     1       3.252  18.158  23.977  1.00  0.00     0.178 A 
HETATM    4  N4  UNL     1       2.010  18.700  23.830  1.00  0.00    -0.282 N 
HETATM    5  C17 UNL     1       2.145  20.009  24.070  1.00  0.00     0.186 A 
HETATM    6  S1  UNL     1       0.873  21.045  23.998  1.00  0.00    -0.040 SA
ENDROOT
BRANCH   3   7
HETATM    7  N2  UNL     1       3.639  16.808  23.829  1.00  0.00    -0.279 N 
HETATM    8  N3  UNL     1       3.772  16.321  22.688  1.00  0.00    -0.262 N 
HETATM    9  C8  UNL     1       4.149  15.002  22.380  1.00  0.00     0.294 C 
ATOM     10  H3  UNL     1       3.587  16.941  21.900  1.00  0.00     0.190 HD
HETATM   11  O2  UNL     1       3.264  14.227  21.935  1.00  0.00    -0.264 OA
ATOM     12  H2  UNL     1       3.811  16.234  24.654  1.00  0.00     0.189 HD
BRANCH   9  13
HETATM   13  C9  UNL     1       5.507  14.557  22.569  1.00  0.00     0.150 A 
HETATM   14  O3  UNL     1       6.590  15.174  22.160  1.00  0.00    -0.317 OA
HETATM   15  C10 UNL     1       7.666  14.524  22.482  1.00  0.00     0.143 A 
HETATM   16  C11 UNL     1       7.282  13.396  23.150  1.00  0.00     0.034 A 
HETATM   17  C12 UNL     1       5.909  13.392  23.221  1.00  0.00    -0.021 A 
HETATM   18  C13 UNL     1       5.089  12.358  23.857  1.00  0.00     0.051 C 
ENDBRANCH   9  13
ENDBRANCH   3   7
BRANCH   2  19
HETATM   19  O1  UNL     1       5.480  19.030  24.540  1.00  0.00    -0.343 OA
ATOM     20  H1  UNL     1       5.954  18.210  24.623  1.00  0.00     0.219 HD
ENDBRANCH   2  19
BRANCH   4  21
HETATM   21  C14 UNL     1       0.870  17.902  23.483  1.00  0.00     0.111 C 
HETATM   22  C15 UNL     1       0.688  17.874  21.969  1.00  0.00     0.056 C 
HETATM   23  C16 UNL     1       0.914  16.499  23.968  1.00  0.00     0.056 C 
HETATM   24 CL1  UNL     1      -0.637  18.640  24.131  1.00  0.00    -0.096 Cl
ENDBRANCH   4  21
BRANCH   1  25
HETATM   25  C3  UNL     1       3.920  21.661  24.675  1.00  0.00     0.034 C 
HETATM   26  C4  UNL     1       5.403  21.649  24.842  1.00  0.00     0.039 C 
HETATM   27  C5  UNL     1       3.584  22.663  23.589  1.00  0.00     0.039 C 
BRANCH  25  28
HETATM   28  C2  UNL     1       3.246  22.123  25.954  1.00  0.00     0.026 C 
HETATM   29  C1  UNL     1       3.884  21.521  27.175  1.00  0.00     0.007 C 
ENDBRANCH  25  28
ENDBRANCH   1  25
TORSDOF 6
ENDMDL
