MODEL 1
REMARK VINA RESULT: -8.119687415      0.000      0.000
REMARK  8 active torsions:
REMARK  status: ('A' for Active; 'I' for Inactive)
REMARK    1  A    between atoms: C1_4  and  N2_5 
REMARK    2  A    between atoms: N2_5  and  C2_7 
REMARK    3  A    between atoms: C10_17  and  O2_18 
REMARK    4  A    between atoms: C11_22  and  C12_23 
REMARK    5  A    between atoms: C12_23  and  C13_24 
REMARK    6  A    between atoms: C13_24  and  C14_25 
REMARK    7  A    between atoms: C14_25  and  C15_26 
REMARK    8  A    between atoms: C15_26  and  N5_27 
REMARK       I    between atoms: N5_27  and  C16_29 
ROOT
HETATM    1  C2  UNL     1      -4.752 -25.817   0.177  1.00  0.00     0.113 C 
HETATM    2  C3  UNL     1      -4.163 -24.588   0.716  1.00  0.00     0.130 C 
HETATM    3  C4  UNL     1      -4.830 -23.309   0.570  1.00  0.00     0.222 C 
HETATM    4  O1  UNL     1      -4.702 -22.507   1.583  1.00  0.00    -0.273 OA
HETATM    5  N3  UNL     1      -5.597 -22.758  -0.465  1.00  0.00    -0.340 N 
HETATM    6  C5  UNL     1      -5.321 -21.399  -0.982  1.00  0.00     0.127 C 
HETATM    7  C6  UNL     1      -6.344 -20.415  -0.425  1.00  0.00     0.020 C 
HETATM    8  C7  UNL     1      -7.538 -21.268   0.004  1.00  0.00     0.004 C 
HETATM    9  C8  UNL     1      -7.828 -22.259  -1.064  1.00  0.00     0.034 C 
HETATM   10  C9  UNL     1      -6.728 -23.349  -1.164  1.00  0.00     0.161 C 
HETATM   11  C10 UNL     1      -6.487 -23.570  -2.611  1.00  0.00     0.135 C 
HETATM   12  N4  UNL     1      -5.325 -23.995  -3.260  1.00  0.00    -0.359 N 
ATOM     13  H4  UNL     1      -4.914 -23.308  -3.893  1.00  0.00     0.162 HD
HETATM   14  C11 UNL     1      -4.606 -25.254  -3.181  1.00  0.00     0.175 C 
HETATM   15  C17 UNL     1      -3.378 -25.137  -2.366  1.00  0.00     0.243 C 
HETATM   16  O3  UNL     1      -2.703 -24.064  -2.565  1.00  0.00    -0.271 OA
HETATM   17  N8  UNL     1      -2.882 -26.038  -1.428  1.00  0.00    -0.344 N 
HETATM   18  C18 UNL     1      -1.478 -26.452  -1.205  1.00  0.00     0.126 C 
HETATM   19  C19 UNL     1      -1.446 -26.739   0.255  1.00  0.00     0.022 C 
HETATM   20  C20 UNL     1      -2.783 -27.321   0.559  1.00  0.00     0.029 C 
HETATM   21  C21 UNL     1      -3.701 -26.740  -0.476  1.00  0.00     0.110 C 
ENDROOT
BRANCH  14  22
HETATM   22  C12 UNL     1      -4.118 -25.621  -4.600  1.00  0.00     0.035 C 
BRANCH  22  23
HETATM   23  C13 UNL     1      -5.182 -25.672  -5.621  1.00  0.00     0.004 C 
BRANCH  23  24
HETATM   24  C14 UNL     1      -6.177 -26.785  -5.423  1.00  0.00     0.020 C 
BRANCH  24  25
HETATM   25  C15 UNL     1      -7.542 -26.424  -5.971  1.00  0.00     0.122 C 
BRANCH  25  26
HETATM   26  N5  UNL     1      -8.284 -25.580  -5.086  1.00  0.00    -0.365 N 
HETATM   27  C16 UNL     1      -9.388 -26.047  -4.308  1.00  0.00     0.181 C 
HETATM   28  N6  UNL     1      -9.612 -25.494  -3.178  1.00  0.00    -0.374 N 
HETATM   29  N7  UNL     1     -10.195 -27.101  -4.814  1.00  0.00    -0.064 NA
ATOM     30  H62 UNL     1      -9.033 -24.737  -2.815  1.00  0.00     0.158 HD
ATOM     31  H61 UNL     1     -10.400 -25.828  -2.622  1.00  0.00     0.158 HD
ATOM     32  H5  UNL     1      -8.012 -24.600  -5.006  1.00  0.00     0.162 HD
ENDBRANCH  25  26
ENDBRANCH  24  25
ENDBRANCH  23  24
ENDBRANCH  22  23
ENDBRANCH  14  22
BRANCH  11  33
HETATM   33  O2  UNL     1      -7.524 -23.323  -3.361  1.00  0.00    -0.348 OA
ATOM     34  H2  UNL     1      -7.771 -24.047  -3.925  1.00  0.00     0.219 HD
ENDBRANCH  11  33
BRANCH   1  35
HETATM   35  N2  UNL     1      -5.346 -26.635   1.251  1.00  0.00    -0.379 N 
ATOM     36  H2  UNL     1      -4.856 -27.454   1.608  1.00  0.00     0.160 HD
BRANCH  35  37
HETATM   37  C1  UNL     1      -6.617 -26.260   1.781  1.00  0.00     0.169 C 
HETATM   38  N1  UNL     1      -7.682 -26.940   1.659  1.00  0.00    -0.396 N 
ATOM     39  H12 UNL     1      -7.606 -27.815   1.141  1.00  0.00     0.156 HD
ATOM     40  H11 UNL     1      -8.590 -26.672   2.038  1.00  0.00     0.156 HD
ENDBRANCH  35  37
ENDBRANCH   1  35
TORSDOF 8
ENDMDL
MODEL 2
REMARK VINA RESULT: -7.870545360      3.475      5.575
REMARK  8 active torsions:
REMARK  status: ('A' for Active; 'I' for Inactive)
REMARK    1  A    between atoms: C1_4  and  N2_5 
REMARK    2  A    between atoms: N2_5  and  C2_7 
REMARK    3  A    between atoms: C10_17  and  O2_18 
REMARK    4  A    between atoms: C11_22  and  C12_23 
REMARK    5  A    between atoms: C12_23  and  C13_24 
REMARK    6  A    between atoms: C13_24  and  C14_25 
REMARK    7  A    between atoms: C14_25  and  C15_26 
REMARK    8  A    between atoms: C15_26  and  N5_27 
REMARK       I    between atoms: N5_27  and  C16_29 
ROOT
HETATM    1  C2  UNL     1      -7.547 -24.168  -3.953  1.00  0.00     0.113 C 
HETATM    2  C3  UNL     1      -7.385 -24.911  -2.701  1.00  0.00     0.130 C 
HETATM    3  C4  UNL     1      -6.924 -24.256  -1.492  1.00  0.00     0.222 C 
HETATM    4  O1  UNL     1      -7.467 -24.687  -0.394  1.00  0.00    -0.273 OA
HETATM    5  N3  UNL     1      -5.992 -23.233  -1.271  1.00  0.00    -0.340 N 
HETATM    6  C5  UNL     1      -4.928 -23.374  -0.252  1.00  0.00     0.127 C 
HETATM    7  C6  UNL     1      -5.295 -22.575   0.994  1.00  0.00     0.020 C 
HETATM    8  C7  UNL     1      -6.319 -21.540   0.527  1.00  0.00     0.004 C 
HETATM    9  C8  UNL     1      -5.843 -20.934  -0.743  1.00  0.00     0.034 C 
HETATM   10  C9  UNL     1      -5.901 -21.938  -1.926  1.00  0.00     0.161 C 
HETATM   11  C10 UNL     1      -4.650 -21.744  -2.700  1.00  0.00     0.135 C 
HETATM   12  N4  UNL     1      -3.945 -22.661  -3.485  1.00  0.00    -0.359 N 
ATOM     13  H4  UNL     1      -3.010 -22.884  -3.144  1.00  0.00     0.162 HD
HETATM   14  C11 UNL     1      -4.326 -23.347  -4.706  1.00  0.00     0.175 C 
HETATM   15  C17 UNL     1      -4.682 -24.760  -4.457  1.00  0.00     0.243 C 
HETATM   16  O3  UNL     1      -3.908 -25.370  -3.634  1.00  0.00    -0.271 OA
HETATM   17  N8  UNL     1      -5.736 -25.489  -5.000  1.00  0.00    -0.344 N 
HETATM   18  C18 UNL     1      -5.733 -26.889  -5.481  1.00  0.00     0.126 C 
HETATM   19  C19 UNL     1      -7.126 -27.337  -5.205  1.00  0.00     0.022 C 
HETATM   20  C20 UNL     1      -7.969 -26.134  -5.451  1.00  0.00     0.029 C 
HETATM   21  C21 UNL     1      -7.064 -24.967  -5.182  1.00  0.00     0.110 C 
ENDROOT
BRANCH  14  22
HETATM   22  C12 UNL     1      -3.094 -23.397  -5.637  1.00  0.00     0.035 C 
BRANCH  22  23
HETATM   23  C13 UNL     1      -3.396 -23.745  -7.038  1.00  0.00     0.004 C 
BRANCH  23  24
HETATM   24  C14 UNL     1      -4.570 -23.003  -7.621  1.00  0.00     0.020 C 
BRANCH  24  25
HETATM   25  C15 UNL     1      -4.197 -22.266  -8.890  1.00  0.00     0.122 C 
BRANCH  25  26
HETATM   26  N5  UNL     1      -3.184 -22.942  -9.640  1.00  0.00    -0.365 N 
HETATM   27  C16 UNL     1      -2.617 -22.411 -10.839  1.00  0.00     0.181 C 
HETATM   28  N6  UNL     1      -1.403 -22.699 -11.117  1.00  0.00    -0.374 N 
HETATM   29  N7  UNL     1      -3.414 -21.586 -11.676  1.00  0.00    -0.064 NA
ATOM     30  H62 UNL     1      -0.831 -23.292 -10.516  1.00  0.00     0.158 HD
ATOM     31  H61 UNL     1      -0.998 -22.320 -11.973  1.00  0.00     0.158 HD
ATOM     32  H5  UNL     1      -2.851 -23.846  -9.303  1.00  0.00     0.162 HD
ENDBRANCH  25  26
ENDBRANCH  24  25
ENDBRANCH  23  24
ENDBRANCH  22  23
ENDBRANCH  14  22
BRANCH  11  33
HETATM   33  O2  UNL     1      -4.160 -20.540  -2.617  1.00  0.00    -0.348 OA
ATOM     34  H2  UNL     1      -3.565 -20.417  -1.887  1.00  0.00     0.219 HD
ENDBRANCH  11  33
BRANCH   1  35
HETATM   35  N2  UNL     1      -8.970 -23.894  -4.226  1.00  0.00    -0.379 N 
ATOM     36  H2  UNL     1      -9.427 -24.298  -5.042  1.00  0.00     0.160 HD
BRANCH  35  37
HETATM   37  C1  UNL     1      -9.696 -23.055  -3.328  1.00  0.00     0.169 C 
HETATM   38  N1  UNL     1     -10.626 -23.449  -2.560  1.00  0.00    -0.396 N 
ATOM     39  H12 UNL     1     -10.859 -24.441  -2.599  1.00  0.00     0.156 HD
ATOM     40  H11 UNL     1     -11.145 -22.849  -1.919  1.00  0.00     0.156 HD
ENDBRANCH  35  37
ENDBRANCH   1  35
TORSDOF 8
ENDMDL
MODEL 3
REMARK VINA RESULT: -7.865319611      3.788      5.922
REMARK  8 active torsions:
REMARK  status: ('A' for Active; 'I' for Inactive)
REMARK    1  A    between atoms: C1_4  and  N2_5 
REMARK    2  A    between atoms: N2_5  and  C2_7 
REMARK    3  A    between atoms: C10_17  and  O2_18 
REMARK    4  A    between atoms: C11_22  and  C12_23 
REMARK    5  A    between atoms: C12_23  and  C13_24 
REMARK    6  A    between atoms: C13_24  and  C14_25 
REMARK    7  A    between atoms: C14_25  and  C15_26 
REMARK    8  A    between atoms: C15_26  and  N5_27 
REMARK       I    between atoms: N5_27  and  C16_29 
ROOT
HETATM    1  C2  UNL     1      -7.607 -24.781  -3.225  1.00  0.00     0.113 C 
HETATM    2  C3  UNL     1      -6.906 -25.723  -2.349  1.00  0.00     0.130 C 
HETATM    3  C4  UNL     1      -5.919 -25.265  -1.390  1.00  0.00     0.222 C 
HETATM    4  O1  UNL     1      -5.906 -25.914  -0.266  1.00  0.00    -0.273 OA
HETATM    5  N3  UNL     1      -4.962 -24.243  -1.438  1.00  0.00    -0.340 N 
HETATM    6  C5  UNL     1      -3.551 -24.498  -1.067  1.00  0.00     0.127 C 
HETATM    7  C6  UNL     1      -3.278 -23.955   0.331  1.00  0.00     0.020 C 
HETATM    8  C7  UNL     1      -4.370 -22.916   0.586  1.00  0.00     0.004 C 
HETATM    9  C8  UNL     1      -4.519 -22.069  -0.625  1.00  0.00     0.034 C 
HETATM   10  C9  UNL     1      -5.146 -22.849  -1.810  1.00  0.00     0.161 C 
HETATM   11  C10 UNL     1      -4.389 -22.448  -3.023  1.00  0.00     0.135 C 
HETATM   12  N4  UNL     1      -4.155 -23.169  -4.197  1.00  0.00    -0.359 N 
ATOM     13  H4  UNL     1      -3.175 -23.393  -4.371  1.00  0.00     0.162 HD
HETATM   14  C11 UNL     1      -5.077 -23.650  -5.210  1.00  0.00     0.175 C 
HETATM   15  C17 UNL     1      -5.318 -25.104  -5.089  1.00  0.00     0.243 C 
HETATM   16  O3  UNL     1      -4.270 -25.802  -4.841  1.00  0.00    -0.271 OA
HETATM   17  N8  UNL     1      -6.525 -25.787  -5.211  1.00  0.00    -0.344 N 
HETATM   18  C18 UNL     1      -6.786 -27.077  -5.887  1.00  0.00     0.126 C 
HETATM   19  C19 UNL     1      -7.905 -27.649  -5.090  1.00  0.00     0.022 C 
HETATM   20  C20 UNL     1      -8.731 -26.474  -4.695  1.00  0.00     0.029 C 
HETATM   21  C21 UNL     1      -7.771 -25.321  -4.662  1.00  0.00     0.110 C 
ENDROOT
BRANCH  14  22
HETATM   22  C12 UNL     1      -4.416 -23.462  -6.593  1.00  0.00     0.035 C 
BRANCH  22  23
HETATM   23  C13 UNL     1      -5.362 -23.429  -7.725  1.00  0.00     0.004 C 
BRANCH  23  24
HETATM   24  C14 UNL     1      -4.707 -23.462  -9.081  1.00  0.00     0.020 C 
BRANCH  24  25
HETATM   25  C15 UNL     1      -3.897 -22.210  -9.346  1.00  0.00     0.122 C 
BRANCH  25  26
HETATM   26  N5  UNL     1      -2.767 -22.454 -10.187  1.00  0.00    -0.365 N 
HETATM   27  C16 UNL     1      -2.553 -21.770 -11.423  1.00  0.00     0.181 C 
HETATM   28  N6  UNL     1      -1.351 -21.568 -11.806  1.00  0.00    -0.374 N 
HETATM   29  N7  UNL     1      -3.676 -21.341 -12.180  1.00  0.00    -0.064 NA
ATOM     30  H62 UNL     1      -0.545 -21.877 -11.263  1.00  0.00     0.158 HD
ATOM     31  H61 UNL     1      -1.198 -21.080 -12.689  1.00  0.00     0.158 HD
ATOM     32  H5  UNL     1      -2.081 -23.148  -9.890  1.00  0.00     0.162 HD
ENDBRANCH  25  26
ENDBRANCH  24  25
ENDBRANCH  23  24
ENDBRANCH  22  23
ENDBRANCH  14  22
BRANCH  11  33
HETATM   33  O2  UNL     1      -3.881 -21.251  -2.954  1.00  0.00    -0.348 OA
ATOM     34  H2  UNL     1      -3.486 -20.954  -3.765  1.00  0.00     0.219 HD
ENDBRANCH  11  33
BRANCH   1  35
HETATM   35  N2  UNL     1      -8.986 -24.549  -2.759  1.00  0.00    -0.379 N 
ATOM     36  H2  UNL     1      -9.489 -25.274  -2.249  1.00  0.00     0.160 HD
BRANCH  35  37
HETATM   37  C1  UNL     1      -9.605 -23.292  -3.032  1.00  0.00     0.169 C 
HETATM   38  N1  UNL     1      -9.643 -22.736  -4.171  1.00  0.00    -0.396 N 
ATOM     39  H12 UNL     1      -9.193 -23.237  -4.938  1.00  0.00     0.156 HD
ATOM     40  H11 UNL     1     -10.085 -21.837  -4.367  1.00  0.00     0.156 HD
ENDBRANCH  35  37
ENDBRANCH   1  35
TORSDOF 8
ENDMDL
MODEL 4
REMARK VINA RESULT: -7.718323780      2.601      4.802
REMARK  8 active torsions:
REMARK  status: ('A' for Active; 'I' for Inactive)
REMARK    1  A    between atoms: C1_4  and  N2_5 
REMARK    2  A    between atoms: N2_5  and  C2_7 
REMARK    3  A    between atoms: C10_17  and  O2_18 
REMARK    4  A    between atoms: C11_22  and  C12_23 
REMARK    5  A    between atoms: C12_23  and  C13_24 
REMARK    6  A    between atoms: C13_24  and  C14_25 
REMARK    7  A    between atoms: C14_25  and  C15_26 
REMARK    8  A    between atoms: C15_26  and  N5_27 
REMARK       I    between atoms: N5_27  and  C16_29 
ROOT
HETATM    1  C2  UNL     1      -7.521 -24.072  -3.569  1.00  0.00     0.113 C 
HETATM    2  C3  UNL     1      -7.674 -25.025  -2.467  1.00  0.00     0.130 C 
HETATM    3  C4  UNL     1      -7.571 -24.599  -1.085  1.00  0.00     0.222 C 
HETATM    4  O1  UNL     1      -8.373 -25.206  -0.264  1.00  0.00    -0.273 OA
HETATM    5  N3  UNL     1      -6.763 -23.646  -0.450  1.00  0.00    -0.340 N 
HETATM    6  C5  UNL     1      -6.004 -23.982   0.776  1.00  0.00     0.127 C 
HETATM    7  C6  UNL     1      -6.713 -23.406   1.997  1.00  0.00     0.020 C 
HETATM    8  C7  UNL     1      -7.607 -22.288   1.460  1.00  0.00     0.004 C 
HETATM    9  C8  UNL     1      -6.830 -21.478   0.488  1.00  0.00     0.034 C 
HETATM   10  C9  UNL     1      -6.541 -22.258  -0.823  1.00  0.00     0.161 C 
HETATM   11  C10 UNL     1      -5.135 -21.954  -1.189  1.00  0.00     0.135 C 
HETATM   12  N4  UNL     1      -4.220 -22.732  -1.904  1.00  0.00    -0.359 N 
ATOM     13  H4  UNL     1      -3.403 -23.027  -1.370  1.00  0.00     0.162 HD
HETATM   14  C11 UNL     1      -4.241 -23.188  -3.282  1.00  0.00     0.175 C 
HETATM   15  C17 UNL     1      -4.607 -24.617  -3.385  1.00  0.00     0.243 C 
HETATM   16  O3  UNL     1      -4.062 -25.374  -2.503  1.00  0.00    -0.271 OA
HETATM   17  N8  UNL     1      -5.457 -25.221  -4.307  1.00  0.00    -0.344 N 
HETATM   18  C18 UNL     1      -5.284 -26.515  -5.004  1.00  0.00     0.126 C 
HETATM   19  C19 UNL     1      -6.685 -26.981  -5.191  1.00  0.00     0.022 C 
HETATM   20  C20 UNL     1      -7.469 -25.739  -5.442  1.00  0.00     0.029 C 
HETATM   21  C21 UNL     1      -6.704 -24.652  -4.744  1.00  0.00     0.110 C 
ENDROOT
BRANCH  14  22
HETATM   22  C12 UNL     1      -2.805 -23.095  -3.844  1.00  0.00     0.035 C 
BRANCH  22  23
HETATM   23  C13 UNL     1      -2.711 -22.504  -5.193  1.00  0.00     0.004 C 
BRANCH  23  24
HETATM   24  C14 UNL     1      -2.188 -23.445  -6.246  1.00  0.00     0.020 C 
BRANCH  24  25
HETATM   25  C15 UNL     1      -3.309 -24.065  -7.054  1.00  0.00     0.122 C 
BRANCH  25  26
HETATM   26  N5  UNL     1      -4.493 -23.263  -7.055  1.00  0.00    -0.365 N 
HETATM   27  C16 UNL     1      -5.368 -23.167  -8.181  1.00  0.00     0.181 C 
HETATM   28  N6  UNL     1      -6.612 -22.969  -7.969  1.00  0.00    -0.374 N 
HETATM   29  N7  UNL     1      -4.829 -23.294  -9.489  1.00  0.00    -0.064 NA
ATOM     30  H62 UNL     1      -6.999 -22.877  -7.030  1.00  0.00     0.158 HD
ATOM     31  H61 UNL     1      -7.237 -22.900  -8.773  1.00  0.00     0.158 HD
ATOM     32  H5  UNL     1      -4.724 -22.736  -6.214  1.00  0.00     0.162 HD
ENDBRANCH  25  26
ENDBRANCH  24  25
ENDBRANCH  23  24
ENDBRANCH  22  23
ENDBRANCH  14  22
BRANCH  11  33
HETATM   33  O2  UNL     1      -4.722 -20.792  -0.772  1.00  0.00    -0.348 OA
ATOM     34  H2  UNL     1      -4.421 -20.219  -1.467  1.00  0.00     0.219 HD
ENDBRANCH  11  33
BRANCH   1  35
HETATM   35  N2  UNL     1      -8.827 -23.731  -4.160  1.00  0.00    -0.379 N 
ATOM     36  H2  UNL     1      -9.071 -24.050  -5.097  1.00  0.00     0.160 HD
BRANCH  35  37
HETATM   37  C1  UNL     1      -9.745 -22.946  -3.400  1.00  0.00     0.169 C 
HETATM   38  N1  UNL     1     -10.690 -23.416  -2.696  1.00  0.00    -0.396 N 
ATOM     39  H12 UNL     1     -10.787 -24.432  -2.683  1.00  0.00     0.156 HD
ATOM     40  H11 UNL     1     -11.347 -22.855  -2.152  1.00  0.00     0.156 HD
ENDBRANCH  35  37
ENDBRANCH   1  35
TORSDOF 8
ENDMDL
MODEL 5
REMARK VINA RESULT: -7.695670644      2.974      5.195
REMARK  8 active torsions:
REMARK  status: ('A' for Active; 'I' for Inactive)
REMARK    1  A    between atoms: C1_4  and  N2_5 
REMARK    2  A    between atoms: N2_5  and  C2_7 
REMARK    3  A    between atoms: C10_17  and  O2_18 
REMARK    4  A    between atoms: C11_22  and  C12_23 
REMARK    5  A    between atoms: C12_23  and  C13_24 
REMARK    6  A    between atoms: C13_24  and  C14_25 
REMARK    7  A    between atoms: C14_25  and  C15_26 
REMARK    8  A    between atoms: C15_26  and  N5_27 
REMARK       I    between atoms: N5_27  and  C16_29 
ROOT
HETATM    1  C2  UNL     1      -7.461 -24.066  -3.641  1.00  0.00     0.113 C 
HETATM    2  C3  UNL     1      -7.631 -25.002  -2.527  1.00  0.00     0.130 C 
HETATM    3  C4  UNL     1      -7.529 -24.559  -1.150  1.00  0.00     0.222 C 
HETATM    4  O1  UNL     1      -8.342 -25.145  -0.325  1.00  0.00    -0.273 OA
HETATM    5  N3  UNL     1      -6.714 -23.606  -0.524  1.00  0.00    -0.340 N 
HETATM    6  C5  UNL     1      -5.965 -23.933   0.710  1.00  0.00     0.127 C 
HETATM    7  C6  UNL     1      -6.674 -23.333   1.920  1.00  0.00     0.020 C 
HETATM    8  C7  UNL     1      -7.552 -22.212   1.363  1.00  0.00     0.004 C 
HETATM    9  C8  UNL     1      -6.761 -21.425   0.384  1.00  0.00     0.034 C 
HETATM   10  C9  UNL     1      -6.474 -22.226  -0.915  1.00  0.00     0.161 C 
HETATM   11  C10 UNL     1      -5.064 -21.943  -1.278  1.00  0.00     0.135 C 
HETATM   12  N4  UNL     1      -4.154 -22.740  -1.977  1.00  0.00    -0.359 N 
ATOM     13  H4  UNL     1      -3.342 -23.038  -1.434  1.00  0.00     0.162 HD
HETATM   14  C11 UNL     1      -4.173 -23.215  -3.349  1.00  0.00     0.175 C 
HETATM   15  C17 UNL     1      -4.555 -24.641  -3.434  1.00  0.00     0.243 C 
HETATM   16  O3  UNL     1      -4.022 -25.392  -2.539  1.00  0.00    -0.271 OA
HETATM   17  N8  UNL     1      -5.407 -25.248  -4.352  1.00  0.00    -0.344 N 
HETATM   18  C18 UNL     1      -5.245 -26.554  -5.031  1.00  0.00     0.126 C 
HETATM   19  C19 UNL     1      -6.650 -27.006  -5.219  1.00  0.00     0.022 C 
HETATM   20  C20 UNL     1      -7.419 -25.759  -5.490  1.00  0.00     0.029 C 
HETATM   21  C21 UNL     1      -6.645 -24.672  -4.803  1.00  0.00     0.110 C 
ENDROOT
BRANCH  14  22
HETATM   22  C12 UNL     1      -2.733 -23.146  -3.905  1.00  0.00     0.035 C 
BRANCH  22  23
HETATM   23  C13 UNL     1      -2.623 -22.555  -5.252  1.00  0.00     0.004 C 
BRANCH  23  24
HETATM   24  C14 UNL     1      -2.732 -23.551  -6.376  1.00  0.00     0.020 C 
BRANCH  24  25
HETATM   25  C15 UNL     1      -4.022 -23.384  -7.152  1.00  0.00     0.122 C 
BRANCH  25  26
HETATM   26  N5  UNL     1      -3.829 -23.481  -8.566  1.00  0.00    -0.365 N 
HETATM   27  C16 UNL     1      -3.777 -22.340  -9.425  1.00  0.00     0.181 C 
HETATM   28  N6  UNL     1      -3.054 -22.403 -10.477  1.00  0.00    -0.374 N 
HETATM   29  N7  UNL     1      -4.527 -21.182  -9.085  1.00  0.00    -0.064 NA
ATOM     30  H62 UNL     1      -2.516 -23.233 -10.721  1.00  0.00     0.158 HD
ATOM     31  H61 UNL     1      -3.018 -21.588 -11.090  1.00  0.00     0.158 HD
ATOM     32  H5  UNL     1      -3.722 -24.406  -8.980  1.00  0.00     0.162 HD
ENDBRANCH  25  26
ENDBRANCH  24  25
ENDBRANCH  23  24
ENDBRANCH  22  23
ENDBRANCH  14  22
BRANCH  11  33
HETATM   33  O2  UNL     1      -4.639 -20.780  -0.874  1.00  0.00    -0.348 OA
ATOM     34  H2  UNL     1      -4.241 -20.256  -1.560  1.00  0.00     0.219 HD
ENDBRANCH  11  33
BRANCH   1  35
HETATM   35  N2  UNL     1      -8.761 -23.718  -4.243  1.00  0.00    -0.379 N 
ATOM     36  H2  UNL     1      -9.002 -24.046  -5.178  1.00  0.00     0.160 HD
BRANCH  35  37
HETATM   37  C1  UNL     1      -9.674 -22.915  -3.497  1.00  0.00     0.169 C 
HETATM   38  N1  UNL     1     -10.628 -23.366  -2.793  1.00  0.00    -0.396 N 
ATOM     39  H12 UNL     1     -10.736 -24.381  -2.769  1.00  0.00     0.156 HD
ATOM     40  H11 UNL     1     -11.282 -22.792  -2.260  1.00  0.00     0.156 HD
ENDBRANCH  35  37
ENDBRANCH   1  35
TORSDOF 8
ENDMDL
