MODEL 1
REMARK VINA RESULT: -7.555031821      0.000      0.000
REMARK  12 active torsions:
REMARK  status: ('A' for Active; 'I' for Inactive)
REMARK    1  A    between atoms: C6_6  and  C8_8 
REMARK    2  A    between atoms: C8_8  and  C9_9 
REMARK    3  A    between atoms: C9_9  and  C10_10 
REMARK    4  A    between atoms: C10_10  and  O2_12 
REMARK    5  A    between atoms: O2_12  and  C11_13 
REMARK    6  A    between atoms: C11_13  and  C12_14 
REMARK    7  A    between atoms: C12_14  and  C13_15 
REMARK    8  A    between atoms: C16_19  and  C17_20 
REMARK    9  A    between atoms: C19_22  and  C21_24 
REMARK   10  A    between atoms: C29_33  and  O5_34 
REMARK   11  A    between atoms: C32_38  and  O6_39 
REMARK   12  A    between atoms: C33_41  and  O7_42 
ROOT
HETATM    1  C1  UNL     1      27.113   3.436  -6.100  1.00  0.00     0.017 C 
HETATM    2  C2  UNL     1      27.678   2.417  -5.460  1.00  0.00    -0.061 C 
HETATM    3  C3  UNL     1      26.810   1.477  -4.724  1.00  0.00     0.036 C 
HETATM    4  C4  UNL     1      26.869   1.592  -3.223  1.00  0.00     0.005 C 
HETATM    5  C5  UNL     1      26.273   2.909  -2.755  1.00  0.00     0.012 C 
HETATM    6  C6  UNL     1      26.574   3.251  -1.356  1.00  0.00    -0.015 C 
HETATM    7  C7  UNL     1      26.550   1.849  -0.672  1.00  0.00     0.018 C 
HETATM    8  C15 UNL     1      27.853   3.895  -0.975  1.00  0.00     0.165 C 
HETATM    9  O3  UNL     1      28.677   2.995  -0.384  1.00  0.00    -0.349 OA
HETATM   10  C16 UNL     1      29.894   2.675  -0.882  1.00  0.00     0.292 C 
HETATM   11  O4  UNL     1      30.402   3.308  -1.946  1.00  0.00    -0.339 OA
HETATM   12  C24 UNL     1      29.845   4.402  -2.488  1.00  0.00     0.121 C 
HETATM   13  C25 UNL     1      30.906   5.480  -2.438  1.00  0.00    -0.052 C 
HETATM   14  C26 UNL     1      32.120   5.294  -1.962  1.00  0.00     0.017 C 
HETATM   15  C27 UNL     1      30.531   6.797  -2.971  1.00  0.00     0.039 C 
HETATM   16  C28 UNL     1      30.264   6.597  -4.448  1.00  0.00     0.036 C 
HETATM   17  C29 UNL     1      30.424   5.149  -4.854  1.00  0.00     0.126 C 
HETATM   18  C30 UNL     1      29.630   4.201  -3.997  1.00  0.00     0.059 C 
HETATM   19  C31 UNL     1      29.963   2.811  -4.449  1.00  0.00     0.046 C 
HETATM   20  C32 UNL     1      29.121   2.233  -5.520  1.00  0.00     0.146 C 
HETATM   21  C33 UNL     1      28.546   4.865  -1.818  1.00  0.00     0.187 C 
ENDROOT
BRANCH   6  22
HETATM   22  C8  UNL     1      25.337   3.855  -0.711  1.00  0.00     0.021 C 
BRANCH  22  23
HETATM   23  C9  UNL     1      24.898   3.255   0.564  1.00  0.00     0.112 C 
BRANCH  23  24
HETATM   24  C10 UNL     1      25.133   4.336   1.602  1.00  0.00     0.258 C 
HETATM   25  O1  UNL     1      24.178   5.046   1.970  1.00  0.00    -0.265 OA
BRANCH  24  26
HETATM   26  O2  UNL     1      26.363   4.533   2.129  1.00  0.00    -0.321 OA
BRANCH  26  27
HETATM   27  C11 UNL     1      27.278   5.555   2.037  1.00  0.00     0.178 C 
BRANCH  27  28
HETATM   28  C12 UNL     1      28.320   5.689   3.060  1.00  0.00     0.026 C 
BRANCH  28  29
HETATM   29  C13 UNL     1      28.779   7.041   3.388  1.00  0.00    -0.002 C 
HETATM   30  C14 UNL     1      30.339   6.983   3.395  1.00  0.00     0.005 C 
ENDBRANCH  28  29
ENDBRANCH  27  28
ENDBRANCH  26  27
ENDBRANCH  24  26
ENDBRANCH  23  24
ENDBRANCH  22  23
ENDBRANCH   6  22
BRANCH  21  31
HETATM   31  O7  UNL     1      27.811   5.532  -2.779  1.00  0.00    -0.390 OA
ATOM     32  H7  UNL     1      28.083   5.453  -3.685  1.00  0.00     0.210 HD
ENDBRANCH  21  31
BRANCH  10  33
HETATM   33  C17 UNL     1      30.797   2.531   0.284  1.00  0.00    -0.027 C 
HETATM   34  C18 UNL     1      30.627   3.530   1.410  1.00  0.00     0.049 C 
HETATM   35  C19 UNL     1      31.750   1.646   0.442  1.00  0.00    -0.074 C 
HETATM   36  C20 UNL     1      32.600   1.597   1.674  1.00  0.00     0.044 C 
BRANCH  35  37
HETATM   37  C21 UNL     1      32.058   0.660  -0.616  1.00  0.00     0.006 C 
HETATM   38  C22 UNL     1      33.217   1.164  -1.493  1.00  0.00     0.014 C 
HETATM   39  C23 UNL     1      32.526  -0.663  -0.035  1.00  0.00     0.014 C 
ENDBRANCH  35  37
ENDBRANCH  10  33
BRANCH  20  40
HETATM   40  O6  UNL     1      29.437   0.844  -5.552  1.00  0.00    -0.391 OA
ATOM     41  H6  UNL     1      29.886   0.592  -4.754  1.00  0.00     0.210 HD
ENDBRANCH  20  40
BRANCH  17  42
HETATM   42  O5  UNL     1      31.763   4.797  -4.998  1.00  0.00    -0.395 OA
ATOM     43  H5  UNL     1      31.865   3.883  -5.236  1.00  0.00     0.210 HD
ENDBRANCH  17  42
TORSDOF 12
ENDMDL
MODEL 2
REMARK VINA RESULT: -7.314355986      2.206      6.203
REMARK  12 active torsions:
REMARK  status: ('A' for Active; 'I' for Inactive)
REMARK    1  A    between atoms: C6_6  and  C8_8 
REMARK    2  A    between atoms: C8_8  and  C9_9 
REMARK    3  A    between atoms: C9_9  and  C10_10 
REMARK    4  A    between atoms: C10_10  and  O2_12 
REMARK    5  A    between atoms: O2_12  and  C11_13 
REMARK    6  A    between atoms: C11_13  and  C12_14 
REMARK    7  A    between atoms: C12_14  and  C13_15 
REMARK    8  A    between atoms: C16_19  and  C17_20 
REMARK    9  A    between atoms: C19_22  and  C21_24 
REMARK   10  A    between atoms: C29_33  and  O5_34 
REMARK   11  A    between atoms: C32_38  and  O6_39 
REMARK   12  A    between atoms: C33_41  and  O7_42 
ROOT
HETATM    1  C1  UNL     1      29.942   6.662   3.445  1.00  0.00     0.017 C 
HETATM    2  C2  UNL     1      30.249   6.832   2.163  1.00  0.00    -0.061 C 
HETATM    3  C3  UNL     1      29.175   7.212   1.225  1.00  0.00     0.036 C 
HETATM    4  C4  UNL     1      28.727   6.119   0.289  1.00  0.00     0.005 C 
HETATM    5  C5  UNL     1      28.022   5.008   1.047  1.00  0.00     0.012 C 
HETATM    6  C6  UNL     1      27.837   3.766   0.279  1.00  0.00    -0.015 C 
HETATM    7  C7  UNL     1      27.571   4.315  -1.157  1.00  0.00     0.018 C 
HETATM    8  C15 UNL     1      28.920   2.762   0.163  1.00  0.00     0.165 C 
HETATM    9  O3  UNL     1      29.489   2.820  -1.066  1.00  0.00    -0.349 OA
HETATM   10  C16 UNL     1      30.799   3.099  -1.257  1.00  0.00     0.292 C 
HETATM   11  O4  UNL     1      31.641   3.238  -0.227  1.00  0.00    -0.339 OA
HETATM   12  C24 UNL     1      31.310   2.948   1.041  1.00  0.00     0.121 C 
HETATM   13  C25 UNL     1      32.302   1.904   1.505  1.00  0.00    -0.052 C 
HETATM   14  C26 UNL     1      33.284   1.441   0.758  1.00  0.00     0.017 C 
HETATM   15  C27 UNL     1      32.141   1.407   2.878  1.00  0.00     0.039 C 
HETATM   16  C28 UNL     1      32.384   2.592   3.789  1.00  0.00     0.036 C 
HETATM   17  C29 UNL     1      32.658   3.854   3.004  1.00  0.00     0.126 C 
HETATM   18  C30 UNL     1      31.613   4.142   1.960  1.00  0.00     0.059 C 
HETATM   19  C31 UNL     1      32.065   5.355   1.204  1.00  0.00     0.046 C 
HETATM   20  C32 UNL     1      31.626   6.671   1.719  1.00  0.00     0.146 C 
HETATM   21  C33 UNL     1      29.865   2.472   1.238  1.00  0.00     0.187 C 
ENDROOT
BRANCH   6  22
HETATM   22  C8  UNL     1      26.461   3.193   0.577  1.00  0.00     0.021 C 
BRANCH  22  23
HETATM   23  C9  UNL     1      25.504   3.159  -0.546  1.00  0.00     0.112 C 
BRANCH  23  24
HETATM   24  C10 UNL     1      25.605   1.751  -1.099  1.00  0.00     0.258 C 
HETATM   25  O1  UNL     1      25.818   0.803  -0.320  1.00  0.00    -0.265 OA
BRANCH  24  26
HETATM   26  O2  UNL     1      25.466   1.516  -2.424  1.00  0.00    -0.321 OA
BRANCH  26  27
HETATM   27  C11 UNL     1      26.208   1.861  -3.528  1.00  0.00     0.178 C 
BRANCH  27  28
HETATM   28  C12 UNL     1      27.619   1.469  -3.605  1.00  0.00     0.026 C 
BRANCH  28  29
HETATM   29  C13 UNL     1      28.396   1.949  -4.750  1.00  0.00    -0.002 C 
HETATM   30  C14 UNL     1      28.342   3.508  -4.693  1.00  0.00     0.005 C 
ENDBRANCH  28  29
ENDBRANCH  27  28
ENDBRANCH  26  27
ENDBRANCH  24  26
ENDBRANCH  23  24
ENDBRANCH  22  23
ENDBRANCH   6  22
BRANCH  21  31
HETATM   31  O7  UNL     1      29.503   2.804   2.529  1.00  0.00    -0.390 OA
ATOM     32  H7  UNL     1      30.051   2.496   3.241  1.00  0.00     0.210 HD
ENDBRANCH  21  31
BRANCH  10  33
HETATM   33  C17 UNL     1      31.256   2.219  -2.358  1.00  0.00    -0.027 C 
HETATM   34  C18 UNL     1      31.091   0.727  -2.158  1.00  0.00     0.049 C 
HETATM   35  C19 UNL     1      31.814   2.588  -3.486  1.00  0.00    -0.074 C 
HETATM   36  C20 UNL     1      32.234   1.601  -4.530  1.00  0.00     0.044 C 
BRANCH  35  37
HETATM   37  C21 UNL     1      32.091   4.012  -3.770  1.00  0.00     0.006 C 
HETATM   38  C22 UNL     1      33.549   4.353  -3.417  1.00  0.00     0.014 C 
HETATM   39  C23 UNL     1      31.938   4.333  -5.246  1.00  0.00     0.014 C 
ENDBRANCH  35  37
ENDBRANCH  10  33
BRANCH  20  40
HETATM   40  O6  UNL     1      31.921   7.608   0.687  1.00  0.00    -0.391 OA
ATOM     41  H6  UNL     1      32.308   7.163  -0.058  1.00  0.00     0.210 HD
ENDBRANCH  20  40
BRANCH  17  42
HETATM   42  O5  UNL     1      33.964   3.893   2.524  1.00  0.00    -0.395 OA
ATOM     43  H5  UNL     1      34.183   3.110   2.033  1.00  0.00     0.210 HD
ENDBRANCH  17  42
TORSDOF 12
ENDMDL
MODEL 3
REMARK VINA RESULT: -7.175682036      1.963      4.401
REMARK  12 active torsions:
REMARK  status: ('A' for Active; 'I' for Inactive)
REMARK    1  A    between atoms: C6_6  and  C8_8 
REMARK    2  A    between atoms: C8_8  and  C9_9 
REMARK    3  A    between atoms: C9_9  and  C10_10 
REMARK    4  A    between atoms: C10_10  and  O2_12 
REMARK    5  A    between atoms: O2_12  and  C11_13 
REMARK    6  A    between atoms: C11_13  and  C12_14 
REMARK    7  A    between atoms: C12_14  and  C13_15 
REMARK    8  A    between atoms: C16_19  and  C17_20 
REMARK    9  A    between atoms: C19_22  and  C21_24 
REMARK   10  A    between atoms: C29_33  and  O5_34 
REMARK   11  A    between atoms: C32_38  and  O6_39 
REMARK   12  A    between atoms: C33_41  and  O7_42 
ROOT
HETATM    1  C1  UNL     1      24.928   3.881  -1.280  1.00  0.00     0.017 C 
HETATM    2  C2  UNL     1      25.823   3.168  -0.604  1.00  0.00    -0.061 C 
HETATM    3  C3  UNL     1      26.466   3.778   0.577  1.00  0.00     0.036 C 
HETATM    4  C4  UNL     1      27.906   4.176   0.387  1.00  0.00     0.005 C 
HETATM    5  C5  UNL     1      28.026   5.330  -0.593  1.00  0.00     0.012 C 
HETATM    6  C6  UNL     1      29.393   5.575  -1.083  1.00  0.00    -0.015 C 
HETATM    7  C7  UNL     1      30.249   5.248   0.179  1.00  0.00     0.018 C 
HETATM    8  C15 UNL     1      29.962   4.792  -2.205  1.00  0.00     0.165 C 
HETATM    9  O3  UNL     1      30.853   3.881  -1.741  1.00  0.00    -0.349 OA
HETATM   10  C16 UNL     1      30.703   2.548  -1.923  1.00  0.00     0.292 C 
HETATM   11  O4  UNL     1      29.706   2.052  -2.663  1.00  0.00    -0.339 OA
HETATM   12  C24 UNL     1      28.896   2.813  -3.415  1.00  0.00     0.121 C 
HETATM   13  C25 UNL     1      29.033   2.299  -4.831  1.00  0.00    -0.052 C 
HETATM   14  C26 UNL     1      29.800   1.283  -5.173  1.00  0.00     0.017 C 
HETATM   15  C27 UNL     1      28.242   2.987  -5.861  1.00  0.00     0.039 C 
HETATM   16  C28 UNL     1      26.789   2.746  -5.510  1.00  0.00     0.036 C 
HETATM   17  C29 UNL     1      26.646   1.943  -4.237  1.00  0.00     0.126 C 
HETATM   18  C30 UNL     1      27.425   2.517  -3.083  1.00  0.00     0.059 C 
HETATM   19  C31 UNL     1      27.269   1.572  -1.931  1.00  0.00     0.046 C 
HETATM   20  C32 UNL     1      26.128   1.806  -1.018  1.00  0.00     0.146 C 
HETATM   21  C33 UNL     1      29.171   4.320  -3.338  1.00  0.00     0.187 C 
ENDROOT
BRANCH   6  22
HETATM   22  C8  UNL     1      29.637   7.073  -1.159  1.00  0.00     0.021 C 
BRANCH  22  23
HETATM   23  C9  UNL     1      30.506   7.654  -0.117  1.00  0.00     0.112 C 
BRANCH  23  24
HETATM   24  C10 UNL     1      29.795   8.921   0.318  1.00  0.00     0.258 C 
HETATM   25  O1  UNL     1      29.053   9.512  -0.488  1.00  0.00    -0.265 OA
BRANCH  24  26
HETATM   26  O2  UNL     1      29.958   9.411   1.569  1.00  0.00    -0.321 OA
BRANCH  26  27
HETATM   27  C11 UNL     1      29.277   9.236   2.749  1.00  0.00     0.178 C 
BRANCH  27  28
HETATM   28  C12 UNL     1      29.804   8.313   3.760  1.00  0.00     0.026 C 
BRANCH  28  29
HETATM   29  C13 UNL     1      29.779   6.881   3.452  1.00  0.00    -0.002 C 
HETATM   30  C14 UNL     1      28.303   6.540   3.077  1.00  0.00     0.005 C 
ENDBRANCH  28  29
ENDBRANCH  27  28
ENDBRANCH  26  27
ENDBRANCH  24  26
ENDBRANCH  23  24
ENDBRANCH  22  23
ENDBRANCH   6  22
BRANCH  21  31
HETATM   31  O7  UNL     1      27.979   4.963  -3.611  1.00  0.00    -0.390 OA
ATOM     32  H7  UNL     1      27.177   4.582  -3.273  1.00  0.00     0.210 HD
ENDBRANCH  21  31
BRANCH  10  33
HETATM   33  C17 UNL     1      32.055   2.012  -2.204  1.00  0.00    -0.027 C 
HETATM   34  C18 UNL     1      32.631   2.287  -3.578  1.00  0.00     0.049 C 
HETATM   35  C19 UNL     1      32.806   1.298  -1.401  1.00  0.00    -0.074 C 
HETATM   36  C20 UNL     1      34.165   0.812  -1.800  1.00  0.00     0.044 C 
BRANCH  35  37
HETATM   37  C21 UNL     1      32.329   0.906  -0.058  1.00  0.00     0.006 C 
HETATM   38  C22 UNL     1      32.428  -0.619   0.119  1.00  0.00     0.014 C 
HETATM   39  C23 UNL     1      33.186   1.505   1.043  1.00  0.00     0.014 C 
ENDBRANCH  35  37
ENDBRANCH  10  33
BRANCH  20  40
HETATM   40  O6  UNL     1      26.373   0.989   0.124  1.00  0.00    -0.391 OA
ATOM     41  H6  UNL     1      25.729   0.293   0.172  1.00  0.00     0.210 HD
ENDBRANCH  20  40
BRANCH  17  42
HETATM   42  O5  UNL     1      26.870   0.587  -4.452  1.00  0.00    -0.395 OA
ATOM     43  H5  UNL     1      27.608   0.266  -3.947  1.00  0.00     0.210 HD
ENDBRANCH  17  42
TORSDOF 12
ENDMDL
MODEL 4
REMARK VINA RESULT: -7.038359219      1.915      5.645
REMARK  12 active torsions:
REMARK  status: ('A' for Active; 'I' for Inactive)
REMARK    1  A    between atoms: C6_6  and  C8_8 
REMARK    2  A    between atoms: C8_8  and  C9_9 
REMARK    3  A    between atoms: C9_9  and  C10_10 
REMARK    4  A    between atoms: C10_10  and  O2_12 
REMARK    5  A    between atoms: O2_12  and  C11_13 
REMARK    6  A    between atoms: C11_13  and  C12_14 
REMARK    7  A    between atoms: C12_14  and  C13_15 
REMARK    8  A    between atoms: C16_19  and  C17_20 
REMARK    9  A    between atoms: C19_22  and  C21_24 
REMARK   10  A    between atoms: C29_33  and  O5_34 
REMARK   11  A    between atoms: C32_38  and  O6_39 
REMARK   12  A    between atoms: C33_41  and  O7_42 
ROOT
HETATM    1  C1  UNL     1      27.861   0.892  -4.976  1.00  0.00     0.017 C 
HETATM    2  C2  UNL     1      27.986   2.201  -5.167  1.00  0.00    -0.061 C 
HETATM    3  C3  UNL     1      29.257   2.718  -5.713  1.00  0.00     0.036 C 
HETATM    4  C4  UNL     1      30.129   3.448  -4.725  1.00  0.00     0.005 C 
HETATM    5  C5  UNL     1      30.671   2.497  -3.672  1.00  0.00     0.012 C 
HETATM    6  C6  UNL     1      31.260   3.160  -2.497  1.00  0.00    -0.015 C 
HETATM    7  C7  UNL     1      31.923   4.418  -3.138  1.00  0.00     0.018 C 
HETATM    8  C15 UNL     1      30.416   3.641  -1.378  1.00  0.00     0.165 C 
HETATM    9  O3  UNL     1      30.293   4.990  -1.425  1.00  0.00    -0.349 OA
HETATM   10  C16 UNL     1      29.100   5.615  -1.554  1.00  0.00     0.292 C 
HETATM   11  O4  UNL     1      27.949   4.932  -1.546  1.00  0.00    -0.339 OA
HETATM   12  C24 UNL     1      27.867   3.628  -1.240  1.00  0.00     0.121 C 
HETATM   13  C25 UNL     1      26.917   3.533  -0.066  1.00  0.00    -0.052 C 
HETATM   14  C26 UNL     1      26.312   4.571   0.475  1.00  0.00     0.017 C 
HETATM   15  C27 UNL     1      26.667   2.188   0.470  1.00  0.00     0.039 C 
HETATM   16  C28 UNL     1      25.983   1.411  -0.634  1.00  0.00     0.036 C 
HETATM   17  C29 UNL     1      25.833   2.239  -1.890  1.00  0.00     0.126 C 
HETATM   18  C30 UNL     1      27.123   2.865  -2.347  1.00  0.00     0.059 C 
HETATM   19  C31 UNL     1      26.804   3.726  -3.531  1.00  0.00     0.046 C 
HETATM   20  C32 UNL     1      26.872   3.088  -4.865  1.00  0.00     0.146 C 
HETATM   21  C33 UNL     1      29.208   2.952  -0.930  1.00  0.00     0.187 C 
ENDROOT
BRANCH   6  22
HETATM   22  C8  UNL     1      32.515   2.413  -2.077  1.00  0.00     0.021 C 
BRANCH  22  23
HETATM   23  C9  UNL     1      32.627   1.010  -2.520  1.00  0.00     0.112 C 
BRANCH  23  24
HETATM   24  C10 UNL     1      32.184   0.189  -1.324  1.00  0.00     0.258 C 
HETATM   25  O1  UNL     1      31.183  -0.544  -1.424  1.00  0.00    -0.265 OA
BRANCH  24  26
HETATM   26  O2  UNL     1      32.864   0.246  -0.156  1.00  0.00    -0.321 OA
BRANCH  26  27
HETATM   27  C11 UNL     1      32.486   0.454   1.149  1.00  0.00     0.178 C 
BRANCH  27  28
HETATM   28  C12 UNL     1      31.674   1.627   1.491  1.00  0.00     0.026 C 
BRANCH  28  29
HETATM   29  C13 UNL     1      31.356   1.844   2.904  1.00  0.00    -0.002 C 
HETATM   30  C14 UNL     1      32.660   2.387   3.568  1.00  0.00     0.005 C 
ENDBRANCH  28  29
ENDBRANCH  27  28
ENDBRANCH  26  27
ENDBRANCH  24  26
ENDBRANCH  23  24
ENDBRANCH  22  23
ENDBRANCH   6  22
BRANCH  21  31
HETATM   31  O7  UNL     1      29.069   1.614  -1.243  1.00  0.00    -0.390 OA
ATOM     32  H7  UNL     1      28.231   1.200  -1.075  1.00  0.00     0.210 HD
ENDBRANCH  21  31
BRANCH  10  33
HETATM   33  C17 UNL     1      29.157   6.808  -0.678  1.00  0.00    -0.027 C 
HETATM   34  C18 UNL     1      28.950   8.155  -1.340  1.00  0.00     0.049 C 
HETATM   35  C19 UNL     1      29.392   6.833   0.611  1.00  0.00    -0.074 C 
HETATM   36  C20 UNL     1      29.421   8.109   1.394  1.00  0.00     0.044 C 
BRANCH  35  37
HETATM   37  C21 UNL     1      29.675   5.590   1.358  1.00  0.00     0.006 C 
HETATM   38  C22 UNL     1      31.159   5.535   1.759  1.00  0.00     0.014 C 
HETATM   39  C23 UNL     1      28.895   5.523   2.659  1.00  0.00     0.014 C 
ENDBRANCH  35  37
ENDBRANCH  10  33
BRANCH  20  40
HETATM   40  O6  UNL     1      26.826   4.157  -5.806  1.00  0.00    -0.391 OA
ATOM     41  H6  UNL     1      27.019   4.981  -5.375  1.00  0.00     0.210 HD
ENDBRANCH  20  40
BRANCH  17  42
HETATM   42  O5  UNL     1      24.772   3.135  -1.796  1.00  0.00    -0.395 OA
ATOM     43  H5  UNL     1      24.953   3.947  -2.254  1.00  0.00     0.210 HD
ENDBRANCH  17  42
TORSDOF 12
ENDMDL
MODEL 5
REMARK VINA RESULT: -6.932959587      2.068      5.458
REMARK  12 active torsions:
REMARK  status: ('A' for Active; 'I' for Inactive)
REMARK    1  A    between atoms: C6_6  and  C8_8 
REMARK    2  A    between atoms: C8_8  and  C9_9 
REMARK    3  A    between atoms: C9_9  and  C10_10 
REMARK    4  A    between atoms: C10_10  and  O2_12 
REMARK    5  A    between atoms: O2_12  and  C11_13 
REMARK    6  A    between atoms: C11_13  and  C12_14 
REMARK    7  A    between atoms: C12_14  and  C13_15 
REMARK    8  A    between atoms: C16_19  and  C17_20 
REMARK    9  A    between atoms: C19_22  and  C21_24 
REMARK   10  A    between atoms: C29_33  and  O5_34 
REMARK   11  A    between atoms: C32_38  and  O6_39 
REMARK   12  A    between atoms: C33_41  and  O7_42 
ROOT
HETATM    1  C1  UNL     1      28.327   7.919  -2.560  1.00  0.00     0.017 C 
HETATM    2  C2  UNL     1      29.438   7.236  -2.816  1.00  0.00    -0.061 C 
HETATM    3  C3  UNL     1      29.443   6.293  -3.952  1.00  0.00     0.036 C 
HETATM    4  C4  UNL     1      29.424   4.835  -3.573  1.00  0.00     0.005 C 
HETATM    5  C5  UNL     1      28.099   4.457  -2.934  1.00  0.00     0.012 C 
HETATM    6  C6  UNL     1      28.103   3.155  -2.247  1.00  0.00    -0.015 C 
HETATM    7  C7  UNL     1      29.040   2.312  -3.165  1.00  0.00     0.018 C 
HETATM    8  C15 UNL     1      28.612   3.013  -0.863  1.00  0.00     0.165 C 
HETATM    9  O3  UNL     1      29.834   2.425  -0.868  1.00  0.00    -0.349 OA
HETATM   10  C16 UNL     1      30.941   3.027  -0.374  1.00  0.00     0.292 C 
HETATM   11  O4  UNL     1      30.876   4.212   0.243  1.00  0.00    -0.339 OA
HETATM   12  C24 UNL     1      29.720   4.808   0.575  1.00  0.00     0.121 C 
HETATM   13  C25 UNL     1      29.772   5.016   2.073  1.00  0.00    -0.052 C 
HETATM   14  C26 UNL     1      30.796   4.674   2.827  1.00  0.00     0.017 C 
HETATM   15  C27 UNL     1      28.599   5.652   2.689  1.00  0.00     0.039 C 
HETATM   16  C28 UNL     1      28.523   7.051   2.115  1.00  0.00     0.036 C 
HETATM   17  C29 UNL     1      29.617   7.299   1.101  1.00  0.00     0.126 C 
HETATM   18  C30 UNL     1      29.683   6.244   0.029  1.00  0.00     0.059 C 
HETATM   19  C31 UNL     1      30.864   6.566  -0.836  1.00  0.00     0.046 C 
HETATM   20  C32 UNL     1      30.625   7.450  -1.999  1.00  0.00     0.146 C 
HETATM   21  C33 UNL     1      28.457   4.044   0.160  1.00  0.00     0.187 C 
ENDROOT
BRANCH   6  22
HETATM   22  C8  UNL     1      26.790   2.440  -2.522  1.00  0.00     0.021 C 
BRANCH  22  23
HETATM   23  C9  UNL     1      26.795   1.449  -3.616  1.00  0.00     0.112 C 
BRANCH  23  24
HETATM   24  C10 UNL     1      25.598   1.812  -4.474  1.00  0.00     0.258 C 
HETATM   25  O1  UNL     1      24.450   1.611  -4.035  1.00  0.00    -0.265 OA
BRANCH  24  26
HETATM   26  O2  UNL     1      25.766   2.351  -5.703  1.00  0.00    -0.321 OA
BRANCH  26  27
HETATM   27  C11 UNL     1      26.525   3.390  -6.185  1.00  0.00     0.178 C 
BRANCH  27  28
HETATM   28  C12 UNL     1      27.937   3.164  -6.515  1.00  0.00     0.026 C 
BRANCH  28  29
HETATM   29  C13 UNL     1      28.694   4.291  -7.066  1.00  0.00    -0.002 C 
HETATM   30  C14 UNL     1      28.040   4.627  -8.442  1.00  0.00     0.005 C 
ENDBRANCH  28  29
ENDBRANCH  27  28
ENDBRANCH  26  27
ENDBRANCH  24  26
ENDBRANCH  23  24
ENDBRANCH  22  23
ENDBRANCH   6  22
BRANCH  21  31
HETATM   31  O7  UNL     1      27.455   4.979  -0.008  1.00  0.00    -0.390 OA
ATOM     32  H7  UNL     1      27.491   5.772   0.514  1.00  0.00     0.210 HD
ENDBRANCH  21  31
BRANCH  10  33
HETATM   33  C17 UNL     1      31.715   1.971   0.321  1.00  0.00    -0.027 C 
HETATM   34  C18 UNL     1      31.359   1.700   1.768  1.00  0.00     0.049 C 
HETATM   35  C19 UNL     1      32.697   1.257  -0.172  1.00  0.00    -0.074 C 
HETATM   36  C20 UNL     1      33.405   0.210   0.632  1.00  0.00     0.044 C 
BRANCH  35  37
HETATM   37  C21 UNL     1      33.182   1.474  -1.551  1.00  0.00     0.006 C 
HETATM   38  C22 UNL     1      34.648   1.027  -1.678  1.00  0.00     0.014 C 
HETATM   39  C23 UNL     1      32.409   0.642  -2.559  1.00  0.00     0.014 C 
ENDBRANCH  35  37
ENDBRANCH  10  33
BRANCH  20  40
HETATM   40  O6  UNL     1      31.797   7.355  -2.803  1.00  0.00    -0.391 OA
ATOM     41  H6  UNL     1      32.270   6.557  -2.600  1.00  0.00     0.210 HD
ENDBRANCH  20  40
BRANCH  17  42
HETATM   42  O5  UNL     1      30.839   7.563   1.712  1.00  0.00    -0.395 OA
ATOM     43  H5  UNL     1      31.223   6.779   2.088  1.00  0.00     0.210 HD
ENDBRANCH  17  42
TORSDOF 12
ENDMDL
