MODEL 1
REMARK VINA RESULT: -5.303213255      0.000      0.000
REMARK  7 active torsions:
REMARK  status: ('A' for Active; 'I' for Inactive)
REMARK       I    between atoms: C2_2  and  N1_4 
REMARK    1  A    between atoms: N1_4  and  N2_6 
REMARK    2  A    between atoms: N2_6  and  C3_8 
REMARK    3  A    between atoms: C6_18  and  N6_19 
REMARK    4  A    between atoms: N6_19  and  C7_21 
REMARK    5  A    between atoms: C7_21  and  C8_27 
REMARK    6  A    between atoms: N7_22  and  N8_24 
REMARK    7  A    between atoms: C8_27  and  N9_29 
ROOT
HETATM    1  C3  UNL     1       4.362   1.237  -1.599  1.00  0.00     0.368 C 
HETATM    2  N3  UNL     1       4.134   2.562  -2.155  1.00  0.00    -0.044 N 
ATOM      3  H31 UNL     1       3.550   3.135  -1.546  1.00  0.00     0.280 HD
ATOM      4  H32 UNL     1       3.519   2.532  -2.969  1.00  0.00     0.280 HD
HETATM    5  C4  UNL     1       5.415   3.216  -2.461  1.00  0.00     0.256 C 
HETATM    6  C5  UNL     1       5.957   2.757  -3.784  1.00  0.00     0.166 C 
HETATM    7  N4  UNL     1       5.130   1.768  -4.453  1.00  0.00    -0.333 N 
ATOM      8  H4  UNL     1       4.843   2.001  -5.403  1.00  0.00     0.180 HD
HETATM    9  N5  UNL     1       4.676   0.537  -3.962  1.00  0.00    -0.290 N 
ATOM     10  H5  UNL     1       4.609  -0.221  -4.641  1.00  0.00     0.188 HD
HETATM   11  C6  UNL     1       4.331   0.248  -2.742  1.00  0.00     0.149 C 
ENDROOT
BRANCH  11  12
HETATM   12  N6  UNL     1       3.921  -1.071  -2.431  1.00  0.00    -0.329 N 
ATOM     13  H6  UNL     1       2.931  -1.317  -2.419  1.00  0.00     0.168 HD
BRANCH  12  14
HETATM   14  C7  UNL     1       4.909  -2.044  -2.136  1.00  0.00     0.127 C 
HETATM   15  N7  UNL     1       5.259  -2.168  -0.904  1.00  0.00    -0.294 N 
ATOM     16  H7  UNL     1       4.804  -1.560  -0.224  1.00  0.00     0.187 HD
BRANCH  15  17
HETATM   17  N8  UNL     1       6.194  -3.050  -0.431  1.00  0.00    -0.344 N 
ATOM     18  H82 UNL     1       6.343  -3.050   0.579  1.00  0.00     0.176 HD
ATOM     19  H81 UNL     1       6.740  -3.694  -1.002  1.00  0.00     0.176 HD
ENDBRANCH  15  17
BRANCH  14  20
HETATM   20  C8  UNL     1       5.505  -2.876  -3.208  1.00  0.00     0.247 C 
HETATM   21  C9  UNL     1       6.782  -2.277  -3.748  1.00  0.00     0.048 C 
BRANCH  20  22
HETATM   22  N9  UNL     1       4.600  -3.034  -4.335  1.00  0.00    -0.069 N 
ATOM     23  H93 UNL     1       5.080  -3.427  -5.145  1.00  0.00     0.275 HD
ATOM     24  H92 UNL     1       3.928  -3.784  -4.170  1.00  0.00     0.275 HD
ATOM     25  H91 UNL     1       4.130  -2.159  -4.570  1.00  0.00     0.275 HD
ENDBRANCH  20  22
ENDBRANCH  14  20
ENDBRANCH  12  14
ENDBRANCH  11  12
BRANCH   1  26
HETATM   26  N2  UNL     1       3.605   0.962  -0.500  1.00  0.00    -0.297 N 
ATOM     27  H2  UNL     1       4.101   0.478   0.248  1.00  0.00     0.183 HD
BRANCH  26  28
HETATM   28  N1  UNL     1       2.320   1.220  -0.239  1.00  0.00    -0.273 N 
HETATM   29  C2  UNL     1       1.139   0.549  -0.619  1.00  0.00     0.231 C 
HETATM   30  C1  UNL     1      -0.169   1.137  -0.127  1.00  0.00     0.119 C 
HETATM   31  O1  UNL     1       1.073  -0.479  -1.321  1.00  0.00    -0.272 OA
ATOM     32  H1  UNL     1       2.166   2.049   0.336  1.00  0.00     0.189 HD
ENDBRANCH  26  28
ENDBRANCH   1  26
TORSDOF 7
ENDMDL
MODEL 2
REMARK VINA RESULT: -5.133446112      1.432      2.067
REMARK  7 active torsions:
REMARK  status: ('A' for Active; 'I' for Inactive)
REMARK       I    between atoms: C2_2  and  N1_4 
REMARK    1  A    between atoms: N1_4  and  N2_6 
REMARK    2  A    between atoms: N2_6  and  C3_8 
REMARK    3  A    between atoms: C6_18  and  N6_19 
REMARK    4  A    between atoms: N6_19  and  C7_21 
REMARK    5  A    between atoms: C7_21  and  C8_27 
REMARK    6  A    between atoms: N7_22  and  N8_24 
REMARK    7  A    between atoms: C8_27  and  N9_29 
ROOT
HETATM    1  C3  UNL     1       4.139   1.846  -1.366  1.00  0.00     0.368 C 
HETATM    2  N3  UNL     1       4.202   2.754  -2.501  1.00  0.00    -0.044 N 
ATOM      3  H31 UNL     1       3.328   3.264  -2.629  1.00  0.00     0.280 HD
ATOM      4  H32 UNL     1       4.217   2.253  -3.389  1.00  0.00     0.280 HD
HETATM    5  C4  UNL     1       5.351   3.662  -2.365  1.00  0.00     0.256 C 
HETATM    6  C5  UNL     1       6.621   3.004  -2.824  1.00  0.00     0.166 C 
HETATM    7  N4  UNL     1       6.450   1.634  -3.270  1.00  0.00    -0.333 N 
ATOM      8  H4  UNL     1       6.788   1.428  -4.211  1.00  0.00     0.180 HD
HETATM    9  N5  UNL     1       5.882   0.556  -2.578  1.00  0.00    -0.290 N 
ATOM     10  H5  UNL     1       6.299  -0.359  -2.748  1.00  0.00     0.188 HD
HETATM   11  C6  UNL     1       4.885   0.588  -1.743  1.00  0.00     0.149 C 
ENDROOT
BRANCH  11  12
HETATM   12  N6  UNL     1       4.467  -0.612  -1.117  1.00  0.00    -0.329 N 
ATOM     13  H6  UNL     1       4.070  -0.596  -0.177  1.00  0.00     0.168 HD
BRANCH  12  14
HETATM   14  C7  UNL     1       4.612  -1.836  -1.817  1.00  0.00     0.127 C 
HETATM   15  N7  UNL     1       3.978  -1.952  -2.931  1.00  0.00    -0.294 N 
ATOM     16  H7  UNL     1       3.415  -1.157  -3.234  1.00  0.00     0.187 HD
BRANCH  15  17
HETATM   17  N8  UNL     1       3.996  -3.055  -3.742  1.00  0.00    -0.344 N 
ATOM     18  H82 UNL     1       3.595  -2.936  -4.673  1.00  0.00     0.176 HD
ATOM     19  H81 UNL     1       4.374  -3.968  -3.489  1.00  0.00     0.176 HD
ENDBRANCH  15  17
BRANCH  14  20
HETATM   20  C8  UNL     1       5.458  -2.928  -1.280  1.00  0.00     0.247 C 
HETATM   21  C9  UNL     1       5.367  -3.031   0.223  1.00  0.00     0.048 C 
BRANCH  20  22
HETATM   22  N9  UNL     1       6.862  -2.734  -1.609  1.00  0.00    -0.069 N 
ATOM     23  H93 UNL     1       7.311  -3.616  -1.857  1.00  0.00     0.275 HD
ATOM     24  H92 UNL     1       6.972  -2.244  -2.497  1.00  0.00     0.275 HD
ATOM     25  H91 UNL     1       7.365  -2.259  -0.858  1.00  0.00     0.275 HD
ENDBRANCH  20  22
ENDBRANCH  14  20
ENDBRANCH  12  14
ENDBRANCH  11  12
BRANCH   1  26
HETATM   26  N2  UNL     1       2.890   1.710  -0.837  1.00  0.00    -0.297 N 
ATOM     27  H2  UNL     1       2.688   2.335  -0.057  1.00  0.00     0.183 HD
BRANCH  26  28
HETATM   28  N1  UNL     1       1.886   0.893  -1.170  1.00  0.00    -0.273 N 
HETATM   29  C2  UNL     1       0.836   0.347  -0.404  1.00  0.00     0.231 C 
HETATM   30  C1  UNL     1      -0.143  -0.554  -1.131  1.00  0.00     0.119 C 
HETATM   31  O1  UNL     1       0.640   0.537   0.813  1.00  0.00    -0.272 OA
ATOM     32  H1  UNL     1       1.879   0.616  -2.152  1.00  0.00     0.189 HD
ENDBRANCH  26  28
ENDBRANCH   1  26
TORSDOF 7
ENDMDL
MODEL 3
REMARK VINA RESULT: -4.785803552      8.929     11.767
REMARK  7 active torsions:
REMARK  status: ('A' for Active; 'I' for Inactive)
REMARK       I    between atoms: C2_2  and  N1_4 
REMARK    1  A    between atoms: N1_4  and  N2_6 
REMARK    2  A    between atoms: N2_6  and  C3_8 
REMARK    3  A    between atoms: C6_18  and  N6_19 
REMARK    4  A    between atoms: N6_19  and  C7_21 
REMARK    5  A    between atoms: C7_21  and  C8_27 
REMARK    6  A    between atoms: N7_22  and  N8_24 
REMARK    7  A    between atoms: C8_27  and  N9_29 
ROOT
HETATM    1  C3  UNL     1      -3.317   4.063   6.552  1.00  0.00     0.368 C 
HETATM    2  N3  UNL     1      -4.268   5.160   6.653  1.00  0.00    -0.044 N 
ATOM      3  H31 UNL     1      -5.221   4.855   6.458  1.00  0.00     0.280 HD
ATOM      4  H32 UNL     1      -4.162   5.826   5.888  1.00  0.00     0.280 HD
HETATM    5  C4  UNL     1      -4.158   5.812   7.967  1.00  0.00     0.256 C 
HETATM    6  C5  UNL     1      -3.024   6.797   7.991  1.00  0.00     0.166 C 
HETATM    7  N4  UNL     1      -2.279   6.874   6.747  1.00  0.00    -0.333 N 
ATOM      8  H4  UNL     1      -2.199   7.803   6.335  1.00  0.00     0.180 HD
HETATM    9  N5  UNL     1      -1.656   5.837   6.040  1.00  0.00    -0.290 N 
ATOM     10  H5  UNL     1      -0.787   6.077   5.562  1.00  0.00     0.188 HD
HETATM   11  C6  UNL     1      -2.056   4.605   5.921  1.00  0.00     0.149 C 
ENDROOT
BRANCH  11  12
HETATM   12  N6  UNL     1      -1.270   3.689   5.181  1.00  0.00    -0.329 N 
ATOM     13  H6  UNL     1      -0.703   2.988   5.658  1.00  0.00     0.168 HD
BRANCH  12  14
HETATM   14  C7  UNL     1      -1.284   3.762   3.765  1.00  0.00     0.127 C 
HETATM   15  N7  UNL     1      -1.696   2.722   3.129  1.00  0.00    -0.294 N 
ATOM     16  H7  UNL     1      -1.984   1.916   3.685  1.00  0.00     0.187 HD
BRANCH  15  17
HETATM   17  N8  UNL     1      -1.780   2.607   1.767  1.00  0.00    -0.344 N 
ATOM     18  H82 UNL     1      -1.065   3.097   1.229  1.00  0.00     0.176 HD
ATOM     19  H81 UNL     1      -2.491   2.079   1.262  1.00  0.00     0.176 HD
ENDBRANCH  15  17
BRANCH  14  20
HETATM   20  C8  UNL     1      -0.842   4.988   3.059  1.00  0.00     0.247 C 
HETATM   21  C9  UNL     1      -2.004   5.772   2.499  1.00  0.00     0.048 C 
BRANCH  20  22
HETATM   22  N9  UNL     1       0.041   4.680   1.944  1.00  0.00    -0.069 N 
ATOM     23  H93 UNL     1       0.996   4.515   2.262  1.00  0.00     0.275 HD
ATOM     24  H92 UNL     1      -0.159   3.759   1.555  1.00  0.00     0.275 HD
ATOM     25  H91 UNL     1       0.008   5.403   1.224  1.00  0.00     0.275 HD
ENDBRANCH  20  22
ENDBRANCH  14  20
ENDBRANCH  12  14
ENDBRANCH  11  12
BRANCH   1  26
HETATM   26  N2  UNL     1      -3.847   2.919   6.033  1.00  0.00    -0.297 N 
ATOM     27  H2  UNL     1      -3.797   2.850   5.017  1.00  0.00     0.183 HD
BRANCH  26  28
HETATM   28  N1  UNL     1      -4.419   1.872   6.635  1.00  0.00    -0.273 N 
HETATM   29  C2  UNL     1      -4.629   1.581   7.999  1.00  0.00     0.231 C 
HETATM   30  C1  UNL     1      -5.331   0.276   8.318  1.00  0.00     0.119 C 
HETATM   31  O1  UNL     1      -4.290   2.297   8.962  1.00  0.00    -0.272 OA
ATOM     32  H1  UNL     1      -4.766   1.158   5.994  1.00  0.00     0.189 HD
ENDBRANCH  26  28
ENDBRANCH   1  26
TORSDOF 7
ENDMDL
MODEL 4
REMARK VINA RESULT: -4.745488840      1.731      4.394
REMARK  7 active torsions:
REMARK  status: ('A' for Active; 'I' for Inactive)
REMARK       I    between atoms: C2_2  and  N1_4 
REMARK    1  A    between atoms: N1_4  and  N2_6 
REMARK    2  A    between atoms: N2_6  and  C3_8 
REMARK    3  A    between atoms: C6_18  and  N6_19 
REMARK    4  A    between atoms: N6_19  and  C7_21 
REMARK    5  A    between atoms: C7_21  and  C8_27 
REMARK    6  A    between atoms: N7_22  and  N8_24 
REMARK    7  A    between atoms: C8_27  and  N9_29 
ROOT
HETATM    1  C3  UNL     1       3.823  -1.199  -2.382  1.00  0.00     0.368 C 
HETATM    2  N3  UNL     1       4.027  -1.789  -1.068  1.00  0.00    -0.044 N 
ATOM      3  H31 UNL     1       3.149  -1.905  -0.563  1.00  0.00     0.280 HD
ATOM      4  H32 UNL     1       4.486  -1.140  -0.427  1.00  0.00     0.280 HD
HETATM    5  C4  UNL     1       4.765  -3.056  -1.186  1.00  0.00     0.256 C 
HETATM    6  C5  UNL     1       6.242  -2.815  -1.305  1.00  0.00     0.166 C 
HETATM    7  N4  UNL     1       6.617  -1.413  -1.304  1.00  0.00    -0.333 N 
ATOM      8  H4  UNL     1       7.302  -1.138  -0.601  1.00  0.00     0.180 HD
HETATM    9  N5  UNL     1       6.159  -0.389  -2.143  1.00  0.00    -0.290 N 
ATOM     10  H5  UNL     1       6.841   0.327  -2.393  1.00  0.00     0.188 HD
HETATM   11  C6  UNL     1       4.965  -0.245  -2.640  1.00  0.00     0.149 C 
ENDROOT
BRANCH  11  12
HETATM   12  N6  UNL     1       4.699   0.851  -3.497  1.00  0.00    -0.329 N 
ATOM     13  H6  UNL     1       4.463   0.697  -4.477  1.00  0.00     0.168 HD
BRANCH  12  14
HETATM   14  C7  UNL     1       4.765   2.165  -2.969  1.00  0.00     0.127 C 
HETATM   15  N7  UNL     1       3.863   2.500  -2.114  1.00  0.00    -0.294 N 
ATOM     16  H7  UNL     1       3.162   1.798  -1.874  1.00  0.00     0.187 HD
BRANCH  15  17
HETATM   17  N8  UNL     1       3.767   3.719  -1.500  1.00  0.00    -0.344 N 
ATOM     18  H82 UNL     1       3.337   4.467  -2.046  1.00  0.00     0.176 HD
ATOM     19  H81 UNL     1       4.086   3.931  -0.554  1.00  0.00     0.176 HD
ENDBRANCH  15  17
BRANCH  14  20
HETATM   20  C8  UNL     1       5.832   3.105  -3.390  1.00  0.00     0.247 C 
HETATM   21  C9  UNL     1       6.516   2.655  -4.658  1.00  0.00     0.048 C 
BRANCH  20  22
HETATM   22  N9  UNL     1       6.864   3.240  -2.374  1.00  0.00    -0.069 N 
ATOM     23  H93 UNL     1       6.941   4.204  -2.050  1.00  0.00     0.275 HD
ATOM     24  H92 UNL     1       6.584   2.799  -1.498  1.00  0.00     0.275 HD
ATOM     25  H91 UNL     1       7.764   2.884  -2.699  1.00  0.00     0.275 HD
ENDBRANCH  20  22
ENDBRANCH  14  20
ENDBRANCH  12  14
ENDBRANCH  11  12
BRANCH   1  26
HETATM   26  N2  UNL     1       2.555  -0.744  -2.592  1.00  0.00    -0.297 N 
ATOM     27  H2  UNL     1       2.322  -0.568  -3.569  1.00  0.00     0.183 HD
BRANCH  26  28
HETATM   28  N1  UNL     1       1.566  -0.490  -1.730  1.00  0.00    -0.273 N 
HETATM   29  C2  UNL     1       1.505   0.359  -0.605  1.00  0.00     0.231 C 
HETATM   30  C1  UNL     1       0.191   0.399   0.150  1.00  0.00     0.119 C 
HETATM   31  O1  UNL     1       2.430   1.077  -0.178  1.00  0.00    -0.272 OA
ATOM     32  H1  UNL     1       0.703  -1.001  -1.918  1.00  0.00     0.189 HD
ENDBRANCH  26  28
ENDBRANCH   1  26
TORSDOF 7
ENDMDL
MODEL 5
REMARK VINA RESULT: -4.726913508      3.188      5.650
REMARK  7 active torsions:
REMARK  status: ('A' for Active; 'I' for Inactive)
REMARK       I    between atoms: C2_2  and  N1_4 
REMARK    1  A    between atoms: N1_4  and  N2_6 
REMARK    2  A    between atoms: N2_6  and  C3_8 
REMARK    3  A    between atoms: C6_18  and  N6_19 
REMARK    4  A    between atoms: N6_19  and  C7_21 
REMARK    5  A    between atoms: C7_21  and  C8_27 
REMARK    6  A    between atoms: N7_22  and  N8_24 
REMARK    7  A    between atoms: C8_27  and  N9_29 
ROOT
HETATM    1  C3  UNL     1      -0.094   2.164   0.369  1.00  0.00     0.368 C 
HETATM    2  N3  UNL     1      -0.663   1.187   1.284  1.00  0.00    -0.044 N 
ATOM      3  H31 UNL     1      -0.774   1.567   2.224  1.00  0.00     0.280 HD
ATOM      4  H32 UNL     1      -0.005   0.439   1.499  1.00  0.00     0.280 HD
HETATM    5  C4  UNL     1      -1.930   0.665   0.750  1.00  0.00     0.256 C 
HETATM    6  C5  UNL     1      -1.688  -0.423  -0.256  1.00  0.00     0.166 C 
HETATM    7  N4  UNL     1      -0.285  -0.703  -0.501  1.00  0.00    -0.333 N 
ATOM      8  H4  UNL     1       0.002  -1.673  -0.372  1.00  0.00     0.180 HD
HETATM    9  N5  UNL     1       0.726   0.185  -0.890  1.00  0.00    -0.290 N 
ATOM     10  H5  UNL     1       1.439  -0.190  -1.514  1.00  0.00     0.188 HD
HETATM   11  C6  UNL     1       0.860   1.433  -0.548  1.00  0.00     0.149 C 
ENDROOT
BRANCH  11  12
HETATM   12  N6  UNL     1       1.942   2.183  -1.070  1.00  0.00    -0.329 N 
ATOM     13  H6  UNL     1       1.776   3.065  -1.555  1.00  0.00     0.168 HD
BRANCH  12  14
HETATM   14  C7  UNL     1       3.260   1.686  -0.907  1.00  0.00     0.127 C 
HETATM   15  N7  UNL     1       3.442   0.793   0.000  1.00  0.00    -0.294 N 
ATOM     16  H7  UNL     1       2.627   0.502   0.541  1.00  0.00     0.187 HD
BRANCH  15  17
HETATM   17  N8  UNL     1       4.639   0.199   0.300  1.00  0.00    -0.344 N 
ATOM     18  H82 UNL     1       5.279   0.055  -0.481  1.00  0.00     0.176 HD
ATOM     19  H81 UNL     1       4.931  -0.102   1.230  1.00  0.00     0.176 HD
ENDBRANCH  15  17
BRANCH  14  20
HETATM   20  C8  UNL     1       4.373   2.183  -1.752  1.00  0.00     0.247 C 
HETATM   21  C9  UNL     1       4.194   3.633  -2.132  1.00  0.00     0.048 C 
BRANCH  20  22
HETATM   22  N9  UNL     1       4.488   1.429  -2.991  1.00  0.00    -0.069 N 
ATOM     23  H93 UNL     1       5.461   1.207  -3.202  1.00  0.00     0.275 HD
ATOM     24  H92 UNL     1       4.128   0.480  -2.884  1.00  0.00     0.275 HD
ATOM     25  H91 UNL     1       4.039   1.911  -3.771  1.00  0.00     0.275 HD
ENDBRANCH  20  22
ENDBRANCH  14  20
ENDBRANCH  12  14
ENDBRANCH  11  12
BRANCH   1  26
HETATM   26  N2  UNL     1       0.356   3.297   0.980  1.00  0.00    -0.297 N 
ATOM     27  H2  UNL     1       1.370   3.404   0.985  1.00  0.00     0.183 HD
BRANCH  26  28
HETATM   28  N1  UNL     1      -0.312   4.291   1.573  1.00  0.00    -0.273 N 
HETATM   29  C2  UNL     1      -1.271   4.282   2.607  1.00  0.00     0.231 C 
HETATM   30  C1  UNL     1      -1.823   5.626   3.038  1.00  0.00     0.119 C 
HETATM   31  O1  UNL     1      -1.704   3.272   3.197  1.00  0.00    -0.272 OA
ATOM     32  H1  UNL     1      -0.090   5.220   1.214  1.00  0.00     0.189 HD
ENDBRANCH  26  28
ENDBRANCH   1  26
TORSDOF 7
ENDMDL
