MODEL 1
REMARK VINA RESULT: -5.004162271      0.000      0.000
REMARK  8 active torsions:
REMARK  status: ('A' for Active; 'I' for Inactive)
REMARK    1  A    between atoms: C4_5  and  N2_6 
REMARK    2  A    between atoms: C5_11  and  N4_12 
REMARK    3  A    between atoms: N5_15  and  C6_16 
REMARK    4  A    between atoms: C6_16  and  N6_17 
REMARK    5  A    between atoms: N7_21  and  N8_22 
REMARK    6  A    between atoms: N9_25  and  C7_26 
REMARK    7  A    between atoms: C7_26  and  C8_27 
REMARK    8  A    between atoms: C8_27  and  C9_28 
ROOT
HETATM    1  C1  UNL     1       3.636  -2.733  -2.688  1.00  0.00     0.177 C 
HETATM    2  N1  UNL     1       4.263  -1.655  -3.401  1.00  0.00    -0.169 N 
HETATM    3  C2  UNL     1       4.348  -0.458  -2.850  1.00  0.00     0.174 A 
HETATM    4  C3  UNL     1       4.974   0.588  -3.517  1.00  0.00     0.141 A 
HETATM    5  C4  UNL     1       5.511   0.403  -4.754  1.00  0.00     0.146 A 
HETATM    6  N3  UNL     1       5.397  -0.861  -5.288  1.00  0.00    -0.175 N 
ATOM      7  H3  UNL     1       5.785  -1.043  -6.215  1.00  0.00     0.186 HD
HETATM    8  C5  UNL     1       4.798  -1.849  -4.637  1.00  0.00     0.681 A 
HETATM    9  N5  UNL     1       4.934   1.708  -2.639  1.00  0.00    -0.241 N 
HETATM   10  N7  UNL     1       4.605   1.236  -1.383  1.00  0.00    -0.035 NA
HETATM   11  N9  UNL     1       3.862   0.031  -1.623  1.00  0.00    -0.234 N 
ENDROOT
BRANCH   9  12
HETATM   12  C6  UNL     1       5.206   3.068  -2.963  1.00  0.00     0.376 C 
BRANCH  12  13
HETATM   13  N6  UNL     1       6.449   3.584  -2.421  1.00  0.00    -0.062 N 
ATOM     14  H63 UNL     1       6.273   4.086  -1.550  1.00  0.00     0.276 HD
ATOM     15  H62 UNL     1       7.026   2.820  -2.071  1.00  0.00     0.276 HD
ATOM     16  H61 UNL     1       6.985   4.168  -3.063  1.00  0.00     0.276 HD
ENDBRANCH  12  13
ENDBRANCH   9  12
BRANCH  10  17
HETATM   17  N8  UNL     1       3.875   2.141  -0.696  1.00  0.00    -0.327 NA
ATOM     18  H82 UNL     1       4.461   2.889  -0.321  1.00  0.00     0.174 HD
ATOM     19  H81 UNL     1       3.435   1.717   0.121  1.00  0.00     0.174 HD
ENDBRANCH  10  17
BRANCH   5  20
HETATM   20  N2  UNL     1       6.080   1.306  -5.424  1.00  0.00    -0.383 N 
ATOM     21  H22 UNL     1       5.846   2.283  -5.244  1.00  0.00     0.157 HD
ATOM     22  H21 UNL     1       6.781   1.133  -6.144  1.00  0.00     0.157 HD
ENDBRANCH   5  20
BRANCH  11  23
HETATM   23  C7  UNL     1       2.869  -0.417  -0.759  1.00  0.00     0.098 C 
BRANCH  23  24
HETATM   24  C8  UNL     1       1.457  -0.185  -1.299  1.00  0.00     0.145 C 
BRANCH  24  25
HETATM   25  C9  UNL     1       0.780   0.891  -0.492  1.00  0.00     0.235 C 
HETATM   26  N10 UNL     1       0.152   0.566   0.741  1.00  0.00    -0.062 NA
HETATM   27  O1  UNL     1       0.776   2.075  -0.916  1.00  0.00    -0.277 OA
ENDBRANCH  24  25
ENDBRANCH  23  24
ENDBRANCH  11  23
BRANCH   8  28
HETATM   28  N4  UNL     1       4.691  -3.056  -5.148  1.00  0.00    -0.234 N 
ATOM     29  H42 UNL     1       5.337  -3.806  -4.902  1.00  0.00     0.174 HD
ATOM     30  H41 UNL     1       3.927  -3.210  -5.807  1.00  0.00     0.174 HD
ENDBRANCH   8  28
TORSDOF 8
ENDMDL
MODEL 2
REMARK VINA RESULT: -4.892056626      1.373      3.749
REMARK  8 active torsions:
REMARK  status: ('A' for Active; 'I' for Inactive)
REMARK    1  A    between atoms: C4_5  and  N2_6 
REMARK    2  A    between atoms: C5_11  and  N4_12 
REMARK    3  A    between atoms: N5_15  and  C6_16 
REMARK    4  A    between atoms: C6_16  and  N6_17 
REMARK    5  A    between atoms: N7_21  and  N8_22 
REMARK    6  A    between atoms: N9_25  and  C7_26 
REMARK    7  A    between atoms: C7_26  and  C8_27 
REMARK    8  A    between atoms: C8_27  and  C9_28 
ROOT
HETATM    1  C1  UNL     1       4.563   3.302  -2.068  1.00  0.00     0.177 C 
HETATM    2  N1  UNL     1       5.170   2.333  -2.938  1.00  0.00    -0.169 N 
HETATM    3  C2  UNL     1       4.836   1.059  -2.845  1.00  0.00     0.174 A 
HETATM    4  C3  UNL     1       5.396   0.114  -3.696  1.00  0.00     0.141 A 
HETATM    5  C4  UNL     1       6.304   0.479  -4.641  1.00  0.00     0.146 A 
HETATM    6  N3  UNL     1       6.624   1.818  -4.699  1.00  0.00    -0.175 N 
ATOM      7  H3  UNL     1       7.302   2.135  -5.392  1.00  0.00     0.186 HD
HETATM    8  C5  UNL     1       6.077   2.707  -3.880  1.00  0.00     0.681 A 
HETATM    9  N5  UNL     1       4.794  -1.133  -3.367  1.00  0.00    -0.241 N 
HETATM   10  N7  UNL     1       3.682  -0.863  -2.592  1.00  0.00    -0.035 NA
HETATM   11  N9  UNL     1       3.969   0.393  -1.958  1.00  0.00    -0.234 N 
ENDROOT
BRANCH   9  12
HETATM   12  C6  UNL     1       5.220  -2.431  -3.771  1.00  0.00     0.376 C 
BRANCH  12  13
HETATM   13  N6  UNL     1       4.405  -3.045  -4.801  1.00  0.00    -0.062 N 
ATOM     14  H63 UNL     1       3.776  -3.735  -4.390  1.00  0.00     0.276 HD
ATOM     15  H62 UNL     1       3.723  -2.375  -5.158  1.00  0.00     0.276 HD
ATOM     16  H61 UNL     1       4.931  -3.459  -5.571  1.00  0.00     0.276 HD
ENDBRANCH  12  13
ENDBRANCH   9  12
BRANCH  10  17
HETATM   17  N8  UNL     1       3.469  -1.840  -1.685  1.00  0.00    -0.327 NA
ATOM     18  H82 UNL     1       3.491  -2.765  -2.116  1.00  0.00     0.174 HD
ATOM     19  H81 UNL     1       2.539  -1.764  -1.272  1.00  0.00     0.174 HD
ENDBRANCH  10  17
BRANCH   5  20
HETATM   20  N2  UNL     1       6.864  -0.322  -5.436  1.00  0.00    -0.383 N 
ATOM     21  H22 UNL     1       6.317  -0.742  -6.189  1.00  0.00     0.157 HD
ATOM     22  H21 UNL     1       7.849  -0.583  -5.392  1.00  0.00     0.157 HD
ENDBRANCH   5  20
BRANCH  11  23
HETATM   23  C7  UNL     1       3.462   0.731  -0.708  1.00  0.00     0.098 C 
BRANCH  23  24
HETATM   24  C8  UNL     1       2.109   1.438  -0.784  1.00  0.00     0.145 C 
BRANCH  24  25
HETATM   25  C9  UNL     1       1.014   0.472  -0.416  1.00  0.00     0.235 C 
HETATM   26  N10 UNL     1       0.474  -0.399  -1.401  1.00  0.00    -0.062 NA
HETATM   27  O1  UNL     1       0.584   0.441   0.766  1.00  0.00    -0.277 OA
ENDBRANCH  24  25
ENDBRANCH  23  24
ENDBRANCH  11  23
BRANCH   8  28
HETATM   28  N4  UNL     1       6.382   3.985  -3.937  1.00  0.00    -0.234 N 
ATOM     29  H42 UNL     1       5.740   4.708  -3.612  1.00  0.00     0.174 HD
ATOM     30  H41 UNL     1       7.295   4.224  -4.324  1.00  0.00     0.174 HD
ENDBRANCH   8  28
TORSDOF 8
ENDMDL
MODEL 3
REMARK VINA RESULT: -4.810688755      1.537      1.597
REMARK  8 active torsions:
REMARK  status: ('A' for Active; 'I' for Inactive)
REMARK    1  A    between atoms: C4_5  and  N2_6 
REMARK    2  A    between atoms: C5_11  and  N4_12 
REMARK    3  A    between atoms: N5_15  and  C6_16 
REMARK    4  A    between atoms: C6_16  and  N6_17 
REMARK    5  A    between atoms: N7_21  and  N8_22 
REMARK    6  A    between atoms: N9_25  and  C7_26 
REMARK    7  A    between atoms: C7_26  and  C8_27 
REMARK    8  A    between atoms: C8_27  and  C9_28 
ROOT
HETATM    1  C1  UNL     1       4.969  -1.821  -0.514  1.00  0.00     0.177 C 
HETATM    2  N1  UNL     1       5.448  -1.162  -1.697  1.00  0.00    -0.169 N 
HETATM    3  C2  UNL     1       5.118   0.094  -1.934  1.00  0.00     0.174 A 
HETATM    4  C3  UNL     1       5.594   0.753  -3.062  1.00  0.00     0.141 A 
HETATM    5  C4  UNL     1       6.407   0.116  -3.949  1.00  0.00     0.146 A 
HETATM    6  N3  UNL     1       6.722  -1.194  -3.660  1.00  0.00    -0.175 N 
ATOM      7  H3  UNL     1       7.328  -1.709  -4.300  1.00  0.00     0.186 HD
HETATM    8  C5  UNL     1       6.261  -1.806  -2.578  1.00  0.00     0.681 A 
HETATM    9  N5  UNL     1       5.097   2.085  -2.992  1.00  0.00    -0.241 N 
HETATM   10  N7  UNL     1       4.638   2.286  -1.705  1.00  0.00    -0.035 NA
HETATM   11  N9  UNL     1       4.281   0.979  -1.230  1.00  0.00    -0.234 N 
ENDROOT
BRANCH   9  12
HETATM   12  C6  UNL     1       5.088   3.059  -4.031  1.00  0.00     0.376 C 
BRANCH  12  13
HETATM   13  N6  UNL     1       6.304   3.843  -4.139  1.00  0.00    -0.062 N 
ATOM     14  H63 UNL     1       6.721   3.976  -3.217  1.00  0.00     0.276 HD
ATOM     15  H62 UNL     1       7.039   3.295  -4.587  1.00  0.00     0.276 HD
ATOM     16  H61 UNL     1       6.193   4.740  -4.611  1.00  0.00     0.276 HD
ENDBRANCH  12  13
ENDBRANCH   9  12
BRANCH  10  17
HETATM   17  N8  UNL     1       3.581   3.127  -1.688  1.00  0.00    -0.327 NA
ATOM     18  H82 UNL     1       3.670   3.856  -2.396  1.00  0.00     0.174 HD
ATOM     19  H81 UNL     1       3.520   3.627  -0.801  1.00  0.00     0.174 HD
ENDBRANCH  10  17
BRANCH   5  20
HETATM   20  N2  UNL     1       6.864   0.642  -4.998  1.00  0.00    -0.383 N 
ATOM     21  H22 UNL     1       6.265   1.257  -5.550  1.00  0.00     0.157 HD
ATOM     22  H21 UNL     1       7.814   0.507  -5.343  1.00  0.00     0.157 HD
ENDBRANCH   5  20
BRANCH  11  23
HETATM   23  C7  UNL     1       3.269   0.774  -0.297  1.00  0.00     0.098 C 
BRANCH  23  24
HETATM   24  C8  UNL     1       1.975   0.254  -0.924  1.00  0.00     0.145 C 
BRANCH  24  25
HETATM   25  C9  UNL     1       0.814   1.084  -0.442  1.00  0.00     0.235 C 
HETATM   26  N10 UNL     1       0.082   0.682   0.708  1.00  0.00    -0.062 NA
HETATM   27  O1  UNL     1       0.499   2.131  -1.064  1.00  0.00    -0.277 OA
ENDBRANCH  24  25
ENDBRANCH  23  24
ENDBRANCH  11  23
BRANCH   8  28
HETATM   28  N4  UNL     1       6.562  -3.056  -2.303  1.00  0.00    -0.234 N 
ATOM     29  H42 UNL     1       6.889  -3.703  -3.021  1.00  0.00     0.174 HD
ATOM     30  H41 UNL     1       6.453  -3.353  -1.333  1.00  0.00     0.174 HD
ENDBRANCH   8  28
TORSDOF 8
ENDMDL
MODEL 4
REMARK VINA RESULT: -4.691552997      1.301      3.777
REMARK  8 active torsions:
REMARK  status: ('A' for Active; 'I' for Inactive)
REMARK    1  A    between atoms: C4_5  and  N2_6 
REMARK    2  A    between atoms: C5_11  and  N4_12 
REMARK    3  A    between atoms: N5_15  and  C6_16 
REMARK    4  A    between atoms: C6_16  and  N6_17 
REMARK    5  A    between atoms: N7_21  and  N8_22 
REMARK    6  A    between atoms: N9_25  and  C7_26 
REMARK    7  A    between atoms: C7_26  and  C8_27 
REMARK    8  A    between atoms: C8_27  and  C9_28 
ROOT
HETATM    1  C1  UNL     1       3.723   2.506  -1.333  1.00  0.00     0.177 C 
HETATM    2  N1  UNL     1       4.548   1.776  -2.254  1.00  0.00    -0.169 N 
HETATM    3  C2  UNL     1       4.268   0.517  -2.539  1.00  0.00     0.174 A 
HETATM    4  C3  UNL     1       5.043  -0.195  -3.447  1.00  0.00     0.141 A 
HETATM    5  C4  UNL     1       6.109   0.388  -4.060  1.00  0.00     0.146 A 
HETATM    6  N3  UNL     1       6.363   1.701  -3.730  1.00  0.00    -0.175 N 
ATOM      7  H3  UNL     1       7.154   2.176  -4.166  1.00  0.00     0.186 HD
HETATM    8  C5  UNL     1       5.611   2.366  -2.863  1.00  0.00     0.681 A 
HETATM    9  N5  UNL     1       4.451  -1.485  -3.559  1.00  0.00    -0.241 N 
HETATM   10  N7  UNL     1       3.189  -1.409  -3.001  1.00  0.00    -0.035 NA
HETATM   11  N9  UNL     1       3.271  -0.343  -2.043  1.00  0.00    -0.234 N 
ENDROOT
BRANCH   9  12
HETATM   12  C6  UNL     1       5.019  -2.647  -4.156  1.00  0.00     0.376 C 
BRANCH  12  13
HETATM   13  N6  UNL     1       4.398  -3.056  -5.401  1.00  0.00    -0.062 N 
ATOM     14  H63 UNL     1       3.408  -2.807  -5.400  1.00  0.00     0.276 HD
ATOM     15  H62 UNL     1       4.726  -2.471  -6.169  1.00  0.00     0.276 HD
ATOM     16  H61 UNL     1       4.515  -4.042  -5.632  1.00  0.00     0.276 HD
ENDBRANCH  12  13
ENDBRANCH   9  12
BRANCH  10  17
HETATM   17  N8  UNL     1       2.841  -2.577  -2.418  1.00  0.00    -0.327 NA
ATOM     18  H82 UNL     1       2.607  -3.288  -3.112  1.00  0.00     0.174 HD
ATOM     19  H81 UNL     1       1.997  -2.471  -1.855  1.00  0.00     0.174 HD
ENDBRANCH  10  17
BRANCH   5  20
HETATM   20  N2  UNL     1       6.864  -0.198  -4.881  1.00  0.00    -0.383 N 
ATOM     21  H22 UNL     1       6.965  -1.212  -4.831  1.00  0.00     0.157 HD
ATOM     22  H21 UNL     1       7.388   0.274  -5.618  1.00  0.00     0.157 HD
ENDBRANCH   5  20
BRANCH  11  23
HETATM   23  C7  UNL     1       2.496  -0.317  -0.888  1.00  0.00     0.098 C 
BRANCH  23  24
HETATM   24  C8  UNL     1       1.036   0.049  -1.157  1.00  0.00     0.145 C 
BRANCH  24  25
HETATM   25  C9  UNL     1       0.504   0.872  -0.014  1.00  0.00     0.235 C 
HETATM   26  N10 UNL     1       0.354   2.278  -0.159  1.00  0.00    -0.062 NA
HETATM   27  O1  UNL     1       0.195   0.307   1.067  1.00  0.00    -0.277 OA
ENDBRANCH  24  25
ENDBRANCH  23  24
ENDBRANCH  11  23
BRANCH   8  28
HETATM   28  N4  UNL     1       5.854   3.620  -2.549  1.00  0.00    -0.234 N 
ATOM     29  H42 UNL     1       5.992   3.918  -1.584  1.00  0.00     0.174 HD
ATOM     30  H41 UNL     1       5.899   4.287  -3.320  1.00  0.00     0.174 HD
ENDBRANCH   8  28
TORSDOF 8
ENDMDL
MODEL 5
REMARK VINA RESULT: -4.687281064      1.988      4.322
REMARK  8 active torsions:
REMARK  status: ('A' for Active; 'I' for Inactive)
REMARK    1  A    between atoms: C4_5  and  N2_6 
REMARK    2  A    between atoms: C5_11  and  N4_12 
REMARK    3  A    between atoms: N5_15  and  C6_16 
REMARK    4  A    between atoms: C6_16  and  N6_17 
REMARK    5  A    between atoms: N7_21  and  N8_22 
REMARK    6  A    between atoms: N9_25  and  C7_26 
REMARK    7  A    between atoms: C7_26  and  C8_27 
REMARK    8  A    between atoms: C8_27  and  C9_28 
ROOT
HETATM    1  C1  UNL     1       6.864  -0.083  -4.653  1.00  0.00     0.177 C 
HETATM    2  N1  UNL     1       6.012   0.754  -3.856  1.00  0.00    -0.169 N 
HETATM    3  C2  UNL     1       5.565   0.326  -2.690  1.00  0.00     0.174 A 
HETATM    4  C3  UNL     1       4.760   1.135  -1.897  1.00  0.00     0.141 A 
HETATM    5  C4  UNL     1       4.412   2.385  -2.306  1.00  0.00     0.146 A 
HETATM    6  N3  UNL     1       4.900   2.788  -3.530  1.00  0.00    -0.175 N 
ATOM      7  H3  UNL     1       4.662   3.718  -3.875  1.00  0.00     0.186 HD
HETATM    8  C5  UNL     1       5.669   2.004  -4.272  1.00  0.00     0.681 A 
HETATM    9  N5  UNL     1       4.498   0.400  -0.706  1.00  0.00    -0.241 N 
HETATM   10  N7  UNL     1       5.395  -0.650  -0.663  1.00  0.00    -0.035 NA
HETATM   11  N9  UNL     1       5.726  -0.910  -2.036  1.00  0.00    -0.234 N 
ENDROOT
BRANCH   9  12
HETATM   12  C6  UNL     1       3.519   0.689   0.288  1.00  0.00     0.376 C 
BRANCH  12  13
HETATM   13  N6  UNL     1       2.152   0.717  -0.196  1.00  0.00    -0.062 N 
ATOM     14  H63 UNL     1       1.907   1.658  -0.505  1.00  0.00     0.276 HD
ATOM     15  H62 UNL     1       2.081   0.217  -1.082  1.00  0.00     0.276 HD
ATOM     16  H61 UNL     1       1.458   0.369   0.464  1.00  0.00     0.276 HD
ENDBRANCH  12  13
ENDBRANCH   9  12
BRANCH  10  17
HETATM   17  N8  UNL     1       4.850  -1.734  -0.069  1.00  0.00    -0.327 NA
ATOM     18  H82 UNL     1       5.439  -2.082   0.689  1.00  0.00     0.174 HD
ATOM     19  H81 UNL     1       4.774  -2.514  -0.722  1.00  0.00     0.174 HD
ENDBRANCH  10  17
BRANCH   5  20
HETATM   20  N2  UNL     1       3.675   3.169  -1.649  1.00  0.00    -0.383 N 
ATOM     21  H22 UNL     1       3.302   2.865  -0.749  1.00  0.00     0.157 HD
ATOM     22  H21 UNL     1       3.424   4.110  -1.950  1.00  0.00     0.157 HD
ENDBRANCH   5  20
BRANCH  11  23
HETATM   23  C7  UNL     1       6.075  -2.177  -2.492  1.00  0.00     0.098 C 
BRANCH  23  24
HETATM   24  C8  UNL     1       4.862  -3.056  -2.800  1.00  0.00     0.145 C 
BRANCH  24  25
HETATM   25  C9  UNL     1       3.986  -2.368  -3.813  1.00  0.00     0.235 C 
HETATM   26  N10 UNL     1       4.250  -2.521  -5.201  1.00  0.00    -0.062 NA
HETATM   27  O1  UNL     1       3.023  -1.661  -3.422  1.00  0.00    -0.277 OA
ENDBRANCH  24  25
ENDBRANCH  23  24
ENDBRANCH  11  23
BRANCH   8  28
HETATM   28  N4  UNL     1       6.136   2.389  -5.440  1.00  0.00    -0.234 N 
ATOM     29  H42 UNL     1       6.969   2.972  -5.523  1.00  0.00     0.174 HD
ATOM     30  H41 UNL     1       5.623   2.079  -6.266  1.00  0.00     0.174 HD
ENDBRANCH   8  28
TORSDOF 8
ENDMDL
