MODEL 1
REMARK VINA RESULT: -4.086527815      0.000      0.000
REMARK  3 active torsions:
REMARK  status: ('A' for Active; 'I' for Inactive)
REMARK    1  A    between atoms: O1_1  and  C1_3 
REMARK    2  A    between atoms: C1_3  and  C2_4 
REMARK    3  A    between atoms: C5_7  and  O2_8 
ROOT
HETATM    1  C2  UNL     1     -68.041  19.619 -15.723  1.00  0.00    -0.005 A 
HETATM    2  C3  UNL     1     -66.952  18.689 -15.373  1.00  0.00    -0.000 C 
HETATM    3  C4  UNL     1     -66.183  18.460 -16.678  1.00  0.00     0.037 C 
HETATM    4  C5  UNL     1     -67.005  19.087 -17.760  1.00  0.00     0.123 C 
HETATM    5  C6  UNL     1     -68.347  19.386 -17.125  1.00  0.00     0.031 A 
HETATM    6  C7  UNL     1     -68.862  18.386 -16.190  1.00  0.00     0.005 A 
HETATM    7  C8  UNL     1     -68.008  17.598 -15.253  1.00  0.00     0.011 C 
ENDROOT
BRANCH   1   8
HETATM    8  C1  UNL     1     -68.761  20.477 -14.782  1.00  0.00     0.175 C 
BRANCH   8   9
HETATM    9  O1  UNL     1     -68.562  21.831 -14.996  1.00  0.00    -0.400 OA
ATOM     10  H1  UNL     1     -69.356  22.306 -15.213  1.00  0.00     0.209 HD
ENDBRANCH   8   9
ENDBRANCH   1   8
BRANCH   4  11
HETATM   11  O2  UNL     1     -67.154  18.274 -18.883  1.00  0.00    -0.395 OA
ATOM     12  H2  UNL     1     -66.510  18.445 -19.560  1.00  0.00     0.210 HD
ENDBRANCH   4  11
TORSDOF 3
ENDMDL
MODEL 2
REMARK VINA RESULT: -3.883547262      1.794      2.949
REMARK  3 active torsions:
REMARK  status: ('A' for Active; 'I' for Inactive)
REMARK    1  A    between atoms: O1_1  and  C1_3 
REMARK    2  A    between atoms: C1_3  and  C2_4 
REMARK    3  A    between atoms: C5_7  and  O2_8 
ROOT
HETATM    1  C2  UNL     1     -67.769  17.838 -16.103  1.00  0.00    -0.005 A 
HETATM    2  C3  UNL     1     -68.751  18.891 -16.422  1.00  0.00    -0.000 C 
HETATM    3  C4  UNL     1     -68.440  19.308 -17.863  1.00  0.00     0.037 C 
HETATM    4  C5  UNL     1     -67.150  18.638 -18.220  1.00  0.00     0.123 C 
HETATM    5  C6  UNL     1     -66.593  18.112 -16.913  1.00  0.00     0.031 A 
HETATM    6  C7  UNL     1     -66.767  18.968 -15.740  1.00  0.00     0.005 A 
HETATM    7  C8  UNL     1     -67.974  19.809 -15.489  1.00  0.00     0.011 C 
ENDROOT
BRANCH   1   8
HETATM    8  C1  UNL     1     -67.916  16.829 -15.054  1.00  0.00     0.175 C 
BRANCH   8   9
HETATM    9  O1  UNL     1     -67.407  15.587 -15.399  1.00  0.00    -0.400 OA
ATOM     10  H1  UNL     1     -68.028  14.876 -15.294  1.00  0.00     0.209 HD
ENDBRANCH   8   9
ENDBRANCH   1   8
BRANCH   4  11
HETATM   11  O2  UNL     1     -66.239  19.491 -18.843  1.00  0.00    -0.395 OA
ATOM     12  H2  UNL     1     -66.401  19.601 -19.773  1.00  0.00     0.210 HD
ENDBRANCH   4  11
TORSDOF 3
ENDMDL
MODEL 3
REMARK VINA RESULT: -3.689513567      1.256      3.467
REMARK  3 active torsions:
REMARK  status: ('A' for Active; 'I' for Inactive)
REMARK    1  A    between atoms: O1_1  and  C1_3 
REMARK    2  A    between atoms: C1_3  and  C2_4 
REMARK    3  A    between atoms: C5_7  and  O2_8 
ROOT
HETATM    1  C2  UNL     1     -67.709  18.759 -17.564  1.00  0.00    -0.005 A 
HETATM    2  C3  UNL     1     -67.208  17.578 -16.837  1.00  0.00    -0.000 C 
HETATM    3  C4  UNL     1     -68.040  17.512 -15.553  1.00  0.00     0.037 C 
HETATM    4  C5  UNL     1     -68.819  18.788 -15.496  1.00  0.00     0.123 C 
HETATM    5  C6  UNL     1     -68.207  19.681 -16.556  1.00  0.00     0.031 A 
HETATM    6  C7  UNL     1     -66.752  19.623 -16.696  1.00  0.00     0.005 A 
HETATM    7  C8  UNL     1     -65.946  18.376 -16.538  1.00  0.00     0.011 C 
ENDROOT
BRANCH   1   8
HETATM    8  C1  UNL     1     -67.568  18.997 -19.000  1.00  0.00     0.175 C 
BRANCH   8   9
HETATM    9  O1  UNL     1     -66.638  18.173 -19.613  1.00  0.00    -0.400 OA
ATOM     10  H1  UNL     1     -66.908  17.862 -20.469  1.00  0.00     0.209 HD
ENDBRANCH   8   9
ENDBRANCH   1   8
BRANCH   4  11
HETATM   11  O2  UNL     1     -68.783  19.402 -14.245  1.00  0.00    -0.395 OA
ATOM     12  H2  UNL     1     -69.533  19.961 -14.077  1.00  0.00     0.210 HD
ENDBRANCH   4  11
TORSDOF 3
ENDMDL
MODEL 4
REMARK VINA RESULT: -3.526159239      0.906      3.347
REMARK  3 active torsions:
REMARK  status: ('A' for Active; 'I' for Inactive)
REMARK    1  A    between atoms: O1_1  and  C1_3 
REMARK    2  A    between atoms: C1_3  and  C2_4 
REMARK    3  A    between atoms: C5_7  and  O2_8 
ROOT
HETATM    1  C2  UNL     1     -67.765  18.936 -16.848  1.00  0.00    -0.005 A 
HETATM    2  C3  UNL     1     -68.930  18.260 -16.245  1.00  0.00    -0.000 C 
HETATM    3  C4  UNL     1     -69.593  19.317 -15.357  1.00  0.00     0.037 C 
HETATM    4  C5  UNL     1     -68.648  20.476 -15.313  1.00  0.00     0.123 C 
HETATM    5  C6  UNL     1     -67.352  19.962 -15.905  1.00  0.00     0.031 A 
HETATM    6  C7  UNL     1     -66.974  18.593 -15.556  1.00  0.00     0.005 A 
HETATM    7  C8  UNL     1     -67.948  17.474 -15.386  1.00  0.00     0.011 C 
ENDROOT
BRANCH   1   8
HETATM    8  C1  UNL     1     -67.086  18.524 -18.075  1.00  0.00     0.175 C 
BRANCH   8   9
HETATM    9  O1  UNL     1     -66.269  19.503 -18.617  1.00  0.00    -0.400 OA
ATOM     10  H1  UNL     1     -66.315  20.336 -18.162  1.00  0.00     0.209 HD
ENDBRANCH   8   9
ENDBRANCH   1   8
BRANCH   4  11
HETATM   11  O2  UNL     1     -68.445  20.976 -14.027  1.00  0.00    -0.395 OA
ATOM     12  H2  UNL     1     -68.349  21.921 -14.001  1.00  0.00     0.210 HD
ENDBRANCH   4  11
TORSDOF 3
ENDMDL
MODEL 5
REMARK VINA RESULT: -2.914135572      1.797      3.279
REMARK  3 active torsions:
REMARK  status: ('A' for Active; 'I' for Inactive)
REMARK    1  A    between atoms: O1_1  and  C1_3 
REMARK    2  A    between atoms: C1_3  and  C2_4 
REMARK    3  A    between atoms: C5_7  and  O2_8 
ROOT
HETATM    1  C2  UNL     1     -67.729  18.193 -15.701  1.00  0.00    -0.005 A 
HETATM    2  C3  UNL     1     -66.747  19.077 -16.357  1.00  0.00    -0.000 C 
HETATM    3  C4  UNL     1     -66.970  20.459 -15.733  1.00  0.00     0.037 C 
HETATM    4  C5  UNL     1     -68.221  20.350 -14.919  1.00  0.00     0.123 C 
HETATM    5  C6  UNL     1     -68.854  19.035 -15.325  1.00  0.00     0.031 A 
HETATM    6  C7  UNL     1     -68.773  18.683 -16.742  1.00  0.00     0.005 A 
HETATM    7  C8  UNL     1     -67.601  18.987 -17.614  1.00  0.00     0.011 C 
ENDROOT
BRANCH   1   8
HETATM    8  C1  UNL     1     -67.634  16.737 -15.612  1.00  0.00     0.175 C 
BRANCH   8   9
HETATM    9  O1  UNL     1     -67.947  16.233 -14.360  1.00  0.00    -0.400 OA
ATOM     10  H1  UNL     1     -67.578  16.734 -13.642  1.00  0.00     0.209 HD
ENDBRANCH   8   9
ENDBRANCH   1   8
BRANCH   4  11
HETATM   11  O2  UNL     1     -69.104  21.411 -15.120  1.00  0.00    -0.395 OA
ATOM     12  H2  UNL     1     -69.288  21.580 -16.036  1.00  0.00     0.210 HD
ENDBRANCH   4  11
TORSDOF 3
ENDMDL
