MODEL 1
REMARK VINA RESULT: -7.970510524      0.000      0.000
REMARK  2 active torsions:
REMARK  status: ('A' for Active; 'I' for Inactive)
REMARK    1  A    between atoms: C4_4  and  N1_5 
REMARK    2  A    between atoms: N1_5  and  C5_7 
ROOT
HETATM    1  C5  UNL     1      -2.856   1.056 -21.537  1.00  0.00     0.090 C 
HETATM    2  C6  UNL     1      -3.810   1.699 -22.527  1.00  0.00     0.019 C 
HETATM    3  C7  UNL     1      -3.760   1.058 -23.883  1.00  0.00     0.087 C 
HETATM    4  S1  UNL     1      -2.028   1.031 -24.442  1.00  0.00    -0.116 SA
HETATM    5  C8  UNL     1      -1.278   2.519 -23.807  1.00  0.00     0.045 C 
HETATM    6  N2  UNL     1      -0.327   3.131 -24.357  1.00  0.00    -0.397 N 
ATOM      7  H21 UNL     1       0.102   3.982 -23.994  1.00  0.00     0.156 HD
ATOM      8  H22 UNL     1       0.070   2.774 -25.226  1.00  0.00     0.156 HD
HETATM    9  C9  UNL     1      -1.863   3.044 -22.526  1.00  0.00     0.052 C 
HETATM   10  C10 UNL     1      -3.368   3.132 -22.679  1.00  0.00     0.019 C 
HETATM   11  C11 UNL     1      -1.684   1.960 -21.485  1.00  0.00    -0.018 C 
HETATM   12  C12 UNL     1      -1.668   2.683 -20.135  1.00  0.00     0.018 C 
HETATM   13  C13 UNL     1      -0.352   1.325 -21.671  1.00  0.00     0.018 C 
ENDROOT
BRANCH   1  14
HETATM   14  N1  UNL     1      -2.616  -0.307 -21.856  1.00  0.00    -0.412 N 
ATOM     15  H1  UNL     1      -2.251  -0.592 -22.765  1.00  0.00     0.154 HD
BRANCH  14  16
HETATM   16  C4  UNL     1      -2.915  -1.255 -20.832  1.00  0.00     0.080 C 
HETATM   17  C3  UNL     1      -2.087  -1.036 -19.572  1.00  0.00     0.029 C 
HETATM   18  C2  UNL     1      -2.750  -1.671 -18.388  1.00  0.00    -0.014 C 
HETATM   19  C1  UNL     1      -1.809  -1.588 -17.189  1.00  0.00     0.010 C 
HETATM   20  C17 UNL     1      -4.090  -1.070 -18.070  1.00  0.00     0.047 C 
HETATM   21  C15 UNL     1      -4.640  -0.313 -19.273  1.00  0.00     0.102 C 
HETATM   22  C14 UNL     1      -4.410  -1.110 -20.514  1.00  0.00     0.067 C 
HETATM   23  C16 UNL     1      -6.137  -0.139 -19.111  1.00  0.00     0.051 C 
HETATM   24  F1  UNL     1      -4.093   0.959 -19.359  1.00  0.00    -0.243 F 
ENDBRANCH  14  16
ENDBRANCH   1  14
TORSDOF 2
ENDMDL
MODEL 2
REMARK VINA RESULT: -7.517049366     12.121     14.213
REMARK  2 active torsions:
REMARK  status: ('A' for Active; 'I' for Inactive)
REMARK    1  A    between atoms: C4_4  and  N1_5 
REMARK    2  A    between atoms: N1_5  and  C5_7 
ROOT
HETATM    1  C5  UNL     1       4.008  -5.782 -11.595  1.00  0.00     0.090 C 
HETATM    2  C6  UNL     1       4.148  -6.702 -12.793  1.00  0.00     0.019 C 
HETATM    3  C7  UNL     1       2.831  -7.237 -13.274  1.00  0.00     0.087 C 
HETATM    4  S1  UNL     1       1.969  -7.995 -11.861  1.00  0.00    -0.116 SA
HETATM    5  C8  UNL     1       3.236  -8.717 -10.835  1.00  0.00     0.045 C 
HETATM    6  N2  UNL     1       3.074  -9.727 -10.104  1.00  0.00    -0.397 N 
ATOM      7  H21 UNL     1       3.799 -10.140  -9.517  1.00  0.00     0.156 HD
ATOM      8  H22 UNL     1       2.164 -10.187 -10.069  1.00  0.00     0.156 HD
HETATM    9  C9  UNL     1       4.577  -8.039 -10.888  1.00  0.00     0.052 C 
HETATM   10  C10 UNL     1       4.981  -7.874 -12.339  1.00  0.00     0.019 C 
HETATM   11  C11 UNL     1       4.366  -6.613 -10.423  1.00  0.00    -0.018 C 
HETATM   12  C12 UNL     1       5.721  -6.154  -9.877  1.00  0.00     0.018 C 
HETATM   13  C13 UNL     1       3.400  -6.611  -9.291  1.00  0.00     0.018 C 
ENDROOT
BRANCH   1  14
HETATM   14  N1  UNL     1       2.740  -5.141 -11.577  1.00  0.00    -0.412 N 
ATOM     15  H1  UNL     1       1.883  -5.646 -11.352  1.00  0.00     0.154 HD
BRANCH  14  16
HETATM   16  C4  UNL     1       2.735  -3.748 -11.892  1.00  0.00     0.080 C 
HETATM   17  C3  UNL     1       1.746  -2.960 -11.042  1.00  0.00     0.029 C 
HETATM   18  C2  UNL     1       2.112  -1.507 -11.018  1.00  0.00    -0.014 C 
HETATM   19  C1  UNL     1       1.005  -0.729 -10.313  1.00  0.00     0.010 C 
HETATM   20  C17 UNL     1       3.449  -1.247 -10.383  1.00  0.00     0.047 C 
HETATM   21  C15 UNL     1       4.287  -2.519 -10.352  1.00  0.00     0.102 C 
HETATM   22  C14 UNL     1       4.162  -3.234 -11.656  1.00  0.00     0.067 C 
HETATM   23  C16 UNL     1       5.746  -2.150 -10.169  1.00  0.00     0.051 C 
HETATM   24  F1  UNL     1       3.938  -3.324  -9.277  1.00  0.00    -0.243 F 
ENDBRANCH  14  16
ENDBRANCH   1  14
TORSDOF 2
ENDMDL
MODEL 3
REMARK VINA RESULT: -7.372440620     11.297     13.517
REMARK  2 active torsions:
REMARK  status: ('A' for Active; 'I' for Inactive)
REMARK    1  A    between atoms: C4_4  and  N1_5 
REMARK    2  A    between atoms: N1_5  and  C5_7 
ROOT
HETATM    1  C5  UNL     1       2.771  -5.639 -11.027  1.00  0.00     0.090 C 
HETATM    2  C6  UNL     1       3.964  -6.463 -10.578  1.00  0.00     0.019 C 
HETATM    3  C7  UNL     1       5.225  -6.109 -11.313  1.00  0.00     0.087 C 
HETATM    4  S1  UNL     1       4.894  -6.205 -13.100  1.00  0.00    -0.116 SA
HETATM    5  C8  UNL     1       3.731  -7.539 -13.319  1.00  0.00     0.045 C 
HETATM    6  N2  UNL     1       3.651  -8.254 -14.350  1.00  0.00    -0.397 N 
ATOM      7  H21 UNL     1       2.986  -9.018 -14.476  1.00  0.00     0.156 HD
ATOM      8  H22 UNL     1       4.277  -8.083 -15.137  1.00  0.00     0.156 HD
HETATM    9  C9  UNL     1       2.808  -7.792 -12.160  1.00  0.00     0.052 C 
HETATM   10  C10 UNL     1       3.637  -7.900 -10.895  1.00  0.00     0.019 C 
HETATM   11  C11 UNL     1       2.015  -6.520 -11.946  1.00  0.00    -0.018 C 
HETATM   12  C12 UNL     1       0.714  -6.957 -11.265  1.00  0.00     0.018 C 
HETATM   13  C13 UNL     1       1.658  -5.944 -13.270  1.00  0.00     0.018 C 
ENDROOT
BRANCH   1  14
HETATM   14  N1  UNL     1       3.172  -4.370 -11.523  1.00  0.00    -0.412 N 
ATOM     15  H1  UNL     1       3.721  -4.273 -12.377  1.00  0.00     0.154 HD
BRANCH  14  16
HETATM   16  C4  UNL     1       2.764  -3.237 -10.756  1.00  0.00     0.080 C 
HETATM   17  C3  UNL     1       3.753  -2.892  -9.650  1.00  0.00     0.029 C 
HETATM   18  C2  UNL     1       3.586  -1.466  -9.218  1.00  0.00    -0.014 C 
HETATM   19  C1  UNL     1       4.461  -1.213  -7.995  1.00  0.00     0.010 C 
HETATM   20  C17 UNL     1       3.881  -0.481 -10.313  1.00  0.00     0.047 C 
HETATM   21  C15 UNL     1       3.818  -1.156 -11.677  1.00  0.00     0.102 C 
HETATM   22  C14 UNL     1       2.633  -2.062 -11.734  1.00  0.00     0.067 C 
HETATM   23  C16 UNL     1       3.639  -0.099 -12.749  1.00  0.00     0.051 C 
HETATM   24  F1  UNL     1       5.001  -1.823 -11.963  1.00  0.00    -0.243 F 
ENDBRANCH  14  16
ENDBRANCH   1  14
TORSDOF 2
ENDMDL
MODEL 4
REMARK VINA RESULT: -7.355150243     12.101     14.975
REMARK  2 active torsions:
REMARK  status: ('A' for Active; 'I' for Inactive)
REMARK    1  A    between atoms: C4_4  and  N1_5 
REMARK    2  A    between atoms: N1_5  and  C5_7 
ROOT
HETATM    1  C5  UNL     1       3.322  -7.024 -10.781  1.00  0.00     0.090 C 
HETATM    2  C6  UNL     1       3.970  -7.431  -9.471  1.00  0.00     0.019 C 
HETATM    3  C7  UNL     1       5.445  -7.673  -9.602  1.00  0.00     0.087 C 
HETATM    4  S1  UNL     1       5.714  -8.860 -10.956  1.00  0.00    -0.116 SA
HETATM    5  C8  UNL     1       4.329  -9.982 -10.915  1.00  0.00     0.045 C 
HETATM    6  N2  UNL     1       4.371 -11.183 -11.285  1.00  0.00    -0.397 N 
ATOM      7  H21 UNL     1       3.579 -11.825 -11.262  1.00  0.00     0.156 HD
ATOM      8  H22 UNL     1       5.242 -11.573 -11.645  1.00  0.00     0.156 HD
HETATM    9  C9  UNL     1       3.044  -9.408 -10.385  1.00  0.00     0.052 C 
HETATM   10  C10 UNL     1       3.326  -8.730  -9.059  1.00  0.00     0.019 C 
HETATM   11  C11 UNL     1       2.673  -8.253 -11.292  1.00  0.00    -0.018 C 
HETATM   12  C12 UNL     1       1.154  -8.107 -11.171  1.00  0.00     0.018 C 
HETATM   13  C13 UNL     1       2.980  -8.625 -12.699  1.00  0.00     0.018 C 
ENDROOT
BRANCH   1  14
HETATM   14  N1  UNL     1       4.246  -6.369 -11.638  1.00  0.00    -0.412 N 
ATOM     15  H1  UNL     1       5.149  -6.781 -11.872  1.00  0.00     0.154 HD
BRANCH  14  16
HETATM   16  C4  UNL     1       3.839  -5.101 -12.152  1.00  0.00     0.080 C 
HETATM   17  C3  UNL     1       2.473  -4.671 -11.633  1.00  0.00     0.029 C 
HETATM   18  C2  UNL     1       2.304  -3.187 -11.756  1.00  0.00    -0.014 C 
HETATM   19  C1  UNL     1       0.867  -2.820 -11.399  1.00  0.00     0.010 C 
HETATM   20  C17 UNL     1       3.287  -2.412 -10.925  1.00  0.00     0.047 C 
HETATM   21  C15 UNL     1       4.477  -3.283 -10.545  1.00  0.00     0.102 C 
HETATM   22  C14 UNL     1       4.909  -4.085 -11.728  1.00  0.00     0.067 C 
HETATM   23  C16 UNL     1       5.639  -2.395 -10.145  1.00  0.00     0.051 C 
HETATM   24  F1  UNL     1       4.186  -4.083  -9.449  1.00  0.00    -0.243 F 
ENDBRANCH  14  16
ENDBRANCH   1  14
TORSDOF 2
ENDMDL
MODEL 5
REMARK VINA RESULT: -7.324718043     11.969     14.166
REMARK  2 active torsions:
REMARK  status: ('A' for Active; 'I' for Inactive)
REMARK    1  A    between atoms: C4_4  and  N1_5 
REMARK    2  A    between atoms: N1_5  and  C5_7 
ROOT
HETATM    1  C5  UNL     1       3.062  -5.852 -11.034  1.00  0.00     0.090 C 
HETATM    2  C6  UNL     1       3.722  -6.590  -9.885  1.00  0.00     0.019 C 
HETATM    3  C7  UNL     1       5.173  -6.880 -10.136  1.00  0.00     0.087 C 
HETATM    4  S1  UNL     1       5.319  -7.732 -11.738  1.00  0.00    -0.116 SA
HETATM    5  C8  UNL     1       3.864  -8.750 -11.894  1.00  0.00     0.045 C 
HETATM    6  N2  UNL     1       3.814  -9.832 -12.534  1.00  0.00    -0.397 N 
ATOM      7  H21 UNL     1       2.982 -10.415 -12.623  1.00  0.00     0.156 HD
ATOM      8  H22 UNL     1       4.646 -10.176 -13.013  1.00  0.00     0.156 HD
HETATM    9  C9  UNL     1       2.638  -8.242 -11.188  1.00  0.00     0.052 C 
HETATM   10  C10 UNL     1       3.006  -7.910  -9.756  1.00  0.00     0.019 C 
HETATM   11  C11 UNL     1       2.317  -6.888 -11.785  1.00  0.00    -0.018 C 
HETATM   12  C12 UNL     1       0.816  -6.687 -11.565  1.00  0.00     0.018 C 
HETATM   13  C13 UNL     1       2.554  -6.938 -13.253  1.00  0.00     0.018 C 
ENDROOT
BRANCH   1  14
HETATM   14  N1  UNL     1       4.002  -5.070 -11.758  1.00  0.00    -0.412 N 
ATOM     15  H1  UNL     1       4.876  -5.463 -12.105  1.00  0.00     0.154 HD
BRANCH  14  16
HETATM   16  C4  UNL     1       3.650  -3.703 -11.971  1.00  0.00     0.080 C 
HETATM   17  C3  UNL     1       2.262  -3.366 -11.444  1.00  0.00     0.029 C 
HETATM   18  C2  UNL     1       2.127  -1.892 -11.213  1.00  0.00    -0.014 C 
HETATM   19  C1  UNL     1       0.677  -1.575 -10.861  1.00  0.00     0.010 C 
HETATM   20  C17 UNL     1       3.068  -1.372 -10.163  1.00  0.00     0.047 C 
HETATM   21  C15 UNL     1       4.217  -2.347  -9.938  1.00  0.00     0.102 C 
HETATM   22  C14 UNL     1       4.709  -2.854 -11.253  1.00  0.00     0.067 C 
HETATM   23  C16 UNL     1       5.366  -1.620  -9.268  1.00  0.00     0.051 C 
HETATM   24  F1  UNL     1       3.842  -3.378  -9.087  1.00  0.00    -0.243 F 
ENDBRANCH  14  16
ENDBRANCH   1  14
TORSDOF 2
ENDMDL
