MODEL 1
REMARK VINA RESULT: -8.570506127      0.000      0.000
REMARK  14 active torsions:
REMARK  status: ('A' for Active; 'I' for Inactive)
REMARK    1  A    between atoms: C3_3  and  C4_4 
REMARK    2  A    between atoms: C8_8  and  C9_9 
REMARK    3  A    between atoms: C9_9  and  N1_10 
REMARK       I    between atoms: N1_10  and  C10_12 
REMARK    4  A    between atoms: C10_12  and  C11_14 
REMARK    5  A    between atoms: C14_17  and  C15_18 
REMARK    6  A    between atoms: C17_20  and  O2_21 
REMARK    7  A    between atoms: C19_23  and  O3_24 
REMARK    8  A    between atoms: C21_26  and  O4_27 
REMARK    9  A    between atoms: N2_30  and  C24_31 
REMARK   10  A    between atoms: C24_31  and  O5_32 
REMARK   11  A    between atoms: C24_31  and  C25_34 
REMARK   12  A    between atoms: C27_36  and  O6_37 
REMARK   13  A    between atoms: C29_39  and  O7_40 
REMARK   14  A    between atoms: C31_42  and  O8_43 
ROOT
HETATM    1  C11 UNL     1      21.034  33.228  14.867  1.00  0.00     0.179 C 
HETATM    2  C12 UNL     1      22.518  33.651  14.716  1.00  0.00     0.037 C 
HETATM    3  C13 UNL     1      23.111  33.149  16.020  1.00  0.00     0.033 C 
HETATM    4  C14 UNL     1      22.022  33.414  16.968  1.00  0.00     0.120 C 
HETATM    5  N2  UNL     1      20.742  33.332  16.245  1.00  0.00    -0.339 N 
ENDROOT
BRANCH   1   6
HETATM    6  C10 UNL     1      20.954  31.791  14.347  1.00  0.00     0.244 C 
HETATM    7  N1  UNL     1      20.596  30.738  15.177  1.00  0.00    -0.337 N 
ATOM      8  H1  UNL     1      20.391  31.038  16.129  1.00  0.00     0.168 HD
HETATM    9  O1  UNL     1      21.239  31.698  13.144  1.00  0.00    -0.271 OA
BRANCH   7  10
HETATM   10  C9  UNL     1      20.452  29.344  15.000  1.00  0.00     0.096 C 
BRANCH  10  11
HETATM   11  C8  UNL     1      19.204  28.732  14.536  1.00  0.00     0.225 C 
HETATM   12  C7  UNL     1      17.954  29.482  14.393  1.00  0.00     0.038 C 
HETATM   13  C6  UNL     1      17.559  29.835  12.971  1.00  0.00     0.005 C 
HETATM   14  C5  UNL     1      17.621  28.618  12.069  1.00  0.00     0.037 C 
HETATM   15  C4  UNL     1      18.255  27.447  12.826  1.00  0.00     0.209 C 
HETATM   16  N3  UNL     1      19.522  27.953  13.316  1.00  0.00    -0.059 N 
ATOM     17  H32 UNL     1      20.221  27.225  13.468  1.00  0.00     0.278 HD
ATOM     18  H31 UNL     1      20.047  28.482  12.620  1.00  0.00     0.278 HD
BRANCH  15  19
HETATM   19  C3  UNL     1      18.472  26.341  11.869  1.00  0.00     0.001 C 
HETATM   20  C2  UNL     1      17.892  26.373  10.658  1.00  0.00    -0.033 C 
HETATM   21  C1  UNL     1      18.110  25.261   9.694  1.00  0.00     0.036 C 
ENDBRANCH  15  19
ENDBRANCH  10  11
ENDBRANCH   7  10
ENDBRANCH   1   6
BRANCH   5  22
HETATM   22  C24 UNL     1      19.486  33.367  16.915  1.00  0.00     0.150 C 
BRANCH  22  23
HETATM   23  O5  UNL     1      18.956  32.168  17.106  1.00  0.00    -0.346 OA
ATOM     24  H5  UNL     1      18.079  32.196  17.472  1.00  0.00     0.219 HD
ENDBRANCH  22  23
BRANCH  22  25
HETATM   25  C25 UNL     1      18.687  34.433  17.416  1.00  0.00     0.020 A 
HETATM   26  C26 UNL     1      17.415  34.131  17.877  1.00  0.00     0.055 A 
HETATM   27  C27 UNL     1      16.606  35.105  18.380  1.00  0.00     0.105 A 
HETATM   28  C29 UNL     1      17.010  36.427  18.455  1.00  0.00     0.135 A 
HETATM   29  C31 UNL     1      18.258  36.775  18.012  1.00  0.00     0.105 A 
HETATM   30  C33 UNL     1      19.063  35.755  17.502  1.00  0.00     0.055 A 
BRANCH  27  31
HETATM   31  O6  UNL     1      15.328  34.785  18.840  1.00  0.00    -0.353 OA
HETATM   32  C28 UNL     1      14.277  34.743  17.925  1.00  0.00     0.210 C 
ENDBRANCH  27  31
BRANCH  28  33
HETATM   33  O7  UNL     1      16.149  37.387  18.976  1.00  0.00    -0.351 OA
HETATM   34  C30 UNL     1      15.601  38.343  18.058  1.00  0.00     0.210 C 
ENDBRANCH  28  33
BRANCH  29  35
HETATM   35  O8  UNL     1      18.675  38.090  18.080  1.00  0.00    -0.353 OA
HETATM   36  C32 UNL     1      19.145  38.703  19.252  1.00  0.00     0.210 C 
ENDBRANCH  29  35
ENDBRANCH  22  25
ENDBRANCH   5  22
BRANCH   4  37
HETATM   37  C15 UNL     1      22.134  34.653  17.743  1.00  0.00    -0.030 A 
HETATM   38  C16 UNL     1      22.094  35.895  17.150  1.00  0.00     0.049 A 
HETATM   39  C17 UNL     1      22.205  37.043  17.899  1.00  0.00     0.104 A 
HETATM   40  C19 UNL     1      22.359  36.967  19.264  1.00  0.00     0.135 A 
HETATM   41  C21 UNL     1      22.404  35.723  19.899  1.00  0.00     0.104 A 
HETATM   42  C23 UNL     1      22.289  34.613  19.110  1.00  0.00     0.049 A 
BRANCH  39  43
HETATM   43  O2  UNL     1      22.164  38.287  17.303  1.00  0.00    -0.353 OA
HETATM   44  C18 UNL     1      21.403  38.439  16.122  1.00  0.00     0.210 C 
ENDBRANCH  39  43
BRANCH  40  45
HETATM   45  O3  UNL     1      22.470  38.148  19.999  1.00  0.00    -0.351 OA
HETATM   46  C20 UNL     1      23.705  38.805  20.191  1.00  0.00     0.210 C 
ENDBRANCH  40  45
BRANCH  41  47
HETATM   47  O4  UNL     1      22.562  35.679  21.287  1.00  0.00    -0.353 OA
HETATM   48  C22 UNL     1      23.860  35.415  21.783  1.00  0.00     0.210 C 
ENDBRANCH  41  47
ENDBRANCH   4  37
TORSDOF 14
ENDMDL
MODEL 2
REMARK VINA RESULT: -8.562021430      0.038      1.924
REMARK  14 active torsions:
REMARK  status: ('A' for Active; 'I' for Inactive)
REMARK    1  A    between atoms: C3_3  and  C4_4 
REMARK    2  A    between atoms: C8_8  and  C9_9 
REMARK    3  A    between atoms: C9_9  and  N1_10 
REMARK       I    between atoms: N1_10  and  C10_12 
REMARK    4  A    between atoms: C10_12  and  C11_14 
REMARK    5  A    between atoms: C14_17  and  C15_18 
REMARK    6  A    between atoms: C17_20  and  O2_21 
REMARK    7  A    between atoms: C19_23  and  O3_24 
REMARK    8  A    between atoms: C21_26  and  O4_27 
REMARK    9  A    between atoms: N2_30  and  C24_31 
REMARK   10  A    between atoms: C24_31  and  O5_32 
REMARK   11  A    between atoms: C24_31  and  C25_34 
REMARK   12  A    between atoms: C27_36  and  O6_37 
REMARK   13  A    between atoms: C29_39  and  O7_40 
REMARK   14  A    between atoms: C31_42  and  O8_43 
ROOT
HETATM    1  C11 UNL     1      21.049  33.235  14.879  1.00  0.00     0.179 C 
HETATM    2  C12 UNL     1      22.538  33.647  14.744  1.00  0.00     0.037 C 
HETATM    3  C13 UNL     1      23.118  33.119  16.044  1.00  0.00     0.033 C 
HETATM    4  C14 UNL     1      22.025  33.379  16.989  1.00  0.00     0.120 C 
HETATM    5  N2  UNL     1      20.749  33.321  16.256  1.00  0.00    -0.339 N 
ENDROOT
BRANCH   1   6
HETATM    6  C10 UNL     1      20.959  31.808  14.335  1.00  0.00     0.244 C 
HETATM    7  N1  UNL     1      20.622  30.739  15.155  1.00  0.00    -0.337 N 
ATOM      8  H1  UNL     1      20.439  31.022  16.117  1.00  0.00     0.168 HD
HETATM    9  O1  UNL     1      21.215  31.737  13.125  1.00  0.00    -0.271 OA
BRANCH   7  10
HETATM   10  C9  UNL     1      20.476  29.349  14.957  1.00  0.00     0.096 C 
BRANCH  10  11
HETATM   11  C8  UNL     1      19.214  28.741  14.525  1.00  0.00     0.225 C 
HETATM   12  C7  UNL     1      17.967  29.499  14.400  1.00  0.00     0.038 C 
HETATM   13  C6  UNL     1      17.545  29.841  12.982  1.00  0.00     0.005 C 
HETATM   14  C5  UNL     1      17.580  28.613  12.092  1.00  0.00     0.037 C 
HETATM   15  C4  UNL     1      18.221  27.446  12.848  1.00  0.00     0.209 C 
HETATM   16  N3  UNL     1      19.502  27.948  13.307  1.00  0.00    -0.059 N 
ATOM     17  H32 UNL     1      20.198  27.216  13.452  1.00  0.00     0.278 HD
ATOM     18  H31 UNL     1      20.016  28.466  12.595  1.00  0.00     0.278 HD
BRANCH  15  19
HETATM   19  C3  UNL     1      18.410  26.329  11.898  1.00  0.00     0.001 C 
HETATM   20  C2  UNL     1      17.891  26.399  10.661  1.00  0.00    -0.033 C 
HETATM   21  C1  UNL     1      18.081  25.276   9.705  1.00  0.00     0.036 C 
ENDBRANCH  15  19
ENDBRANCH  10  11
ENDBRANCH   7  10
ENDBRANCH   1   6
BRANCH   5  22
HETATM   22  C24 UNL     1      19.488  33.358  16.918  1.00  0.00     0.150 C 
BRANCH  22  23
HETATM   23  O5  UNL     1      18.954  32.160  17.102  1.00  0.00    -0.346 OA
ATOM     24  H5  UNL     1      18.710  31.989  18.004  1.00  0.00     0.219 HD
ENDBRANCH  22  23
BRANCH  22  25
HETATM   25  C25 UNL     1      18.690  34.424  17.418  1.00  0.00     0.020 A 
HETATM   26  C26 UNL     1      17.418  34.123  17.880  1.00  0.00     0.055 A 
HETATM   27  C27 UNL     1      16.609  35.097  18.382  1.00  0.00     0.105 A 
HETATM   28  C29 UNL     1      17.013  36.419  18.454  1.00  0.00     0.135 A 
HETATM   29  C31 UNL     1      18.262  36.767  18.010  1.00  0.00     0.105 A 
HETATM   30  C33 UNL     1      19.066  35.746  17.502  1.00  0.00     0.055 A 
BRANCH  27  31
HETATM   31  O6  UNL     1      15.331  34.778  18.842  1.00  0.00    -0.353 OA
HETATM   32  C28 UNL     1      14.278  34.746  17.929  1.00  0.00     0.210 C 
ENDBRANCH  27  31
BRANCH  28  33
HETATM   33  O7  UNL     1      16.153  37.380  18.974  1.00  0.00    -0.351 OA
HETATM   34  C30 UNL     1      15.612  38.341  18.057  1.00  0.00     0.210 C 
ENDBRANCH  28  33
BRANCH  29  35
HETATM   35  O8  UNL     1      18.678  38.082  18.077  1.00  0.00    -0.353 OA
HETATM   36  C32 UNL     1      19.158  38.693  19.247  1.00  0.00     0.210 C 
ENDBRANCH  29  35
ENDBRANCH  22  25
ENDBRANCH   5  22
BRANCH   4  37
HETATM   37  C15 UNL     1      22.143  34.605  17.784  1.00  0.00    -0.030 A 
HETATM   38  C16 UNL     1      22.292  34.580  19.152  1.00  0.00     0.049 A 
HETATM   39  C17 UNL     1      22.396  35.744  19.876  1.00  0.00     0.104 A 
HETATM   40  C19 UNL     1      22.354  36.962  19.238  1.00  0.00     0.135 A 
HETATM   41  C21 UNL     1      22.203  37.025  17.850  1.00  0.00     0.104 A 
HETATM   42  C23 UNL     1      22.104  35.839  17.177  1.00  0.00     0.049 A 
BRANCH  39  43
HETATM   43  O2  UNL     1      22.546  35.718  21.248  1.00  0.00    -0.353 OA
HETATM   44  C18 UNL     1      23.831  35.454  21.776  1.00  0.00     0.210 C 
ENDBRANCH  39  43
BRANCH  40  45
HETATM   45  O3  UNL     1      22.461  38.128  19.997  1.00  0.00    -0.351 OA
HETATM   46  C20 UNL     1      23.678  38.831  20.134  1.00  0.00     0.210 C 
ENDBRANCH  40  45
BRANCH  41  47
HETATM   47  O4  UNL     1      22.163  38.277  17.231  1.00  0.00    -0.353 OA
HETATM   48  C22 UNL     1      21.376  38.397  16.062  1.00  0.00     0.210 C 
ENDBRANCH  41  47
ENDBRANCH   4  37
TORSDOF 14
ENDMDL
MODEL 3
REMARK VINA RESULT: -8.530630103      1.604      1.991
REMARK  14 active torsions:
REMARK  status: ('A' for Active; 'I' for Inactive)
REMARK    1  A    between atoms: C3_3  and  C4_4 
REMARK    2  A    between atoms: C8_8  and  C9_9 
REMARK    3  A    between atoms: C9_9  and  N1_10 
REMARK       I    between atoms: N1_10  and  C10_12 
REMARK    4  A    between atoms: C10_12  and  C11_14 
REMARK    5  A    between atoms: C14_17  and  C15_18 
REMARK    6  A    between atoms: C17_20  and  O2_21 
REMARK    7  A    between atoms: C19_23  and  O3_24 
REMARK    8  A    between atoms: C21_26  and  O4_27 
REMARK    9  A    between atoms: N2_30  and  C24_31 
REMARK   10  A    between atoms: C24_31  and  O5_32 
REMARK   11  A    between atoms: C24_31  and  C25_34 
REMARK   12  A    between atoms: C27_36  and  O6_37 
REMARK   13  A    between atoms: C29_39  and  O7_40 
REMARK   14  A    between atoms: C31_42  and  O8_43 
ROOT
HETATM    1  C11 UNL     1      20.622  34.239  16.329  1.00  0.00     0.179 C 
HETATM    2  C12 UNL     1      22.159  34.243  16.124  1.00  0.00     0.037 C 
HETATM    3  C13 UNL     1      22.649  33.790  17.488  1.00  0.00     0.033 C 
HETATM    4  C14 UNL     1      21.695  34.453  18.386  1.00  0.00     0.120 C 
HETATM    5  N2  UNL     1      20.413  34.604  17.677  1.00  0.00    -0.339 N 
ENDROOT
BRANCH   1   6
HETATM    6  C10 UNL     1      20.162  32.813  16.017  1.00  0.00     0.244 C 
HETATM    7  N1  UNL     1      19.149  32.203  16.743  1.00  0.00    -0.337 N 
ATOM      8  H1  UNL     1      18.763  32.807  17.468  1.00  0.00     0.168 HD
HETATM    9  O1  UNL     1      20.785  32.302  15.076  1.00  0.00    -0.271 OA
BRANCH   7  10
HETATM   10  C9  UNL     1      18.532  30.933  16.705  1.00  0.00     0.096 C 
BRANCH  10  11
HETATM   11  C8  UNL     1      17.806  30.443  15.529  1.00  0.00     0.225 C 
HETATM   12  C7  UNL     1      17.434  31.306  14.406  1.00  0.00     0.038 C 
HETATM   13  C6  UNL     1      18.277  31.154  13.153  1.00  0.00     0.005 C 
HETATM   14  C5  UNL     1      18.406  29.696  12.757  1.00  0.00     0.037 C 
HETATM   15  C4  UNL     1      17.814  28.808  13.855  1.00  0.00     0.209 C 
HETATM   16  N3  UNL     1      18.489  29.209  15.074  1.00  0.00    -0.059 N 
ATOM     17  H32 UNL     1      18.521  28.476  15.782  1.00  0.00     0.278 HD
ATOM     18  H31 UNL     1      19.498  29.317  14.965  1.00  0.00     0.278 HD
BRANCH  15  19
HETATM   19  C3  UNL     1      18.123  27.400  13.528  1.00  0.00     0.001 C 
HETATM   20  C2  UNL     1      17.793  26.897  12.327  1.00  0.00    -0.033 C 
HETATM   21  C1  UNL     1      18.104  25.480  11.998  1.00  0.00     0.036 C 
ENDBRANCH  15  19
ENDBRANCH  10  11
ENDBRANCH   7  10
ENDBRANCH   1   6
BRANCH   5  22
HETATM   22  C24 UNL     1      19.230  35.052  18.332  1.00  0.00     0.150 C 
BRANCH  22  23
HETATM   23  O5  UNL     1      18.848  34.267  19.327  1.00  0.00    -0.346 OA
ATOM     24  H5  UNL     1      18.196  34.664  19.893  1.00  0.00     0.219 HD
ENDBRANCH  22  23
BRANCH  22  25
HETATM   25  C25 UNL     1      18.377  36.172  18.126  1.00  0.00     0.020 A 
HETATM   26  C26 UNL     1      17.007  35.968  18.190  1.00  0.00     0.055 A 
HETATM   27  C27 UNL     1      16.139  37.002  18.015  1.00  0.00     0.105 A 
HETATM   28  C29 UNL     1      16.576  38.292  17.767  1.00  0.00     0.135 A 
HETATM   29  C31 UNL     1      17.920  38.545  17.695  1.00  0.00     0.105 A 
HETATM   30  C33 UNL     1      18.785  37.464  17.879  1.00  0.00     0.055 A 
BRANCH  27  31
HETATM   31  O6  UNL     1      14.762  36.780  18.081  1.00  0.00    -0.353 OA
HETATM   32  C28 UNL     1      14.268  35.526  17.726  1.00  0.00     0.210 C 
ENDBRANCH  27  31
BRANCH  28  33
HETATM   33  O7  UNL     1      15.651  39.316  17.594  1.00  0.00    -0.351 OA
HETATM   34  C30 UNL     1      15.291  40.077  18.756  1.00  0.00     0.210 C 
ENDBRANCH  28  33
BRANCH  29  35
HETATM   35  O8  UNL     1      18.371  39.827  17.448  1.00  0.00    -0.353 OA
HETATM   36  C32 UNL     1      19.180  40.176  16.355  1.00  0.00     0.210 C 
ENDBRANCH  29  35
ENDBRANCH  22  25
ENDBRANCH   5  22
BRANCH   4  37
HETATM   37  C15 UNL     1      22.144  35.717  18.977  1.00  0.00    -0.030 A 
HETATM   38  C16 UNL     1      21.912  36.932  18.374  1.00  0.00     0.049 A 
HETATM   39  C17 UNL     1      22.348  38.104  18.948  1.00  0.00     0.104 A 
HETATM   40  C19 UNL     1      23.027  38.078  20.143  1.00  0.00     0.135 A 
HETATM   41  C21 UNL     1      23.280  36.862  20.783  1.00  0.00     0.104 A 
HETATM   42  C23 UNL     1      22.826  35.727  20.173  1.00  0.00     0.049 A 
BRANCH  39  43
HETATM   43  O2  UNL     1      22.115  39.321  18.342  1.00  0.00    -0.353 OA
HETATM   44  C18 UNL     1      22.855  39.644  17.180  1.00  0.00     0.210 C 
ENDBRANCH  39  43
BRANCH  40  45
HETATM   45  O3  UNL     1      23.458  39.282  20.703  1.00  0.00    -0.351 OA
HETATM   46  C20 UNL     1      24.745  39.810  20.460  1.00  0.00     0.210 C 
ENDBRANCH  40  45
BRANCH  41  47
HETATM   47  O4  UNL     1      23.972  36.869  21.998  1.00  0.00    -0.353 OA
HETATM   48  C22 UNL     1      25.258  36.281  22.013  1.00  0.00     0.210 C 
ENDBRANCH  41  47
ENDBRANCH   4  37
TORSDOF 14
ENDMDL
MODEL 4
REMARK VINA RESULT: -8.470658464      1.602      2.731
REMARK  14 active torsions:
REMARK  status: ('A' for Active; 'I' for Inactive)
REMARK    1  A    between atoms: C3_3  and  C4_4 
REMARK    2  A    between atoms: C8_8  and  C9_9 
REMARK    3  A    between atoms: C9_9  and  N1_10 
REMARK       I    between atoms: N1_10  and  C10_12 
REMARK    4  A    between atoms: C10_12  and  C11_14 
REMARK    5  A    between atoms: C14_17  and  C15_18 
REMARK    6  A    between atoms: C17_20  and  O2_21 
REMARK    7  A    between atoms: C19_23  and  O3_24 
REMARK    8  A    between atoms: C21_26  and  O4_27 
REMARK    9  A    between atoms: N2_30  and  C24_31 
REMARK   10  A    between atoms: C24_31  and  O5_32 
REMARK   11  A    between atoms: C24_31  and  C25_34 
REMARK   12  A    between atoms: C27_36  and  O6_37 
REMARK   13  A    between atoms: C29_39  and  O7_40 
REMARK   14  A    between atoms: C31_42  and  O8_43 
ROOT
HETATM    1  C11 UNL     1      20.529  34.314  16.376  1.00  0.00     0.179 C 
HETATM    2  C12 UNL     1      22.054  34.342  16.099  1.00  0.00     0.037 C 
HETATM    3  C13 UNL     1      22.612  33.857  17.426  1.00  0.00     0.033 C 
HETATM    4  C14 UNL     1      21.694  34.484  18.385  1.00  0.00     0.120 C 
HETATM    5  N2  UNL     1      20.379  34.638  17.742  1.00  0.00    -0.339 N 
ENDROOT
BRANCH   1   6
HETATM    6  C10 UNL     1      20.070  32.892  16.045  1.00  0.00     0.244 C 
HETATM    7  N1  UNL     1      19.050  32.275  16.757  1.00  0.00    -0.337 N 
ATOM      8  H1  UNL     1      18.658  32.873  17.484  1.00  0.00     0.168 HD
HETATM    9  O1  UNL     1      20.700  32.389  15.105  1.00  0.00    -0.271 OA
BRANCH   7  10
HETATM   10  C9  UNL     1      18.432  31.006  16.700  1.00  0.00     0.096 C 
BRANCH  10  11
HETATM   11  C8  UNL     1      17.709  30.532  15.516  1.00  0.00     0.225 C 
HETATM   12  C7  UNL     1      17.423  31.387  14.362  1.00  0.00     0.038 C 
HETATM   13  C6  UNL     1      18.288  31.150  13.138  1.00  0.00     0.005 C 
HETATM   14  C5  UNL     1      18.337  29.677  12.781  1.00  0.00     0.037 C 
HETATM   15  C4  UNL     1      17.659  28.857  13.883  1.00  0.00     0.209 C 
HETATM   16  N3  UNL     1      18.325  29.246  15.111  1.00  0.00    -0.059 N 
ATOM     17  H32 UNL     1      18.292  28.531  15.838  1.00  0.00     0.278 HD
ATOM     18  H31 UNL     1      19.341  29.289  15.028  1.00  0.00     0.278 HD
BRANCH  15  19
HETATM   19  C3  UNL     1      17.888  27.424  13.599  1.00  0.00     0.001 C 
HETATM   20  C2  UNL     1      17.888  26.978  12.333  1.00  0.00    -0.033 C 
HETATM   21  C1  UNL     1      18.118  25.537  12.047  1.00  0.00     0.036 C 
ENDBRANCH  15  19
ENDBRANCH  10  11
ENDBRANCH   7  10
ENDBRANCH   1   6
BRANCH   5  22
HETATM   22  C24 UNL     1      19.223  35.054  18.463  1.00  0.00     0.150 C 
BRANCH  22  23
HETATM   23  O5  UNL     1      18.888  34.230  19.444  1.00  0.00    -0.346 OA
ATOM     24  H5  UNL     1      19.542  33.563  19.617  1.00  0.00     0.219 HD
ENDBRANCH  22  23
BRANCH  22  25
HETATM   25  C25 UNL     1      18.357  36.176  18.336  1.00  0.00     0.020 A 
HETATM   26  C26 UNL     1      16.996  35.938  18.218  1.00  0.00     0.055 A 
HETATM   27  C27 UNL     1      16.114  36.969  18.107  1.00  0.00     0.105 A 
HETATM   28  C29 UNL     1      16.528  38.290  18.106  1.00  0.00     0.135 A 
HETATM   29  C31 UNL     1      17.862  38.577  18.220  1.00  0.00     0.105 A 
HETATM   30  C33 UNL     1      18.741  37.499  18.333  1.00  0.00     0.055 A 
BRANCH  27  31
HETATM   31  O6  UNL     1      14.747  36.712  17.988  1.00  0.00    -0.353 OA
HETATM   32  C28 UNL     1      14.331  35.407  17.728  1.00  0.00     0.210 C 
ENDBRANCH  27  31
BRANCH  28  33
HETATM   33  O7  UNL     1      15.590  39.310  17.989  1.00  0.00    -0.351 OA
HETATM   34  C30 UNL     1      15.114  39.905  19.204  1.00  0.00     0.210 C 
ENDBRANCH  28  33
BRANCH  29  35
HETATM   35  O8  UNL     1      18.290  39.891  18.221  1.00  0.00    -0.353 OA
HETATM   36  C32 UNL     1      18.871  40.524  19.331  1.00  0.00     0.210 C 
ENDBRANCH  29  35
ENDBRANCH  22  25
ENDBRANCH   5  22
BRANCH   4  37
HETATM   37  C15 UNL     1      22.157  35.736  18.991  1.00  0.00    -0.030 A 
HETATM   38  C16 UNL     1      22.825  35.765  20.194  1.00  0.00     0.049 A 
HETATM   39  C17 UNL     1      23.245  36.954  20.743  1.00  0.00     0.104 A 
HETATM   40  C19 UNL     1      23.002  38.141  20.093  1.00  0.00     0.135 A 
HETATM   41  C21 UNL     1      22.327  38.148  18.870  1.00  0.00     0.104 A 
HETATM   42  C23 UNL     1      21.930  36.941  18.366  1.00  0.00     0.049 A 
BRANCH  39  43
HETATM   43  O2  UNL     1      23.915  36.982  21.949  1.00  0.00    -0.353 OA
HETATM   44  C18 UNL     1      25.234  36.474  21.995  1.00  0.00     0.210 C 
ENDBRANCH  39  43
BRANCH  40  45
HETATM   45  O3  UNL     1      23.440  39.333  20.673  1.00  0.00    -0.351 OA
HETATM   46  C20 UNL     1      24.688  39.913  20.359  1.00  0.00     0.210 C 
ENDBRANCH  40  45
BRANCH  41  47
HETATM   47  O4  UNL     1      22.095  39.371  18.234  1.00  0.00    -0.353 OA
HETATM   48  C22 UNL     1      21.723  39.331  16.869  1.00  0.00     0.210 C 
ENDBRANCH  41  47
ENDBRANCH   4  37
TORSDOF 14
ENDMDL
MODEL 5
REMARK VINA RESULT: -8.387030088      1.665      3.351
REMARK  14 active torsions:
REMARK  status: ('A' for Active; 'I' for Inactive)
REMARK    1  A    between atoms: C3_3  and  C4_4 
REMARK    2  A    between atoms: C8_8  and  C9_9 
REMARK    3  A    between atoms: C9_9  and  N1_10 
REMARK       I    between atoms: N1_10  and  C10_12 
REMARK    4  A    between atoms: C10_12  and  C11_14 
REMARK    5  A    between atoms: C14_17  and  C15_18 
REMARK    6  A    between atoms: C17_20  and  O2_21 
REMARK    7  A    between atoms: C19_23  and  O3_24 
REMARK    8  A    between atoms: C21_26  and  O4_27 
REMARK    9  A    between atoms: N2_30  and  C24_31 
REMARK   10  A    between atoms: C24_31  and  O5_32 
REMARK   11  A    between atoms: C24_31  and  C25_34 
REMARK   12  A    between atoms: C27_36  and  O6_37 
REMARK   13  A    between atoms: C29_39  and  O7_40 
REMARK   14  A    between atoms: C31_42  and  O8_43 
ROOT
HETATM    1  C11 UNL     1      20.583  34.299  16.627  1.00  0.00     0.179 C 
HETATM    2  C12 UNL     1      22.102  34.323  16.316  1.00  0.00     0.037 C 
HETATM    3  C13 UNL     1      22.688  33.844  17.632  1.00  0.00     0.033 C 
HETATM    4  C14 UNL     1      21.794  34.477  18.608  1.00  0.00     0.120 C 
HETATM    5  N2  UNL     1      20.465  34.631  17.994  1.00  0.00    -0.339 N 
ENDROOT
BRANCH   1   6
HETATM    6  C10 UNL     1      20.114  32.876  16.314  1.00  0.00     0.244 C 
HETATM    7  N1  UNL     1      18.941  32.365  16.852  1.00  0.00    -0.337 N 
ATOM      8  H1  UNL     1      18.452  33.036  17.443  1.00  0.00     0.168 HD
HETATM    9  O1  UNL     1      20.885  32.272  15.555  1.00  0.00    -0.271 OA
BRANCH   7  10
HETATM   10  C9  UNL     1      18.273  31.124  16.765  1.00  0.00     0.096 C 
BRANCH  10  11
HETATM   11  C8  UNL     1      17.654  30.645  15.525  1.00  0.00     0.225 C 
HETATM   12  C7  UNL     1      17.449  31.502  14.355  1.00  0.00     0.038 C 
HETATM   13  C6  UNL     1      18.413  31.285  13.203  1.00  0.00     0.005 C 
HETATM   14  C5  UNL     1      18.512  29.814  12.845  1.00  0.00     0.037 C 
HETATM   15  C4  UNL     1      17.761  28.978  13.886  1.00  0.00     0.209 C 
HETATM   16  N3  UNL     1      18.320  29.371  15.164  1.00  0.00    -0.059 N 
ATOM     17  H32 UNL     1      18.239  28.652  15.883  1.00  0.00     0.278 HD
ATOM     18  H31 UNL     1      19.339  29.429  15.164  1.00  0.00     0.278 HD
BRANCH  15  19
HETATM   19  C3  UNL     1      18.034  27.551  13.615  1.00  0.00     0.001 C 
HETATM   20  C2  UNL     1      17.842  27.048  12.385  1.00  0.00    -0.033 C 
HETATM   21  C1  UNL     1      18.116  25.612  12.112  1.00  0.00     0.036 C 
ENDBRANCH  15  19
ENDBRANCH  10  11
ENDBRANCH   7  10
ENDBRANCH   1   6
BRANCH   5  22
HETATM   22  C24 UNL     1      19.326  35.053  18.739  1.00  0.00     0.150 C 
BRANCH  22  23
HETATM   23  O5  UNL     1      19.162  34.389  19.873  1.00  0.00    -0.346 OA
ATOM     24  H5  UNL     1      19.929  34.404  20.434  1.00  0.00     0.219 HD
ENDBRANCH  22  23
BRANCH  22  25
HETATM   25  C25 UNL     1      18.331  36.042  18.505  1.00  0.00     0.020 A 
HETATM   26  C26 UNL     1      18.747  37.348  18.297  1.00  0.00     0.055 A 
HETATM   27  C27 UNL     1      17.844  38.338  18.056  1.00  0.00     0.105 A 
HETATM   28  C29 UNL     1      16.482  38.092  18.006  1.00  0.00     0.135 A 
HETATM   29  C31 UNL     1      16.021  36.817  18.205  1.00  0.00     0.105 A 
HETATM   30  C33 UNL     1      16.972  35.825  18.450  1.00  0.00     0.055 A 
BRANCH  27  31
HETATM   31  O6  UNL     1      18.279  39.648  17.850  1.00  0.00    -0.353 OA
HETATM   32  C28 UNL     1      18.897  39.967  16.641  1.00  0.00     0.210 C 
ENDBRANCH  27  31
BRANCH  28  33
HETATM   33  O7  UNL     1      15.598  39.135  17.757  1.00  0.00    -0.351 OA
HETATM   34  C30 UNL     1      15.178  39.922  18.881  1.00  0.00     0.210 C 
ENDBRANCH  28  33
BRANCH  29  35
HETATM   35  O8  UNL     1      14.665  36.557  18.158  1.00  0.00    -0.353 OA
HETATM   36  C32 UNL     1      14.110  35.397  17.594  1.00  0.00     0.210 C 
ENDBRANCH  29  35
ENDBRANCH  22  25
ENDBRANCH   5  22
BRANCH   4  37
HETATM   37  C15 UNL     1      22.273  35.732  19.197  1.00  0.00    -0.030 A 
HETATM   38  C16 UNL     1      22.984  35.764  20.375  1.00  0.00     0.049 A 
HETATM   39  C17 UNL     1      23.418  36.955  20.909  1.00  0.00     0.104 A 
HETATM   40  C19 UNL     1      23.146  38.141  20.267  1.00  0.00     0.135 A 
HETATM   41  C21 UNL     1      22.426  38.145  19.070  1.00  0.00     0.104 A 
HETATM   42  C23 UNL     1      22.018  36.936  18.581  1.00  0.00     0.049 A 
BRANCH  39  43
HETATM   43  O2  UNL     1      24.132  36.986  22.090  1.00  0.00    -0.353 OA
HETATM   44  C18 UNL     1      25.484  36.574  22.066  1.00  0.00     0.210 C 
ENDBRANCH  39  43
BRANCH  40  45
HETATM   45  O3  UNL     1      23.599  39.335  20.832  1.00  0.00    -0.351 OA
HETATM   46  C20 UNL     1      24.828  39.925  20.466  1.00  0.00     0.210 C 
ENDBRANCH  40  45
BRANCH  41  47
HETATM   47  O4  UNL     1      22.166  39.367  18.443  1.00  0.00    -0.353 OA
HETATM   48  C22 UNL     1      22.862  39.640  17.242  1.00  0.00     0.210 C 
ENDBRANCH  41  47
ENDBRANCH   4  37
TORSDOF 14
ENDMDL
