MODEL 1
REMARK VINA RESULT: -7.840293772      0.000      0.000
REMARK  15 active torsions:
REMARK  status: ('A' for Active; 'I' for Inactive)
REMARK    1  A    between atoms: C6_8  and  C7_9 
REMARK    2  A    between atoms: C7_9  and  C8_10 
REMARK    3  A    between atoms: C8_10  and  N2_11 
REMARK    4  A    between atoms: C8_10  and  C9_15 
REMARK    5  A    between atoms: C8_10  and  N7_30 
REMARK    6  A    between atoms: C9_15  and  C10_16 
REMARK    7  A    between atoms: C10_16  and  C11_17 
REMARK    8  A    between atoms: C11_17  and  N3_18 
REMARK       I    between atoms: N3_18  and  C12_20 
REMARK    9  A    between atoms: C12_20  and  C13_22 
REMARK   10  A    between atoms: C13_22  and  N4_23 
REMARK   11  A    between atoms: N4_23  and  N5_25 
REMARK   12  A    between atoms: N7_30  and  C14_32 
REMARK   13  A    between atoms: C14_32  and  C15_33 
REMARK   14  A    between atoms: C15_33  and  C16_34 
REMARK   15  A    between atoms: C16_34  and  N8_35 
ROOT
HETATM    1  C8  UNL     1      13.821  64.068  38.102  1.00  0.00     0.195 C 
ENDROOT
BRANCH   1   2
HETATM    2  C7  UNL     1      14.879  63.119  38.531  1.00  0.00     0.101 C 
BRANCH   2   3
HETATM    3  C6  UNL     1      14.571  62.210  39.634  1.00  0.00    -0.033 A 
HETATM    4  C2  UNL     1      15.082  62.368  40.877  1.00  0.00    -0.053 A 
HETATM    5  C1  UNL     1      15.884  63.519  41.282  1.00  0.00     0.049 C 
HETATM    6  C3  UNL     1      14.789  61.427  41.869  1.00  0.00     0.024 A 
HETATM    7  C4  UNL     1      13.989  60.334  41.629  1.00  0.00     0.088 A 
HETATM    8  N1  UNL     1      13.493  60.201  40.398  1.00  0.00    -0.375 N 
HETATM    9  C5  UNL     1      13.763  61.091  39.431  1.00  0.00     0.095 A 
ATOM     10  H1  UNL     1      12.895  59.403  40.186  1.00  0.00     0.164 HD
ENDBRANCH   2   3
ENDBRANCH   1   2
BRANCH   1  11
HETATM   11  N2  UNL     1      12.549  63.431  37.941  1.00  0.00    -0.053 N 
ATOM     12  H23 UNL     1      12.182  63.574  37.000  1.00  0.00     0.277 HD
ATOM     13  H22 UNL     1      12.645  62.416  37.925  1.00  0.00     0.277 HD
ATOM     14  H21 UNL     1      11.874  63.725  38.647  1.00  0.00     0.277 HD
ENDBRANCH   1  11
BRANCH   1  15
HETATM   15  C9  UNL     1      14.153  64.600  36.675  1.00  0.00     0.063 C 
BRANCH  15  16
HETATM   16  C10 UNL     1      15.360  63.821  36.196  1.00  0.00     0.024 C 
BRANCH  16  17
HETATM   17  C11 UNL     1      16.283  64.655  35.374  1.00  0.00     0.123 C 
BRANCH  17  18
HETATM   18  N3  UNL     1      15.947  66.052  35.410  1.00  0.00    -0.360 N 
HETATM   19  C12 UNL     1      15.956  66.913  34.296  1.00  0.00     0.236 C 
HETATM   20  O1  UNL     1      16.286  66.397  33.180  1.00  0.00    -0.272 OA
ATOM     21  H3  UNL     1      15.682  66.450  36.311  1.00  0.00     0.162 HD
BRANCH  19  22
HETATM   22  C13 UNL     1      15.628  68.337  34.289  1.00  0.00     0.243 C 
BRANCH  22  23
HETATM   23  N4  UNL     1      14.288  68.655  33.938  1.00  0.00    -0.314 N 
ATOM     24  H4  UNL     1      13.513  68.041  34.192  1.00  0.00     0.182 HD
BRANCH  23  25
HETATM   25  N5  UNL     1      14.073  69.848  33.228  1.00  0.00    -0.253 N 
HETATM   26  N6  UNL     1      13.034  69.960  32.539  1.00  0.00    -0.331 N 
ATOM     27  H62 UNL     1      12.365  69.190  32.504  1.00  0.00     0.178 HD
ATOM     28  H61 UNL     1      12.877  70.826  32.024  1.00  0.00     0.178 HD
ATOM     29  H5  UNL     1      14.751  70.609  33.273  1.00  0.00     0.207 HD
ENDBRANCH  23  25
ENDBRANCH  22  23
ENDBRANCH  19  22
ENDBRANCH  17  18
ENDBRANCH  16  17
ENDBRANCH  15  16
ENDBRANCH   1  15
BRANCH   1  30
HETATM   30  N7  UNL     1      13.650  65.215  38.963  1.00  0.00    -0.391 N 
ATOM     31  H7  UNL     1      13.412  65.121  39.951  1.00  0.00     0.155 HD
BRANCH  30  32
HETATM   32  C14 UNL     1      13.833  66.484  38.349  1.00  0.00     0.117 C 
BRANCH  32  33
HETATM   33  C15 UNL     1      13.257  67.541  39.264  1.00  0.00     0.039 C 
BRANCH  33  34
HETATM   34  C16 UNL     1      13.372  68.927  38.672  1.00  0.00     0.123 C 
BRANCH  34  35
HETATM   35  N8  UNL     1      12.494  69.055  37.526  1.00  0.00    -0.367 N 
HETATM   36  C17 UNL     1      12.667  69.824  36.531  1.00  0.00     0.196 C 
HETATM   37  N9  UNL     1      11.700  69.821  35.489  1.00  0.00    -0.067 NA
HETATM   38  N10 UNL     1      13.796  70.701  36.403  1.00  0.00    -0.067 NA
ATOM     39  H8  UNL     1      11.658  68.471  37.519  1.00  0.00     0.161 HD
ENDBRANCH  34  35
ENDBRANCH  33  34
ENDBRANCH  32  33
ENDBRANCH  30  32
ENDBRANCH   1  30
TORSDOF 15
ENDMDL
MODEL 2
REMARK VINA RESULT: -7.655929749      2.789      4.704
REMARK  15 active torsions:
REMARK  status: ('A' for Active; 'I' for Inactive)
REMARK    1  A    between atoms: C6_8  and  C7_9 
REMARK    2  A    between atoms: C7_9  and  C8_10 
REMARK    3  A    between atoms: C8_10  and  N2_11 
REMARK    4  A    between atoms: C8_10  and  C9_15 
REMARK    5  A    between atoms: C8_10  and  N7_30 
REMARK    6  A    between atoms: C9_15  and  C10_16 
REMARK    7  A    between atoms: C10_16  and  C11_17 
REMARK    8  A    between atoms: C11_17  and  N3_18 
REMARK       I    between atoms: N3_18  and  C12_20 
REMARK    9  A    between atoms: C12_20  and  C13_22 
REMARK   10  A    between atoms: C13_22  and  N4_23 
REMARK   11  A    between atoms: N4_23  and  N5_25 
REMARK   12  A    between atoms: N7_30  and  C14_32 
REMARK   13  A    between atoms: C14_32  and  C15_33 
REMARK   14  A    between atoms: C15_33  and  C16_34 
REMARK   15  A    between atoms: C16_34  and  N8_35 
ROOT
HETATM    1  C8  UNL     1      14.082  61.511  41.023  1.00  0.00     0.195 C 
ENDROOT
BRANCH   1   2
HETATM    2  C7  UNL     1      14.395  60.185  41.612  1.00  0.00     0.101 C 
BRANCH   2   3
HETATM    3  C6  UNL     1      13.276  59.299  41.927  1.00  0.00    -0.033 A 
HETATM    4  C2  UNL     1      13.007  58.179  41.218  1.00  0.00    -0.053 A 
HETATM    5  C1  UNL     1      13.866  57.668  40.154  1.00  0.00     0.049 C 
HETATM    6  C3  UNL     1      11.885  57.409  41.543  1.00  0.00     0.024 A 
HETATM    7  C4  UNL     1      11.035  57.749  42.569  1.00  0.00     0.088 A 
HETATM    8  N1  UNL     1      11.322  58.856  43.257  1.00  0.00    -0.375 N 
HETATM    9  C5  UNL     1      12.392  59.609  42.962  1.00  0.00     0.095 A 
ATOM     10  H1  UNL     1      10.713  59.136  44.025  1.00  0.00     0.164 HD
ENDBRANCH   2   3
ENDBRANCH   1   2
BRANCH   1  11
HETATM   11  N2  UNL     1      12.934  62.119  41.624  1.00  0.00    -0.053 N 
ATOM     12  H23 UNL     1      12.208  62.302  40.931  1.00  0.00     0.277 HD
ATOM     13  H22 UNL     1      12.433  61.454  42.213  1.00  0.00     0.277 HD
ATOM     14  H21 UNL     1      13.169  62.965  42.143  1.00  0.00     0.277 HD
ENDBRANCH   1  11
BRANCH   1  15
HETATM   15  C9  UNL     1      13.666  61.329  39.531  1.00  0.00     0.063 C 
BRANCH  15  16
HETATM   16  C10 UNL     1      14.340  62.443  38.759  1.00  0.00     0.024 C 
BRANCH  16  17
HETATM   17  C11 UNL     1      13.379  63.205  37.909  1.00  0.00     0.123 C 
BRANCH  17  18
HETATM   18  N3  UNL     1      13.955  64.400  37.359  1.00  0.00    -0.360 N 
HETATM   19  C12 UNL     1      14.560  64.494  36.090  1.00  0.00     0.236 C 
HETATM   20  O1  UNL     1      14.586  63.431  35.392  1.00  0.00    -0.272 OA
ATOM     21  H3  UNL     1      13.924  65.245  37.929  1.00  0.00     0.162 HD
BRANCH  19  22
HETATM   22  C13 UNL     1      15.162  65.685  35.495  1.00  0.00     0.243 C 
BRANCH  22  23
HETATM   23  N4  UNL     1      15.222  65.697  34.075  1.00  0.00    -0.314 N 
ATOM     24  H4  UNL     1      14.406  65.937  33.511  1.00  0.00     0.182 HD
BRANCH  23  25
HETATM   25  N5  UNL     1      16.450  65.363  33.478  1.00  0.00    -0.253 N 
HETATM   26  N6  UNL     1      16.831  64.172  33.511  1.00  0.00    -0.331 N 
ATOM     27  H62 UNL     1      16.250  63.468  33.966  1.00  0.00     0.178 HD
ATOM     28  H61 UNL     1      17.722  63.930  33.078  1.00  0.00     0.178 HD
ATOM     29  H5  UNL     1      17.019  66.079  33.027  1.00  0.00     0.207 HD
ENDBRANCH  23  25
ENDBRANCH  22  23
ENDBRANCH  19  22
ENDBRANCH  17  18
ENDBRANCH  16  17
ENDBRANCH  15  16
ENDBRANCH   1  15
BRANCH   1  30
HETATM   30  N7  UNL     1      15.170  62.462  41.056  1.00  0.00    -0.391 N 
ATOM     31  H7  UNL     1      15.627  62.792  40.206  1.00  0.00     0.155 HD
BRANCH  30  32
HETATM   32  C14 UNL     1      15.564  62.908  42.347  1.00  0.00     0.117 C 
BRANCH  32  33
HETATM   33  C15 UNL     1      15.961  64.364  42.243  1.00  0.00     0.039 C 
BRANCH  33  34
HETATM   34  C16 UNL     1      14.825  65.289  42.614  1.00  0.00     0.123 C 
BRANCH  34  35
HETATM   35  N8  UNL     1      14.523  66.177  41.510  1.00  0.00    -0.367 N 
HETATM   36  C17 UNL     1      13.654  65.981  40.605  1.00  0.00     0.196 C 
HETATM   37  N9  UNL     1      13.489  66.963  39.592  1.00  0.00    -0.067 NA
HETATM   38  N10 UNL     1      12.825  64.810  40.555  1.00  0.00    -0.067 NA
ATOM     39  H8  UNL     1      15.060  67.042  41.454  1.00  0.00     0.161 HD
ENDBRANCH  34  35
ENDBRANCH  33  34
ENDBRANCH  32  33
ENDBRANCH  30  32
ENDBRANCH   1  30
TORSDOF 15
ENDMDL
MODEL 3
REMARK VINA RESULT: -7.627791117      2.824      4.691
REMARK  15 active torsions:
REMARK  status: ('A' for Active; 'I' for Inactive)
REMARK    1  A    between atoms: C6_8  and  C7_9 
REMARK    2  A    between atoms: C7_9  and  C8_10 
REMARK    3  A    between atoms: C8_10  and  N2_11 
REMARK    4  A    between atoms: C8_10  and  C9_15 
REMARK    5  A    between atoms: C8_10  and  N7_30 
REMARK    6  A    between atoms: C9_15  and  C10_16 
REMARK    7  A    between atoms: C10_16  and  C11_17 
REMARK    8  A    between atoms: C11_17  and  N3_18 
REMARK       I    between atoms: N3_18  and  C12_20 
REMARK    9  A    between atoms: C12_20  and  C13_22 
REMARK   10  A    between atoms: C13_22  and  N4_23 
REMARK   11  A    between atoms: N4_23  and  N5_25 
REMARK   12  A    between atoms: N7_30  and  C14_32 
REMARK   13  A    between atoms: C14_32  and  C15_33 
REMARK   14  A    between atoms: C15_33  and  C16_34 
REMARK   15  A    between atoms: C16_34  and  N8_35 
ROOT
HETATM    1  C8  UNL     1      14.010  61.525  41.160  1.00  0.00     0.195 C 
ENDROOT
BRANCH   1   2
HETATM    2  C7  UNL     1      14.325  60.235  41.823  1.00  0.00     0.101 C 
BRANCH   2   3
HETATM    3  C6  UNL     1      13.506  59.075  41.479  1.00  0.00    -0.033 A 
HETATM    4  C2  UNL     1      12.442  58.685  42.218  1.00  0.00    -0.053 A 
HETATM    5  C1  UNL     1      11.924  59.442  43.353  1.00  0.00     0.049 C 
HETATM    6  C3  UNL     1      11.738  57.530  41.859  1.00  0.00     0.024 A 
HETATM    7  C4  UNL     1      12.087  56.768  40.769  1.00  0.00     0.088 A 
HETATM    8  N1  UNL     1      13.137  57.174  40.053  1.00  0.00    -0.375 N 
HETATM    9  C5  UNL     1      13.827  58.277  40.380  1.00  0.00     0.095 A 
ATOM     10  H1  UNL     1      13.422  56.632  39.237  1.00  0.00     0.164 HD
ENDBRANCH   2   3
ENDBRANCH   1   2
BRANCH   1  11
HETATM   11  N2  UNL     1      12.867  62.170  41.733  1.00  0.00    -0.053 N 
ATOM     12  H23 UNL     1      13.085  63.126  42.013  1.00  0.00     0.277 HD
ATOM     13  H22 UNL     1      12.161  62.365  41.023  1.00  0.00     0.277 HD
ATOM     14  H21 UNL     1      12.470  61.640  42.509  1.00  0.00     0.277 HD
ENDBRANCH   1  11
BRANCH   1  15
HETATM   15  C9  UNL     1      13.584  61.257  39.684  1.00  0.00     0.063 C 
BRANCH  15  16
HETATM   16  C10 UNL     1      14.294  62.291  38.837  1.00  0.00     0.024 C 
BRANCH  16  17
HETATM   17  C11 UNL     1      13.354  63.049  37.962  1.00  0.00     0.123 C 
BRANCH  17  18
HETATM   18  N3  UNL     1      13.935  64.254  37.439  1.00  0.00    -0.360 N 
HETATM   19  C12 UNL     1      14.486  64.391  36.150  1.00  0.00     0.236 C 
HETATM   20  O1  UNL     1      14.455  63.359  35.405  1.00  0.00    -0.272 OA
ATOM     21  H3  UNL     1      13.950  65.073  38.047  1.00  0.00     0.162 HD
BRANCH  19  22
HETATM   22  C13 UNL     1      15.091  65.593  35.581  1.00  0.00     0.243 C 
BRANCH  22  23
HETATM   23  N4  UNL     1      15.183  65.620  34.163  1.00  0.00    -0.314 N 
ATOM     24  H4  UNL     1      14.377  65.856  33.583  1.00  0.00     0.182 HD
BRANCH  23  25
HETATM   25  N5  UNL     1      16.427  65.308  33.590  1.00  0.00    -0.253 N 
HETATM   26  N6  UNL     1      16.820  64.119  33.613  1.00  0.00    -0.331 N 
ATOM     27  H62 UNL     1      16.235  63.402  34.043  1.00  0.00     0.178 HD
ATOM     28  H61 UNL     1      17.723  63.892  33.198  1.00  0.00     0.178 HD
ATOM     29  H5  UNL     1      17.001  66.036  33.165  1.00  0.00     0.207 HD
ENDBRANCH  23  25
ENDBRANCH  22  23
ENDBRANCH  19  22
ENDBRANCH  17  18
ENDBRANCH  16  17
ENDBRANCH  15  16
ENDBRANCH   1  15
BRANCH   1  30
HETATM   30  N7  UNL     1      15.099  62.474  41.130  1.00  0.00    -0.391 N 
ATOM     31  H7  UNL     1      15.488  62.826  40.254  1.00  0.00     0.155 HD
BRANCH  30  32
HETATM   32  C14 UNL     1      15.597  62.887  42.396  1.00  0.00     0.117 C 
BRANCH  32  33
HETATM   33  C15 UNL     1      15.944  64.357  42.312  1.00  0.00     0.039 C 
BRANCH  33  34
HETATM   34  C16 UNL     1      14.756  65.238  42.624  1.00  0.00     0.123 C 
BRANCH  34  35
HETATM   35  N8  UNL     1      14.494  66.133  41.515  1.00  0.00    -0.367 N 
HETATM   36  C17 UNL     1      13.637  65.957  40.594  1.00  0.00     0.196 C 
HETATM   37  N9  UNL     1      13.512  66.943  39.580  1.00  0.00    -0.067 NA
HETATM   38  N10 UNL     1      12.784  64.804  40.527  1.00  0.00    -0.067 NA
ATOM     39  H8  UNL     1      15.050  66.987  41.470  1.00  0.00     0.161 HD
ENDBRANCH  34  35
ENDBRANCH  33  34
ENDBRANCH  32  33
ENDBRANCH  30  32
ENDBRANCH   1  30
TORSDOF 15
ENDMDL
MODEL 4
REMARK VINA RESULT: -7.440076421      1.531      1.965
REMARK  15 active torsions:
REMARK  status: ('A' for Active; 'I' for Inactive)
REMARK    1  A    between atoms: C6_8  and  C7_9 
REMARK    2  A    between atoms: C7_9  and  C8_10 
REMARK    3  A    between atoms: C8_10  and  N2_11 
REMARK    4  A    between atoms: C8_10  and  C9_15 
REMARK    5  A    between atoms: C8_10  and  N7_30 
REMARK    6  A    between atoms: C9_15  and  C10_16 
REMARK    7  A    between atoms: C10_16  and  C11_17 
REMARK    8  A    between atoms: C11_17  and  N3_18 
REMARK       I    between atoms: N3_18  and  C12_20 
REMARK    9  A    between atoms: C12_20  and  C13_22 
REMARK   10  A    between atoms: C13_22  and  N4_23 
REMARK   11  A    between atoms: N4_23  and  N5_25 
REMARK   12  A    between atoms: N7_30  and  C14_32 
REMARK   13  A    between atoms: C14_32  and  C15_33 
REMARK   14  A    between atoms: C15_33  and  C16_34 
REMARK   15  A    between atoms: C16_34  and  N8_35 
ROOT
HETATM    1  C8  UNL     1      13.972  63.271  39.097  1.00  0.00     0.195 C 
ENDROOT
BRANCH   1   2
HETATM    2  C7  UNL     1      14.556  62.751  40.360  1.00  0.00     0.101 C 
BRANCH   2   3
HETATM    3  C6  UNL     1      13.640  62.194  41.354  1.00  0.00    -0.033 A 
HETATM    4  C2  UNL     1      13.375  60.871  41.444  1.00  0.00    -0.053 A 
HETATM    5  C1  UNL     1      14.060  59.852  40.654  1.00  0.00     0.049 C 
HETATM    6  C3  UNL     1      12.444  60.416  42.384  1.00  0.00     0.024 A 
HETATM    7  C4  UNL     1      11.781  61.271  43.233  1.00  0.00     0.088 A 
HETATM    8  N1  UNL     1      12.061  62.571  43.128  1.00  0.00    -0.375 N 
HETATM    9  C5  UNL     1      12.950  63.029  42.233  1.00  0.00     0.095 A 
ATOM     10  H1  UNL     1      11.589  63.233  43.744  1.00  0.00     0.164 HD
ENDBRANCH   2   3
ENDBRANCH   1   2
BRANCH   1  11
HETATM   11  N2  UNL     1      13.234  62.272  38.384  1.00  0.00    -0.053 N 
ATOM     12  H23 UNL     1      13.798  61.435  38.235  1.00  0.00     0.277 HD
ATOM     13  H22 UNL     1      12.499  61.872  38.967  1.00  0.00     0.277 HD
ATOM     14  H21 UNL     1      12.856  62.622  37.504  1.00  0.00     0.277 HD
ENDBRANCH   1  11
BRANCH   1  15
HETATM   15  C9  UNL     1      15.121  63.654  38.116  1.00  0.00     0.063 C 
BRANCH  15  16
HETATM   16  C10 UNL     1      14.519  63.646  36.727  1.00  0.00     0.024 C 
BRANCH  16  17
HETATM   17  C11 UNL     1      15.546  63.845  35.663  1.00  0.00     0.123 C 
BRANCH  17  18
HETATM   18  N3  UNL     1      15.270  64.986  34.835  1.00  0.00    -0.360 N 
HETATM   19  C12 UNL     1      15.668  66.306  35.121  1.00  0.00     0.236 C 
HETATM   20  O1  UNL     1      16.325  66.482  36.197  1.00  0.00    -0.272 OA
ATOM     21  H3  UNL     1      14.746  64.829  33.975  1.00  0.00     0.162 HD
BRANCH  19  22
HETATM   22  C13 UNL     1      15.404  67.494  34.312  1.00  0.00     0.243 C 
BRANCH  22  23
HETATM   23  N4  UNL     1      14.114  68.070  34.471  1.00  0.00    -0.314 N 
ATOM     24  H4  UNL     1      13.401  67.623  35.049  1.00  0.00     0.182 HD
BRANCH  23  25
HETATM   25  N5  UNL     1      13.860  69.278  33.802  1.00  0.00    -0.253 N 
HETATM   26  N6  UNL     1      12.717  69.479  33.334  1.00  0.00    -0.331 N 
ATOM     27  H62 UNL     1      11.994  68.768  33.446  1.00  0.00     0.178 HD
ATOM     28  H61 UNL     1      12.532  70.357  32.848  1.00  0.00     0.178 HD
ATOM     29  H5  UNL     1      14.594  69.979  33.698  1.00  0.00     0.207 HD
ENDBRANCH  23  25
ENDBRANCH  22  23
ENDBRANCH  19  22
ENDBRANCH  17  18
ENDBRANCH  16  17
ENDBRANCH  15  16
ENDBRANCH   1  15
BRANCH   1  30
HETATM   30  N7  UNL     1      13.129  64.434  39.253  1.00  0.00    -0.391 N 
ATOM     31  H7  UNL     1      12.135  64.417  39.025  1.00  0.00     0.155 HD
BRANCH  30  32
HETATM   32  C14 UNL     1      13.771  65.604  39.742  1.00  0.00     0.117 C 
BRANCH  32  33
HETATM   33  C15 UNL     1      13.728  66.657  38.658  1.00  0.00     0.039 C 
BRANCH  33  34
HETATM   34  C16 UNL     1      13.306  68.006  39.195  1.00  0.00     0.123 C 
BRANCH  34  35
HETATM   35  N8  UNL     1      12.534  68.721  38.199  1.00  0.00    -0.367 N 
HETATM   36  C17 UNL     1      13.000  69.461  37.278  1.00  0.00     0.196 C 
HETATM   37  N9  UNL     1      12.093  70.089  36.382  1.00  0.00    -0.067 NA
HETATM   38  N10 UNL     1      14.404  69.695  37.094  1.00  0.00    -0.067 NA
ATOM     39  H8  UNL     1      11.521  68.620  38.242  1.00  0.00     0.161 HD
ENDBRANCH  34  35
ENDBRANCH  33  34
ENDBRANCH  32  33
ENDBRANCH  30  32
ENDBRANCH   1  30
TORSDOF 15
ENDMDL
MODEL 5
REMARK VINA RESULT: -7.397725995      2.647      5.952
REMARK  15 active torsions:
REMARK  status: ('A' for Active; 'I' for Inactive)
REMARK    1  A    between atoms: C6_8  and  C7_9 
REMARK    2  A    between atoms: C7_9  and  C8_10 
REMARK    3  A    between atoms: C8_10  and  N2_11 
REMARK    4  A    between atoms: C8_10  and  C9_15 
REMARK    5  A    between atoms: C8_10  and  N7_30 
REMARK    6  A    between atoms: C9_15  and  C10_16 
REMARK    7  A    between atoms: C10_16  and  C11_17 
REMARK    8  A    between atoms: C11_17  and  N3_18 
REMARK       I    between atoms: N3_18  and  C12_20 
REMARK    9  A    between atoms: C12_20  and  C13_22 
REMARK   10  A    between atoms: C13_22  and  N4_23 
REMARK   11  A    between atoms: N4_23  and  N5_25 
REMARK   12  A    between atoms: N7_30  and  C14_32 
REMARK   13  A    between atoms: C14_32  and  C15_33 
REMARK   14  A    between atoms: C15_33  and  C16_34 
REMARK   15  A    between atoms: C16_34  and  N8_35 
ROOT
HETATM    1  C8  UNL     1      14.004  63.101  39.237  1.00  0.00     0.195 C 
ENDROOT
BRANCH   1   2
HETATM    2  C7  UNL     1      13.518  63.537  40.571  1.00  0.00     0.101 C 
BRANCH   2   3
HETATM    3  C6  UNL     1      14.458  64.243  41.440  1.00  0.00    -0.033 A 
HETATM    4  C2  UNL     1      15.280  63.601  42.302  1.00  0.00    -0.053 A 
HETATM    5  C1  UNL     1      15.410  62.149  42.368  1.00  0.00     0.049 C 
HETATM    6  C3  UNL     1      16.114  64.345  43.144  1.00  0.00     0.024 A 
HETATM    7  C4  UNL     1      16.133  65.720  43.129  1.00  0.00     0.088 A 
HETATM    8  N1  UNL     1      15.317  66.331  42.268  1.00  0.00    -0.375 N 
HETATM    9  C5  UNL     1      14.508  65.638  41.452  1.00  0.00     0.095 A 
ATOM     10  H1  UNL     1      15.307  67.350  42.229  1.00  0.00     0.164 HD
ENDBRANCH   2   3
ENDBRANCH   1   2
BRANCH   1  11
HETATM   11  N2  UNL     1      15.433  63.024  39.175  1.00  0.00    -0.053 N 
ATOM     12  H23 UNL     1      15.860  63.925  39.387  1.00  0.00     0.277 HD
ATOM     13  H22 UNL     1      15.805  62.479  39.953  1.00  0.00     0.277 HD
ATOM     14  H21 UNL     1      15.764  62.661  38.280  1.00  0.00     0.277 HD
ENDBRANCH   1  11
BRANCH   1  15
HETATM   15  C9  UNL     1      13.645  64.186  38.176  1.00  0.00     0.063 C 
BRANCH  15  16
HETATM   16  C10 UNL     1      13.506  63.463  36.854  1.00  0.00     0.024 C 
BRANCH  16  17
HETATM   17  C11 UNL     1      14.628  63.768  35.920  1.00  0.00     0.123 C 
BRANCH  17  18
HETATM   18  N3  UNL     1      14.410  64.973  35.168  1.00  0.00    -0.360 N 
HETATM   19  C12 UNL     1      15.077  66.193  35.388  1.00  0.00     0.236 C 
HETATM   20  O1  UNL     1      15.937  66.210  36.326  1.00  0.00    -0.272 OA
ATOM     21  H3  UNL     1      13.720  64.942  34.418  1.00  0.00     0.162 HD
BRANCH  19  22
HETATM   22  C13 UNL     1      14.882  67.441  34.654  1.00  0.00     0.243 C 
BRANCH  22  23
HETATM   23  N4  UNL     1      15.865  67.731  33.668  1.00  0.00    -0.314 N 
ATOM     24  H4  UNL     1      15.632  68.255  32.824  1.00  0.00     0.182 HD
BRANCH  23  25
HETATM   25  N5  UNL     1      17.171  67.268  33.904  1.00  0.00    -0.253 N 
HETATM   26  N6  UNL     1      17.686  66.476  33.083  1.00  0.00    -0.331 N 
ATOM     27  H62 UNL     1      17.154  66.181  32.264  1.00  0.00     0.178 HD
ATOM     28  H61 UNL     1      18.634  66.140  33.254  1.00  0.00     0.178 HD
ATOM     29  H5  UNL     1      17.689  67.572  34.728  1.00  0.00     0.207 HD
ENDBRANCH  23  25
ENDBRANCH  22  23
ENDBRANCH  19  22
ENDBRANCH  17  18
ENDBRANCH  16  17
ENDBRANCH  15  16
ENDBRANCH   1  15
BRANCH   1  30
HETATM   30  N7  UNL     1      13.460  61.846  38.774  1.00  0.00    -0.391 N 
ATOM     31  H7  UNL     1      12.864  61.785  37.948  1.00  0.00     0.155 HD
BRANCH  30  32
HETATM   32  C14 UNL     1      13.805  60.699  39.541  1.00  0.00     0.117 C 
BRANCH  32  33
HETATM   33  C15 UNL     1      12.532  60.091  40.084  1.00  0.00     0.039 C 
BRANCH  33  34
HETATM   34  C16 UNL     1      12.638  59.776  41.558  1.00  0.00     0.123 C 
BRANCH  34  35
HETATM   35  N8  UNL     1      11.917  60.765  42.334  1.00  0.00    -0.367 N 
HETATM   36  C17 UNL     1      11.410  60.592  43.485  1.00  0.00     0.196 C 
HETATM   37  N9  UNL     1      10.734  61.677  44.104  1.00  0.00    -0.067 NA
HETATM   38  N10 UNL     1      11.488  59.348  44.197  1.00  0.00    -0.067 NA
ATOM     39  H8  UNL     1      11.806  61.688  41.915  1.00  0.00     0.161 HD
ENDBRANCH  34  35
ENDBRANCH  33  34
ENDBRANCH  32  33
ENDBRANCH  30  32
ENDBRANCH   1  30
TORSDOF 15
ENDMDL
