MODEL 1
REMARK VINA RESULT: -6.813572931      0.000      0.000
REMARK  9 active torsions:
REMARK  status: ('A' for Active; 'I' for Inactive)
REMARK    1  A    between atoms: C2_2  and  O1_3 
REMARK    2  A    between atoms: O1_3  and  C3_4 
REMARK    3  A    between atoms: C5_6  and  C6_7 
REMARK    4  A    between atoms: N3_14  and  C9_15 
REMARK    5  A    between atoms: C9_15  and  C10_16 
REMARK    6  A    between atoms: C11_17  and  C12_18 
REMARK    7  A    between atoms: C12_18  and  O2_19 
REMARK    8  A    between atoms: C17_35  and  N8_36 
REMARK    9  A    between atoms: N8_36  and  C18_38 
ROOT
HETATM    1  C6  UNL     1      20.982 -30.267   8.974  1.00  0.00     0.136 A 
HETATM    2  N1  UNL     1      20.413 -29.104   9.324  1.00  0.00    -0.324 N 
ATOM      3  H1  UNL     1      20.054 -28.406   8.672  1.00  0.00     0.169 HD
HETATM    4  C7  UNL     1      20.387 -28.997  10.668  1.00  0.00     0.153 A 
HETATM    5  N2  UNL     1      20.054 -28.248  11.733  1.00  0.00    -0.335 N 
ATOM      6  H2  UNL     1      19.604 -27.334  11.690  1.00  0.00     0.168 HD
HETATM    7  C8  UNL     1      20.401 -28.881  12.857  1.00  0.00     0.186 A 
HETATM    8  N3  UNL     1      20.982 -30.092  12.534  1.00  0.00    -0.322 N 
HETATM    9  C15 UNL     1      20.954 -30.122  11.192  1.00  0.00     0.155 A 
HETATM   10  N6  UNL     1      21.302 -30.865  10.122  1.00  0.00    -0.323 N 
ATOM     11  H6  UNL     1      21.756 -31.776  10.183  1.00  0.00     0.169 HD
ENDROOT
BRANCH   1  12
HETATM   12  C5  UNL     1      21.196 -30.753   7.600  1.00  0.00     0.079 A 
HETATM   13  C4  UNL     1      20.201 -31.385   6.889  1.00  0.00     0.072 A 
HETATM   14  C3  UNL     1      20.429 -31.833   5.590  1.00  0.00     0.098 A 
HETATM   15  C17 UNL     1      21.659 -31.654   4.991  1.00  0.00     0.078 A 
HETATM   16  C16 UNL     1      22.644 -31.015   5.729  1.00  0.00     0.120 A 
HETATM   17  N7  UNL     1      22.383 -30.590   6.994  1.00  0.00    -0.361 N 
ATOM     18  H7  UNL     1      23.129 -30.123   7.510  1.00  0.00     0.165 HD
BRANCH  14  19
HETATM   19  O1  UNL     1      19.434 -32.459   4.893  1.00  0.00    -0.349 OA
BRANCH  19  20
HETATM   20  C2  UNL     1      18.904 -33.727   5.185  1.00  0.00     0.171 C 
HETATM   21  C1  UNL     1      17.782 -33.986   4.203  1.00  0.00     0.034 C 
ENDBRANCH  19  20
ENDBRANCH  14  19
BRANCH  15  22
HETATM   22  N8  UNL     1      21.840 -32.134   3.670  1.00  0.00    -0.379 N 
ATOM     23  H8  UNL     1      21.531 -31.538   2.902  1.00  0.00     0.160 HD
BRANCH  22  24
HETATM   24  C18 UNL     1      22.433 -33.413   3.332  1.00  0.00     0.019 C 
HETATM   25  C19 UNL     1      21.490 -34.133   2.356  1.00  0.00     0.037 C 
HETATM   26  C20 UNL     1      22.510 -34.323   4.549  1.00  0.00     0.037 C 
HETATM   27  C21 UNL     1      23.777 -33.253   2.654  1.00  0.00     0.037 C 
ENDBRANCH  22  24
ENDBRANCH  15  22
ENDBRANCH   1  12
BRANCH   8  28
HETATM   28  C9  UNL     1      21.446 -31.021  13.515  1.00  0.00     0.178 C 
BRANCH  28  29
HETATM   29  C10 UNL     1      21.349 -32.441  13.138  1.00  0.00     0.053 A 
HETATM   30  C11 UNL     1      20.250 -33.232  13.190  1.00  0.00     0.050 A 
HETATM   31  N4  UNL     1      20.326 -34.533  12.793  1.00  0.00    -0.309 N 
HETATM   32  C13 UNL     1      21.445 -35.101  12.341  1.00  0.00     0.327 A 
ATOM     33  H4  UNL     1      19.482 -35.103  12.844  1.00  0.00     0.170 HD
HETATM   34  O3  UNL     1      21.480 -36.319  11.979  1.00  0.00    -0.247 OA
HETATM   35  N5  UNL     1      22.541 -34.344  12.279  1.00  0.00    -0.275 N 
HETATM   36  C14 UNL     1      22.519 -33.072  12.653  1.00  0.00     0.259 A 
ATOM     37  H5  UNL     1      23.412 -34.750  11.937  1.00  0.00     0.173 HD
HETATM   38  O4  UNL     1      23.599 -32.407  12.566  1.00  0.00    -0.267 OA
BRANCH  30  39
HETATM   39  C12 UNL     1      18.931 -32.736  13.663  1.00  0.00     0.222 C 
BRANCH  39  40
HETATM   40  O2  UNL     1      18.259 -32.084  12.598  1.00  0.00    -0.395 OA
ATOM     41  H2  UNL     1      17.916 -32.733  11.995  1.00  0.00     0.209 HD
ENDBRANCH  39  40
ENDBRANCH  30  39
ENDBRANCH  28  29
ENDBRANCH   8  28
TORSDOF 9
ENDMDL
MODEL 2
REMARK VINA RESULT: -6.609896475      4.036      8.179
REMARK  9 active torsions:
REMARK  status: ('A' for Active; 'I' for Inactive)
REMARK    1  A    between atoms: C2_2  and  O1_3 
REMARK    2  A    between atoms: O1_3  and  C3_4 
REMARK    3  A    between atoms: C5_6  and  C6_7 
REMARK    4  A    between atoms: N3_14  and  C9_15 
REMARK    5  A    between atoms: C9_15  and  C10_16 
REMARK    6  A    between atoms: C11_17  and  C12_18 
REMARK    7  A    between atoms: C12_18  and  O2_19 
REMARK    8  A    between atoms: C17_35  and  N8_36 
REMARK    9  A    between atoms: N8_36  and  C18_38 
ROOT
HETATM    1  C6  UNL     1      22.521 -32.919  13.331  1.00  0.00     0.136 A 
HETATM    2  N1  UNL     1      21.638 -33.378  14.230  1.00  0.00    -0.324 N 
ATOM      3  H1  UNL     1      21.851 -34.034  14.980  1.00  0.00     0.169 HD
HETATM    4  C7  UNL     1      20.424 -32.842  13.989  1.00  0.00     0.153 A 
HETATM    5  N2  UNL     1      19.130 -32.775  14.345  1.00  0.00    -0.335 N 
ATOM      6  H2  UNL     1      18.710 -33.278  15.126  1.00  0.00     0.168 HD
HETATM    7  C8  UNL     1      18.477 -31.950  13.523  1.00  0.00     0.186 A 
HETATM    8  N3  UNL     1      19.361 -31.447  12.588  1.00  0.00    -0.322 N 
HETATM    9  C15 UNL     1      20.535 -32.016  12.907  1.00  0.00     0.155 A 
HETATM   10  N6  UNL     1      21.830 -32.097  12.542  1.00  0.00    -0.323 N 
ATOM     11  H6  UNL     1      22.233 -31.590  11.754  1.00  0.00     0.169 HD
ENDROOT
BRANCH   1  12
HETATM   12  C5  UNL     1      23.950 -33.269  13.257  1.00  0.00     0.079 A 
HETATM   13  C4  UNL     1      24.538 -34.121  14.165  1.00  0.00     0.072 A 
HETATM   14  C3  UNL     1      25.891 -34.437  14.071  1.00  0.00     0.098 A 
HETATM   15  C17 UNL     1      26.671 -33.901  13.067  1.00  0.00     0.078 A 
HETATM   16  C16 UNL     1      26.054 -33.046  12.166  1.00  0.00     0.120 A 
HETATM   17  N7  UNL     1      24.730 -32.762  12.289  1.00  0.00    -0.361 N 
ATOM     18  H7  UNL     1      24.307 -32.129  11.609  1.00  0.00     0.165 HD
BRANCH  14  19
HETATM   19  O1  UNL     1      26.464 -35.284  14.978  1.00  0.00    -0.349 OA
BRANCH  19  20
HETATM   20  C2  UNL     1      25.791 -36.277  15.709  1.00  0.00     0.171 C 
HETATM   21  C1  UNL     1      26.340 -36.252  17.120  1.00  0.00     0.034 C 
ENDBRANCH  19  20
ENDBRANCH  14  19
BRANCH  15  22
HETATM   22  N8  UNL     1      28.042 -34.252  13.021  1.00  0.00    -0.379 N 
ATOM     23  H8  UNL     1      28.668 -33.808  13.694  1.00  0.00     0.160 HD
BRANCH  22  24
HETATM   24  C18 UNL     1      28.621 -35.195  12.084  1.00  0.00     0.019 C 
HETATM   25  C19 UNL     1      30.012 -35.589  12.602  1.00  0.00     0.037 C 
HETATM   26  C20 UNL     1      28.874 -34.542  10.733  1.00  0.00     0.037 C 
HETATM   27  C21 UNL     1      27.791 -36.455  11.963  1.00  0.00     0.037 C 
ENDBRANCH  22  24
ENDBRANCH  15  22
ENDBRANCH   1  12
BRANCH   8  28
HETATM   28  C9  UNL     1      18.979 -30.517  11.574  1.00  0.00     0.178 C 
BRANCH  28  29
HETATM   29  C10 UNL     1      19.966 -29.466  11.275  1.00  0.00     0.053 A 
HETATM   30  C11 UNL     1      20.714 -29.336  10.152  1.00  0.00     0.050 A 
HETATM   31  N4  UNL     1      21.581 -28.292  10.027  1.00  0.00    -0.309 N 
HETATM   32  C13 UNL     1      21.750 -27.359  10.964  1.00  0.00     0.327 A 
ATOM     33  H4  UNL     1      22.130 -28.221   9.171  1.00  0.00     0.170 HD
HETATM   34  O3  UNL     1      22.569 -26.397  10.814  1.00  0.00    -0.247 OA
HETATM   35  N5  UNL     1      21.025 -27.462  12.079  1.00  0.00    -0.275 N 
HETATM   36  C14 UNL     1      20.167 -28.459  12.249  1.00  0.00     0.259 A 
ATOM     37  H5  UNL     1      21.132 -26.763  12.813  1.00  0.00     0.173 HD
HETATM   38  O4  UNL     1      19.506 -28.496  13.334  1.00  0.00    -0.267 OA
BRANCH  30  39
HETATM   39  C12 UNL     1      20.627 -30.294   9.019  1.00  0.00     0.222 C 
BRANCH  39  40
HETATM   40  O2  UNL     1      20.802 -29.600   7.796  1.00  0.00    -0.395 OA
ATOM     41  H2  UNL     1      21.383 -30.095   7.231  1.00  0.00     0.209 HD
ENDBRANCH  39  40
ENDBRANCH  30  39
ENDBRANCH  28  29
ENDBRANCH   8  28
TORSDOF 9
ENDMDL
MODEL 3
REMARK VINA RESULT: -6.563353828      1.243      2.415
REMARK  9 active torsions:
REMARK  status: ('A' for Active; 'I' for Inactive)
REMARK    1  A    between atoms: C2_2  and  O1_3 
REMARK    2  A    between atoms: O1_3  and  C3_4 
REMARK    3  A    between atoms: C5_6  and  C6_7 
REMARK    4  A    between atoms: N3_14  and  C9_15 
REMARK    5  A    between atoms: C9_15  and  C10_16 
REMARK    6  A    between atoms: C11_17  and  C12_18 
REMARK    7  A    between atoms: C12_18  and  O2_19 
REMARK    8  A    between atoms: C17_35  and  N8_36 
REMARK    9  A    between atoms: N8_36  and  C18_38 
ROOT
HETATM    1  C6  UNL     1      20.935 -30.181   9.069  1.00  0.00     0.136 A 
HETATM    2  N1  UNL     1      20.360 -29.025   9.431  1.00  0.00    -0.324 N 
ATOM      3  H1  UNL     1      20.005 -28.319   8.787  1.00  0.00     0.169 HD
HETATM    4  C7  UNL     1      20.324 -28.937  10.777  1.00  0.00     0.153 A 
HETATM    5  N2  UNL     1      19.981 -28.204  11.850  1.00  0.00    -0.335 N 
ATOM      6  H2  UNL     1      19.529 -27.291  11.816  1.00  0.00     0.168 HD
HETATM    7  C8  UNL     1      20.322 -28.852  12.967  1.00  0.00     0.186 A 
HETATM    8  N3  UNL     1      20.909 -30.057  12.632  1.00  0.00    -0.322 N 
HETATM    9  C15 UNL     1      20.891 -30.068  11.289  1.00  0.00     0.155 A 
HETATM   10  N6  UNL     1      21.248 -30.794  10.211  1.00  0.00    -0.323 N 
ATOM     11  H6  UNL     1      21.704 -31.705  10.262  1.00  0.00     0.169 HD
ENDROOT
BRANCH   1  12
HETATM   12  C5  UNL     1      21.161 -30.647   7.690  1.00  0.00     0.079 A 
HETATM   13  C4  UNL     1      22.386 -30.525   7.073  1.00  0.00     0.072 A 
HETATM   14  C3  UNL     1      22.573 -30.975   5.769  1.00  0.00     0.098 A 
HETATM   15  C17 UNL     1      21.535 -31.553   5.068  1.00  0.00     0.078 A 
HETATM   16  C16 UNL     1      20.312 -31.664   5.713  1.00  0.00     0.120 A 
HETATM   17  N7  UNL     1      20.167 -31.214   6.987  1.00  0.00    -0.361 N 
ATOM     18  H7  UNL     1      19.255 -31.312   7.433  1.00  0.00     0.165 HD
BRANCH  14  19
HETATM   19  O1  UNL     1      23.793 -30.849   5.166  1.00  0.00    -0.349 OA
BRANCH  19  20
HETATM   20  C2  UNL     1      24.810 -29.960   5.555  1.00  0.00     0.171 C 
HETATM   21  C1  UNL     1      26.084 -30.399   4.864  1.00  0.00     0.034 C 
ENDBRANCH  19  20
ENDBRANCH  14  19
BRANCH  15  22
HETATM   22  N8  UNL     1      21.778 -31.989   3.742  1.00  0.00    -0.379 N 
ATOM     23  H8  UNL     1      21.952 -31.276   3.033  1.00  0.00     0.160 HD
BRANCH  22  24
HETATM   24  C18 UNL     1      21.797 -33.376   3.321  1.00  0.00     0.019 C 
HETATM   25  C19 UNL     1      22.794 -33.509   2.162  1.00  0.00     0.037 C 
HETATM   26  C20 UNL     1      20.454 -33.791   2.737  1.00  0.00     0.037 C 
HETATM   27  C21 UNL     1      22.244 -34.300   4.434  1.00  0.00     0.037 C 
ENDBRANCH  22  24
ENDBRANCH  15  22
ENDBRANCH   1  12
BRANCH   8  28
HETATM   28  C9  UNL     1      21.368 -30.998  13.603  1.00  0.00     0.178 C 
BRANCH  28  29
HETATM   29  C10 UNL     1      21.325 -32.410  13.186  1.00  0.00     0.053 A 
HETATM   30  C11 UNL     1      20.252 -33.238  13.197  1.00  0.00     0.050 A 
HETATM   31  N4  UNL     1      20.379 -34.525  12.766  1.00  0.00    -0.309 N 
HETATM   32  C13 UNL     1      21.524 -35.042  12.319  1.00  0.00     0.327 A 
ATOM     33  H4  UNL     1      19.554 -35.124  12.787  1.00  0.00     0.170 HD
HETATM   34  O3  UNL     1      21.606 -36.248  11.925  1.00  0.00    -0.247 OA
HETATM   35  N5  UNL     1      22.595 -34.247  12.296  1.00  0.00    -0.275 N 
HETATM   36  C14 UNL     1      22.523 -32.988  12.705  1.00  0.00     0.259 A 
ATOM     37  H5  UNL     1      23.484 -34.615  11.958  1.00  0.00     0.173 HD
HETATM   38  O4  UNL     1      23.582 -32.285  12.653  1.00  0.00    -0.267 OA
BRANCH  30  39
HETATM   39  C12 UNL     1      18.909 -32.799  13.660  1.00  0.00     0.222 C 
BRANCH  39  40
HETATM   40  O2  UNL     1      18.254 -32.097  12.618  1.00  0.00    -0.395 OA
ATOM     41  H2  UNL     1      18.066 -31.210  12.903  1.00  0.00     0.209 HD
ENDBRANCH  39  40
ENDBRANCH  30  39
ENDBRANCH  28  29
ENDBRANCH   8  28
TORSDOF 9
ENDMDL
MODEL 4
REMARK VINA RESULT: -6.555985266      0.751      1.782
REMARK  9 active torsions:
REMARK  status: ('A' for Active; 'I' for Inactive)
REMARK    1  A    between atoms: C2_2  and  O1_3 
REMARK    2  A    between atoms: O1_3  and  C3_4 
REMARK    3  A    between atoms: C5_6  and  C6_7 
REMARK    4  A    between atoms: N3_14  and  C9_15 
REMARK    5  A    between atoms: C9_15  and  C10_16 
REMARK    6  A    between atoms: C11_17  and  C12_18 
REMARK    7  A    between atoms: C12_18  and  O2_19 
REMARK    8  A    between atoms: C17_35  and  N8_36 
REMARK    9  A    between atoms: N8_36  and  C18_38 
ROOT
HETATM    1  C6  UNL     1      20.960 -30.481   8.871  1.00  0.00     0.136 A 
HETATM    2  N1  UNL     1      20.329 -29.363   9.258  1.00  0.00    -0.324 N 
ATOM      3  H1  UNL     1      19.922 -28.671   8.629  1.00  0.00     0.169 HD
HETATM    4  C7  UNL     1      20.317 -29.291  10.605  1.00  0.00     0.153 A 
HETATM    5  N2  UNL     1      19.957 -28.589  11.693  1.00  0.00    -0.335 N 
ATOM      6  H2  UNL     1      19.455 -27.702  11.679  1.00  0.00     0.168 HD
HETATM    7  C8  UNL     1      20.357 -29.229  12.795  1.00  0.00     0.186 A 
HETATM    8  N3  UNL     1      21.002 -30.395  12.434  1.00  0.00    -0.322 N 
HETATM    9  C15 UNL     1      20.957 -30.394  11.092  1.00  0.00     0.155 A 
HETATM   10  N6  UNL     1      21.331 -31.088   9.998  1.00  0.00    -0.323 N 
ATOM     11  H6  UNL     1      21.838 -31.972  10.030  1.00  0.00     0.169 HD
ENDROOT
BRANCH   1  12
HETATM   12  C5  UNL     1      21.182 -30.920   7.482  1.00  0.00     0.079 A 
HETATM   13  C4  UNL     1      20.190 -31.525   6.743  1.00  0.00     0.072 A 
HETATM   14  C3  UNL     1      20.426 -31.928   5.431  1.00  0.00     0.098 A 
HETATM   15  C17 UNL     1      21.659 -31.731   4.846  1.00  0.00     0.078 A 
HETATM   16  C16 UNL     1      22.640 -31.120   5.612  1.00  0.00     0.120 A 
HETATM   17  N7  UNL     1      22.373 -30.738   6.889  1.00  0.00    -0.361 N 
ATOM     18  H7  UNL     1      23.116 -30.290   7.425  1.00  0.00     0.165 HD
BRANCH  14  19
HETATM   19  O1  UNL     1      19.434 -32.528   4.707  1.00  0.00    -0.349 OA
BRANCH  19  20
HETATM   20  C2  UNL     1      18.830 -33.760   5.010  1.00  0.00     0.171 C 
HETATM   21  C1  UNL     1      17.731 -33.988   3.994  1.00  0.00     0.034 C 
ENDBRANCH  19  20
ENDBRANCH  14  19
BRANCH  15  22
HETATM   22  N8  UNL     1      21.847 -32.165   3.510  1.00  0.00    -0.379 N 
ATOM     23  H8  UNL     1      21.583 -31.524   2.762  1.00  0.00     0.160 HD
BRANCH  22  24
HETATM   24  C18 UNL     1      22.388 -33.456   3.132  1.00  0.00     0.019 C 
HETATM   25  C19 UNL     1      21.411 -34.112   2.145  1.00  0.00     0.037 C 
HETATM   26  C20 UNL     1      22.441 -34.401   4.323  1.00  0.00     0.037 C 
HETATM   27  C21 UNL     1      23.731 -33.328   2.446  1.00  0.00     0.037 C 
ENDBRANCH  22  24
ENDBRANCH  15  22
ENDBRANCH   1  12
BRANCH   8  28
HETATM   28  C9  UNL     1      21.534 -31.320  13.384  1.00  0.00     0.178 C 
BRANCH  28  29
HETATM   29  C10 UNL     1      21.234 -32.738  13.124  1.00  0.00     0.053 A 
HETATM   30  C11 UNL     1      22.017 -33.639  12.483  1.00  0.00     0.050 A 
HETATM   31  N4  UNL     1      21.593 -34.926  12.333  1.00  0.00    -0.309 N 
HETATM   32  C13 UNL     1      20.423 -35.374  12.790  1.00  0.00     0.327 A 
ATOM     33  H4  UNL     1      22.204 -35.581  11.846  1.00  0.00     0.170 HD
HETATM   34  O3  UNL     1      20.059 -36.582  12.631  1.00  0.00    -0.247 OA
HETATM   35  N5  UNL     1      19.634 -34.507  13.426  1.00  0.00    -0.275 N 
HETATM   36  C14 UNL     1      20.001 -33.244  13.598  1.00  0.00     0.259 A 
ATOM     37  H5  UNL     1      18.733 -34.821  13.787  1.00  0.00     0.173 HD
HETATM   38  O4  UNL     1      19.202 -32.472  14.216  1.00  0.00    -0.267 OA
BRANCH  30  39
HETATM   39  C12 UNL     1      23.350 -33.288  11.929  1.00  0.00     0.222 C 
BRANCH  39  40
HETATM   40  O2  UNL     1      23.323 -33.405  10.517  1.00  0.00    -0.395 OA
ATOM     41  H2  UNL     1      24.151 -33.109  10.157  1.00  0.00     0.209 HD
ENDBRANCH  39  40
ENDBRANCH  30  39
ENDBRANCH  28  29
ENDBRANCH   8  28
TORSDOF 9
ENDMDL
MODEL 5
REMARK VINA RESULT: -6.528374677      1.620      1.940
REMARK  9 active torsions:
REMARK  status: ('A' for Active; 'I' for Inactive)
REMARK    1  A    between atoms: C2_2  and  O1_3 
REMARK    2  A    between atoms: O1_3  and  C3_4 
REMARK    3  A    between atoms: C5_6  and  C6_7 
REMARK    4  A    between atoms: N3_14  and  C9_15 
REMARK    5  A    between atoms: C9_15  and  C10_16 
REMARK    6  A    between atoms: C11_17  and  C12_18 
REMARK    7  A    between atoms: C12_18  and  O2_19 
REMARK    8  A    between atoms: C17_35  and  N8_36 
REMARK    9  A    between atoms: N8_36  and  C18_38 
ROOT
HETATM    1  C6  UNL     1      21.150 -29.526   8.701  1.00  0.00     0.136 A 
HETATM    2  N1  UNL     1      21.830 -28.423   9.046  1.00  0.00    -0.324 N 
ATOM      3  H1  UNL     1      22.544 -27.970   8.475  1.00  0.00     0.169 HD
HETATM    4  C7  UNL     1      21.427 -28.002  10.263  1.00  0.00     0.153 A 
HETATM    5  N2  UNL     1      21.573 -27.103  11.250  1.00  0.00    -0.335 N 
ATOM      6  H2  UNL     1      22.222 -26.316  11.235  1.00  0.00     0.168 HD
HETATM    7  C8  UNL     1      20.741 -27.394  12.253  1.00  0.00     0.186 A 
HETATM    8  N3  UNL     1      20.014 -28.522  11.927  1.00  0.00    -0.322 N 
HETATM    9  C15 UNL     1      20.463 -28.861  10.707  1.00  0.00     0.155 A 
HETATM   10  N6  UNL     1      20.330 -29.771   9.723  1.00  0.00    -0.323 N 
ATOM     11  H6  UNL     1      19.679 -30.556   9.755  1.00  0.00     0.169 HD
ENDROOT
BRANCH   1  12
HETATM   12  C5  UNL     1      21.301 -30.286   7.448  1.00  0.00     0.079 A 
HETATM   13  C4  UNL     1      20.270 -31.032   6.921  1.00  0.00     0.072 A 
HETATM   14  C3  UNL     1      20.440 -31.740   5.734  1.00  0.00     0.098 A 
HETATM   15  C17 UNL     1      21.644 -31.710   5.062  1.00  0.00     0.078 A 
HETATM   16  C16 UNL     1      22.666 -30.951   5.615  1.00  0.00     0.120 A 
HETATM   17  N7  UNL     1      22.463 -30.272   6.775  1.00  0.00    -0.361 N 
ATOM     18  H7  UNL     1      23.235 -29.723   7.154  1.00  0.00     0.165 HD
BRANCH  14  19
HETATM   19  O1  UNL     1      19.410 -32.477   5.220  1.00  0.00    -0.349 OA
BRANCH  19  20
HETATM   20  C2  UNL     1      19.096 -33.801   5.571  1.00  0.00     0.171 C 
HETATM   21  C1  UNL     1      17.886 -34.210   4.759  1.00  0.00     0.034 C 
ENDBRANCH  19  20
ENDBRANCH  14  19
BRANCH  15  22
HETATM   22  N8  UNL     1      21.765 -32.453   3.862  1.00  0.00    -0.379 N 
ATOM     23  H8  UNL     1      21.273 -32.105   3.039  1.00  0.00     0.160 HD
BRANCH  22  24
HETATM   24  C18 UNL     1      22.536 -33.672   3.721  1.00  0.00     0.019 C 
HETATM   25  C19 UNL     1      21.714 -34.663   2.884  1.00  0.00     0.037 C 
HETATM   26  C20 UNL     1      22.732 -34.358   5.065  1.00  0.00     0.037 C 
HETATM   27  C21 UNL     1      23.849 -33.432   3.007  1.00  0.00     0.037 C 
ENDBRANCH  22  24
ENDBRANCH  15  22
ENDBRANCH   1  12
BRANCH   8  28
HETATM   28  C9  UNL     1      19.018 -29.083  12.783  1.00  0.00     0.178 C 
BRANCH  28  29
HETATM   29  C10 UNL     1      19.187 -30.512  13.099  1.00  0.00     0.053 A 
HETATM   30  C11 UNL     1      18.339 -31.526  12.800  1.00  0.00     0.050 A 
HETATM   31  N4  UNL     1      18.651 -32.803  13.158  1.00  0.00    -0.309 N 
HETATM   32  C13 UNL     1      19.769 -33.135  13.804  1.00  0.00     0.327 A 
ATOM     33  H4  UNL     1      17.993 -33.545  12.919  1.00  0.00     0.170 HD
HETATM   34  O3  UNL     1      20.027 -34.339  14.123  1.00  0.00    -0.247 OA
HETATM   35  N5  UNL     1      20.621 -32.156  14.110  1.00  0.00    -0.275 N 
HETATM   36  C14 UNL     1      20.364 -30.897  13.783  1.00  0.00     0.259 A 
ATOM     37  H5  UNL     1      21.485 -32.379  14.603  1.00  0.00     0.173 HD
HETATM   38  O4  UNL     1      21.221 -30.013  14.103  1.00  0.00    -0.267 OA
BRANCH  30  39
HETATM   39  C12 UNL     1      17.060 -31.310  12.075  1.00  0.00     0.222 C 
BRANCH  39  40
HETATM   40  O2  UNL     1      16.062 -30.889  12.989  1.00  0.00    -0.395 OA
ATOM     41  H2  UNL     1      16.209 -29.981  13.225  1.00  0.00     0.209 HD
ENDBRANCH  39  40
ENDBRANCH  30  39
ENDBRANCH  28  29
ENDBRANCH   8  28
TORSDOF 9
ENDMDL
