MODEL 1
REMARK VINA RESULT: -7.438147375      0.000      0.000
REMARK  9 active torsions:
REMARK  status: ('A' for Active; 'I' for Inactive)
REMARK    1  A    between atoms: N1_4  and  C4_5 
REMARK    2  A    between atoms: C6_7  and  N2_8 
REMARK    3  A    between atoms: C7_9  and  C8_10 
REMARK    4  A    between atoms: C8_10  and  S1_11 
REMARK    5  A    between atoms: S1_11  and  C9_12 
REMARK    6  A    between atoms: C9_12  and  C10_13 
REMARK    7  A    between atoms: C10_13  and  C11_14 
REMARK    8  A    between atoms: C16_26  and  N6_27 
REMARK    9  A    between atoms: C19_36  and  N8_37 
ROOT
HETATM    1  N2  UNL     1      21.127 -31.885  10.881  1.00  0.00    -0.302 N 
HETATM    2  C7  UNL     1      20.461 -30.845  11.374  1.00  0.00     0.097 A 
HETATM    3  N3  UNL     1      20.142 -29.972  10.348  1.00  0.00    -0.329 N 
ATOM      4  H3  UNL     1      19.632 -29.092  10.425  1.00  0.00     0.168 HD
HETATM    5  C14 UNL     1      20.641 -30.520   9.232  1.00  0.00     0.139 A 
HETATM    6  N4  UNL     1      20.635 -30.094   7.940  1.00  0.00    -0.337 N 
ATOM      7  H4  UNL     1      20.177 -29.215   7.702  1.00  0.00     0.168 HD
HETATM    8  C15 UNL     1      21.220 -30.811   6.983  1.00  0.00     0.183 A 
HETATM    9  N5  UNL     1      21.828 -31.964   7.253  1.00  0.00    -0.337 N 
ATOM     10  H5  UNL     1      22.267 -32.491   6.499  1.00  0.00     0.168 HD
HETATM   11  C16 UNL     1      21.869 -32.448   8.531  1.00  0.00     0.131 A 
HETATM   12  C17 UNL     1      21.264 -31.714   9.530  1.00  0.00     0.126 A 
ENDROOT
BRANCH   1  13
HETATM   13  C6  UNL     1      21.651 -33.094  11.507  1.00  0.00     0.236 C 
HETATM   14  C5  UNL     1      21.789 -33.052  13.008  1.00  0.00     0.108 C 
HETATM   15  C4  UNL     1      23.192 -32.808  12.684  1.00  0.00     0.238 C 
HETATM   16  O2  UNL     1      23.001 -33.204  11.387  1.00  0.00    -0.341 OA
BRANCH  15  17
HETATM   17  N1  UNL     1      24.194 -33.544  13.426  1.00  0.00    -0.282 N 
HETATM   18  C3  UNL     1      23.870 -34.417  14.396  1.00  0.00     0.108 A 
HETATM   19  C2  UNL     1      24.858 -35.087  15.068  1.00  0.00    -0.003 A 
HETATM   20  C1  UNL     1      24.512 -36.056  16.145  1.00  0.00     0.054 C 
HETATM   21  C19 UNL     1      26.203 -34.891  14.775  1.00  0.00     0.110 A 
HETATM   22  N7  UNL     1      26.479 -34.006  13.794  1.00  0.00    -0.294 N 
HETATM   23  C18 UNL     1      25.490 -33.347  13.134  1.00  0.00     0.330 A 
ATOM     24  H7  UNL     1      27.451 -33.827  13.542  1.00  0.00     0.172 HD
HETATM   25  O3  UNL     1      25.877 -32.542  12.235  1.00  0.00    -0.246 OA
BRANCH  21  26
HETATM   26  N8  UNL     1      27.125 -35.526  15.412  1.00  0.00    -0.385 N 
ATOM     27  H82 UNL     1      26.972 -36.448  15.821  1.00  0.00     0.157 HD
ATOM     28  H81 UNL     1      28.056 -35.127  15.532  1.00  0.00     0.157 HD
ENDBRANCH  21  26
ENDBRANCH  15  17
ENDBRANCH   1  13
BRANCH   2  29
HETATM   29  C8  UNL     1      20.116 -30.500  12.766  1.00  0.00     0.150 C 
BRANCH  29  30
HETATM   30  S1  UNL     1      18.481 -31.237  13.147  1.00  0.00    -0.162 SA
BRANCH  30  31
HETATM   31  C9  UNL     1      17.152 -30.136  12.681  1.00  0.00     0.077 C 
BRANCH  31  32
HETATM   32  C10 UNL     1      16.206 -30.022  13.869  1.00  0.00     0.042 C 
BRANCH  32  33
HETATM   33  C11 UNL     1      14.824 -29.759  13.322  1.00  0.00     0.124 A 
HETATM   34  C12 UNL     1      14.378 -30.854  12.407  1.00  0.00     0.058 A 
HETATM   35  C13 UNL     1      13.380 -31.069  13.509  1.00  0.00     0.170 A 
HETATM   36  O1  UNL     1      13.838 -29.990  14.252  1.00  0.00    -0.386 OA
ENDBRANCH  32  33
ENDBRANCH  31  32
ENDBRANCH  30  31
ENDBRANCH  29  30
ENDBRANCH   2  29
BRANCH  11  37
HETATM   37  N6  UNL     1      22.489 -33.545   8.777  1.00  0.00    -0.383 N 
ATOM     38  H62 UNL     1      23.407 -33.556   9.221  1.00  0.00     0.157 HD
ATOM     39  H61 UNL     1      22.071 -34.434   8.504  1.00  0.00     0.157 HD
ENDBRANCH  11  37
TORSDOF 9
ENDMDL
MODEL 2
REMARK VINA RESULT: -6.970456976      2.939      5.975
REMARK  9 active torsions:
REMARK  status: ('A' for Active; 'I' for Inactive)
REMARK    1  A    between atoms: N1_4  and  C4_5 
REMARK    2  A    between atoms: C6_7  and  N2_8 
REMARK    3  A    between atoms: C7_9  and  C8_10 
REMARK    4  A    between atoms: C8_10  and  S1_11 
REMARK    5  A    between atoms: S1_11  and  C9_12 
REMARK    6  A    between atoms: C9_12  and  C10_13 
REMARK    7  A    between atoms: C10_13  and  C11_14 
REMARK    8  A    between atoms: C16_26  and  N6_27 
REMARK    9  A    between atoms: C19_36  and  N8_37 
ROOT
HETATM    1  N2  UNL     1      20.663 -33.253  12.849  1.00  0.00    -0.302 N 
HETATM    2  C7  UNL     1      19.964 -32.361  13.546  1.00  0.00     0.097 A 
HETATM    3  N3  UNL     1      19.120 -33.020  14.423  1.00  0.00    -0.329 N 
ATOM      4  H3  UNL     1      18.469 -32.596  15.085  1.00  0.00     0.168 HD
HETATM    5  C14 UNL     1      19.333 -34.327  14.226  1.00  0.00     0.139 A 
HETATM    6  N4  UNL     1      18.775 -35.427  14.799  1.00  0.00    -0.337 N 
ATOM      7  H4  UNL     1      18.069 -35.312  15.526  1.00  0.00     0.168 HD
HETATM    8  C15 UNL     1      19.138 -36.651  14.424  1.00  0.00     0.183 A 
HETATM    9  N5  UNL     1      20.057 -36.843  13.480  1.00  0.00    -0.337 N 
ATOM     10  H5  UNL     1      20.316 -37.792  13.214  1.00  0.00     0.168 HD
HETATM   11  C16 UNL     1      20.658 -35.779  12.865  1.00  0.00     0.131 A 
HETATM   12  C17 UNL     1      20.290 -34.507  13.247  1.00  0.00     0.126 A 
ENDROOT
BRANCH   1  13
HETATM   13  C6  UNL     1      21.705 -33.101  11.840  1.00  0.00     0.236 C 
HETATM   14  C5  UNL     1      21.930 -31.700  11.329  1.00  0.00     0.108 C 
HETATM   15  C4  UNL     1      21.139 -32.186  10.202  1.00  0.00     0.238 C 
HETATM   16  O2  UNL     1      21.297 -33.487  10.601  1.00  0.00    -0.341 OA
BRANCH  15  17
HETATM   17  N1  UNL     1      21.604 -31.877   8.867  1.00  0.00    -0.282 N 
HETATM   18  C3  UNL     1      22.351 -32.734   8.151  1.00  0.00     0.108 A 
HETATM   19  C2  UNL     1      22.766 -32.390   6.891  1.00  0.00    -0.003 A 
HETATM   20  C1  UNL     1      23.594 -33.332   6.089  1.00  0.00     0.054 C 
HETATM   21  C19 UNL     1      22.433 -31.166   6.322  1.00  0.00     0.110 A 
HETATM   22  N7  UNL     1      21.682 -30.338   7.078  1.00  0.00    -0.294 N 
HETATM   23  C18 UNL     1      21.276 -30.690   8.326  1.00  0.00     0.330 A 
ATOM     24  H7  UNL     1      21.412 -29.428   6.705  1.00  0.00     0.172 HD
HETATM   25  O3  UNL     1      20.577 -29.828   8.936  1.00  0.00    -0.246 OA
BRANCH  21  26
HETATM   26  N8  UNL     1      22.828 -30.852   5.136  1.00  0.00    -0.385 N 
ATOM     27  H82 UNL     1      22.792 -29.895   4.784  1.00  0.00     0.157 HD
ATOM     28  H81 UNL     1      23.196 -31.556   4.497  1.00  0.00     0.157 HD
ENDBRANCH  21  26
ENDBRANCH  15  17
ENDBRANCH   1  13
BRANCH   2  29
HETATM   29  C8  UNL     1      19.926 -30.889  13.455  1.00  0.00     0.150 C 
BRANCH  29  30
HETATM   30  S1  UNL     1      18.592 -30.425  12.286  1.00  0.00    -0.162 SA
BRANCH  30  31
HETATM   31  C9  UNL     1      16.992 -30.474  13.082  1.00  0.00     0.077 C 
BRANCH  31  32
HETATM   32  C10 UNL     1      16.158 -31.539  12.383  1.00  0.00     0.042 C 
BRANCH  32  33
HETATM   33  C11 UNL     1      14.821 -30.921  12.052  1.00  0.00     0.124 A 
HETATM   34  C12 UNL     1      13.694 -31.849  12.375  1.00  0.00     0.058 A 
HETATM   35  C13 UNL     1      13.397 -30.781  13.390  1.00  0.00     0.170 A 
HETATM   36  O1  UNL     1      14.440 -29.970  12.969  1.00  0.00    -0.386 OA
ENDBRANCH  32  33
ENDBRANCH  31  32
ENDBRANCH  30  31
ENDBRANCH  29  30
ENDBRANCH   2  29
BRANCH  11  37
HETATM   37  N6  UNL     1      21.518 -35.985  11.934  1.00  0.00    -0.383 N 
ATOM     38  H62 UNL     1      21.361 -35.665  10.977  1.00  0.00     0.157 HD
ATOM     39  H61 UNL     1      22.372 -36.502  12.139  1.00  0.00     0.157 HD
ENDBRANCH  11  37
TORSDOF 9
ENDMDL
MODEL 3
REMARK VINA RESULT: -6.909146313      1.052      1.472
REMARK  9 active torsions:
REMARK  status: ('A' for Active; 'I' for Inactive)
REMARK    1  A    between atoms: N1_4  and  C4_5 
REMARK    2  A    between atoms: C6_7  and  N2_8 
REMARK    3  A    between atoms: C7_9  and  C8_10 
REMARK    4  A    between atoms: C8_10  and  S1_11 
REMARK    5  A    between atoms: S1_11  and  C9_12 
REMARK    6  A    between atoms: C9_12  and  C10_13 
REMARK    7  A    between atoms: C10_13  and  C11_14 
REMARK    8  A    between atoms: C16_26  and  N6_27 
REMARK    9  A    between atoms: C19_36  and  N8_37 
ROOT
HETATM    1  N2  UNL     1      21.258 -32.196  10.615  1.00  0.00    -0.302 N 
HETATM    2  C7  UNL     1      20.467 -31.279  11.167  1.00  0.00     0.097 A 
HETATM    3  N3  UNL     1      20.086 -30.360  10.205  1.00  0.00    -0.329 N 
ATOM      4  H3  UNL     1      19.481 -29.549  10.335  1.00  0.00     0.168 HD
HETATM    5  C14 UNL     1      20.674 -30.752   9.068  1.00  0.00     0.139 A 
HETATM    6  N4  UNL     1      20.661 -30.219   7.817  1.00  0.00    -0.337 N 
ATOM      7  H4  UNL     1      20.117 -29.376   7.635  1.00  0.00     0.168 HD
HETATM    8  C15 UNL     1      21.349 -30.784   6.827  1.00  0.00     0.183 A 
HETATM    9  N5  UNL     1      22.070 -31.885   7.024  1.00  0.00    -0.337 N 
ATOM     10  H5  UNL     1      22.587 -32.295   6.246  1.00  0.00     0.168 HD
HETATM   11  C16 UNL     1      22.126 -32.471   8.258  1.00  0.00     0.131 A 
HETATM   12  C17 UNL     1      21.415 -31.895   9.290  1.00  0.00     0.126 A 
ENDROOT
BRANCH   1  13
HETATM   13  C6  UNL     1      21.890 -33.392  11.159  1.00  0.00     0.236 C 
HETATM   14  C5  UNL     1      21.663 -33.649  12.628  1.00  0.00     0.108 C 
HETATM   15  C4  UNL     1      23.006 -33.085  12.742  1.00  0.00     0.238 C 
HETATM   16  O2  UNL     1      23.219 -33.221  11.396  1.00  0.00    -0.341 OA
BRANCH  15  17
HETATM   17  N1  UNL     1      23.952 -33.764  13.602  1.00  0.00    -0.282 N 
HETATM   18  C3  UNL     1      25.188 -34.091  13.189  1.00  0.00     0.108 A 
HETATM   19  C2  UNL     1      26.045 -34.734  14.044  1.00  0.00    -0.003 A 
HETATM   20  C1  UNL     1      27.417 -35.101  13.599  1.00  0.00     0.054 C 
HETATM   21  C19 UNL     1      25.671 -35.062  15.342  1.00  0.00     0.110 A 
HETATM   22  N7  UNL     1      24.419 -34.714  15.711  1.00  0.00    -0.294 N 
HETATM   23  C18 UNL     1      23.579 -34.077  14.854  1.00  0.00     0.330 A 
ATOM     24  H7  UNL     1      24.097 -34.934  16.653  1.00  0.00     0.172 HD
HETATM   25  O3  UNL     1      22.432 -33.803  15.318  1.00  0.00    -0.246 OA
BRANCH  21  26
HETATM   26  N8  UNL     1      26.483 -35.667  16.139  1.00  0.00    -0.385 N 
ATOM     27  H82 UNL     1      26.633 -36.675  16.105  1.00  0.00     0.157 HD
ATOM     28  H81 UNL     1      27.014 -35.153  16.842  1.00  0.00     0.157 HD
ENDBRANCH  21  26
ENDBRANCH  15  17
ENDBRANCH   1  13
BRANCH   2  29
HETATM   29  C8  UNL     1      20.045 -31.095  12.568  1.00  0.00     0.150 C 
BRANCH  29  30
HETATM   30  S1  UNL     1      18.644 -29.913  12.591  1.00  0.00    -0.162 SA
BRANCH  30  31
HETATM   31  C9  UNL     1      17.084 -30.765  12.774  1.00  0.00     0.077 C 
BRANCH  31  32
HETATM   32  C10 UNL     1      16.272 -30.025  13.829  1.00  0.00     0.042 C 
BRANCH  32  33
HETATM   33  C11 UNL     1      14.900 -29.776  13.252  1.00  0.00     0.124 A 
HETATM   34  C12 UNL     1      14.446 -30.921  12.405  1.00  0.00     0.058 A 
HETATM   35  C13 UNL     1      13.433 -31.049  13.507  1.00  0.00     0.170 A 
HETATM   36  O1  UNL     1      13.901 -29.932  14.184  1.00  0.00    -0.386 OA
ENDBRANCH  32  33
ENDBRANCH  31  32
ENDBRANCH  30  31
ENDBRANCH  29  30
ENDBRANCH   2  29
BRANCH  11  37
HETATM   37  N6  UNL     1      22.854 -33.514   8.436  1.00  0.00    -0.383 N 
ATOM     38  H62 UNL     1      22.834 -34.301   7.787  1.00  0.00     0.157 HD
ATOM     39  H61 UNL     1      23.454 -33.577   9.258  1.00  0.00     0.157 HD
ENDBRANCH  11  37
TORSDOF 9
ENDMDL
MODEL 4
REMARK VINA RESULT: -6.806725605      4.128      8.658
REMARK  9 active torsions:
REMARK  status: ('A' for Active; 'I' for Inactive)
REMARK    1  A    between atoms: N1_4  and  C4_5 
REMARK    2  A    between atoms: C6_7  and  N2_8 
REMARK    3  A    between atoms: C7_9  and  C8_10 
REMARK    4  A    between atoms: C8_10  and  S1_11 
REMARK    5  A    between atoms: S1_11  and  C9_12 
REMARK    6  A    between atoms: C9_12  and  C10_13 
REMARK    7  A    between atoms: C10_13  and  C11_14 
REMARK    8  A    between atoms: C16_26  and  N6_27 
REMARK    9  A    between atoms: C19_36  and  N8_37 
ROOT
HETATM    1  N2  UNL     1      25.775 -34.806  14.001  1.00  0.00    -0.302 N 
HETATM    2  C7  UNL     1      25.568 -36.022  14.498  1.00  0.00     0.097 A 
HETATM    3  N3  UNL     1      26.538 -36.887  14.020  1.00  0.00    -0.329 N 
ATOM      4  H3  UNL     1      26.634 -37.880  14.232  1.00  0.00     0.168 HD
HETATM    5  C14 UNL     1      27.324 -36.153  13.222  1.00  0.00     0.139 A 
HETATM    6  N4  UNL     1      28.416 -36.484  12.483  1.00  0.00    -0.337 N 
ATOM      7  H4  UNL     1      28.763 -37.443  12.500  1.00  0.00     0.168 HD
HETATM    8  C15 UNL     1      29.038 -35.574  11.737  1.00  0.00     0.183 A 
HETATM    9  N5  UNL     1      28.616 -34.312  11.689  1.00  0.00    -0.337 N 
ATOM     10  H5  UNL     1      29.113 -33.636  11.110  1.00  0.00     0.168 HD
HETATM   11  C16 UNL     1      27.524 -33.913  12.410  1.00  0.00     0.131 A 
HETATM   12  C17 UNL     1      26.874 -34.849  13.187  1.00  0.00     0.126 A 
ENDROOT
BRANCH   1  13
HETATM   13  C6  UNL     1      25.088 -33.537  14.211  1.00  0.00     0.236 C 
HETATM   14  C5  UNL     1      23.886 -33.580  15.121  1.00  0.00     0.108 C 
HETATM   15  C4  UNL     1      23.161 -33.576  13.852  1.00  0.00     0.238 C 
HETATM   16  O2  UNL     1      24.284 -33.196  13.167  1.00  0.00    -0.341 OA
BRANCH  15  17
HETATM   17  N1  UNL     1      22.020 -32.694  13.730  1.00  0.00    -0.282 N 
HETATM   18  C3  UNL     1      22.115 -31.471  13.180  1.00  0.00     0.108 A 
HETATM   19  C2  UNL     1      21.003 -30.676  13.089  1.00  0.00    -0.003 A 
HETATM   20  C1  UNL     1      21.096 -29.320  12.481  1.00  0.00     0.054 C 
HETATM   21  C19 UNL     1      19.763 -31.099  13.554  1.00  0.00     0.110 A 
HETATM   22  N7  UNL     1      19.717 -32.333  14.099  1.00  0.00    -0.294 N 
HETATM   23  C18 UNL     1      20.826 -33.113  14.183  1.00  0.00     0.330 A 
ATOM     24  H7  UNL     1      18.830 -32.688  14.455  1.00  0.00     0.172 HD
HETATM   25  O3  UNL     1      20.655 -34.250  14.715  1.00  0.00    -0.246 OA
BRANCH  21  26
HETATM   26  N8  UNL     1      18.723 -30.343  13.464  1.00  0.00    -0.385 N 
ATOM     27  H82 UNL     1      18.054 -30.423  12.698  1.00  0.00     0.157 HD
ATOM     28  H81 UNL     1      18.526 -29.629  14.165  1.00  0.00     0.157 HD
ENDBRANCH  21  26
ENDBRANCH  15  17
ENDBRANCH   1  13
BRANCH   2  29
HETATM   29  C8  UNL     1      24.486 -36.534  15.360  1.00  0.00     0.150 C 
BRANCH  29  30
HETATM   30  S1  UNL     1      25.094 -38.044  16.202  1.00  0.00    -0.162 SA
BRANCH  30  31
HETATM   31  C9  UNL     1      25.300 -37.766  17.956  1.00  0.00     0.077 C 
BRANCH  31  32
HETATM   32  C10 UNL     1      26.004 -36.428  18.134  1.00  0.00     0.042 C 
BRANCH  32  33
HETATM   33  C11 UNL     1      25.177 -35.607  19.093  1.00  0.00     0.124 A 
HETATM   34  C12 UNL     1      25.944 -34.433  19.612  1.00  0.00     0.058 A 
HETATM   35  C13 UNL     1      24.904 -33.685  18.826  1.00  0.00     0.170 A 
HETATM   36  O1  UNL     1      24.234 -34.840  18.450  1.00  0.00    -0.386 OA
ENDBRANCH  32  33
ENDBRANCH  31  32
ENDBRANCH  30  31
ENDBRANCH  29  30
ENDBRANCH   2  29
BRANCH  11  37
HETATM   37  N6  UNL     1      27.113 -32.700  12.324  1.00  0.00    -0.383 N 
ATOM     38  H62 UNL     1      26.952 -32.249  11.423  1.00  0.00     0.157 HD
ATOM     39  H61 UNL     1      26.964 -32.156  13.174  1.00  0.00     0.157 HD
ENDBRANCH  11  37
TORSDOF 9
ENDMDL
MODEL 5
REMARK VINA RESULT: -6.741790812      2.540      8.121
REMARK  9 active torsions:
REMARK  status: ('A' for Active; 'I' for Inactive)
REMARK    1  A    between atoms: N1_4  and  C4_5 
REMARK    2  A    between atoms: C6_7  and  N2_8 
REMARK    3  A    between atoms: C7_9  and  C8_10 
REMARK    4  A    between atoms: C8_10  and  S1_11 
REMARK    5  A    between atoms: S1_11  and  C9_12 
REMARK    6  A    between atoms: C9_12  and  C10_13 
REMARK    7  A    between atoms: C10_13  and  C11_14 
REMARK    8  A    between atoms: C16_26  and  N6_27 
REMARK    9  A    between atoms: C19_36  and  N8_37 
ROOT
HETATM    1  N2  UNL     1      20.814 -31.910  11.010  1.00  0.00    -0.302 N 
HETATM    2  C7  UNL     1      21.316 -33.031  11.521  1.00  0.00     0.097 A 
HETATM    3  N3  UNL     1      22.103 -33.659  10.571  1.00  0.00    -0.329 N 
ATOM      4  H3  UNL     1      22.617 -34.534  10.679  1.00  0.00     0.168 HD
HETATM    5  C14 UNL     1      22.053 -32.883   9.480  1.00  0.00     0.139 A 
HETATM    6  N4  UNL     1      22.622 -33.017   8.252  1.00  0.00    -0.337 N 
ATOM      7  H4  UNL     1      23.216 -33.822   8.059  1.00  0.00     0.168 HD
HETATM    8  C15 UNL     1      22.413 -32.111   7.300  1.00  0.00     0.183 A 
HETATM    9  N5  UNL     1      21.644 -31.045   7.514  1.00  0.00    -0.337 N 
ATOM     10  H5  UNL     1      21.502 -30.367   6.766  1.00  0.00     0.168 HD
HETATM   11  C16 UNL     1      21.042 -30.851   8.727  1.00  0.00     0.131 A 
HETATM   12  C17 UNL     1      21.254 -31.783   9.721  1.00  0.00     0.126 A 
ENDROOT
BRANCH   1  13
HETATM   13  C6  UNL     1      19.972 -30.868  11.586  1.00  0.00     0.236 C 
HETATM   14  C5  UNL     1      19.353 -31.185  12.924  1.00  0.00     0.108 C 
HETATM   15  C4  UNL     1      18.175 -31.455  12.104  1.00  0.00     0.238 C 
HETATM   16  O2  UNL     1      18.734 -30.824  11.025  1.00  0.00    -0.341 OA
BRANCH  15  17
HETATM   17  N1  UNL     1      16.904 -30.928  12.553  1.00  0.00    -0.282 N 
HETATM   18  C3  UNL     1      15.736 -31.523  12.257  1.00  0.00     0.108 A 
HETATM   19  C2  UNL     1      14.561 -30.981  12.708  1.00  0.00    -0.003 A 
HETATM   20  C1  UNL     1      13.261 -31.631  12.385  1.00  0.00     0.054 C 
HETATM   21  C19 UNL     1      14.538 -29.821  13.473  1.00  0.00     0.110 A 
HETATM   22  N7  UNL     1      15.736 -29.259  13.745  1.00  0.00    -0.294 N 
HETATM   23  C18 UNL     1      16.894 -29.806  13.292  1.00  0.00     0.330 A 
ATOM     24  H7  UNL     1      15.771 -28.406  14.302  1.00  0.00     0.172 HD
HETATM   25  O3  UNL     1      17.951 -29.186  13.614  1.00  0.00    -0.246 OA
BRANCH  21  26
HETATM   26  N8  UNL     1      13.428 -29.319  13.892  1.00  0.00    -0.385 N 
ATOM     27  H82 UNL     1      13.308 -28.979  14.846  1.00  0.00     0.157 HD
ATOM     28  H81 UNL     1      12.618 -29.240  13.278  1.00  0.00     0.157 HD
ENDBRANCH  21  26
ENDBRANCH  15  17
ENDBRANCH   1  13
BRANCH   2  29
HETATM   29  C8  UNL     1      21.096 -33.670  12.832  1.00  0.00     0.150 C 
BRANCH  29  30
HETATM   30  S1  UNL     1      22.433 -33.126  13.962  1.00  0.00    -0.162 SA
BRANCH  30  31
HETATM   31  C9  UNL     1      23.716 -34.365  14.087  1.00  0.00     0.077 C 
BRANCH  31  32
HETATM   32  C10 UNL     1      25.058 -33.658  13.958  1.00  0.00     0.042 C 
BRANCH  32  33
HETATM   33  C11 UNL     1      25.158 -33.130  12.548  1.00  0.00     0.124 A 
HETATM   34  C12 UNL     1      26.578 -32.873  12.157  1.00  0.00     0.058 A 
HETATM   35  C13 UNL     1      26.289 -33.999  11.205  1.00  0.00     0.170 A 
HETATM   36  O1  UNL     1      24.965 -34.112  11.604  1.00  0.00    -0.386 OA
ENDBRANCH  32  33
ENDBRANCH  31  32
ENDBRANCH  30  31
ENDBRANCH  29  30
ENDBRANCH   2  29
BRANCH  11  37
HETATM   37  N6  UNL     1      20.278 -29.835   8.903  1.00  0.00    -0.383 N 
ATOM     38  H62 UNL     1      19.591 -29.550   8.204  1.00  0.00     0.157 HD
ATOM     39  H61 UNL     1      20.367 -29.275   9.751  1.00  0.00     0.157 HD
ENDBRANCH  11  37
TORSDOF 9
ENDMDL
