MODEL 1
REMARK VINA RESULT: -8.409495505      0.000      0.000
REMARK  4 active torsions:
REMARK  status: ('A' for Active; 'I' for Inactive)
REMARK    1  A    between atoms: N1_2  and  C2_4 
REMARK    2  A    between atoms: C5_7  and  C6_8 
REMARK       I    between atoms: C6_8  and  N2_10 
REMARK    3  A    between atoms: C8_15  and  C9_16 
REMARK    4  A    between atoms: C12_19  and  C13_20 
ROOT
HETATM    1  C6  UNL     1       2.733   4.445   9.454  1.00  0.00     0.260 C 
HETATM    2  O1  UNL     1       2.323   5.585   9.128  1.00  0.00    -0.267 OA
HETATM    3  N2  UNL     1       2.220   3.799  10.609  1.00  0.00    -0.287 N 
ATOM      4  H2  UNL     1       2.847   3.326  11.259  1.00  0.00     0.172 HD
HETATM    5  C7  UNL     1       0.946   3.818  10.824  1.00  0.00     0.251 A 
HETATM    6  N3  UNL     1       0.331   3.250  11.870  1.00  0.00    -0.304 N 
ATOM      7  H3  UNL     1       0.797   2.737  12.617  1.00  0.00     0.171 HD
HETATM    8  C8  UNL     1      -0.998   3.459  11.786  1.00  0.00     0.139 A 
HETATM    9  N4  UNL     1      -1.155   4.181  10.637  1.00  0.00    -0.240 N 
ATOM     10  H4  UNL     1      -2.045   4.514  10.264  1.00  0.00     0.196 HD
HETATM   11  O2  UNL     1       0.007   4.375  10.097  1.00  0.00    -0.199 OA
ENDROOT
BRANCH   1  12
HETATM   12  C5  UNL     1       3.742   3.751   8.667  1.00  0.00     0.048 A 
HETATM   13  C4  UNL     1       5.061   3.718   9.059  1.00  0.00     0.022 A 
HETATM   14  C3  UNL     1       6.014   3.044   8.287  1.00  0.00     0.049 A 
HETATM   15  C2  UNL     1       5.589   2.414   7.123  1.00  0.00     0.100 A 
HETATM   16  N5  UNL     1       4.289   2.476   6.783  1.00  0.00    -0.352 N 
HETATM   17  C21 UNL     1       3.353   3.117   7.505  1.00  0.00     0.106 A 
ATOM     18  H5  UNL     1       3.996   2.009   5.926  1.00  0.00     0.166 HD
BRANCH  15  19
HETATM   19  N1  UNL     1       6.462   1.796   6.417  1.00  0.00    -0.381 N 
HETATM   20  C1  UNL     1       6.455   0.345   6.449  1.00  0.00     0.147 C 
ATOM     21  H1  UNL     1       7.139   2.308   5.851  1.00  0.00     0.160 HD
ENDBRANCH  15  19
ENDBRANCH   1  12
BRANCH   8  22
HETATM   22  C9  UNL     1      -2.045   3.023  12.699  1.00  0.00     0.010 A 
HETATM   23  C10 UNL     1      -2.861   1.975  12.395  1.00  0.00     0.016 A 
HETATM   24  C11 UNL     1      -3.859   1.577  13.296  1.00  0.00     0.013 A 
HETATM   25  C12 UNL     1      -4.017   2.246  14.489  1.00  0.00    -0.026 A 
HETATM   26  C19 UNL     1      -3.187   3.303  14.786  1.00  0.00     0.013 A 
HETATM   27  C20 UNL     1      -2.204   3.689  13.891  1.00  0.00     0.016 A 
BRANCH  25  28
HETATM   28  C13 UNL     1      -5.037   1.882  15.472  1.00  0.00    -0.026 A 
HETATM   29  C14 UNL     1      -4.892   0.741  16.258  1.00  0.00     0.012 A 
HETATM   30  C15 UNL     1      -5.803   0.337  17.198  1.00  0.00     0.001 A 
HETATM   31  C16 UNL     1      -6.923   1.124  17.359  1.00  0.00     0.000 A 
HETATM   32  C17 UNL     1      -7.100   2.275  16.589  1.00  0.00     0.001 A 
HETATM   33  C18 UNL     1      -6.162   2.646  15.656  1.00  0.00     0.012 A 
ENDBRANCH  25  28
ENDBRANCH   8  22
TORSDOF 4
ENDMDL
MODEL 2
REMARK VINA RESULT: -8.324205862      1.463      1.690
REMARK  4 active torsions:
REMARK  status: ('A' for Active; 'I' for Inactive)
REMARK    1  A    between atoms: N1_2  and  C2_4 
REMARK    2  A    between atoms: C5_7  and  C6_8 
REMARK       I    between atoms: C6_8  and  N2_10 
REMARK    3  A    between atoms: C8_15  and  C9_16 
REMARK    4  A    between atoms: C12_19  and  C13_20 
ROOT
HETATM    1  C6  UNL     1       1.336   3.430   7.966  1.00  0.00     0.260 C 
HETATM    2  O1  UNL     1       0.566   3.088   7.037  1.00  0.00    -0.267 OA
HETATM    3  N2  UNL     1       0.813   3.835   9.221  1.00  0.00    -0.287 N 
ATOM      4  H2  UNL     1       1.185   4.658   9.695  1.00  0.00     0.172 HD
HETATM    5  C7  UNL     1      -0.142   3.147   9.755  1.00  0.00     0.251 A 
HETATM    6  N3  UNL     1      -0.725   3.418  10.931  1.00  0.00    -0.304 N 
ATOM      7  H3  UNL     1      -0.482   4.198  11.540  1.00  0.00     0.171 HD
HETATM    8  C8  UNL     1      -1.680   2.502  11.187  1.00  0.00     0.139 A 
HETATM    9  N4  UNL     1      -1.645   1.665  10.108  1.00  0.00    -0.240 N 
ATOM     10  H4  UNL     1      -2.243   0.850   9.971  1.00  0.00     0.196 HD
HETATM   11  O2  UNL     1      -0.731   2.073   9.286  1.00  0.00    -0.199 OA
ENDROOT
BRANCH   1  12
HETATM   12  C5  UNL     1       2.781   3.423   7.791  1.00  0.00     0.048 A 
HETATM   13  C4  UNL     1       3.629   3.789   8.811  1.00  0.00     0.022 A 
HETATM   14  C3  UNL     1       5.016   3.774   8.621  1.00  0.00     0.049 A 
HETATM   15  C2  UNL     1       5.503   3.380   7.380  1.00  0.00     0.100 A 
HETATM   16  N5  UNL     1       4.633   3.031   6.417  1.00  0.00    -0.352 N 
HETATM   17  C21 UNL     1       3.297   3.036   6.571  1.00  0.00     0.106 A 
ATOM     18  H5  UNL     1       5.009   2.744   5.513  1.00  0.00     0.166 HD
BRANCH  15  19
HETATM   19  N1  UNL     1       6.773   3.365   7.207  1.00  0.00    -0.381 N 
HETATM   20  C1  UNL     1       7.363   4.437   6.424  1.00  0.00     0.147 C 
ATOM     21  H1  UNL     1       7.350   2.625   7.606  1.00  0.00     0.160 HD
ENDBRANCH  15  19
ENDBRANCH   1  12
BRANCH   8  22
HETATM   22  C9  UNL     1      -2.559   2.408  12.344  1.00  0.00     0.010 A 
HETATM   23  C10 UNL     1      -3.331   1.308  12.561  1.00  0.00     0.016 A 
HETATM   24  C11 UNL     1      -4.167   1.246  13.686  1.00  0.00     0.013 A 
HETATM   25  C12 UNL     1      -4.209   2.299  14.572  1.00  0.00    -0.026 A 
HETATM   26  C19 UNL     1      -3.424   3.406  14.343  1.00  0.00     0.013 A 
HETATM   27  C20 UNL     1      -2.602   3.458  13.230  1.00  0.00     0.016 A 
BRANCH  25  28
HETATM   28  C13 UNL     1      -5.056   2.299  15.763  1.00  0.00    -0.026 A 
HETATM   29  C14 UNL     1      -4.877   1.346  16.764  1.00  0.00     0.012 A 
HETATM   30  C15 UNL     1      -5.630   1.282  17.907  1.00  0.00     0.001 A 
HETATM   31  C16 UNL     1      -6.619   2.230  18.053  1.00  0.00     0.000 A 
HETATM   32  C17 UNL     1      -6.827   3.200  17.071  1.00  0.00     0.001 A 
HETATM   33  C18 UNL     1      -6.050   3.229  15.939  1.00  0.00     0.012 A 
ENDBRANCH  25  28
ENDBRANCH   8  22
TORSDOF 4
ENDMDL
MODEL 3
REMARK VINA RESULT: -8.060163780      1.531      1.964
REMARK  4 active torsions:
REMARK  status: ('A' for Active; 'I' for Inactive)
REMARK    1  A    between atoms: N1_2  and  C2_4 
REMARK    2  A    between atoms: C5_7  and  C6_8 
REMARK       I    between atoms: C6_8  and  N2_10 
REMARK    3  A    between atoms: C8_15  and  C9_16 
REMARK    4  A    between atoms: C12_19  and  C13_20 
ROOT
HETATM    1  C6  UNL     1       1.442   3.715   7.836  1.00  0.00     0.260 C 
HETATM    2  O1  UNL     1       0.686   3.339   6.910  1.00  0.00    -0.267 OA
HETATM    3  N2  UNL     1       0.904   4.105   9.091  1.00  0.00    -0.287 N 
ATOM      4  H2  UNL     1       1.243   4.944   9.561  1.00  0.00     0.172 HD
HETATM    5  C7  UNL     1      -0.021   3.382   9.629  1.00  0.00     0.251 A 
HETATM    6  N3  UNL     1      -0.614   3.634  10.804  1.00  0.00    -0.304 N 
ATOM      7  H3  UNL     1      -0.403   4.426  11.409  1.00  0.00     0.171 HD
HETATM    8  C8  UNL     1      -1.532   2.682  11.065  1.00  0.00     0.139 A 
HETATM    9  N4  UNL     1      -1.464   1.842   9.989  1.00  0.00    -0.240 N 
ATOM     10  H4  UNL     1      -2.028   1.003   9.857  1.00  0.00     0.196 HD
HETATM   11  O2  UNL     1      -0.567   2.283   9.165  1.00  0.00    -0.199 OA
ENDROOT
BRANCH   1  12
HETATM   12  C5  UNL     1       2.886   3.766   7.660  1.00  0.00     0.048 A 
HETATM   13  C4  UNL     1       3.735   3.063   8.484  1.00  0.00     0.022 A 
HETATM   14  C3  UNL     1       5.120   3.125   8.297  1.00  0.00     0.049 A 
HETATM   15  C2  UNL     1       5.606   3.913   7.258  1.00  0.00     0.100 A 
HETATM   16  N5  UNL     1       4.736   4.579   6.481  1.00  0.00    -0.352 N 
HETATM   17  C21 UNL     1       3.401   4.539   6.639  1.00  0.00     0.106 A 
ATOM     18  H5  UNL     1       5.110   5.152   5.725  1.00  0.00     0.166 HD
BRANCH  15  19
HETATM   19  N1  UNL     1       6.875   3.969   7.086  1.00  0.00    -0.381 N 
HETATM   20  C1  UNL     1       7.417   5.138   6.417  1.00  0.00     0.147 C 
ATOM     21  H1  UNL     1       7.484   3.217   7.409  1.00  0.00     0.160 HD
ENDBRANCH  15  19
ENDBRANCH   1  12
BRANCH   8  22
HETATM   22  C9  UNL     1      -2.404   2.557  12.223  1.00  0.00     0.010 A 
HETATM   23  C10 UNL     1      -2.348   3.445  13.254  1.00  0.00     0.016 A 
HETATM   24  C11 UNL     1      -3.203   3.299  14.356  1.00  0.00     0.013 A 
HETATM   25  C12 UNL     1      -4.101   2.256  14.398  1.00  0.00    -0.026 A 
HETATM   26  C19 UNL     1      -4.149   1.364  13.351  1.00  0.00     0.013 A 
HETATM   27  C20 UNL     1      -3.302   1.516  12.267  1.00  0.00     0.016 A 
BRANCH  25  28
HETATM   28  C13 UNL     1      -5.020   2.046  15.516  1.00  0.00    -0.026 A 
HETATM   29  C14 UNL     1      -4.980   0.868  16.259  1.00  0.00     0.012 A 
HETATM   30  C15 UNL     1      -5.806   0.601  17.318  1.00  0.00     0.001 A 
HETATM   31  C16 UNL     1      -6.725   1.572  17.651  1.00  0.00     0.000 A 
HETATM   32  C17 UNL     1      -6.793   2.766  16.929  1.00  0.00     0.001 A 
HETATM   33  C18 UNL     1      -5.946   2.995  15.873  1.00  0.00     0.012 A 
ENDBRANCH  25  28
ENDBRANCH   8  22
TORSDOF 4
ENDMDL
MODEL 4
REMARK VINA RESULT: -7.806020143      6.592     10.006
REMARK  4 active torsions:
REMARK  status: ('A' for Active; 'I' for Inactive)
REMARK    1  A    between atoms: N1_2  and  C2_4 
REMARK    2  A    between atoms: C5_7  and  C6_8 
REMARK       I    between atoms: C6_8  and  N2_10 
REMARK    3  A    between atoms: C8_15  and  C9_16 
REMARK    4  A    between atoms: C12_19  and  C13_20 
ROOT
HETATM    1  C6  UNL     1      -4.974   3.735  12.935  1.00  0.00     0.260 C 
HETATM    2  O1  UNL     1      -5.990   4.074  13.588  1.00  0.00    -0.267 OA
HETATM    3  N2  UNL     1      -4.030   4.709  12.517  1.00  0.00    -0.287 N 
ATOM      4  H2  UNL     1      -3.652   4.690  11.570  1.00  0.00     0.172 HD
HETATM    5  C7  UNL     1      -3.655   5.619  13.354  1.00  0.00     0.251 A 
HETATM    6  N3  UNL     1      -2.775   6.595  13.092  1.00  0.00    -0.304 N 
ATOM      7  H3  UNL     1      -2.298   6.730  12.201  1.00  0.00     0.171 HD
HETATM    8  C8  UNL     1      -2.614   7.369  14.183  1.00  0.00     0.139 A 
HETATM    9  N4  UNL     1      -3.441   6.813  15.118  1.00  0.00    -0.240 N 
ATOM     10  H4  UNL     1      -3.567   7.151  16.072  1.00  0.00     0.196 HD
HETATM   11  O2  UNL     1      -4.038   5.788  14.597  1.00  0.00    -0.199 OA
ENDROOT
BRANCH   1  12
HETATM   12  C5  UNL     1      -4.730   2.344  12.586  1.00  0.00     0.048 A 
HETATM   13  C4  UNL     1      -4.947   1.874  11.311  1.00  0.00     0.022 A 
HETATM   14  C3  UNL     1      -4.704   0.532  10.996  1.00  0.00     0.049 A 
HETATM   15  C2  UNL     1      -4.240  -0.304  12.006  1.00  0.00     0.100 A 
HETATM   16  N5  UNL     1      -4.043   0.203  13.236  1.00  0.00    -0.352 N 
HETATM   17  C21 UNL     1      -4.269   1.488  13.565  1.00  0.00     0.106 A 
ATOM     18  H5  UNL     1      -3.702  -0.424  13.963  1.00  0.00     0.166 HD
BRANCH  15  19
HETATM   19  N1  UNL     1      -4.017  -1.532  11.718  1.00  0.00    -0.381 N 
HETATM   20  C1  UNL     1      -2.670  -1.902  11.322  1.00  0.00     0.147 C 
ATOM     21  H1  UNL     1      -4.762  -2.227  11.765  1.00  0.00     0.160 HD
ENDBRANCH  15  19
ENDBRANCH   1  12
BRANCH   8  22
HETATM   22  C9  UNL     1      -1.758   8.534  14.350  1.00  0.00     0.010 A 
HETATM   23  C10 UNL     1      -2.027   9.710  13.717  1.00  0.00     0.016 A 
HETATM   24  C11 UNL     1      -1.184  10.816  13.898  1.00  0.00     0.013 A 
HETATM   25  C12 UNL     1      -0.080  10.714  14.716  1.00  0.00    -0.026 A 
HETATM   26  C19 UNL     1       0.183   9.522  15.349  1.00  0.00     0.013 A 
HETATM   27  C20 UNL     1      -0.655   8.435  15.166  1.00  0.00     0.016 A 
BRANCH  25  28
HETATM   28  C13 UNL     1       0.838  11.828  14.948  1.00  0.00    -0.026 A 
HETATM   29  C14 UNL     1       1.114  12.265  16.242  1.00  0.00     0.012 A 
HETATM   30  C15 UNL     1       1.962  13.299  16.538  1.00  0.00     0.001 A 
HETATM   31  C16 UNL     1       2.569  13.930  15.474  1.00  0.00     0.000 A 
HETATM   32  C17 UNL     1       2.316  13.518  14.164  1.00  0.00     0.001 A 
HETATM   33  C18 UNL     1       1.459  12.477  13.910  1.00  0.00     0.012 A 
ENDBRANCH  25  28
ENDBRANCH   8  22
TORSDOF 4
ENDMDL
MODEL 5
REMARK VINA RESULT: -7.786943862      6.581     10.054
REMARK  4 active torsions:
REMARK  status: ('A' for Active; 'I' for Inactive)
REMARK    1  A    between atoms: N1_2  and  C2_4 
REMARK    2  A    between atoms: C5_7  and  C6_8 
REMARK       I    between atoms: C6_8  and  N2_10 
REMARK    3  A    between atoms: C8_15  and  C9_16 
REMARK    4  A    between atoms: C12_19  and  C13_20 
ROOT
HETATM    1  C6  UNL     1      -4.948   3.726  12.932  1.00  0.00     0.260 C 
HETATM    2  O1  UNL     1      -5.970   4.068  13.574  1.00  0.00    -0.267 OA
HETATM    3  N2  UNL     1      -3.995   4.696  12.526  1.00  0.00    -0.287 N 
ATOM      4  H2  UNL     1      -3.607   4.678  11.584  1.00  0.00     0.172 HD
HETATM    5  C7  UNL     1      -3.626   5.604  13.368  1.00  0.00     0.251 A 
HETATM    6  N3  UNL     1      -2.739   6.576  13.118  1.00  0.00    -0.304 N 
ATOM      7  H3  UNL     1      -2.252   6.712  12.233  1.00  0.00     0.171 HD
HETATM    8  C8  UNL     1      -2.588   7.348  14.212  1.00  0.00     0.139 A 
HETATM    9  N4  UNL     1      -3.427   6.794  15.137  1.00  0.00    -0.240 N 
ATOM     10  H4  UNL     1      -3.563   7.131  16.090  1.00  0.00     0.196 HD
HETATM   11  O2  UNL     1      -4.022   5.772  14.608  1.00  0.00    -0.199 OA
ENDROOT
BRANCH   1  12
HETATM   12  C5  UNL     1      -4.704   2.334  12.584  1.00  0.00     0.048 A 
HETATM   13  C4  UNL     1      -4.884   1.873  11.300  1.00  0.00     0.022 A 
HETATM   14  C3  UNL     1      -4.643   0.530  10.986  1.00  0.00     0.049 A 
HETATM   15  C2  UNL     1      -4.220  -0.315  12.006  1.00  0.00     0.100 A 
HETATM   16  N5  UNL     1      -4.059   0.184  13.244  1.00  0.00    -0.352 N 
HETATM   17  C21 UNL     1      -4.284   1.468  13.573  1.00  0.00     0.106 A 
ATOM     18  H5  UNL     1      -3.749  -0.451  13.980  1.00  0.00     0.166 HD
BRANCH  15  19
HETATM   19  N1  UNL     1      -3.999  -1.544  11.719  1.00  0.00    -0.381 N 
HETATM   20  C1  UNL     1      -2.646  -1.921  11.350  1.00  0.00     0.147 C 
ATOM     21  H1  UNL     1      -4.749  -2.235  11.748  1.00  0.00     0.160 HD
ENDBRANCH  15  19
ENDBRANCH   1  12
BRANCH   8  22
HETATM   22  C9  UNL     1      -1.729   8.510  14.390  1.00  0.00     0.010 A 
HETATM   23  C10 UNL     1      -0.595   8.447  15.142  1.00  0.00     0.016 A 
HETATM   24  C11 UNL     1       0.213   9.584  15.293  1.00  0.00     0.013 A 
HETATM   25  C12 UNL     1      -0.141  10.767  14.683  1.00  0.00    -0.026 A 
HETATM   26  C19 UNL     1      -1.289  10.819  13.927  1.00  0.00     0.013 A 
HETATM   27  C20 UNL     1      -2.080   9.692  13.782  1.00  0.00     0.016 A 
BRANCH  25  28
HETATM   28  C13 UNL     1       0.655  11.987  14.801  1.00  0.00    -0.026 A 
HETATM   29  C14 UNL     1       0.045  13.214  15.053  1.00  0.00     0.012 A 
HETATM   30  C15 UNL     1       0.723  14.398  15.177  1.00  0.00     0.001 A 
HETATM   31  C16 UNL     1       2.094  14.347  15.038  1.00  0.00     0.000 A 
HETATM   32  C17 UNL     1       2.739  13.135  14.785  1.00  0.00     0.001 A 
HETATM   33  C18 UNL     1       2.022  11.970  14.669  1.00  0.00     0.012 A 
ENDBRANCH  25  28
ENDBRANCH   8  22
TORSDOF 4
ENDMDL
