MODEL 1
REMARK VINA RESULT: -9.658067630      0.000      0.000
REMARK  4 active torsions:
REMARK  status: ('A' for Active; 'I' for Inactive)
REMARK    1  A    between atoms: C9_9  and  N1_10 
REMARK    2  A    between atoms: N1_10  and  C10_12 
REMARK    3  A    between atoms: C14_16  and  N2_17 
REMARK    4  A    between atoms: N3_20  and  C17_21 
ROOT
HETATM    1  C10 UNL     1      55.745  17.321 128.685  1.00  0.00     0.103 C 
HETATM    2  C11 UNL     1      55.933  16.135 127.814  1.00  0.00     0.027 C 
HETATM    3  C12 UNL     1      56.799  15.158 128.629  1.00  0.00     0.004 C 
HETATM    4  C13 UNL     1      56.107  15.293 129.986  1.00  0.00     0.027 C 
HETATM    5  C14 UNL     1      55.791  16.736 130.118  1.00  0.00     0.101 C 
ENDROOT
BRANCH   5   6
HETATM    6  N2  UNL     1      56.618  17.506 130.935  1.00  0.00    -0.403 N 
HETATM    7  C15 UNL     1      57.568  18.355 130.325  1.00  0.00     0.147 C 
HETATM    8  C16 UNL     1      58.539  18.999 131.246  1.00  0.00     0.292 C 
HETATM    9  N3  UNL     1      58.044  19.197 132.565  1.00  0.00     0.096 N 
HETATM   10  C23 UNL     1      57.380  18.112 133.184  1.00  0.00     0.292 C 
HETATM   11  C24 UNL     1      56.964  17.017 132.225  1.00  0.00     0.147 C 
BRANCH   9  12
HETATM   12  C17 UNL     1      59.087  19.768 133.391  1.00  0.00     0.226 C 
HETATM   13  C18 UNL     1      59.921  20.747 132.593  1.00  0.00     0.066 C 
HETATM   14  C19 UNL     1      60.749  21.582 133.536  1.00  0.00     0.274 C 
HETATM   15  N4  UNL     1      59.975  22.354 134.462  1.00  0.00     0.084 N 
HETATM   16  C20 UNL     1      60.196  23.765 134.407  1.00  0.00     0.309 C 
HETATM   17  C21 UNL     1      58.576  21.995 134.397  1.00  0.00     0.274 C 
HETATM   18  C22 UNL     1      58.508  20.478 134.567  1.00  0.00     0.066 C 
ENDBRANCH   9  12
ENDBRANCH   5   6
BRANCH   1  19
HETATM   19  N1  UNL     1      54.614  18.092 128.505  1.00  0.00    -0.389 N 
ATOM     20  H1  UNL     1      54.520  18.917 129.098  1.00  0.00     0.159 HD
BRANCH  19  21
HETATM   21  C9  UNL     1      53.580  17.853 127.584  1.00  0.00    -0.014 C 
HETATM   22  C2  UNL     1      52.462  17.003 128.011  1.00  0.00     0.027 C 
HETATM   23  C1  UNL     1      51.636  17.453 129.180  1.00  0.00     0.016 C 
HETATM   24  C3  UNL     1      51.604  16.540 126.838  1.00  0.00     0.010 C 
HETATM   25  C4  UNL     1      50.482  17.396 126.436  1.00  0.00     0.001 C 
HETATM   26  C5  UNL     1      50.815  18.172 125.160  1.00  0.00     0.000 C 
HETATM   27  C6  UNL     1      51.218  19.578 125.437  1.00  0.00     0.000 C 
HETATM   28  C7  UNL     1      51.999  19.712 126.760  1.00  0.00     0.006 C 
HETATM   29  C8  UNL     1      53.283  19.023 126.697  1.00  0.00     0.052 C 
ENDBRANCH  19  21
ENDBRANCH   1  19
TORSDOF 4
ENDMDL
MODEL 2
REMARK VINA RESULT: -9.298931195      1.055      1.770
REMARK  4 active torsions:
REMARK  status: ('A' for Active; 'I' for Inactive)
REMARK    1  A    between atoms: C9_9  and  N1_10 
REMARK    2  A    between atoms: N1_10  and  C10_12 
REMARK    3  A    between atoms: C14_16  and  N2_17 
REMARK    4  A    between atoms: N3_20  and  C17_21 
ROOT
HETATM    1  C10 UNL     1      56.805  16.497 128.673  1.00  0.00     0.103 C 
HETATM    2  C11 UNL     1      56.858  15.068 128.279  1.00  0.00     0.027 C 
HETATM    3  C12 UNL     1      57.127  14.291 129.581  1.00  0.00     0.004 C 
HETATM    4  C13 UNL     1      56.162  15.030 130.508  1.00  0.00     0.027 C 
HETATM    5  C14 UNL     1      56.274  16.459 130.126  1.00  0.00     0.101 C 
ENDROOT
BRANCH   5   6
HETATM    6  N2  UNL     1      57.036  17.289 130.948  1.00  0.00    -0.403 N 
HETATM    7  C15 UNL     1      58.359  17.592 130.559  1.00  0.00     0.147 C 
HETATM    8  C16 UNL     1      59.174  18.320 131.566  1.00  0.00     0.292 C 
HETATM    9  N3  UNL     1      58.411  19.132 132.452  1.00  0.00     0.096 N 
HETATM   10  C23 UNL     1      57.256  18.559 133.032  1.00  0.00     0.292 C 
HETATM   11  C24 UNL     1      56.785  17.293 132.348  1.00  0.00     0.147 C 
BRANCH   9  12
HETATM   12  C17 UNL     1      59.292  19.741 133.426  1.00  0.00     0.226 C 
HETATM   13  C18 UNL     1      60.223  20.730 132.758  1.00  0.00     0.066 C 
HETATM   14  C19 UNL     1      60.866  21.598 133.808  1.00  0.00     0.274 C 
HETATM   15  N4  UNL     1      59.933  22.363 134.582  1.00  0.00     0.084 N 
HETATM   16  C20 UNL     1      60.128  23.778 134.538  1.00  0.00     0.309 C 
HETATM   17  C21 UNL     1      58.573  21.967 134.295  1.00  0.00     0.274 C 
HETATM   18  C22 UNL     1      58.513  20.451 134.479  1.00  0.00     0.066 C 
ENDBRANCH   9  12
ENDBRANCH   5   6
BRANCH   1  19
HETATM   19  N1  UNL     1      56.057  17.361 127.898  1.00  0.00    -0.389 N 
ATOM     20  H1  UNL     1      56.550  17.859 127.156  1.00  0.00     0.159 HD
BRANCH  19  21
HETATM   21  C9  UNL     1      54.683  17.623 128.031  1.00  0.00    -0.014 C 
HETATM   22  C2  UNL     1      54.251  19.026 128.084  1.00  0.00     0.027 C 
HETATM   23  C1  UNL     1      54.543  19.901 126.901  1.00  0.00     0.016 C 
HETATM   24  C3  UNL     1      52.815  19.172 128.575  1.00  0.00     0.010 C 
HETATM   25  C4  UNL     1      51.745  19.135 127.570  1.00  0.00     0.001 C 
HETATM   26  C5  UNL     1      51.022  17.786 127.591  1.00  0.00     0.000 C 
HETATM   27  C6  UNL     1      51.477  16.878 126.504  1.00  0.00     0.000 C 
HETATM   28  C7  UNL     1      52.977  17.051 126.188  1.00  0.00     0.006 C 
HETATM   29  C8  UNL     1      53.811  16.639 127.311  1.00  0.00     0.052 C 
ENDBRANCH  19  21
ENDBRANCH   1  19
TORSDOF 4
ENDMDL
MODEL 3
REMARK VINA RESULT: -9.295515513      1.482      1.946
REMARK  4 active torsions:
REMARK  status: ('A' for Active; 'I' for Inactive)
REMARK    1  A    between atoms: C9_9  and  N1_10 
REMARK    2  A    between atoms: N1_10  and  C10_12 
REMARK    3  A    between atoms: C14_16  and  N2_17 
REMARK    4  A    between atoms: N3_20  and  C17_21 
ROOT
HETATM    1  C10 UNL     1      54.318  16.288 128.552  1.00  0.00     0.103 C 
HETATM    2  C11 UNL     1      53.653  15.003 128.222  1.00  0.00     0.027 C 
HETATM    3  C12 UNL     1      53.604  14.213 129.542  1.00  0.00     0.004 C 
HETATM    4  C13 UNL     1      53.177  15.338 130.484  1.00  0.00     0.027 C 
HETATM    5  C14 UNL     1      53.933  16.531 130.032  1.00  0.00     0.101 C 
ENDROOT
BRANCH   5   6
HETATM    6  N2  UNL     1      55.053  16.905 130.774  1.00  0.00    -0.403 N 
HETATM    7  C15 UNL     1      54.958  18.035 131.615  1.00  0.00     0.147 C 
HETATM    8  C16 UNL     1      56.233  18.490 132.228  1.00  0.00     0.292 C 
HETATM    9  N3  UNL     1      57.189  17.452 132.414  1.00  0.00     0.096 N 
HETATM   10  C23 UNL     1      57.416  16.570 131.331  1.00  0.00     0.292 C 
HETATM   11  C24 UNL     1      56.349  16.623 130.259  1.00  0.00     0.147 C 
BRANCH   9  12
HETATM   12  C17 UNL     1      58.410  18.013 132.953  1.00  0.00     0.226 C 
HETATM   13  C18 UNL     1      58.785  19.280 132.214  1.00  0.00     0.066 C 
HETATM   14  C19 UNL     1      59.827  20.029 133.004  1.00  0.00     0.274 C 
HETATM   15  N4  UNL     1      59.394  20.423 134.313  1.00  0.00     0.084 N 
HETATM   16  C20 UNL     1      59.446  21.827 134.569  1.00  0.00     0.309 C 
HETATM   17  C21 UNL     1      58.116  19.832 134.637  1.00  0.00     0.274 C 
HETATM   18  C22 UNL     1      58.258  18.329 134.402  1.00  0.00     0.066 C 
ENDBRANCH   9  12
ENDBRANCH   5   6
BRANCH   1  19
HETATM   19  N1  UNL     1      54.024  17.394 127.779  1.00  0.00    -0.389 N 
ATOM     20  H1  UNL     1      54.618  18.214 127.904  1.00  0.00     0.159 HD
BRANCH  19  21
HETATM   21  C9  UNL     1      52.987  17.501 126.838  1.00  0.00    -0.014 C 
HETATM   22  C2  UNL     1      51.639  17.087 127.248  1.00  0.00     0.027 C 
HETATM   23  C1  UNL     1      50.994  17.812 128.392  1.00  0.00     0.016 C 
HETATM   24  C3  UNL     1      50.697  16.920 126.060  1.00  0.00     0.010 C 
HETATM   25  C4  UNL     1      49.938  18.098 125.623  1.00  0.00     0.001 C 
HETATM   26  C5  UNL     1      50.537  18.693 124.347  1.00  0.00     0.000 C 
HETATM   27  C6  UNL     1      51.387  19.885 124.617  1.00  0.00     0.000 C 
HETATM   28  C7  UNL     1      52.143  19.770 125.957  1.00  0.00     0.006 C 
HETATM   29  C8  UNL     1      53.119  18.687 125.931  1.00  0.00     0.052 C 
ENDBRANCH  19  21
ENDBRANCH   1  19
TORSDOF 4
ENDMDL
MODEL 4
REMARK VINA RESULT: -9.271800659      1.088      1.265
REMARK  4 active torsions:
REMARK  status: ('A' for Active; 'I' for Inactive)
REMARK    1  A    between atoms: C9_9  and  N1_10 
REMARK    2  A    between atoms: N1_10  and  C10_12 
REMARK    3  A    between atoms: C14_16  and  N2_17 
REMARK    4  A    between atoms: N3_20  and  C17_21 
ROOT
HETATM    1  C10 UNL     1      56.487  17.545 129.595  1.00  0.00     0.103 C 
HETATM    2  C11 UNL     1      56.875  16.352 128.802  1.00  0.00     0.027 C 
HETATM    3  C12 UNL     1      57.792  15.525 129.722  1.00  0.00     0.004 C 
HETATM    4  C13 UNL     1      56.996  15.636 131.023  1.00  0.00     0.027 C 
HETATM    5  C14 UNL     1      56.502  17.035 131.057  1.00  0.00     0.101 C 
ENDROOT
BRANCH   5   6
HETATM    6  N2  UNL     1      57.173  17.936 131.883  1.00  0.00    -0.403 N 
HETATM    7  C15 UNL     1      58.319  18.588 131.379  1.00  0.00     0.147 C 
HETATM    8  C16 UNL     1      59.092  19.385 132.366  1.00  0.00     0.292 C 
HETATM    9  N3  UNL     1      58.309  19.894 133.441  1.00  0.00     0.096 N 
HETATM   10  C23 UNL     1      57.414  19.002 134.077  1.00  0.00     0.292 C 
HETATM   11  C24 UNL     1      57.143  17.736 133.291  1.00  0.00     0.147 C 
BRANCH   9  12
HETATM   12  C17 UNL     1      59.168  20.594 134.373  1.00  0.00     0.226 C 
HETATM   13  C18 UNL     1      60.588  20.646 133.852  1.00  0.00     0.066 C 
HETATM   14  C19 UNL     1      61.371  21.666 134.637  1.00  0.00     0.274 C 
HETATM   15  N4  UNL     1      60.847  22.998 134.546  1.00  0.00     0.084 N 
HETATM   16  C20 UNL     1      61.758  23.973 134.036  1.00  0.00     0.309 C 
HETATM   17  C21 UNL     1      59.567  23.007 133.873  1.00  0.00     0.274 C 
HETATM   18  C22 UNL     1      58.688  21.987 134.596  1.00  0.00     0.066 C 
ENDBRANCH   9  12
ENDBRANCH   5   6
BRANCH   1  19
HETATM   19  N1  UNL     1      55.288  18.163 129.302  1.00  0.00    -0.389 N 
ATOM     20  H1  UNL     1      55.075  19.021 129.812  1.00  0.00     0.159 HD
BRANCH  19  21
HETATM   21  C9  UNL     1      54.332  17.728 128.370  1.00  0.00    -0.014 C 
HETATM   22  C2  UNL     1      53.275  16.823 128.839  1.00  0.00     0.027 C 
HETATM   23  C1  UNL     1      52.350  17.313 129.914  1.00  0.00     0.016 C 
HETATM   24  C3  UNL     1      52.528  16.157 127.688  1.00  0.00     0.010 C 
HETATM   25  C4  UNL     1      51.355  16.851 127.146  1.00  0.00     0.001 C 
HETATM   26  C5  UNL     1      51.683  17.517 125.807  1.00  0.00     0.000 C 
HETATM   27  C6  UNL     1      51.939  18.977 125.943  1.00  0.00     0.000 C 
HETATM   28  C7  UNL     1      52.632  19.325 127.277  1.00  0.00     0.006 C 
HETATM   29  C8  UNL     1      53.976  18.763 127.346  1.00  0.00     0.052 C 
ENDBRANCH  19  21
ENDBRANCH   1  19
TORSDOF 4
ENDMDL
MODEL 5
REMARK VINA RESULT: -9.184076282      3.185      5.638
REMARK  4 active torsions:
REMARK  status: ('A' for Active; 'I' for Inactive)
REMARK    1  A    between atoms: C9_9  and  N1_10 
REMARK    2  A    between atoms: N1_10  and  C10_12 
REMARK    3  A    between atoms: C14_16  and  N2_17 
REMARK    4  A    between atoms: N3_20  and  C17_21 
ROOT
HETATM    1  C10 UNL     1      53.789  21.390 125.707  1.00  0.00     0.103 C 
HETATM    2  C11 UNL     1      54.074  22.846 125.694  1.00  0.00     0.027 C 
HETATM    3  C12 UNL     1      55.422  23.009 126.420  1.00  0.00     0.004 C 
HETATM    4  C13 UNL     1      56.182  21.844 125.787  1.00  0.00     0.027 C 
HETATM    5  C14 UNL     1      55.195  20.741 125.696  1.00  0.00     0.101 C 
ENDROOT
BRANCH   5   6
HETATM    6  N2  UNL     1      55.273  19.724 126.648  1.00  0.00    -0.403 N 
HETATM    7  C15 UNL     1      54.300  19.684 127.671  1.00  0.00     0.147 C 
HETATM    8  C16 UNL     1      54.549  18.698 128.755  1.00  0.00     0.292 C 
HETATM    9  N3  UNL     1      55.303  17.563 128.344  1.00  0.00     0.096 N 
HETATM   10  C23 UNL     1      56.467  17.795 127.574  1.00  0.00     0.292 C 
HETATM   11  C24 UNL     1      56.546  19.186 126.981  1.00  0.00     0.147 C 
BRANCH   9  12
HETATM   12  C17 UNL     1      55.542  16.705 129.485  1.00  0.00     0.226 C 
HETATM   13  C18 UNL     1      56.879  16.007 129.356  1.00  0.00     0.066 C 
HETATM   14  C19 UNL     1      57.265  15.417 130.687  1.00  0.00     0.274 C 
HETATM   15  N4  UNL     1      57.401  16.385 131.736  1.00  0.00     0.084 N 
HETATM   16  C20 UNL     1      58.685  16.421 132.362  1.00  0.00     0.309 C 
HETATM   17  C21 UNL     1      56.942  17.686 131.304  1.00  0.00     0.274 C 
HETATM   18  C22 UNL     1      55.530  17.488 130.753  1.00  0.00     0.066 C 
ENDBRANCH   9  12
ENDBRANCH   5   6
BRANCH   1  19
HETATM   19  N1  UNL     1      52.998  20.869 124.702  1.00  0.00    -0.389 N 
ATOM     20  H1  UNL     1      53.339  20.978 123.746  1.00  0.00     0.159 HD
BRANCH  19  21
HETATM   21  C9  UNL     1      51.772  20.205 124.865  1.00  0.00    -0.014 C 
HETATM   22  C2  UNL     1      50.850  20.170 123.723  1.00  0.00     0.027 C 
HETATM   23  C1  UNL     1      51.311  19.503 122.462  1.00  0.00     0.016 C 
HETATM   24  C3  UNL     1      49.443  19.742 124.126  1.00  0.00     0.010 C 
HETATM   25  C4  UNL     1      49.136  18.306 124.105  1.00  0.00     0.001 C 
HETATM   26  C5  UNL     1      49.113  17.731 125.523  1.00  0.00     0.000 C 
HETATM   27  C6  UNL     1      50.369  17.012 125.869  1.00  0.00     0.000 C 
HETATM   28  C7  UNL     1      51.609  17.659 125.217  1.00  0.00     0.006 C 
HETATM   29  C8  UNL     1      51.856  18.996 125.746  1.00  0.00     0.052 C 
ENDBRANCH  19  21
ENDBRANCH   1  19
TORSDOF 4
ENDMDL
