MODEL 1
REMARK VINA RESULT: -9.123426411      0.000      0.000
REMARK  14 active torsions:
REMARK  status: ('A' for Active; 'I' for Inactive)
REMARK    1  A    between atoms: C2_2  and  O1_5 
REMARK    2  A    between atoms: O1_5  and  C5_6 
REMARK       I    between atoms: C5_6  and  N1_8 
REMARK    3  A    between atoms: N1_8  and  C6_10 
REMARK    4  A    between atoms: C6_10  and  C7_11 
REMARK    5  A    between atoms: C7_11  and  O3_12 
REMARK    6  A    between atoms: O3_12  and  C8_13 
REMARK    7  A    between atoms: C10_17  and  O4_18 
REMARK    8  A    between atoms: O4_18  and  C11_19 
REMARK    9  A    between atoms: C11_19  and  C12_20 
REMARK   10  A    between atoms: C12_20  and  C13_21 
REMARK       I    between atoms: C13_21  and  N3_23 
REMARK   11  A    between atoms: C19_29  and  C20_30 
REMARK       I    between atoms: C20_30  and  N4_32 
REMARK   12  A    between atoms: N5_35  and  C23_36 
REMARK   13  A    between atoms: C23_36  and  C24_37 
REMARK   14  A    between atoms: C24_37  and  C25_38 
ROOT
HETATM    1  C8  UNL     1      15.917  22.601  15.232  1.00  0.00     0.158 A 
HETATM    2  N2  UNL     1      14.802  22.826  14.515  1.00  0.00    -0.343 N 
ATOM      3  H2  UNL     1      14.778  23.617  13.872  1.00  0.00     0.167 HD
HETATM    4  C9  UNL     1      13.723  22.041  14.621  1.00  0.00     0.127 A 
HETATM    5  C10 UNL     1      13.697  20.956  15.474  1.00  0.00     0.085 A 
HETATM    6  C18 UNL     1      14.813  20.685  16.229  1.00  0.00     0.059 A 
HETATM    7  C19 UNL     1      15.914  21.499  16.110  1.00  0.00     0.085 A 
ENDROOT
BRANCH   7   8
HETATM    8  C20 UNL     1      17.105  21.226  16.905  1.00  0.00     0.258 C 
HETATM    9  O6  UNL     1      17.902  20.361  16.420  1.00  0.00    -0.267 OA
HETATM   10  N4  UNL     1      17.394  21.856  18.135  1.00  0.00    -0.345 N 
HETATM   11  C21 UNL     1      18.590  21.522  18.840  1.00  0.00     0.145 C 
HETATM   12  C31 UNL     1      16.476  22.836  18.673  1.00  0.00     0.145 C 
HETATM   13  C22 UNL     1      18.626  22.089  20.236  1.00  0.00     0.136 C 
HETATM   14  N5  UNL     1      18.037  23.369  20.395  1.00  0.00    -0.409 N 
HETATM   15  C30 UNL     1      17.333  23.917  19.294  1.00  0.00     0.136 C 
BRANCH  14  16
HETATM   16  C23 UNL     1      18.894  24.320  21.074  1.00  0.00     0.119 C 
BRANCH  16  17
HETATM   17  C24 UNL     1      19.842  25.012  20.160  1.00  0.00     0.052 C 
BRANCH  17  18
HETATM   18  C25 UNL     1      21.173  24.297  20.197  1.00  0.00     0.187 C 
HETATM   19  C26 UNL     1      22.096  24.930  21.229  1.00  0.00     0.033 C 
HETATM   20  C27 UNL     1      23.278  24.023  21.400  1.00  0.00     0.004 C 
HETATM   21  C28 UNL     1      23.992  23.903  20.055  1.00  0.00     0.027 C 
HETATM   22  C29 UNL     1      22.994  23.339  19.090  1.00  0.00     0.232 C 
HETATM   23  N6  UNL     1      21.878  24.273  18.957  1.00  0.00    -0.071 N 
ATOM     24  H62 UNL     1      21.275  24.056  18.163  1.00  0.00     0.277 HD
ATOM     25  H61 UNL     1      22.175  25.201  18.653  1.00  0.00     0.277 HD
ENDBRANCH  17  18
ENDBRANCH  16  17
ENDBRANCH  14  16
ENDBRANCH   7   8
BRANCH   1  26
HETATM   26  O3  UNL     1      17.061  23.343  15.196  1.00  0.00    -0.333 OA
BRANCH  26  27
HETATM   27  C7  UNL     1      17.195  24.700  15.450  1.00  0.00     0.197 C 
BRANCH  27  28
HETATM   28  C6  UNL     1      18.551  25.005  16.017  1.00  0.00     0.151 C 
BRANCH  28  29
HETATM   29  N1  UNL     1      19.139  26.219  15.519  1.00  0.00    -0.335 N 
HETATM   30  C5  UNL     1      20.071  26.948  16.298  1.00  0.00     0.361 C 
HETATM   31  O2  UNL     1      20.457  26.618  17.442  1.00  0.00    -0.238 OA
ATOM     32  H1  UNL     1      18.881  26.560  14.592  1.00  0.00     0.164 HD
BRANCH  30  33
HETATM   33  O1  UNL     1      20.627  28.137  15.787  1.00  0.00    -0.294 OA
BRANCH  33  34
HETATM   34  C2  UNL     1      21.796  28.086  15.033  1.00  0.00     0.061 C 
HETATM   35  C1  UNL     1      22.526  26.781  15.074  1.00  0.00     0.046 C 
HETATM   36  C3  UNL     1      21.419  28.348  13.572  1.00  0.00     0.046 C 
HETATM   37  C4  UNL     1      22.782  29.169  15.443  1.00  0.00     0.046 C 
ENDBRANCH  33  34
ENDBRANCH  30  33
ENDBRANCH  28  29
ENDBRANCH  27  28
ENDBRANCH  26  27
ENDBRANCH   1  26
BRANCH   5  38
HETATM   38  O4  UNL     1      12.567  20.185  15.544  1.00  0.00    -0.349 OA
BRANCH  38  39
HETATM   39  C11 UNL     1      11.250  20.605  15.347  1.00  0.00     0.185 C 
BRANCH  39  40
HETATM   40  C12 UNL     1      10.411  19.985  16.450  1.00  0.00     0.129 C 
BRANCH  40  41
HETATM   41  C13 UNL     1      10.918  18.613  16.703  1.00  0.00     0.221 C 
HETATM   42  O5  UNL     1      10.657  17.675  15.880  1.00  0.00    -0.273 OA
HETATM   43  N3  UNL     1      11.690  18.335  17.849  1.00  0.00    -0.352 N 
HETATM   44  C14 UNL     1      12.066  19.277  18.866  1.00  0.00     0.126 C 
HETATM   45  C17 UNL     1      12.241  17.057  18.208  1.00  0.00     0.126 C 
HETATM   46  C15 UNL     1      13.481  18.865  19.201  1.00  0.00     0.021 C 
HETATM   47  C16 UNL     1      13.630  17.438  18.682  1.00  0.00     0.021 C 
ENDBRANCH  40  41
ENDBRANCH  39  40
ENDBRANCH  38  39
ENDBRANCH   5  38
TORSDOF 14
ENDMDL
MODEL 2
REMARK VINA RESULT: -8.825354234      1.417      2.328
REMARK  14 active torsions:
REMARK  status: ('A' for Active; 'I' for Inactive)
REMARK    1  A    between atoms: C2_2  and  O1_5 
REMARK    2  A    between atoms: O1_5  and  C5_6 
REMARK       I    between atoms: C5_6  and  N1_8 
REMARK    3  A    between atoms: N1_8  and  C6_10 
REMARK    4  A    between atoms: C6_10  and  C7_11 
REMARK    5  A    between atoms: C7_11  and  O3_12 
REMARK    6  A    between atoms: O3_12  and  C8_13 
REMARK    7  A    between atoms: C10_17  and  O4_18 
REMARK    8  A    between atoms: O4_18  and  C11_19 
REMARK    9  A    between atoms: C11_19  and  C12_20 
REMARK   10  A    between atoms: C12_20  and  C13_21 
REMARK       I    between atoms: C13_21  and  N3_23 
REMARK   11  A    between atoms: C19_29  and  C20_30 
REMARK       I    between atoms: C20_30  and  N4_32 
REMARK   12  A    between atoms: N5_35  and  C23_36 
REMARK   13  A    between atoms: C23_36  and  C24_37 
REMARK   14  A    between atoms: C24_37  and  C25_38 
ROOT
HETATM    1  C8  UNL     1      15.876  22.709  15.246  1.00  0.00     0.158 A 
HETATM    2  N2  UNL     1      14.780  23.006  14.526  1.00  0.00    -0.343 N 
ATOM      3  H2  UNL     1      14.806  23.803  13.889  1.00  0.00     0.167 HD
HETATM    4  C9  UNL     1      13.655  22.287  14.621  1.00  0.00     0.127 A 
HETATM    5  C10 UNL     1      13.560  21.199  15.465  1.00  0.00     0.085 A 
HETATM    6  C18 UNL     1      14.654  20.855  16.222  1.00  0.00     0.059 A 
HETATM    7  C19 UNL     1      15.803  21.602  16.115  1.00  0.00     0.085 A 
ENDROOT
BRANCH   7   8
HETATM    8  C20 UNL     1      16.971  21.253  16.912  1.00  0.00     0.258 C 
HETATM    9  O6  UNL     1      17.710  20.335  16.431  1.00  0.00    -0.267 OA
HETATM   10  N4  UNL     1      17.301  21.864  18.142  1.00  0.00    -0.345 N 
HETATM   11  C21 UNL     1      18.470  21.452  18.849  1.00  0.00     0.145 C 
HETATM   12  C31 UNL     1      16.449  22.905  18.676  1.00  0.00     0.145 C 
HETATM   13  C22 UNL     1      18.542  22.018  20.244  1.00  0.00     0.136 C 
HETATM   14  N5  UNL     1      18.039  23.335  20.399  1.00  0.00    -0.409 N 
HETATM   15  C30 UNL     1      17.376  23.927  19.296  1.00  0.00     0.136 C 
BRANCH  14  16
HETATM   16  C23 UNL     1      18.957  24.229  21.077  1.00  0.00     0.119 C 
BRANCH  16  17
HETATM   17  C24 UNL     1      19.888  24.928  20.151  1.00  0.00     0.052 C 
BRANCH  17  18
HETATM   18  C25 UNL     1      21.231  24.237  20.186  1.00  0.00     0.187 C 
HETATM   19  C26 UNL     1      22.146  24.890  21.213  1.00  0.00     0.033 C 
HETATM   20  C27 UNL     1      23.345  24.004  21.384  1.00  0.00     0.004 C 
HETATM   21  C28 UNL     1      24.056  23.890  20.037  1.00  0.00     0.027 C 
HETATM   22  C29 UNL     1      23.064  23.305  19.078  1.00  0.00     0.232 C 
HETATM   23  N6  UNL     1      21.932  24.219  18.944  1.00  0.00    -0.071 N 
ATOM     24  H62 UNL     1      21.330  23.988  18.154  1.00  0.00     0.277 HD
ATOM     25  H61 UNL     1      22.211  25.150  18.636  1.00  0.00     0.277 HD
ENDBRANCH  17  18
ENDBRANCH  16  17
ENDBRANCH  14  16
ENDBRANCH   7   8
BRANCH   1  26
HETATM   26  O3  UNL     1      17.063  23.381  15.220  1.00  0.00    -0.333 OA
BRANCH  26  27
HETATM   27  C7  UNL     1      17.274  24.730  15.466  1.00  0.00     0.197 C 
BRANCH  27  28
HETATM   28  C6  UNL     1      18.673  24.971  15.955  1.00  0.00     0.151 C 
BRANCH  28  29
HETATM   29  N1  UNL     1      19.256  26.201  15.492  1.00  0.00    -0.335 N 
HETATM   30  C5  UNL     1      20.141  26.940  16.315  1.00  0.00     0.361 C 
HETATM   31  O2  UNL     1      20.487  26.606  17.471  1.00  0.00    -0.238 OA
ATOM     32  H1  UNL     1      19.029  26.546  14.559  1.00  0.00     0.164 HD
BRANCH  30  33
HETATM   33  O1  UNL     1      20.694  28.144  15.839  1.00  0.00    -0.294 OA
BRANCH  33  34
HETATM   34  C2  UNL     1      21.858  28.118  15.076  1.00  0.00     0.061 C 
HETATM   35  C1  UNL     1      22.619  26.830  15.118  1.00  0.00     0.046 C 
HETATM   36  C3  UNL     1      21.465  28.364  13.617  1.00  0.00     0.046 C 
HETATM   37  C4  UNL     1      22.821  29.226  15.474  1.00  0.00     0.046 C 
ENDBRANCH  33  34
ENDBRANCH  30  33
ENDBRANCH  28  29
ENDBRANCH  27  28
ENDBRANCH  26  27
ENDBRANCH   1  26
BRANCH   5  38
HETATM   38  O4  UNL     1      12.386  20.497  15.524  1.00  0.00    -0.349 OA
BRANCH  38  39
HETATM   39  C11 UNL     1      11.785  19.959  16.664  1.00  0.00     0.185 C 
BRANCH  39  40
HETATM   40  C12 UNL     1      10.877  18.832  16.204  1.00  0.00     0.129 C 
BRANCH  40  41
HETATM   41  C13 UNL     1      10.009  19.350  15.118  1.00  0.00     0.221 C 
HETATM   42  O5  UNL     1       9.061  20.159  15.390  1.00  0.00    -0.273 OA
HETATM   43  N3  UNL     1      10.221  18.957  13.781  1.00  0.00    -0.352 N 
HETATM   44  C14 UNL     1      11.239  18.056  13.316  1.00  0.00     0.126 C 
HETATM   45  C17 UNL     1       9.458  19.384  12.641  1.00  0.00     0.126 C 
HETATM   46  C15 UNL     1      11.671  18.682  12.010  1.00  0.00     0.021 C 
HETATM   47  C16 UNL     1      10.544  19.630  11.613  1.00  0.00     0.021 C 
ENDBRANCH  40  41
ENDBRANCH  39  40
ENDBRANCH  38  39
ENDBRANCH   5  38
TORSDOF 14
ENDMDL
MODEL 3
REMARK VINA RESULT: -8.792150470      0.945      1.362
REMARK  14 active torsions:
REMARK  status: ('A' for Active; 'I' for Inactive)
REMARK    1  A    between atoms: C2_2  and  O1_5 
REMARK    2  A    between atoms: O1_5  and  C5_6 
REMARK       I    between atoms: C5_6  and  N1_8 
REMARK    3  A    between atoms: N1_8  and  C6_10 
REMARK    4  A    between atoms: C6_10  and  C7_11 
REMARK    5  A    between atoms: C7_11  and  O3_12 
REMARK    6  A    between atoms: O3_12  and  C8_13 
REMARK    7  A    between atoms: C10_17  and  O4_18 
REMARK    8  A    between atoms: O4_18  and  C11_19 
REMARK    9  A    between atoms: C11_19  and  C12_20 
REMARK   10  A    between atoms: C12_20  and  C13_21 
REMARK       I    between atoms: C13_21  and  N3_23 
REMARK   11  A    between atoms: C19_29  and  C20_30 
REMARK       I    between atoms: C20_30  and  N4_32 
REMARK   12  A    between atoms: N5_35  and  C23_36 
REMARK   13  A    between atoms: C23_36  and  C24_37 
REMARK   14  A    between atoms: C24_37  and  C25_38 
ROOT
HETATM    1  C8  UNL     1      15.906  22.642  15.216  1.00  0.00     0.158 A 
HETATM    2  N2  UNL     1      14.826  22.921  14.466  1.00  0.00    -0.343 N 
ATOM      3  H2  UNL     1      14.856  23.719  13.831  1.00  0.00     0.167 HD
HETATM    4  C9  UNL     1      13.713  22.181  14.528  1.00  0.00     0.127 A 
HETATM    5  C10 UNL     1      13.613  21.090  15.367  1.00  0.00     0.085 A 
HETATM    6  C18 UNL     1      14.691  20.764  16.154  1.00  0.00     0.059 A 
HETATM    7  C19 UNL     1      15.829  21.532  16.080  1.00  0.00     0.085 A 
ENDROOT
BRANCH   7   8
HETATM    8  C20 UNL     1      16.980  21.202  16.910  1.00  0.00     0.258 C 
HETATM    9  O6  UNL     1      17.733  20.278  16.463  1.00  0.00    -0.267 OA
HETATM   10  N4  UNL     1      17.279  21.837  18.135  1.00  0.00    -0.345 N 
HETATM   11  C21 UNL     1      18.434  21.443  18.877  1.00  0.00     0.145 C 
HETATM   12  C31 UNL     1      16.412  22.883  18.631  1.00  0.00     0.145 C 
HETATM   13  C22 UNL     1      18.472  22.035  20.262  1.00  0.00     0.136 C 
HETATM   14  N5  UNL     1      17.961  23.352  20.382  1.00  0.00    -0.409 N 
HETATM   15  C30 UNL     1      17.321  23.921  19.253  1.00  0.00     0.136 C 
BRANCH  14  16
HETATM   16  C23 UNL     1      18.860  24.261  21.064  1.00  0.00     0.119 C 
BRANCH  16  17
HETATM   17  C24 UNL     1      19.792  24.967  20.143  1.00  0.00     0.052 C 
BRANCH  17  18
HETATM   18  C25 UNL     1      21.131  24.267  20.166  1.00  0.00     0.187 C 
HETATM   19  C26 UNL     1      22.056  24.910  21.191  1.00  0.00     0.033 C 
HETATM   20  C27 UNL     1      23.251  24.016  21.349  1.00  0.00     0.004 C 
HETATM   21  C28 UNL     1      23.953  23.905  19.997  1.00  0.00     0.027 C 
HETATM   22  C29 UNL     1      22.952  23.331  19.042  1.00  0.00     0.232 C 
HETATM   23  N6  UNL     1      21.824  24.252  18.920  1.00  0.00    -0.071 N 
ATOM     24  H62 UNL     1      21.216  24.029  18.132  1.00  0.00     0.277 HD
ATOM     25  H61 UNL     1      22.107  25.184  18.614  1.00  0.00     0.277 HD
ENDBRANCH  17  18
ENDBRANCH  16  17
ENDBRANCH  14  16
ENDBRANCH   7   8
BRANCH   1  26
HETATM   26  O3  UNL     1      17.081  23.336  15.226  1.00  0.00    -0.333 OA
BRANCH  26  27
HETATM   27  C7  UNL     1      17.254  24.699  15.419  1.00  0.00     0.197 C 
BRANCH  27  28
HETATM   28  C6  UNL     1      18.621  24.990  15.969  1.00  0.00     0.151 C 
BRANCH  28  29
HETATM   29  N1  UNL     1      19.209  26.205  15.473  1.00  0.00    -0.335 N 
HETATM   30  C5  UNL     1      20.090  26.967  16.279  1.00  0.00     0.361 C 
HETATM   31  O2  UNL     1      20.429  26.666  17.447  1.00  0.00    -0.238 OA
ATOM     32  H1  UNL     1      18.988  26.522  14.529  1.00  0.00     0.164 HD
BRANCH  30  33
HETATM   33  O1  UNL     1      20.648  28.156  15.771  1.00  0.00    -0.294 OA
BRANCH  33  34
HETATM   34  C2  UNL     1      21.838  28.110  15.051  1.00  0.00     0.061 C 
HETATM   35  C1  UNL     1      22.582  26.813  15.130  1.00  0.00     0.046 C 
HETATM   36  C3  UNL     1      21.501  28.349  13.577  1.00  0.00     0.046 C 
HETATM   37  C4  UNL     1      22.800  29.209  15.476  1.00  0.00     0.046 C 
ENDBRANCH  33  34
ENDBRANCH  30  33
ENDBRANCH  28  29
ENDBRANCH  27  28
ENDBRANCH  26  27
ENDBRANCH   1  26
BRANCH   5  38
HETATM   38  O4  UNL     1      12.451  20.366  15.390  1.00  0.00    -0.349 OA
BRANCH  38  39
HETATM   39  C11 UNL     1      11.148  20.867  15.336  1.00  0.00     0.185 C 
BRANCH  39  40
HETATM   40  C12 UNL     1      10.206  19.683  15.465  1.00  0.00     0.129 C 
BRANCH  40  41
HETATM   41  C13 UNL     1      10.585  18.919  16.680  1.00  0.00     0.221 C 
HETATM   42  O5  UNL     1      10.590  19.494  17.819  1.00  0.00    -0.273 OA
HETATM   43  N3  UNL     1      10.941  17.559  16.589  1.00  0.00    -0.352 N 
HETATM   44  C14 UNL     1      10.986  16.774  15.386  1.00  0.00     0.126 C 
HETATM   45  C17 UNL     1      11.324  16.709  17.683  1.00  0.00     0.126 C 
HETATM   46  C15 UNL     1      10.451  15.434  15.838  1.00  0.00     0.021 C 
HETATM   47  C16 UNL     1      10.581  15.427  17.358  1.00  0.00     0.021 C 
ENDBRANCH  40  41
ENDBRANCH  39  40
ENDBRANCH  38  39
ENDBRANCH   5  38
TORSDOF 14
ENDMDL
MODEL 4
REMARK VINA RESULT: -8.655903516      1.703      2.257
REMARK  14 active torsions:
REMARK  status: ('A' for Active; 'I' for Inactive)
REMARK    1  A    between atoms: C2_2  and  O1_5 
REMARK    2  A    between atoms: O1_5  and  C5_6 
REMARK       I    between atoms: C5_6  and  N1_8 
REMARK    3  A    between atoms: N1_8  and  C6_10 
REMARK    4  A    between atoms: C6_10  and  C7_11 
REMARK    5  A    between atoms: C7_11  and  O3_12 
REMARK    6  A    between atoms: O3_12  and  C8_13 
REMARK    7  A    between atoms: C10_17  and  O4_18 
REMARK    8  A    between atoms: O4_18  and  C11_19 
REMARK    9  A    between atoms: C11_19  and  C12_20 
REMARK   10  A    between atoms: C12_20  and  C13_21 
REMARK       I    between atoms: C13_21  and  N3_23 
REMARK   11  A    between atoms: C19_29  and  C20_30 
REMARK       I    between atoms: C20_30  and  N4_32 
REMARK   12  A    between atoms: N5_35  and  C23_36 
REMARK   13  A    between atoms: C23_36  and  C24_37 
REMARK   14  A    between atoms: C24_37  and  C25_38 
ROOT
HETATM    1  C8  UNL     1      15.905  22.884  15.193  1.00  0.00     0.158 A 
HETATM    2  N2  UNL     1      14.817  23.202  14.470  1.00  0.00    -0.343 N 
ATOM      3  H2  UNL     1      14.842  24.030  13.875  1.00  0.00     0.167 HD
HETATM    4  C9  UNL     1      13.702  22.463  14.509  1.00  0.00     0.127 A 
HETATM    5  C10 UNL     1      13.609  21.332  15.294  1.00  0.00     0.085 A 
HETATM    6  C18 UNL     1      14.696  20.964  16.051  1.00  0.00     0.059 A 
HETATM    7  C19 UNL     1      15.834  21.732  16.002  1.00  0.00     0.085 A 
ENDROOT
BRANCH   7   8
HETATM    8  C20 UNL     1      16.995  21.359  16.801  1.00  0.00     0.258 C 
HETATM    9  O6  UNL     1      17.746  20.465  16.293  1.00  0.00    -0.267 OA
HETATM   10  N4  UNL     1      17.303  21.923  18.057  1.00  0.00    -0.345 N 
HETATM   11  C21 UNL     1      18.466  21.491  18.764  1.00  0.00     0.145 C 
HETATM   12  C31 UNL     1      16.438  22.936  18.621  1.00  0.00     0.145 C 
HETATM   13  C22 UNL     1      18.515  22.002  20.181  1.00  0.00     0.136 C 
HETATM   14  N5  UNL     1      18.002  23.308  20.382  1.00  0.00    -0.409 N 
HETATM   15  C30 UNL     1      17.349  23.939  19.293  1.00  0.00     0.136 C 
BRANCH  14  16
HETATM   16  C23 UNL     1      18.905  24.180  21.107  1.00  0.00     0.119 C 
BRANCH  16  17
HETATM   17  C24 UNL     1      19.831  24.934  20.220  1.00  0.00     0.052 C 
BRANCH  17  18
HETATM   18  C25 UNL     1      21.174  24.242  20.207  1.00  0.00     0.187 C 
HETATM   19  C26 UNL     1      22.121  24.884  21.211  1.00  0.00     0.033 C 
HETATM   20  C27 UNL     1      23.324  23.996  21.336  1.00  0.00     0.004 C 
HETATM   21  C28 UNL     1      23.993  23.896  19.967  1.00  0.00     0.027 C 
HETATM   22  C29 UNL     1      22.972  23.321  19.033  1.00  0.00     0.232 C 
HETATM   23  N6  UNL     1      21.837  24.237  18.944  1.00  0.00    -0.071 N 
ATOM     24  H62 UNL     1      21.210  24.015  18.170  1.00  0.00     0.277 HD
ATOM     25  H61 UNL     1      22.108  25.172  18.636  1.00  0.00     0.277 HD
ENDBRANCH  17  18
ENDBRANCH  16  17
ENDBRANCH  14  16
ENDBRANCH   7   8
BRANCH   1  26
HETATM   26  O3  UNL     1      17.082  23.573  15.222  1.00  0.00    -0.333 OA
BRANCH  26  27
HETATM   27  C7  UNL     1      17.280  24.887  15.620  1.00  0.00     0.197 C 
BRANCH  27  28
HETATM   28  C6  UNL     1      18.696  25.099  16.073  1.00  0.00     0.151 C 
BRANCH  28  29
HETATM   29  N1  UNL     1      19.306  26.296  15.558  1.00  0.00    -0.335 N 
HETATM   30  C5  UNL     1      20.196  27.058  16.355  1.00  0.00     0.361 C 
HETATM   31  O2  UNL     1      20.525  26.772  17.530  1.00  0.00    -0.238 OA
ATOM     32  H1  UNL     1      19.094  26.601  14.608  1.00  0.00     0.164 HD
BRANCH  30  33
HETATM   33  O1  UNL     1      20.775  28.229  15.829  1.00  0.00    -0.294 OA
BRANCH  33  34
HETATM   34  C2  UNL     1      21.942  28.146  15.075  1.00  0.00     0.061 C 
HETATM   35  C1  UNL     1      22.657  26.832  15.148  1.00  0.00     0.046 C 
HETATM   36  C3  UNL     1      21.567  28.377  13.609  1.00  0.00     0.046 C 
HETATM   37  C4  UNL     1      22.942  29.226  15.459  1.00  0.00     0.046 C 
ENDBRANCH  33  34
ENDBRANCH  30  33
ENDBRANCH  28  29
ENDBRANCH  27  28
ENDBRANCH  26  27
ENDBRANCH   1  26
BRANCH   5  38
HETATM   38  O4  UNL     1      12.445  20.611  15.296  1.00  0.00    -0.349 OA
BRANCH  38  39
HETATM   39  C11 UNL     1      11.204  21.018  14.802  1.00  0.00     0.185 C 
BRANCH  39  40
HETATM   40  C12 UNL     1      10.955  20.243  13.519  1.00  0.00     0.129 C 
BRANCH  40  41
HETATM   41  C13 UNL     1      10.638  18.839  13.880  1.00  0.00     0.221 C 
HETATM   42  O5  UNL     1       9.645  18.584  14.640  1.00  0.00    -0.273 OA
HETATM   43  N3  UNL     1      11.425  17.777  13.391  1.00  0.00    -0.352 N 
HETATM   44  C14 UNL     1      12.571  17.900  12.533  1.00  0.00     0.126 C 
HETATM   45  C17 UNL     1      11.226  16.380  13.662  1.00  0.00     0.126 C 
HETATM   46  C15 UNL     1      12.421  16.718  11.601  1.00  0.00     0.021 C 
HETATM   47  C16 UNL     1      11.460  15.761  12.298  1.00  0.00     0.021 C 
ENDBRANCH  40  41
ENDBRANCH  39  40
ENDBRANCH  38  39
ENDBRANCH   5  38
TORSDOF 14
ENDMDL
MODEL 5
REMARK VINA RESULT: -8.653244275      1.459      2.619
REMARK  14 active torsions:
REMARK  status: ('A' for Active; 'I' for Inactive)
REMARK    1  A    between atoms: C2_2  and  O1_5 
REMARK    2  A    between atoms: O1_5  and  C5_6 
REMARK       I    between atoms: C5_6  and  N1_8 
REMARK    3  A    between atoms: N1_8  and  C6_10 
REMARK    4  A    between atoms: C6_10  and  C7_11 
REMARK    5  A    between atoms: C7_11  and  O3_12 
REMARK    6  A    between atoms: O3_12  and  C8_13 
REMARK    7  A    between atoms: C10_17  and  O4_18 
REMARK    8  A    between atoms: O4_18  and  C11_19 
REMARK    9  A    between atoms: C11_19  and  C12_20 
REMARK   10  A    between atoms: C12_20  and  C13_21 
REMARK       I    between atoms: C13_21  and  N3_23 
REMARK   11  A    between atoms: C19_29  and  C20_30 
REMARK       I    between atoms: C20_30  and  N4_32 
REMARK   12  A    between atoms: N5_35  and  C23_36 
REMARK   13  A    between atoms: C23_36  and  C24_37 
REMARK   14  A    between atoms: C24_37  and  C25_38 
ROOT
HETATM    1  C8  UNL     1      15.935  22.642  15.256  1.00  0.00     0.158 A 
HETATM    2  N2  UNL     1      14.817  22.850  14.538  1.00  0.00    -0.343 N 
ATOM      3  H2  UNL     1      14.792  23.623  13.873  1.00  0.00     0.167 HD
HETATM    4  C9  UNL     1      13.737  22.071  14.672  1.00  0.00     0.127 A 
HETATM    5  C10 UNL     1      13.712  21.010  15.555  1.00  0.00     0.085 A 
HETATM    6  C18 UNL     1      14.832  20.757  16.311  1.00  0.00     0.059 A 
HETATM    7  C19 UNL     1      15.934  21.565  16.164  1.00  0.00     0.085 A 
ENDROOT
BRANCH   7   8
HETATM    8  C20 UNL     1      17.128  21.311  16.960  1.00  0.00     0.258 C 
HETATM    9  O6  UNL     1      17.922  20.432  16.495  1.00  0.00    -0.267 OA
HETATM   10  N4  UNL     1      17.426  21.974  18.171  1.00  0.00    -0.345 N 
HETATM   11  C21 UNL     1      18.624  21.656  18.879  1.00  0.00     0.145 C 
HETATM   12  C31 UNL     1      16.511  22.970  18.687  1.00  0.00     0.145 C 
HETATM   13  C22 UNL     1      18.668  22.261  20.258  1.00  0.00     0.136 C 
HETATM   14  N5  UNL     1      18.082  23.546  20.386  1.00  0.00    -0.409 N 
HETATM   15  C30 UNL     1      17.374  24.066  19.274  1.00  0.00     0.136 C 
BRANCH  14  16
HETATM   16  C23 UNL     1      18.945  24.513  21.034  1.00  0.00     0.119 C 
BRANCH  16  17
HETATM   17  C24 UNL     1      20.213  24.757  20.296  1.00  0.00     0.052 C 
BRANCH  17  18
HETATM   18  C25 UNL     1      21.330  24.966  21.291  1.00  0.00     0.187 C 
HETATM   19  C26 UNL     1      21.422  26.430  21.698  1.00  0.00     0.033 C 
HETATM   20  C27 UNL     1      22.358  26.522  22.867  1.00  0.00     0.004 C 
HETATM   21  C28 UNL     1      23.727  26.007  22.429  1.00  0.00     0.027 C 
HETATM   22  C29 UNL     1      23.530  24.590  21.985  1.00  0.00     0.232 C 
HETATM   23  N6  UNL     1      22.624  24.571  20.838  1.00  0.00    -0.071 N 
ATOM     24  H62 UNL     1      22.616  23.671  20.356  1.00  0.00     0.277 HD
ATOM     25  H61 UNL     1      22.960  25.139  20.060  1.00  0.00     0.277 HD
ENDBRANCH  17  18
ENDBRANCH  16  17
ENDBRANCH  14  16
ENDBRANCH   7   8
BRANCH   1  26
HETATM   26  O3  UNL     1      17.081  23.380  15.192  1.00  0.00    -0.333 OA
BRANCH  26  27
HETATM   27  C7  UNL     1      17.212  24.750  15.363  1.00  0.00     0.197 C 
BRANCH  27  28
HETATM   28  C6  UNL     1      18.531  25.084  15.999  1.00  0.00     0.151 C 
BRANCH  28  29
HETATM   29  N1  UNL     1      19.142  26.284  15.493  1.00  0.00    -0.335 N 
HETATM   30  C5  UNL     1      20.040  27.034  16.292  1.00  0.00     0.361 C 
HETATM   31  O2  UNL     1      20.373  26.737  17.462  1.00  0.00    -0.238 OA
ATOM     32  H1  UNL     1      18.927  26.597  14.546  1.00  0.00     0.164 HD
BRANCH  30  33
HETATM   33  O1  UNL     1      20.620  28.208  15.773  1.00  0.00    -0.294 OA
BRANCH  33  34
HETATM   34  C2  UNL     1      21.812  28.133  15.058  1.00  0.00     0.061 C 
HETATM   35  C1  UNL     1      22.522  26.818  15.136  1.00  0.00     0.046 C 
HETATM   36  C3  UNL     1      21.487  28.385  13.583  1.00  0.00     0.046 C 
HETATM   37  C4  UNL     1      22.799  29.206  15.490  1.00  0.00     0.046 C 
ENDBRANCH  33  34
ENDBRANCH  30  33
ENDBRANCH  28  29
ENDBRANCH  27  28
ENDBRANCH  26  27
ENDBRANCH   1  26
BRANCH   5  38
HETATM   38  O4  UNL     1      12.581  20.245  15.652  1.00  0.00    -0.349 OA
BRANCH  38  39
HETATM   39  C11 UNL     1      11.849  19.971  16.809  1.00  0.00     0.185 C 
BRANCH  39  40
HETATM   40  C12 UNL     1      10.387  19.884  16.406  1.00  0.00     0.129 C 
BRANCH  40  41
HETATM   41  C13 UNL     1      10.320  19.379  15.012  1.00  0.00     0.221 C 
HETATM   42  O5  UNL     1      10.478  18.136  14.776  1.00  0.00    -0.273 OA
HETATM   43  N3  UNL     1      10.082  20.262  13.940  1.00  0.00    -0.352 N 
HETATM   44  C14 UNL     1       9.887  21.682  14.041  1.00  0.00     0.126 C 
HETATM   45  C17 UNL     1       9.992  19.904  12.551  1.00  0.00     0.126 C 
HETATM   46  C15 UNL     1       8.809  21.948  13.014  1.00  0.00     0.021 C 
HETATM   47  C16 UNL     1       8.810  20.734  12.090  1.00  0.00     0.021 C 
ENDBRANCH  40  41
ENDBRANCH  39  40
ENDBRANCH  38  39
ENDBRANCH   5  38
TORSDOF 14
ENDMDL
