MODEL 1
REMARK VINA RESULT: -8.778165139      0.000      0.000
REMARK  9 active torsions:
REMARK  status: ('A' for Active; 'I' for Inactive)
REMARK    1  A    between atoms: C16_16  and  N1_17 
REMARK    2  A    between atoms: C17_19  and  C18_20 
REMARK    3  A    between atoms: C18_20  and  C19_21 
REMARK    4  A    between atoms: C19_21  and  C20_22 
REMARK    5  A    between atoms: C24_27  and  O1_28 
REMARK    6  A    between atoms: C24_27  and  C25_30 
REMARK    7  A    between atoms: C25_30  and  N2_31 
REMARK    8  A    between atoms: N2_31  and  N3_33 
REMARK    9  A    between atoms: N3_33  and  N4_34 
ROOT
HETATM    1  C1  UNL     1      13.180  26.275   7.343  1.00  0.00     0.010 C 
HETATM    2  C2  UNL     1      13.969  25.540   6.241  1.00  0.00    -0.016 C 
HETATM    3  C3  UNL     1      13.299  25.600   4.939  1.00  0.00     0.005 C 
HETATM    4  C4  UNL     1      12.501  24.432   4.492  1.00  0.00     0.010 C 
HETATM    5  C5  UNL     1      13.185  23.129   4.348  1.00  0.00    -0.033 C 
HETATM    6  C6  UNL     1      14.571  23.423   3.736  1.00  0.00     0.016 C 
HETATM    7  C7  UNL     1      13.317  22.328   5.596  1.00  0.00     0.030 C 
HETATM    8  C8  UNL     1      12.184  21.390   5.879  1.00  0.00     0.009 C 
HETATM    9  C9  UNL     1      10.949  21.577   5.073  1.00  0.00     0.012 C 
HETATM   10  C10 UNL     1      11.315  21.546   3.614  1.00  0.00    -0.015 C 
HETATM   11  C11 UNL     1      11.409  20.044   3.261  1.00  0.00     0.021 C 
HETATM   12  C12 UNL     1      11.681  19.853   1.796  1.00  0.00    -0.043 C 
HETATM   13  C13 UNL     1      11.891  18.407   1.520  1.00  0.00     0.015 C 
HETATM   14  C14 UNL     1      10.530  20.397   0.989  1.00  0.00     0.011 C 
HETATM   15  C15 UNL     1      10.261  21.847   1.346  1.00  0.00     0.026 C 
HETATM   16  C16 UNL     1      10.072  21.972   2.840  1.00  0.00     0.089 C 
HETATM   17  C21 UNL     1      12.897  20.648   1.447  1.00  0.00     0.010 C 
HETATM   18  C22 UNL     1      13.545  21.248   2.705  1.00  0.00     0.007 C 
HETATM   19  C23 UNL     1      12.558  22.248   3.262  1.00  0.00     0.005 C 
HETATM   20  C24 UNL     1      13.543  23.115   6.860  1.00  0.00     0.081 C 
HETATM   21  C26 UNL     1      14.447  24.268   6.782  1.00  0.00     0.044 C 
ENDROOT
BRANCH  20  22
HETATM   22  O1  UNL     1      12.287  23.400   7.390  1.00  0.00    -0.388 OA
ATOM     23  H1  UNL     1      12.431  23.815   8.233  1.00  0.00     0.210 HD
ENDBRANCH  20  22
BRANCH  20  24
HETATM   24  C25 UNL     1      14.160  22.103   7.846  1.00  0.00     0.193 C 
BRANCH  24  25
HETATM   25  N2  UNL     1      14.437  22.678   9.118  1.00  0.00    -0.250 N 
ATOM     26  H2  UNL     1      15.408  22.687   9.428  1.00  0.00     0.197 HD
BRANCH  25  27
HETATM   27  N3  UNL     1      13.597  23.163   9.871  1.00  0.00    -0.248 NA
BRANCH  27  28
HETATM   28  N4  UNL     1      12.608  23.730  10.365  1.00  0.00    -0.261 N 
ATOM     29  H42 UNL     1      12.298  24.084   9.461  1.00  0.00     0.193 HD
ATOM     30  H41 UNL     1      11.889  24.098  10.988  1.00  0.00     0.193 HD
ENDBRANCH  27  28
ENDBRANCH  25  27
ENDBRANCH  24  25
ENDBRANCH  20  24
BRANCH  16  31
HETATM   31  N1  UNL     1       9.501  23.181   3.262  1.00  0.00    -0.397 N 
HETATM   32  C17 UNL     1       9.570  24.252   2.544  1.00  0.00     0.056 C 
ATOM     33  H1  UNL     1       9.019  23.216   4.160  1.00  0.00     0.159 HD
BRANCH  32  34
HETATM   34  C18 UNL     1       8.955  25.523   3.015  1.00  0.00     0.046 C 
BRANCH  34  35
HETATM   35  C19 UNL     1       9.705  26.726   2.499  1.00  0.00     0.036 C 
BRANCH  35  36
HETATM   36  C20 UNL     1      10.955  26.345   1.757  1.00  0.00     0.222 C 
HETATM   37  F1  UNL     1      12.028  26.998   2.338  1.00  0.00    -0.255 F 
ENDBRANCH  35  36
ENDBRANCH  34  35
ENDBRANCH  32  34
ENDBRANCH  16  31
TORSDOF 9
ENDMDL
MODEL 2
REMARK VINA RESULT: -8.296234430      1.055      1.255
REMARK  9 active torsions:
REMARK  status: ('A' for Active; 'I' for Inactive)
REMARK    1  A    between atoms: C16_16  and  N1_17 
REMARK    2  A    between atoms: C17_19  and  C18_20 
REMARK    3  A    between atoms: C18_20  and  C19_21 
REMARK    4  A    between atoms: C19_21  and  C20_22 
REMARK    5  A    between atoms: C24_27  and  O1_28 
REMARK    6  A    between atoms: C24_27  and  C25_30 
REMARK    7  A    between atoms: C25_30  and  N2_31 
REMARK    8  A    between atoms: N2_31  and  N3_33 
REMARK    9  A    between atoms: N3_33  and  N4_34 
ROOT
HETATM    1  C1  UNL     1      13.868  26.220   6.760  1.00  0.00     0.010 C 
HETATM    2  C2  UNL     1      14.516  25.275   5.728  1.00  0.00    -0.016 C 
HETATM    3  C3  UNL     1      13.853  25.332   4.423  1.00  0.00     0.005 C 
HETATM    4  C4  UNL     1      12.871  24.277   4.073  1.00  0.00     0.010 C 
HETATM    5  C5  UNL     1      13.332  22.871   4.044  1.00  0.00    -0.033 C 
HETATM    6  C6  UNL     1      14.741  22.883   3.416  1.00  0.00     0.016 C 
HETATM    7  C7  UNL     1      13.343  22.169   5.358  1.00  0.00     0.030 C 
HETATM    8  C8  UNL     1      12.075  21.456   5.714  1.00  0.00     0.009 C 
HETATM    9  C9  UNL     1      10.879  21.773   4.890  1.00  0.00     0.012 C 
HETATM   10  C10 UNL     1      11.221  21.559   3.440  1.00  0.00    -0.015 C 
HETATM   11  C11 UNL     1      11.066  20.037   3.218  1.00  0.00     0.021 C 
HETATM   12  C12 UNL     1      11.289  19.681   1.776  1.00  0.00    -0.043 C 
HETATM   13  C13 UNL     1      11.258  18.201   1.625  1.00  0.00     0.015 C 
HETATM   14  C14 UNL     1      10.235  20.334   0.920  1.00  0.00     0.011 C 
HETATM   15  C15 UNL     1      10.209  21.834   1.150  1.00  0.00     0.026 C 
HETATM   16  C16 UNL     1      10.058  22.115   2.627  1.00  0.00     0.089 C 
HETATM   17  C21 UNL     1      12.616  20.234   1.365  1.00  0.00     0.010 C 
HETATM   18  C22 UNL     1      13.365  20.824   2.570  1.00  0.00     0.007 C 
HETATM   19  C23 UNL     1      12.559  22.016   3.035  1.00  0.00     0.005 C 
HETATM   20  C24 UNL     1      13.706  23.013   6.551  1.00  0.00     0.081 C 
HETATM   21  C26 UNL     1      14.785  23.993   6.378  1.00  0.00     0.044 C 
ENDROOT
BRANCH  20  22
HETATM   22  O1  UNL     1      12.519  23.544   7.048  1.00  0.00    -0.388 OA
ATOM     23  H1  UNL     1      12.653  24.480   7.143  1.00  0.00     0.210 HD
ENDBRANCH  20  22
BRANCH  20  24
HETATM   24  C25 UNL     1      14.159  22.002   7.622  1.00  0.00     0.193 C 
BRANCH  24  25
HETATM   25  N2  UNL     1      14.538  22.630   8.841  1.00  0.00    -0.250 N 
ATOM     26  H2  UNL     1      15.532  22.657   9.067  1.00  0.00     0.197 HD
BRANCH  25  27
HETATM   27  N3  UNL     1      13.761  23.142   9.644  1.00  0.00    -0.248 NA
BRANCH  27  28
HETATM   28  N4  UNL     1      12.807  23.712  10.198  1.00  0.00    -0.261 N 
ATOM     29  H42 UNL     1      12.315  23.853   9.315  1.00  0.00     0.193 HD
ATOM     30  H41 UNL     1      12.161  24.136  10.864  1.00  0.00     0.193 HD
ENDBRANCH  27  28
ENDBRANCH  25  27
ENDBRANCH  24  25
ENDBRANCH  20  24
BRANCH  16  31
HETATM   31  N1  UNL     1       9.695  23.432   2.941  1.00  0.00    -0.397 N 
HETATM   32  C17 UNL     1       9.918  24.410   2.128  1.00  0.00     0.056 C 
ATOM     33  H1  UNL     1       9.244  23.623   3.836  1.00  0.00     0.159 HD
BRANCH  32  34
HETATM   34  C18 UNL     1       9.523  25.800   2.486  1.00  0.00     0.046 C 
BRANCH  34  35
HETATM   35  C19 UNL     1       9.339  25.958   3.974  1.00  0.00     0.036 C 
BRANCH  35  36
HETATM   36  C20 UNL     1       7.890  26.060   4.364  1.00  0.00     0.222 C 
HETATM   37  F1  UNL     1       7.228  26.803   3.402  1.00  0.00    -0.255 F 
ENDBRANCH  35  36
ENDBRANCH  34  35
ENDBRANCH  32  34
ENDBRANCH  16  31
TORSDOF 9
ENDMDL
MODEL 3
REMARK VINA RESULT: -7.443803008      2.781      6.588
REMARK  9 active torsions:
REMARK  status: ('A' for Active; 'I' for Inactive)
REMARK    1  A    between atoms: C16_16  and  N1_17 
REMARK    2  A    between atoms: C17_19  and  C18_20 
REMARK    3  A    between atoms: C18_20  and  C19_21 
REMARK    4  A    between atoms: C19_21  and  C20_22 
REMARK    5  A    between atoms: C24_27  and  O1_28 
REMARK    6  A    between atoms: C24_27  and  C25_30 
REMARK    7  A    between atoms: C25_30  and  N2_31 
REMARK    8  A    between atoms: N2_31  and  N3_33 
REMARK    9  A    between atoms: N3_33  and  N4_34 
ROOT
HETATM    1  C1  UNL     1      15.344  23.828   1.036  1.00  0.00     0.010 C 
HETATM    2  C2  UNL     1      15.798  24.679   2.239  1.00  0.00    -0.016 C 
HETATM    3  C3  UNL     1      16.193  23.858   3.387  1.00  0.00     0.005 C 
HETATM    4  C4  UNL     1      15.223  23.662   4.492  1.00  0.00     0.010 C 
HETATM    5  C5  UNL     1      14.728  24.855   5.212  1.00  0.00    -0.033 C 
HETATM    6  C6  UNL     1      15.934  25.803   5.375  1.00  0.00     0.016 C 
HETATM    7  C7  UNL     1      13.581  25.562   4.577  1.00  0.00     0.030 C 
HETATM    8  C8  UNL     1      12.224  25.087   4.997  1.00  0.00     0.009 C 
HETATM    9  C9  UNL     1      12.170  23.801   5.740  1.00  0.00     0.012 C 
HETATM   10  C10 UNL     1      13.093  23.890   6.925  1.00  0.00    -0.015 C 
HETATM   11  C11 UNL     1      12.279  24.637   8.006  1.00  0.00     0.021 C 
HETATM   12  C12 UNL     1      13.049  24.721   9.294  1.00  0.00    -0.043 C 
HETATM   13  C13 UNL     1      12.291  25.553  10.265  1.00  0.00     0.015 C 
HETATM   14  C14 UNL     1      13.284  23.335   9.837  1.00  0.00     0.011 C 
HETATM   15  C15 UNL     1      13.974  22.462   8.805  1.00  0.00     0.026 C 
HETATM   16  C16 UNL     1      13.185  22.487   7.516  1.00  0.00     0.089 C 
HETATM   17  C21 UNL     1      14.382  25.325   8.995  1.00  0.00     0.010 C 
HETATM   18  C22 UNL     1      14.458  25.801   7.536  1.00  0.00     0.007 C 
HETATM   19  C23 UNL     1      14.377  24.561   6.674  1.00  0.00     0.005 C 
HETATM   20  C24 UNL     1      13.577  25.586   3.071  1.00  0.00     0.081 C 
HETATM   21  C26 UNL     1      14.865  25.793   2.398  1.00  0.00     0.044 C 
ENDROOT
BRANCH  20  22
HETATM   22  O1  UNL     1      12.881  24.456   2.650  1.00  0.00    -0.388 OA
ATOM     23  H1  UNL     1      12.073  24.428   3.149  1.00  0.00     0.210 HD
ENDBRANCH  20  22
BRANCH  20  24
HETATM   24  C25 UNL     1      12.660  26.768   2.701  1.00  0.00     0.193 C 
BRANCH  24  25
HETATM   25  N2  UNL     1      11.619  26.393   1.806  1.00  0.00    -0.250 N 
ATOM     26  H2  UNL     1      11.876  26.210   0.836  1.00  0.00     0.197 HD
BRANCH  25  27
HETATM   27  N3  UNL     1      10.435  26.274   2.110  1.00  0.00    -0.248 NA
BRANCH  27  28
HETATM   28  N4  UNL     1       9.249  25.919   2.213  1.00  0.00    -0.261 N 
ATOM     29  H42 UNL     1       9.341  25.728   3.210  1.00  0.00     0.193 HD
ATOM     30  H41 UNL     1       8.271  25.682   2.046  1.00  0.00     0.193 HD
ENDBRANCH  27  28
ENDBRANCH  25  27
ENDBRANCH  24  25
ENDBRANCH  20  24
BRANCH  16  31
HETATM   31  N1  UNL     1      13.523  21.482   6.599  1.00  0.00    -0.397 N 
HETATM   32  C17 UNL     1      12.838  21.287   5.523  1.00  0.00     0.056 C 
ATOM     33  H1  UNL     1      14.332  20.890   6.787  1.00  0.00     0.159 HD
BRANCH  32  34
HETATM   34  C18 UNL     1      13.219  20.213   4.565  1.00  0.00     0.046 C 
BRANCH  34  35
HETATM   35  C19 UNL     1      12.819  20.562   3.153  1.00  0.00     0.036 C 
BRANCH  35  36
HETATM   36  C20 UNL     1      12.879  19.376   2.232  1.00  0.00     0.222 C 
HETATM   37  F1  UNL     1      14.196  18.959   2.138  1.00  0.00    -0.255 F 
ENDBRANCH  35  36
ENDBRANCH  34  35
ENDBRANCH  32  34
ENDBRANCH  16  31
TORSDOF 9
ENDMDL
MODEL 4
REMARK VINA RESULT: -7.419216796      3.006      5.302
REMARK  9 active torsions:
REMARK  status: ('A' for Active; 'I' for Inactive)
REMARK    1  A    between atoms: C16_16  and  N1_17 
REMARK    2  A    between atoms: C17_19  and  C18_20 
REMARK    3  A    between atoms: C18_20  and  C19_21 
REMARK    4  A    between atoms: C19_21  and  C20_22 
REMARK    5  A    between atoms: C24_27  and  O1_28 
REMARK    6  A    between atoms: C24_27  and  C25_30 
REMARK    7  A    between atoms: C25_30  and  N2_31 
REMARK    8  A    between atoms: N2_31  and  N3_33 
REMARK    9  A    between atoms: N3_33  and  N4_34 
ROOT
HETATM    1  C1  UNL     1      16.511  22.702   7.664  1.00  0.00     0.010 C 
HETATM    2  C2  UNL     1      15.183  23.459   7.870  1.00  0.00    -0.016 C 
HETATM    3  C3  UNL     1      14.022  22.678   7.437  1.00  0.00     0.005 C 
HETATM    4  C4  UNL     1      13.430  22.955   6.106  1.00  0.00     0.010 C 
HETATM    5  C5  UNL     1      12.916  24.315   5.834  1.00  0.00    -0.033 C 
HETATM    6  C6  UNL     1      12.217  24.787   7.126  1.00  0.00     0.016 C 
HETATM    7  C7  UNL     1      13.930  25.311   5.387  1.00  0.00     0.030 C 
HETATM    8  C8  UNL     1      14.136  25.393   3.906  1.00  0.00     0.009 C 
HETATM    9  C9  UNL     1      13.553  24.295   3.091  1.00  0.00     0.012 C 
HETATM   10  C10 UNL     1      12.090  24.176   3.418  1.00  0.00    -0.015 C 
HETATM   11  C11 UNL     1      11.404  25.272   2.572  1.00  0.00     0.021 C 
HETATM   12  C12 UNL     1       9.911  25.214   2.727  1.00  0.00    -0.043 C 
HETATM   13  C13 UNL     1       9.296  26.358   2.002  1.00  0.00     0.015 C 
HETATM   14  C14 UNL     1       9.395  23.900   2.199  1.00  0.00     0.011 C 
HETATM   15  C15 UNL     1      10.094  22.736   2.876  1.00  0.00     0.026 C 
HETATM   16  C16 UNL     1      11.591  22.903   2.745  1.00  0.00     0.089 C 
HETATM   17  C21 UNL     1       9.597  25.273   4.187  1.00  0.00     0.010 C 
HETATM   18  C22 UNL     1      10.865  25.535   5.014  1.00  0.00     0.007 C 
HETATM   19  C23 UNL     1      11.749  24.320   4.842  1.00  0.00     0.005 C 
HETATM   20  C24 UNL     1      15.298  25.175   6.001  1.00  0.00     0.081 C 
HETATM   21  C26 UNL     1      15.365  24.842   7.429  1.00  0.00     0.044 C 
ENDROOT
BRANCH  20  22
HETATM   22  O1  UNL     1      16.031  24.327   5.175  1.00  0.00    -0.388 OA
ATOM     23  H1  UNL     1      16.839  24.125   5.633  1.00  0.00     0.210 HD
ENDBRANCH  20  22
BRANCH  20  24
HETATM   24  C25 UNL     1      15.950  26.559   5.812  1.00  0.00     0.193 C 
BRANCH  24  25
HETATM   25  N2  UNL     1      17.319  26.472   5.435  1.00  0.00    -0.250 N 
ATOM     26  H2  UNL     1      18.018  26.692   6.145  1.00  0.00     0.197 HD
BRANCH  25  27
HETATM   27  N3  UNL     1      17.726  26.152   4.321  1.00  0.00    -0.248 NA
BRANCH  27  28
HETATM   28  N4  UNL     1      18.058  25.543   3.291  1.00  0.00    -0.261 N 
ATOM     29  H42 UNL     1      17.492  24.729   3.530  1.00  0.00     0.193 HD
ATOM     30  H41 UNL     1      18.467  25.255   2.401  1.00  0.00     0.193 HD
ENDBRANCH  27  28
ENDBRANCH  25  27
ENDBRANCH  24  25
ENDBRANCH  20  24
BRANCH  16  31
HETATM   31  N1  UNL     1      12.338  21.752   3.033  1.00  0.00    -0.397 N 
HETATM   32  C17 UNL     1      12.511  20.818   2.158  1.00  0.00     0.056 C 
ATOM     33  H1  UNL     1      12.756  21.650   3.958  1.00  0.00     0.159 HD
BRANCH  32  34
HETATM   34  C18 UNL     1      13.310  19.607   2.489  1.00  0.00     0.046 C 
BRANCH  34  35
HETATM   35  C19 UNL     1      12.883  18.419   1.663  1.00  0.00     0.036 C 
BRANCH  35  36
HETATM   36  C20 UNL     1      11.441  18.502   1.245  1.00  0.00     0.222 C 
HETATM   37  F1  UNL     1      11.392  18.707  -0.123  1.00  0.00    -0.255 F 
ENDBRANCH  35  36
ENDBRANCH  34  35
ENDBRANCH  32  34
ENDBRANCH  16  31
TORSDOF 9
ENDMDL
MODEL 5
REMARK VINA RESULT: -7.335250138      2.766      6.089
REMARK  9 active torsions:
REMARK  status: ('A' for Active; 'I' for Inactive)
REMARK    1  A    between atoms: C16_16  and  N1_17 
REMARK    2  A    between atoms: C17_19  and  C18_20 
REMARK    3  A    between atoms: C18_20  and  C19_21 
REMARK    4  A    between atoms: C19_21  and  C20_22 
REMARK    5  A    between atoms: C24_27  and  O1_28 
REMARK    6  A    between atoms: C24_27  and  C25_30 
REMARK    7  A    between atoms: C25_30  and  N2_31 
REMARK    8  A    between atoms: N2_31  and  N3_33 
REMARK    9  A    between atoms: N3_33  and  N4_34 
ROOT
HETATM    1  C1  UNL     1       9.744  21.026   0.594  1.00  0.00     0.010 C 
HETATM    2  C2  UNL     1       9.769  20.855   2.126  1.00  0.00    -0.016 C 
HETATM    3  C3  UNL     1       9.665  22.134   2.833  1.00  0.00     0.005 C 
HETATM    4  C4  UNL     1      10.901  22.766   3.354  1.00  0.00     0.010 C 
HETATM    5  C5  UNL     1      11.712  22.016   4.339  1.00  0.00    -0.033 C 
HETATM    6  C6  UNL     1      10.716  21.319   5.289  1.00  0.00     0.016 C 
HETATM    7  C7  UNL     1      12.674  21.033   3.767  1.00  0.00     0.030 C 
HETATM    8  C8  UNL     1      14.039  21.572   3.468  1.00  0.00     0.009 C 
HETATM    9  C9  UNL     1      14.188  23.052   3.484  1.00  0.00     0.012 C 
HETATM   10  C10 UNL     1      13.687  23.572   4.804  1.00  0.00    -0.015 C 
HETATM   11  C11 UNL     1      14.864  23.366   5.784  1.00  0.00     0.021 C 
HETATM   12  C12 UNL     1      14.539  23.931   7.138  1.00  0.00    -0.043 C 
HETATM   13  C13 UNL     1      15.639  23.602   8.084  1.00  0.00     0.015 C 
HETATM   14  C14 UNL     1      14.343  25.421   7.035  1.00  0.00     0.011 C 
HETATM   15  C15 UNL     1      13.285  25.754   5.999  1.00  0.00     0.026 C 
HETATM   16  C16 UNL     1      13.639  25.092   4.687  1.00  0.00     0.089 C 
HETATM   17  C21 UNL     1      13.247  23.331   7.588  1.00  0.00     0.010 C 
HETATM   18  C22 UNL     1      12.776  22.239   6.616  1.00  0.00     0.007 C 
HETATM   19  C23 UNL     1      12.463  22.933   5.309  1.00  0.00     0.005 C 
HETATM   20  C24 UNL     1      12.218  20.315   2.524  1.00  0.00     0.081 C 
HETATM   21  C26 UNL     1      10.815  19.891   2.468  1.00  0.00     0.044 C 
ENDROOT
BRANCH  20  22
HETATM   22  O1  UNL     1      12.634  21.082   1.438  1.00  0.00    -0.388 OA
ATOM     23  H1  UNL     1      12.423  21.986   1.641  1.00  0.00     0.210 HD
ENDBRANCH  20  22
BRANCH  20  24
HETATM   24  C25 UNL     1      13.093  19.048   2.461  1.00  0.00     0.193 C 
BRANCH  24  25
HETATM   25  N2  UNL     1      12.666  18.137   1.456  1.00  0.00    -0.250 N 
ATOM     26  H2  UNL     1      12.660  17.144   1.691  1.00  0.00     0.197 HD
BRANCH  25  27
HETATM   27  N3  UNL     1      12.303  18.453   0.325  1.00  0.00    -0.248 NA
BRANCH  27  28
HETATM   28  N4  UNL     1      11.823  19.022  -0.669  1.00  0.00    -0.261 N 
ATOM     29  H42 UNL     1      10.890  19.058  -0.259  1.00  0.00     0.193 HD
ATOM     30  H41 UNL     1      11.669  19.471  -1.572  1.00  0.00     0.193 HD
ENDBRANCH  27  28
ENDBRANCH  25  27
ENDBRANCH  24  25
ENDBRANCH  20  24
BRANCH  16  31
HETATM   31  N1  UNL     1      12.935  25.575   3.575  1.00  0.00    -0.397 N 
HETATM   32  C17 UNL     1      11.673  25.840   3.633  1.00  0.00     0.056 C 
ATOM     33  H1  UNL     1      13.433  25.722   2.697  1.00  0.00     0.159 HD
BRANCH  32  34
HETATM   34  C18 UNL     1      10.949  26.353   2.438  1.00  0.00     0.046 C 
BRANCH  34  35
HETATM   35  C19 UNL     1       9.531  25.843   2.388  1.00  0.00     0.036 C 
BRANCH  35  36
HETATM   36  C20 UNL     1       8.588  26.695   3.192  1.00  0.00     0.222 C 
HETATM   37  F1  UNL     1       8.183  25.974   4.303  1.00  0.00    -0.255 F 
ENDBRANCH  35  36
ENDBRANCH  34  35
ENDBRANCH  32  34
ENDBRANCH  16  31
TORSDOF 9
ENDMDL
