MODEL 1
REMARK VINA RESULT: -6.630372987      0.000      0.000
REMARK  1 active torsions:
REMARK  status: ('A' for Active; 'I' for Inactive)
REMARK    1  A    between atoms: N1_1  and  C1_4 
REMARK       I    between atoms: N3_9  and  C3_10 
ROOT
HETATM    1  C1  UNL     1      25.055  -1.547  13.271  1.00  0.00     0.683 A 
HETATM    2  N2  UNL     1      25.192  -0.598  14.211  1.00  0.00    -0.141 N 
ATOM      3  H2  UNL     1      24.965  -0.820  15.181  1.00  0.00     0.189 HD
HETATM    4  C2  UNL     1      25.627   0.656  13.899  1.00  0.00     0.352 A 
HETATM    5  O1  UNL     1      25.750   1.531  14.783  1.00  0.00    -0.245 OA
HETATM    6  N3  UNL     1      25.934   0.980  12.630  1.00  0.00    -0.166 N 
HETATM    7  C3  UNL     1      26.390   2.277  12.269  1.00  0.00     0.347 C 
HETATM    8  N4  UNL     1      26.544   3.301  13.244  1.00  0.00    -0.039 NA
HETATM    9  O2  UNL     1      26.671   2.560  11.084  1.00  0.00    -0.250 OA
HETATM   10  C4  UNL     1      25.792   0.020  11.699  1.00  0.00     0.352 A 
HETATM   11  O3  UNL     1      26.084   0.330  10.498  1.00  0.00    -0.245 OA
HETATM   12  N5  UNL     1      25.360  -1.223  12.010  1.00  0.00    -0.141 N 
ATOM     13  H5  UNL     1      25.266  -1.923  11.273  1.00  0.00     0.189 HD
ENDROOT
BRANCH   1  14
HETATM   14  N1  UNL     1      24.635  -2.745  13.595  1.00  0.00    -0.234 N 
ATOM     15  H12 UNL     1      23.825  -2.886  14.200  1.00  0.00     0.174 HD
ATOM     16  H11 UNL     1      25.116  -3.574  13.245  1.00  0.00     0.174 HD
ENDBRANCH   1  14
TORSDOF 1
ENDMDL
MODEL 2
REMARK VINA RESULT: -6.487298467      0.963      2.453
REMARK  1 active torsions:
REMARK  status: ('A' for Active; 'I' for Inactive)
REMARK    1  A    between atoms: N1_1  and  C1_4 
REMARK       I    between atoms: N3_9  and  C3_10 
ROOT
HETATM    1  C1  UNL     1      24.942  -1.780  13.245  1.00  0.00     0.683 A 
HETATM    2  N2  UNL     1      25.274  -1.368  12.011  1.00  0.00    -0.141 N 
ATOM      3  H2  UNL     1      25.209  -2.024  11.233  1.00  0.00     0.189 HD
HETATM    4  C2  UNL     1      25.696  -0.093  11.776  1.00  0.00     0.352 A 
HETATM    5  O1  UNL     1      26.002   0.278  10.621  1.00  0.00    -0.245 OA
HETATM    6  N3  UNL     1      25.792   0.796  12.781  1.00  0.00    -0.166 N 
HETATM    7  C3  UNL     1      26.228   2.132  12.570  1.00  0.00     0.347 C 
HETATM    8  N4  UNL     1      26.585   2.594  11.274  1.00  0.00    -0.039 NA
HETATM    9  O2  UNL     1      26.310   2.944  13.517  1.00  0.00    -0.250 OA
HETATM   10  C4  UNL     1      25.456   0.369  14.011  1.00  0.00     0.352 A 
HETATM   11  O3  UNL     1      25.548   1.214  14.962  1.00  0.00    -0.245 OA
HETATM   12  N5  UNL     1      25.038  -0.895  14.244  1.00  0.00    -0.141 N 
ATOM     13  H5  UNL     1      24.793  -1.178  15.194  1.00  0.00     0.189 HD
ENDROOT
BRANCH   1  14
HETATM   14  N1  UNL     1      24.540  -3.010  13.449  1.00  0.00    -0.234 N 
ATOM     15  H12 UNL     1      25.059  -3.812  13.091  1.00  0.00     0.174 HD
ATOM     16  H11 UNL     1      23.685  -3.194  13.975  1.00  0.00     0.174 HD
ENDBRANCH   1  14
TORSDOF 1
ENDMDL
MODEL 3
REMARK VINA RESULT: -5.928939836      1.344      4.412
REMARK  1 active torsions:
REMARK  status: ('A' for Active; 'I' for Inactive)
REMARK    1  A    between atoms: N1_1  and  C1_4 
REMARK       I    between atoms: N3_9  and  C3_10 
ROOT
HETATM    1  C1  UNL     1      26.642   2.639  11.615  1.00  0.00     0.683 A 
HETATM    2  N2  UNL     1      26.444   1.522  10.897  1.00  0.00    -0.141 N 
ATOM      3  H2  UNL     1      26.665   1.525   9.901  1.00  0.00     0.189 HD
HETATM    4  C2  UNL     1      25.953   0.386  11.468  1.00  0.00     0.352 A 
HETATM    5  O1  UNL     1      25.774  -0.648  10.789  1.00  0.00    -0.245 OA
HETATM    6  N3  UNL     1      25.651   0.351  12.779  1.00  0.00    -0.166 N 
HETATM    7  C3  UNL     1      25.138  -0.816  13.407  1.00  0.00     0.347 C 
HETATM    8  N4  UNL     1      24.920  -2.012  12.670  1.00  0.00    -0.039 NA
HETATM    9  O2  UNL     1      24.864  -0.830  14.626  1.00  0.00    -0.250 OA
HETATM   10  C4  UNL     1      25.854   1.477  13.486  1.00  0.00     0.352 A 
HETATM   11  O3  UNL     1      25.568   1.441  14.727  1.00  0.00    -0.245 OA
HETATM   12  N5  UNL     1      26.341   2.603  12.918  1.00  0.00    -0.141 N 
ATOM     13  H5  UNL     1      26.480   3.437  13.491  1.00  0.00     0.189 HD
ENDROOT
BRANCH   1  14
HETATM   14  N1  UNL     1      27.113   3.720  11.044  1.00  0.00    -0.234 N 
ATOM     15  H12 UNL     1      27.644   3.681  10.174  1.00  0.00     0.174 HD
ATOM     16  H11 UNL     1      26.958   4.636  11.466  1.00  0.00     0.174 HD
ENDBRANCH   1  14
TORSDOF 1
ENDMDL
MODEL 4
REMARK VINA RESULT: -5.896282069      2.146      2.616
REMARK  1 active torsions:
REMARK  status: ('A' for Active; 'I' for Inactive)
REMARK    1  A    between atoms: N1_1  and  C1_4 
REMARK       I    between atoms: N3_9  and  C3_10 
ROOT
HETATM    1  C1  UNL     1      23.233  -0.413  15.734  1.00  0.00     0.683 A 
HETATM    2  N2  UNL     1      23.828   0.789  15.801  1.00  0.00    -0.141 N 
ATOM      3  H2  UNL     1      23.569   1.432  16.549  1.00  0.00     0.189 HD
HETATM    4  C2  UNL     1      24.771   1.168  14.892  1.00  0.00     0.352 A 
HETATM    5  O1  UNL     1      25.319   2.290  14.966  1.00  0.00    -0.245 OA
HETATM    6  N3  UNL     1      25.135   0.342  13.895  1.00  0.00    -0.166 N 
HETATM    7  C3  UNL     1      26.115   0.705  12.931  1.00  0.00     0.347 C 
HETATM    8  N4  UNL     1      26.761   1.971  12.979  1.00  0.00    -0.039 NA
HETATM    9  O2  UNL     1      26.441  -0.076  12.011  1.00  0.00    -0.250 OA
HETATM   10  C4  UNL     1      24.531  -0.858  13.840  1.00  0.00     0.352 A 
HETATM   11  O3  UNL     1      24.878  -1.639  12.894  1.00  0.00    -0.245 OA
HETATM   12  N5  UNL     1      23.596  -1.233  14.741  1.00  0.00    -0.141 N 
ATOM     13  H5  UNL     1      23.161  -2.153  14.663  1.00  0.00     0.189 HD
ENDROOT
BRANCH   1  14
HETATM   14  N1  UNL     1      22.329  -0.756  16.618  1.00  0.00    -0.234 N 
ATOM     15  H12 UNL     1      21.528  -0.160  16.827  1.00  0.00     0.174 HD
ATOM     16  H11 UNL     1      22.409  -1.638  17.124  1.00  0.00     0.174 HD
ENDBRANCH   1  14
TORSDOF 1
ENDMDL
MODEL 5
REMARK VINA RESULT: -5.698783428      1.766      3.029
REMARK  1 active torsions:
REMARK  status: ('A' for Active; 'I' for Inactive)
REMARK    1  A    between atoms: N1_1  and  C1_4 
REMARK       I    between atoms: N3_9  and  C3_10 
ROOT
HETATM    1  C1  UNL     1      24.096  -0.298  15.489  1.00  0.00     0.683 A 
HETATM    2  N2  UNL     1      24.149  -1.242  14.536  1.00  0.00    -0.141 N 
ATOM      3  H2  UNL     1      23.723  -2.152  14.712  1.00  0.00     0.189 HD
HETATM    4  C2  UNL     1      24.759  -1.011  13.339  1.00  0.00     0.352 A 
HETATM    5  O1  UNL     1      24.801  -1.899  12.459  1.00  0.00    -0.245 OA
HETATM    6  N3  UNL     1      25.330   0.178  13.076  1.00  0.00    -0.166 N 
HETATM    7  C3  UNL     1      25.974   0.453  11.839  1.00  0.00     0.347 C 
HETATM    8  N4  UNL     1      26.044  -0.529  10.813  1.00  0.00    -0.039 NA
HETATM    9  O2  UNL     1      26.499   1.565  11.613  1.00  0.00    -0.250 OA
HETATM   10  C4  UNL     1      25.270   1.114  14.040  1.00  0.00     0.352 A 
HETATM   11  O3  UNL     1      25.811   2.240  13.789  1.00  0.00    -0.245 OA
HETATM   12  N5  UNL     1      24.665   0.885  15.227  1.00  0.00    -0.141 N 
ATOM     13  H5  UNL     1      24.641   1.622  15.932  1.00  0.00     0.189 HD
ENDROOT
BRANCH   1  14
HETATM   14  N1  UNL     1      23.505  -0.542  16.633  1.00  0.00    -0.234 N 
ATOM     15  H12 UNL     1      22.549  -0.240  16.820  1.00  0.00     0.174 HD
ATOM     16  H11 UNL     1      23.997  -1.046  17.371  1.00  0.00     0.174 HD
ENDBRANCH   1  14
TORSDOF 1
ENDMDL
