MODEL 1
REMARK VINA RESULT: -4.541693346      0.000      0.000
REMARK  4 active torsions:
REMARK  status: ('A' for Active; 'I' for Inactive)
REMARK    1  A    between atoms: N1_2  and  N2_4 
REMARK    2  A    between atoms: C2_6  and  C3_7 
REMARK    3  A    between atoms: N3_8  and  C4_10 
REMARK    4  A    between atoms: C4_10  and  C5_11 
ROOT
HETATM    1  C3  UNL     1      14.675  24.792  -4.681  1.00  0.00     0.101 C 
HETATM    2  N3  UNL     1      13.928  24.274  -5.584  1.00  0.00    -0.396 N 
ATOM      3  H3  UNL     1      13.117  24.812  -5.890  1.00  0.00     0.158 HD
ENDROOT
BRANCH   2   4
HETATM    4  C4  UNL     1      14.145  22.993  -6.200  1.00  0.00     0.153 C 
BRANCH   4   5
HETATM    5  C5  UNL     1      14.019  23.208  -7.691  1.00  0.00     0.229 A 
HETATM    6  C6  UNL     1      14.203  21.932  -8.494  1.00  0.00     0.267 A 
HETATM    7  N4  UNL     1      12.927  22.589  -8.411  1.00  0.00    -0.066 N 
ATOM      8  H42 UNL     1      12.000  22.273  -8.129  1.00  0.00     0.277 HD
ATOM      9  H41 UNL     1      12.276  22.934  -9.116  1.00  0.00     0.277 HD
ENDBRANCH   4   5
ENDBRANCH   2   4
BRANCH   1  10
HETATM   10  C2  UNL     1      15.858  24.124  -4.164  1.00  0.00     0.123 C 
HETATM   11  N2  UNL     1      16.280  24.413  -2.984  1.00  0.00    -0.312 N 
ATOM     12  H2  UNL     1      17.110  23.946  -2.619  1.00  0.00     0.186 HD
BRANCH  11  13
HETATM   13  N1  UNL     1      15.621  25.356  -2.197  1.00  0.00    -0.322 N 
HETATM   14  C1  UNL     1      15.252  25.091  -1.008  1.00  0.00     0.139 C 
ATOM     15  H1  UNL     1      15.430  26.280  -2.584  1.00  0.00     0.185 HD
ENDBRANCH  11  13
ENDBRANCH   1  10
TORSDOF 4
ENDMDL
MODEL 2
REMARK VINA RESULT: -4.521599075      1.601      5.651
REMARK  4 active torsions:
REMARK  status: ('A' for Active; 'I' for Inactive)
REMARK    1  A    between atoms: N1_2  and  N2_4 
REMARK    2  A    between atoms: C2_6  and  C3_7 
REMARK    3  A    between atoms: N3_8  and  C4_10 
REMARK    4  A    between atoms: C4_10  and  C5_11 
ROOT
HETATM    1  C3  UNL     1      15.410  24.261  -4.296  1.00  0.00     0.101 C 
HETATM    2  N3  UNL     1      15.707  25.025  -3.310  1.00  0.00    -0.396 N 
ATOM      3  H3  UNL     1      16.598  24.864  -2.840  1.00  0.00     0.158 HD
ENDROOT
BRANCH   2   4
HETATM    4  C4  UNL     1      14.879  26.092  -2.815  1.00  0.00     0.153 C 
BRANCH   4   5
HETATM    5  C5  UNL     1      14.642  25.804  -1.350  1.00  0.00     0.229 A 
HETATM    6  C6  UNL     1      13.503  26.621  -0.761  1.00  0.00     0.267 A 
HETATM    7  N4  UNL     1      13.395  25.198  -0.937  1.00  0.00    -0.066 N 
ATOM      8  H42 UNL     1      12.717  24.606  -1.417  1.00  0.00     0.277 HD
ATOM      9  H41 UNL     1      13.172  24.433  -0.299  1.00  0.00     0.277 HD
ENDBRANCH   4   5
ENDBRANCH   2   4
BRANCH   1  10
HETATM   10  C2  UNL     1      14.171  24.392  -5.044  1.00  0.00     0.123 C 
HETATM   11  N2  UNL     1      13.893  23.531  -5.960  1.00  0.00    -0.312 N 
ATOM     12  H2  UNL     1      13.024  23.621  -6.486  1.00  0.00     0.186 HD
BRANCH  11  13
HETATM   13  N1  UNL     1      14.762  22.480  -6.242  1.00  0.00    -0.322 N 
HETATM   14  C1  UNL     1      14.761  21.900  -7.375  1.00  0.00     0.139 C 
ATOM     15  H1  UNL     1      15.415  22.167  -5.523  1.00  0.00     0.185 HD
ENDBRANCH  11  13
ENDBRANCH   1  10
TORSDOF 4
ENDMDL
MODEL 3
REMARK VINA RESULT: -4.424907967      1.227      5.423
REMARK  4 active torsions:
REMARK  status: ('A' for Active; 'I' for Inactive)
REMARK    1  A    between atoms: N1_2  and  N2_4 
REMARK    2  A    between atoms: C2_6  and  C3_7 
REMARK    3  A    between atoms: N3_8  and  C4_10 
REMARK    4  A    between atoms: C4_10  and  C5_11 
ROOT
HETATM    1  C3  UNL     1      13.781  23.704  -6.305  1.00  0.00     0.101 C 
HETATM    2  N3  UNL     1      13.518  24.354  -5.232  1.00  0.00    -0.396 N 
ATOM      3  H3  UNL     1      12.956  25.201  -5.320  1.00  0.00     0.158 HD
ENDROOT
BRANCH   2   4
HETATM    4  C4  UNL     1      13.953  23.981  -3.913  1.00  0.00     0.153 C 
BRANCH   4   5
HETATM    5  C5  UNL     1      15.130  24.871  -3.584  1.00  0.00     0.229 A 
HETATM    6  C6  UNL     1      15.672  24.646  -2.182  1.00  0.00     0.267 A 
HETATM    7  N4  UNL     1      16.428  24.277  -3.349  1.00  0.00    -0.066 N 
ATOM      8  H42 UNL     1      16.858  23.403  -3.651  1.00  0.00     0.277 HD
ATOM      9  H41 UNL     1      17.368  24.510  -3.670  1.00  0.00     0.277 HD
ENDBRANCH   4   5
ENDBRANCH   2   4
BRANCH   1  10
HETATM   10  C2  UNL     1      14.571  22.484  -6.308  1.00  0.00     0.123 C 
HETATM   11  N2  UNL     1      14.850  21.917  -7.429  1.00  0.00    -0.312 N 
ATOM     12  H2  UNL     1      15.404  21.061  -7.434  1.00  0.00     0.186 HD
BRANCH  11  13
HETATM   13  N1  UNL     1      14.407  22.455  -8.635  1.00  0.00    -0.322 N 
HETATM   14  C1  UNL     1      13.600  21.824  -9.390  1.00  0.00     0.139 C 
ATOM     15  H1  UNL     1      14.737  23.378  -8.919  1.00  0.00     0.185 HD
ENDBRANCH  11  13
ENDBRANCH   1  10
TORSDOF 4
ENDMDL
MODEL 4
REMARK VINA RESULT: -4.401052110      1.308      1.467
REMARK  4 active torsions:
REMARK  status: ('A' for Active; 'I' for Inactive)
REMARK    1  A    between atoms: N1_2  and  N2_4 
REMARK    2  A    between atoms: C2_6  and  C3_7 
REMARK    3  A    between atoms: N3_8  and  C4_10 
REMARK    4  A    between atoms: C4_10  and  C5_11 
ROOT
HETATM    1  C3  UNL     1      13.914  24.308  -4.518  1.00  0.00     0.101 C 
HETATM    2  N3  UNL     1      13.683  23.398  -5.392  1.00  0.00    -0.396 N 
ATOM      3  H3  UNL     1      13.305  22.511  -5.060  1.00  0.00     0.158 HD
ENDROOT
BRANCH   2   4
HETATM    4  C4  UNL     1      13.916  23.533  -6.805  1.00  0.00     0.153 C 
BRANCH   4   5
HETATM    5  C5  UNL     1      14.230  22.148  -7.320  1.00  0.00     0.229 A 
HETATM    6  C6  UNL     1      13.511  21.819  -8.618  1.00  0.00     0.267 A 
HETATM    7  N4  UNL     1      14.937  21.997  -8.573  1.00  0.00    -0.066 N 
ATOM      8  H42 UNL     1      15.578  22.601  -9.087  1.00  0.00     0.277 HD
ATOM      9  H41 UNL     1      15.720  21.411  -8.864  1.00  0.00     0.277 HD
ENDBRANCH   4   5
ENDBRANCH   2   4
BRANCH   1  10
HETATM   10  C2  UNL     1      14.451  25.613  -4.868  1.00  0.00     0.123 C 
HETATM   11  N2  UNL     1      15.152  26.258  -4.003  1.00  0.00    -0.312 N 
ATOM     12  H2  UNL     1      15.530  27.174  -4.246  1.00  0.00     0.186 HD
BRANCH  11  13
HETATM   13  N1  UNL     1      15.402  25.724  -2.741  1.00  0.00    -0.322 N 
HETATM   14  C1  UNL     1      14.994  26.299  -1.681  1.00  0.00     0.139 C 
ATOM     15  H1  UNL     1      15.926  24.852  -2.664  1.00  0.00     0.185 HD
ENDBRANCH  11  13
ENDBRANCH   1  10
TORSDOF 4
ENDMDL
MODEL 5
REMARK VINA RESULT: -4.389337912      4.101      5.866
REMARK  4 active torsions:
REMARK  status: ('A' for Active; 'I' for Inactive)
REMARK    1  A    between atoms: N1_2  and  N2_4 
REMARK    2  A    between atoms: C2_6  and  C3_7 
REMARK    3  A    between atoms: N3_8  and  C4_10 
REMARK    4  A    between atoms: C4_10  and  C5_11 
ROOT
HETATM    1  C3  UNL     1      12.847  21.650  -9.849  1.00  0.00     0.101 C 
HETATM    2  N3  UNL     1      13.118  21.066 -10.958  1.00  0.00    -0.396 N 
ATOM      3  H3  UNL     1      12.722  20.139 -11.111  1.00  0.00     0.158 HD
ENDROOT
BRANCH   2   4
HETATM    4  C4  UNL     1      13.938  21.617 -12.002  1.00  0.00     0.153 C 
BRANCH   4   5
HETATM    5  C5  UNL     1      15.250  20.869 -11.956  1.00  0.00     0.229 A 
HETATM    6  C6  UNL     1      16.419  21.684 -12.484  1.00  0.00     0.267 A 
HETATM    7  N4  UNL     1      16.310  21.342 -11.092  1.00  0.00    -0.066 N 
ATOM      8  H42 UNL     1      16.314  21.898 -10.237  1.00  0.00     0.277 HD
ATOM      9  H41 UNL     1      16.938  20.871 -10.440  1.00  0.00     0.277 HD
ENDBRANCH   4   5
ENDBRANCH   2   4
BRANCH   1  10
HETATM   10  C2  UNL     1      13.353  22.971  -9.515  1.00  0.00     0.123 C 
HETATM   11  N2  UNL     1      14.274  23.087  -8.625  1.00  0.00    -0.312 N 
ATOM     12  H2  UNL     1      14.630  24.014  -8.389  1.00  0.00     0.186 HD
BRANCH  11  13
HETATM   13  N1  UNL     1      14.792  21.967  -7.979  1.00  0.00    -0.322 N 
HETATM   14  C1  UNL     1      14.798  21.873  -6.710  1.00  0.00     0.139 C 
ATOM     15  H1  UNL     1      15.176  21.204  -8.537  1.00  0.00     0.185 HD
ENDBRANCH  11  13
ENDBRANCH   1  10
TORSDOF 4
ENDMDL
