MODEL 1
REMARK VINA RESULT: -11.424642493      0.000      0.000
REMARK  11 active torsions:
REMARK  status: ('A' for Active; 'I' for Inactive)
REMARK    1  A    between atoms: C3_3  and  O1_4 
REMARK    2  A    between atoms: O1_4  and  C4_5 
REMARK       I    between atoms: C4_5  and  N1_7 
REMARK    3  A    between atoms: N1_7  and  C5_9 
REMARK    4  A    between atoms: C5_9  and  N2_10 
REMARK    5  A    between atoms: C5_9  and  C20_29 
REMARK       I    between atoms: N2_10  and  C6_12 
REMARK       I    between atoms: C6_12  and  N3_14 
REMARK    6  A    between atoms: N3_14  and  C7_16 
REMARK    7  A    between atoms: C7_16  and  C8_17 
REMARK       I    between atoms: C20_29  and  N4_31 
REMARK    8  A    between atoms: N4_31  and  C21_33 
REMARK    9  A    between atoms: C21_33  and  C22_34 
REMARK   10  A    between atoms: C21_33  and  C29_42 
REMARK   11  A    between atoms: C22_34  and  C23_35 
ROOT
HETATM    1  C5  UNL     1      -9.800 -28.832 -37.241  1.00  0.00     0.283 C 
ENDROOT
BRANCH   1   2
HETATM    2  N1  UNL     1      -8.888 -28.680 -36.168  1.00  0.00    -0.307 N 
HETATM    3  C4  UNL     1      -9.086 -29.162 -34.844  1.00  0.00     0.362 C 
HETATM    4  O2  UNL     1     -10.093 -29.764 -34.428  1.00  0.00    -0.238 OA
ATOM      5  H1  UNL     1      -8.018 -28.185 -36.360  1.00  0.00     0.167 HD
BRANCH   3   6
HETATM    6  O1  UNL     1      -8.063 -28.944 -33.915  1.00  0.00    -0.297 OA
BRANCH   6   7
HETATM    7  C3  UNL     1      -7.985 -27.857 -33.074  1.00  0.00     0.152 C 
HETATM    8  C2  UNL     1      -7.144 -28.139 -31.832  1.00  0.00     0.134 C 
HETATM    9  C1  UNL     1      -5.735 -28.484 -32.146  1.00  0.00     0.029 C 
HETATM   10  S1  UNL     1      -7.300 -26.539 -31.024  1.00  0.00     0.150 S 
HETATM   11  C36 UNL     1      -8.769 -25.951 -31.888  1.00  0.00     0.143 C 
HETATM   12  O5  UNL     1      -7.512 -26.683 -29.569  1.00  0.00    -0.227 OA
HETATM   13  O6  UNL     1      -6.126 -25.682 -31.390  1.00  0.00    -0.227 OA
HETATM   14  C35 UNL     1      -9.238 -27.263 -32.544  1.00  0.00     0.049 C 
ENDBRANCH   6   7
ENDBRANCH   3   6
ENDBRANCH   1   2
BRANCH   1  15
HETATM   15  N2  UNL     1     -10.485 -30.109 -37.380  1.00  0.00    -0.313 N 
HETATM   16  C6  UNL     1      -9.821 -31.193 -38.051  1.00  0.00     0.318 C 
HETATM   17  O3  UNL     1      -8.632 -30.869 -38.420  1.00  0.00    -0.247 OA
HETATM   18  N3  UNL     1     -10.303 -32.463 -38.319  1.00  0.00    -0.333 N 
ATOM     19  H3  UNL     1     -11.249 -32.694 -38.017  1.00  0.00     0.165 HD
ATOM     20  H2  UNL     1     -11.427 -30.233 -37.006  1.00  0.00     0.166 HD
BRANCH  18  21
HETATM   21  C7  UNL     1      -9.519 -33.503 -39.019  1.00  0.00     0.043 C 
HETATM   22  C14 UNL     1      -9.229 -34.593 -38.075  1.00  0.00     0.038 C 
HETATM   23  C15 UNL     1      -7.895 -34.743 -38.655  1.00  0.00     0.003 A 
HETATM   24  C16 UNL     1      -8.089 -33.280 -39.053  1.00  0.00     0.027 A 
HETATM   25  C17 UNL     1      -6.829 -33.956 -39.149  1.00  0.00    -0.037 A 
HETATM   26  C18 UNL     1      -5.697 -33.820 -38.094  1.00  0.00     0.015 C 
HETATM   27  C19 UNL     1      -6.189 -33.971 -40.525  1.00  0.00     0.015 C 
BRANCH  21  28
HETATM   28  C8  UNL     1     -10.272 -33.783 -40.266  1.00  0.00     0.014 C 
HETATM   29  C9  UNL     1     -11.243 -32.791 -40.784  1.00  0.00     0.007 C 
HETATM   30  C10 UNL     1     -11.648 -33.277 -42.192  1.00  0.00     0.000 C 
HETATM   31  C11 UNL     1     -12.471 -34.515 -42.045  1.00  0.00     0.000 C 
HETATM   32  C12 UNL     1     -11.656 -35.559 -41.314  1.00  0.00     0.000 C 
HETATM   33  C13 UNL     1     -11.102 -35.060 -40.020  1.00  0.00     0.007 C 
ENDBRANCH  21  28
ENDBRANCH  18  21
ENDBRANCH   1  15
BRANCH   1  34
HETATM   34  C20 UNL     1     -10.776 -27.708 -37.269  1.00  0.00     0.260 C 
HETATM   35  O4  UNL     1     -11.273 -27.410 -38.364  1.00  0.00    -0.269 OA
HETATM   36  N4  UNL     1     -11.099 -27.022 -36.077  1.00  0.00    -0.353 N 
ATOM     37  H4  UNL     1     -10.645 -27.302 -35.207  1.00  0.00     0.163 HD
BRANCH  36  38
HETATM   38  C21 UNL     1     -12.097 -25.885 -36.049  1.00  0.00     0.089 C 
BRANCH  38  39
HETATM   39  C22 UNL     1     -11.866 -25.348 -34.710  1.00  0.00     0.030 C 
BRANCH  39  40
HETATM   40  C23 UNL     1     -12.000 -24.025 -34.182  1.00  0.00    -0.010 C 
HETATM   41  C24 UNL     1     -13.277 -23.250 -34.354  1.00  0.00     0.024 C 
HETATM   42  C25 UNL     1     -13.336 -22.328 -33.106  1.00  0.00     0.117 C 
HETATM   43  N5  UNL     1     -12.232 -21.437 -33.229  1.00  0.00    -0.417 N 
HETATM   44  C26 UNL     1     -11.622 -21.081 -31.986  1.00  0.00     0.143 C 
HETATM   45  C27 UNL     1     -11.360 -21.609 -34.326  1.00  0.00     0.117 C 
HETATM   46  C28 UNL     1     -10.880 -23.046 -34.559  1.00  0.00     0.024 C 
ENDBRANCH  39  40
ENDBRANCH  38  39
BRANCH  38  47
HETATM   47  C29 UNL     1     -13.340 -26.497 -36.494  1.00  0.00     0.008 C 
HETATM   48  C30 UNL     1     -14.001 -27.526 -35.633  1.00  0.00     0.007 C 
HETATM   49  C31 UNL     1     -15.470 -27.265 -35.357  1.00  0.00     0.000 C 
HETATM   50  C32 UNL     1     -16.202 -27.250 -36.674  1.00  0.00     0.000 C 
HETATM   51  C33 UNL     1     -15.501 -26.301 -37.609  1.00  0.00     0.000 C 
HETATM   52  C34 UNL     1     -14.451 -25.475 -36.828  1.00  0.00     0.007 C 
ENDBRANCH  38  47
ENDBRANCH  36  38
ENDBRANCH   1  34
TORSDOF 11
ENDMDL
MODEL 2
REMARK VINA RESULT: -11.270011430      0.743      1.231
REMARK  11 active torsions:
REMARK  status: ('A' for Active; 'I' for Inactive)
REMARK    1  A    between atoms: C3_3  and  O1_4 
REMARK    2  A    between atoms: O1_4  and  C4_5 
REMARK       I    between atoms: C4_5  and  N1_7 
REMARK    3  A    between atoms: N1_7  and  C5_9 
REMARK    4  A    between atoms: C5_9  and  N2_10 
REMARK    5  A    between atoms: C5_9  and  C20_29 
REMARK       I    between atoms: N2_10  and  C6_12 
REMARK       I    between atoms: C6_12  and  N3_14 
REMARK    6  A    between atoms: N3_14  and  C7_16 
REMARK    7  A    between atoms: C7_16  and  C8_17 
REMARK       I    between atoms: C20_29  and  N4_31 
REMARK    8  A    between atoms: N4_31  and  C21_33 
REMARK    9  A    between atoms: C21_33  and  C22_34 
REMARK   10  A    between atoms: C21_33  and  C29_42 
REMARK   11  A    between atoms: C22_34  and  C23_35 
ROOT
HETATM    1  C5  UNL     1     -10.011 -28.226 -37.309  1.00  0.00     0.283 C 
ENDROOT
BRANCH   1   2
HETATM    2  N1  UNL     1      -9.175 -28.167 -36.168  1.00  0.00    -0.307 N 
HETATM    3  C4  UNL     1      -9.375 -28.894 -34.961  1.00  0.00     0.362 C 
HETATM    4  O2  UNL     1     -10.321 -29.666 -34.722  1.00  0.00    -0.238 OA
ATOM      5  H1  UNL     1      -8.362 -27.553 -36.214  1.00  0.00     0.167 HD
BRANCH   3   6
HETATM    6  O1  UNL     1      -8.429 -28.733 -33.942  1.00  0.00    -0.297 OA
BRANCH   6   7
HETATM    7  C3  UNL     1      -8.320 -27.617 -33.142  1.00  0.00     0.152 C 
HETATM    8  C2  UNL     1      -7.630 -27.918 -31.815  1.00  0.00     0.134 C 
HETATM    9  C1  UNL     1      -6.240 -28.413 -31.976  1.00  0.00     0.029 C 
HETATM   10  S1  UNL     1      -7.697 -26.271 -31.091  1.00  0.00     0.150 S 
HETATM   11  C36 UNL     1      -9.012 -25.588 -32.117  1.00  0.00     0.143 C 
HETATM   12  O5  UNL     1      -8.056 -26.322 -29.659  1.00  0.00    -0.227 OA
HETATM   13  O6  UNL     1      -6.413 -25.552 -31.377  1.00  0.00    -0.227 OA
HETATM   14  C35 UNL     1      -9.550 -26.879 -32.762  1.00  0.00     0.049 C 
ENDBRANCH   6   7
ENDBRANCH   3   6
ENDBRANCH   1   2
BRANCH   1  15
HETATM   15  N2  UNL     1     -10.726 -29.468 -37.570  1.00  0.00    -0.313 N 
HETATM   16  C6  UNL     1      -9.991 -30.620 -38.016  1.00  0.00     0.318 C 
HETATM   17  O3  UNL     1      -8.728 -30.383 -38.089  1.00  0.00    -0.247 OA
HETATM   18  N3  UNL     1     -10.476 -31.873 -38.351  1.00  0.00    -0.333 N 
ATOM     19  H3  UNL     1     -11.481 -32.034 -38.287  1.00  0.00     0.165 HD
ATOM     20  H2  UNL     1     -11.736 -29.519 -37.438  1.00  0.00     0.166 HD
BRANCH  18  21
HETATM   21  C7  UNL     1      -9.616 -32.989 -38.797  1.00  0.00     0.043 C 
HETATM   22  C14 UNL     1      -9.388 -33.894 -37.660  1.00  0.00     0.038 C 
HETATM   23  C15 UNL     1      -8.006 -34.096 -38.095  1.00  0.00     0.003 A 
HETATM   24  C16 UNL     1      -8.192 -32.728 -38.751  1.00  0.00     0.027 A 
HETATM   25  C17 UNL     1      -6.916 -33.369 -38.628  1.00  0.00    -0.037 A 
HETATM   26  C18 UNL     1      -5.882 -33.020 -37.523  1.00  0.00     0.015 C 
HETATM   27  C19 UNL     1      -6.160 -33.594 -39.923  1.00  0.00     0.015 C 
BRANCH  21  28
HETATM   28  C8  UNL     1     -10.253 -33.500 -40.035  1.00  0.00     0.014 C 
HETATM   29  C9  UNL     1     -11.187 -32.638 -40.797  1.00  0.00     0.007 C 
HETATM   30  C10 UNL     1     -11.461 -33.370 -42.129  1.00  0.00     0.000 C 
HETATM   31  C11 UNL     1     -12.279 -34.586 -41.838  1.00  0.00     0.000 C 
HETATM   32  C12 UNL     1     -11.519 -35.466 -40.871  1.00  0.00     0.000 C 
HETATM   33  C13 UNL     1     -11.087 -34.737 -39.642  1.00  0.00     0.007 C 
ENDBRANCH  21  28
ENDBRANCH  18  21
ENDBRANCH   1  15
BRANCH   1  34
HETATM   34  C20 UNL     1     -10.946 -27.068 -37.340  1.00  0.00     0.260 C 
HETATM   35  O4  UNL     1     -11.350 -26.689 -38.449  1.00  0.00    -0.269 OA
HETATM   36  N4  UNL     1     -11.335 -26.439 -36.136  1.00  0.00    -0.353 N 
ATOM     37  H4  UNL     1     -10.957 -26.785 -35.254  1.00  0.00     0.163 HD
BRANCH  36  38
HETATM   38  C21 UNL     1     -12.295 -25.271 -36.113  1.00  0.00     0.089 C 
BRANCH  38  39
HETATM   39  C22 UNL     1     -11.581 -24.344 -35.238  1.00  0.00     0.030 C 
BRANCH  39  40
HETATM   40  C23 UNL     1     -12.050 -23.341 -34.331  1.00  0.00    -0.010 C 
HETATM   41  C24 UNL     1     -11.108 -22.325 -33.749  1.00  0.00     0.024 C 
HETATM   42  C25 UNL     1     -11.994 -21.072 -33.512  1.00  0.00     0.117 C 
HETATM   43  N5  UNL     1     -12.942 -21.450 -32.519  1.00  0.00    -0.417 N 
HETATM   44  C26 UNL     1     -14.235 -20.861 -32.684  1.00  0.00     0.143 C 
HETATM   45  C27 UNL     1     -12.918 -22.782 -32.051  1.00  0.00     0.117 C 
HETATM   46  C28 UNL     1     -12.873 -23.856 -33.143  1.00  0.00     0.024 C 
ENDBRANCH  39  40
ENDBRANCH  38  39
BRANCH  38  47
HETATM   47  C29 UNL     1     -13.581 -25.878 -35.802  1.00  0.00     0.008 C 
HETATM   48  C30 UNL     1     -14.769 -25.558 -36.651  1.00  0.00     0.007 C 
HETATM   49  C31 UNL     1     -15.521 -26.771 -37.165  1.00  0.00     0.000 C 
HETATM   50  C32 UNL     1     -16.020 -27.554 -35.979  1.00  0.00     0.000 C 
HETATM   51  C33 UNL     1     -14.868 -27.807 -35.044  1.00  0.00     0.000 C 
HETATM   52  C34 UNL     1     -13.538 -27.423 -35.734  1.00  0.00     0.007 C 
ENDBRANCH  38  47
ENDBRANCH  36  38
ENDBRANCH   1  34
TORSDOF 11
ENDMDL
MODEL 3
REMARK VINA RESULT: -11.085901712      1.509      9.239
REMARK  11 active torsions:
REMARK  status: ('A' for Active; 'I' for Inactive)
REMARK    1  A    between atoms: C3_3  and  O1_4 
REMARK    2  A    between atoms: O1_4  and  C4_5 
REMARK       I    between atoms: C4_5  and  N1_7 
REMARK    3  A    between atoms: N1_7  and  C5_9 
REMARK    4  A    between atoms: C5_9  and  N2_10 
REMARK    5  A    between atoms: C5_9  and  C20_29 
REMARK       I    between atoms: N2_10  and  C6_12 
REMARK       I    between atoms: C6_12  and  N3_14 
REMARK    6  A    between atoms: N3_14  and  C7_16 
REMARK    7  A    between atoms: C7_16  and  C8_17 
REMARK       I    between atoms: C20_29  and  N4_31 
REMARK    8  A    between atoms: N4_31  and  C21_33 
REMARK    9  A    between atoms: C21_33  and  C22_34 
REMARK   10  A    between atoms: C21_33  and  C29_42 
REMARK   11  A    between atoms: C22_34  and  C23_35 
ROOT
HETATM    1  C5  UNL     1     -10.113 -29.033 -37.290  1.00  0.00     0.283 C 
ENDROOT
BRANCH   1   2
HETATM    2  N1  UNL     1      -9.212 -28.780 -36.227  1.00  0.00    -0.307 N 
HETATM    3  C4  UNL     1      -9.361 -29.248 -34.892  1.00  0.00     0.362 C 
HETATM    4  O2  UNL     1     -10.310 -29.925 -34.456  1.00  0.00    -0.238 OA
ATOM      5  H1  UNL     1      -8.389 -28.215 -36.436  1.00  0.00     0.167 HD
BRANCH   3   6
HETATM    6  O1  UNL     1      -8.355 -28.922 -33.975  1.00  0.00    -0.297 OA
BRANCH   6   7
HETATM    7  C3  UNL     1      -8.313 -27.761 -33.237  1.00  0.00     0.152 C 
HETATM    8  C2  UNL     1      -7.687 -27.967 -31.861  1.00  0.00     0.134 C 
HETATM    9  C1  UNL     1      -6.280 -28.436 -31.921  1.00  0.00     0.029 C 
HETATM   10  S1  UNL     1      -7.829 -26.284 -31.239  1.00  0.00     0.150 S 
HETATM   11  C36 UNL     1      -9.103 -25.694 -32.368  1.00  0.00     0.143 C 
HETATM   12  O5  UNL     1      -8.261 -26.262 -29.826  1.00  0.00    -0.227 OA
HETATM   13  O6  UNL     1      -6.548 -25.550 -31.500  1.00  0.00    -0.227 OA
HETATM   14  C35 UNL     1      -9.577 -27.033 -32.963  1.00  0.00     0.049 C 
ENDBRANCH   6   7
ENDBRANCH   3   6
ENDBRANCH   1   2
BRANCH   1  15
HETATM   15  N2  UNL     1     -10.593 -27.897 -38.065  1.00  0.00    -0.313 N 
HETATM   16  C6  UNL     1     -11.241 -26.808 -37.387  1.00  0.00     0.318 C 
HETATM   17  O3  UNL     1     -11.273 -26.990 -36.113  1.00  0.00    -0.247 OA
HETATM   18  N3  UNL     1     -11.796 -25.663 -37.933  1.00  0.00    -0.333 N 
ATOM     19  H3  UNL     1     -11.760 -25.544 -38.945  1.00  0.00     0.165 HD
ATOM     20  H2  UNL     1     -10.470 -27.875 -39.077  1.00  0.00     0.166 HD
BRANCH  18  21
HETATM   21  C7  UNL     1     -12.439 -24.603 -37.127  1.00  0.00     0.043 C 
HETATM   22  C14 UNL     1     -12.419 -23.349 -37.895  1.00  0.00     0.038 C 
HETATM   23  C15 UNL     1     -12.148 -22.600 -36.668  1.00  0.00     0.003 A 
HETATM   24  C16 UNL     1     -11.569 -23.930 -36.186  1.00  0.00     0.027 A 
HETATM   25  C17 UNL     1     -11.385 -22.696 -35.481  1.00  0.00    -0.037 A 
HETATM   26  C18 UNL     1     -10.095 -21.836 -35.574  1.00  0.00     0.015 C 
HETATM   27  C19 UNL     1     -11.855 -22.680 -34.039  1.00  0.00     0.015 C 
BRANCH  21  28
HETATM   28  C8  UNL     1     -13.731 -25.181 -36.685  1.00  0.00     0.014 C 
HETATM   29  C9  UNL     1     -13.824 -25.876 -35.379  1.00  0.00     0.007 C 
HETATM   30  C10 UNL     1     -15.327 -26.124 -35.128  1.00  0.00     0.000 C 
HETATM   31  C11 UNL     1     -15.803 -27.155 -36.098  1.00  0.00     0.000 C 
HETATM   32  C12 UNL     1     -15.554 -26.656 -37.503  1.00  0.00     0.000 C 
HETATM   33  C13 UNL     1     -14.137 -26.242 -37.728  1.00  0.00     0.007 C 
ENDBRANCH  21  28
ENDBRANCH  18  21
ENDBRANCH   1  15
BRANCH   1  34
HETATM   34  C20 UNL     1      -9.586 -30.095 -38.190  1.00  0.00     0.260 C 
HETATM   35  O4  UNL     1      -9.191 -29.750 -39.313  1.00  0.00    -0.269 OA
HETATM   36  N4  UNL     1      -9.554 -31.439 -37.756  1.00  0.00    -0.353 N 
ATOM     37  H4  UNL     1      -9.908 -31.666 -36.826  1.00  0.00     0.163 HD
BRANCH  36  38
HETATM   38  C21 UNL     1      -9.013 -32.552 -38.625  1.00  0.00     0.089 C 
BRANCH  38  39
HETATM   39  C22 UNL     1     -10.197 -33.396 -38.764  1.00  0.00     0.030 C 
BRANCH  39  40
HETATM   40  C23 UNL     1     -10.962 -33.778 -39.912  1.00  0.00    -0.010 C 
HETATM   41  C24 UNL     1     -10.634 -35.030 -40.676  1.00  0.00     0.024 C 
HETATM   42  C25 UNL     1     -11.997 -35.491 -41.259  1.00  0.00     0.117 C 
HETATM   43  N5  UNL     1     -12.390 -34.476 -42.177  1.00  0.00    -0.417 N 
HETATM   44  C26 UNL     1     -13.799 -34.242 -42.228  1.00  0.00     0.143 C 
HETATM   45  C27 UNL     1     -11.562 -33.338 -42.302  1.00  0.00     0.117 C 
HETATM   46  C28 UNL     1     -11.142 -32.690 -40.979  1.00  0.00     0.024 C 
ENDBRANCH  39  40
ENDBRANCH  38  39
BRANCH  38  47
HETATM   47  C29 UNL     1      -7.784 -32.954 -37.956  1.00  0.00     0.008 C 
HETATM   48  C30 UNL     1      -7.282 -34.353 -38.120  1.00  0.00     0.007 C 
HETATM   49  C31 UNL     1      -5.829 -34.454 -38.542  1.00  0.00     0.000 C 
HETATM   50  C32 UNL     1      -4.982 -33.798 -37.482  1.00  0.00     0.000 C 
HETATM   51  C33 UNL     1      -5.523 -32.420 -37.211  1.00  0.00     0.000 C 
HETATM   52  C34 UNL     1      -6.574 -32.049 -38.284  1.00  0.00     0.007 C 
ENDBRANCH  38  47
ENDBRANCH  36  38
ENDBRANCH   1  34
TORSDOF 11
ENDMDL
MODEL 4
REMARK VINA RESULT: -10.870771866      2.611     10.324
REMARK  11 active torsions:
REMARK  status: ('A' for Active; 'I' for Inactive)
REMARK    1  A    between atoms: C3_3  and  O1_4 
REMARK    2  A    between atoms: O1_4  and  C4_5 
REMARK       I    between atoms: C4_5  and  N1_7 
REMARK    3  A    between atoms: N1_7  and  C5_9 
REMARK    4  A    between atoms: C5_9  and  N2_10 
REMARK    5  A    between atoms: C5_9  and  C20_29 
REMARK       I    between atoms: N2_10  and  C6_12 
REMARK       I    between atoms: C6_12  and  N3_14 
REMARK    6  A    between atoms: N3_14  and  C7_16 
REMARK    7  A    between atoms: C7_16  and  C8_17 
REMARK       I    between atoms: C20_29  and  N4_31 
REMARK    8  A    between atoms: N4_31  and  C21_33 
REMARK    9  A    between atoms: C21_33  and  C22_34 
REMARK   10  A    between atoms: C21_33  and  C29_42 
REMARK   11  A    between atoms: C22_34  and  C23_35 
ROOT
HETATM    1  C5  UNL     1      -9.903 -28.572 -36.553  1.00  0.00     0.283 C 
ENDROOT
BRANCH   1   2
HETATM    2  N1  UNL     1     -11.235 -28.185 -36.840  1.00  0.00    -0.307 N 
HETATM    3  C4  UNL     1     -11.618 -27.162 -37.751  1.00  0.00     0.362 C 
HETATM    4  O2  UNL     1     -10.844 -26.445 -38.412  1.00  0.00    -0.238 OA
ATOM      5  H1  UNL     1     -11.982 -28.680 -36.352  1.00  0.00     0.167 HD
BRANCH   3   6
HETATM    6  O1  UNL     1     -12.986 -26.931 -37.930  1.00  0.00    -0.297 OA
BRANCH   6   7
HETATM    7  C3  UNL     1     -13.809 -26.334 -37.002  1.00  0.00     0.152 C 
HETATM    8  C2  UNL     1     -13.218 -25.042 -36.446  1.00  0.00     0.134 C 
HETATM    9  C1  UNL     1     -12.994 -24.006 -37.483  1.00  0.00     0.029 C 
HETATM   10  S1  UNL     1     -14.540 -24.604 -35.305  1.00  0.00     0.150 S 
HETATM   11  C36 UNL     1     -15.313 -26.226 -35.164  1.00  0.00     0.143 C 
HETATM   12  O5  UNL     1     -14.007 -24.110 -34.019  1.00  0.00    -0.227 OA
HETATM   13  O6  UNL     1     -15.484 -23.655 -35.982  1.00  0.00    -0.227 OA
HETATM   14  C35 UNL     1     -14.217 -27.102 -35.800  1.00  0.00     0.049 C 
ENDBRANCH   6   7
ENDBRANCH   3   6
ENDBRANCH   1   2
BRANCH   1  15
HETATM   15  N2  UNL     1      -9.607 -29.063 -35.214  1.00  0.00    -0.313 N 
HETATM   16  C6  UNL     1      -9.407 -28.119 -34.149  1.00  0.00     0.318 C 
HETATM   17  O3  UNL     1      -9.563 -26.907 -34.549  1.00  0.00    -0.247 OA
HETATM   18  N3  UNL     1      -9.084 -28.371 -32.826  1.00  0.00    -0.333 N 
ATOM     19  H3  UNL     1      -8.963 -29.341 -32.535  1.00  0.00     0.165 HD
ATOM     20  H2  UNL     1      -9.543 -30.065 -35.035  1.00  0.00     0.166 HD
BRANCH  18  21
HETATM   21  C7  UNL     1      -8.904 -27.310 -31.813  1.00  0.00     0.043 C 
HETATM   22  C14 UNL     1      -9.801 -27.581 -30.679  1.00  0.00     0.038 C 
HETATM   23  C15 UNL     1     -10.068 -26.149 -30.546  1.00  0.00     0.003 A 
HETATM   24  C16 UNL     1      -9.691 -26.113 -32.026  1.00  0.00     0.027 A 
HETATM   25  C17 UNL     1     -10.293 -25.005 -31.346  1.00  0.00    -0.037 A 
HETATM   26  C18 UNL     1     -11.807 -24.666 -31.426  1.00  0.00     0.015 C 
HETATM   27  C19 UNL     1      -9.518 -23.702 -31.387  1.00  0.00     0.015 C 
BRANCH  21  28
HETATM   28  C8  UNL     1      -7.440 -27.225 -31.595  1.00  0.00     0.014 C 
HETATM   29  C9  UNL     1      -6.544 -28.258 -32.166  1.00  0.00     0.007 C 
HETATM   30  C10 UNL     1      -5.104 -27.738 -31.968  1.00  0.00     0.000 C 
HETATM   31  C11 UNL     1      -4.785 -27.779 -30.509  1.00  0.00     0.000 C 
HETATM   32  C12 UNL     1      -5.786 -26.924 -29.766  1.00  0.00     0.000 C 
HETATM   33  C13 UNL     1      -7.201 -27.292 -30.072  1.00  0.00     0.007 C 
ENDBRANCH  21  28
ENDBRANCH  18  21
ENDBRANCH   1  15
BRANCH   1  34
HETATM   34  C20 UNL     1      -9.394 -29.519 -37.583  1.00  0.00     0.260 C 
HETATM   35  O4  UNL     1      -8.842 -29.036 -38.581  1.00  0.00    -0.269 OA
HETATM   36  N4  UNL     1      -9.555 -30.911 -37.405  1.00  0.00    -0.353 N 
ATOM     37  H4  UNL     1     -10.033 -31.250 -36.569  1.00  0.00     0.163 HD
BRANCH  36  38
HETATM   38  C21 UNL     1      -9.041 -31.915 -38.412  1.00  0.00     0.089 C 
BRANCH  38  39
HETATM   39  C22 UNL     1     -10.242 -32.715 -38.643  1.00  0.00     0.030 C 
BRANCH  39  40
HETATM   40  C23 UNL     1     -10.672 -33.478 -39.775  1.00  0.00    -0.010 C 
HETATM   41  C24 UNL     1      -9.685 -34.253 -40.603  1.00  0.00     0.024 C 
HETATM   42  C25 UNL     1     -10.504 -35.453 -41.150  1.00  0.00     0.117 C 
HETATM   43  N5  UNL     1     -11.491 -34.890 -42.009  1.00  0.00    -0.417 N 
HETATM   44  C26 UNL     1     -12.745 -35.577 -41.995  1.00  0.00     0.143 C 
HETATM   45  C27 UNL     1     -11.550 -33.483 -42.119  1.00  0.00     0.117 C 
HETATM   46  C28 UNL     1     -11.545 -32.725 -40.788  1.00  0.00     0.024 C 
ENDBRANCH  39  40
ENDBRANCH  38  39
BRANCH  38  47
HETATM   47  C29 UNL     1      -7.814 -32.419 -37.812  1.00  0.00     0.008 C 
HETATM   48  C30 UNL     1      -7.521 -33.884 -37.856  1.00  0.00     0.007 C 
HETATM   49  C31 UNL     1      -6.146 -34.235 -38.391  1.00  0.00     0.000 C 
HETATM   50  C32 UNL     1      -5.115 -33.603 -37.493  1.00  0.00     0.000 C 
HETATM   51  C33 UNL     1      -5.437 -32.141 -37.337  1.00  0.00     0.000 C 
HETATM   52  C34 UNL     1      -6.534 -31.734 -38.349  1.00  0.00     0.007 C 
ENDBRANCH  38  47
ENDBRANCH  36  38
ENDBRANCH   1  34
TORSDOF 11
ENDMDL
MODEL 5
REMARK VINA RESULT: -10.767928774      4.307     10.023
REMARK  11 active torsions:
REMARK  status: ('A' for Active; 'I' for Inactive)
REMARK    1  A    between atoms: C3_3  and  O1_4 
REMARK    2  A    between atoms: O1_4  and  C4_5 
REMARK       I    between atoms: C4_5  and  N1_7 
REMARK    3  A    between atoms: N1_7  and  C5_9 
REMARK    4  A    between atoms: C5_9  and  N2_10 
REMARK    5  A    between atoms: C5_9  and  C20_29 
REMARK       I    between atoms: N2_10  and  C6_12 
REMARK       I    between atoms: C6_12  and  N3_14 
REMARK    6  A    between atoms: N3_14  and  C7_16 
REMARK    7  A    between atoms: C7_16  and  C8_17 
REMARK       I    between atoms: C20_29  and  N4_31 
REMARK    8  A    between atoms: N4_31  and  C21_33 
REMARK    9  A    between atoms: C21_33  and  C22_34 
REMARK   10  A    between atoms: C21_33  and  C29_42 
REMARK   11  A    between atoms: C22_34  and  C23_35 
ROOT
HETATM    1  C5  UNL     1      -9.557 -26.084 -33.322  1.00  0.00     0.283 C 
ENDROOT
BRANCH   1   2
HETATM    2  N1  UNL     1     -10.225 -24.906 -33.736  1.00  0.00    -0.307 N 
HETATM    3  C4  UNL     1     -10.008 -23.605 -33.204  1.00  0.00     0.362 C 
HETATM    4  O2  UNL     1      -9.221 -23.314 -32.285  1.00  0.00    -0.238 OA
ATOM      5  H1  UNL     1     -10.920 -24.998 -34.478  1.00  0.00     0.167 HD
BRANCH   3   6
HETATM    6  O1  UNL     1     -10.742 -22.548 -33.754  1.00  0.00    -0.297 OA
BRANCH   6   7
HETATM    7  C3  UNL     1     -12.067 -22.289 -33.485  1.00  0.00     0.152 C 
HETATM    8  C2  UNL     1     -12.308 -21.959 -32.015  1.00  0.00     0.134 C 
HETATM    9  C1  UNL     1     -11.580 -20.749 -31.558  1.00  0.00     0.029 C 
HETATM   10  S1  UNL     1     -14.090 -21.709 -32.078  1.00  0.00     0.150 S 
HETATM   11  C36 UNL     1     -14.422 -22.581 -33.620  1.00  0.00     0.143 C 
HETATM   12  O5  UNL     1     -14.766 -22.322 -30.917  1.00  0.00    -0.227 OA
HETATM   13  O6  UNL     1     -14.379 -20.249 -32.256  1.00  0.00    -0.227 OA
HETATM   14  C35 UNL     1     -13.083 -23.321 -33.804  1.00  0.00     0.049 C 
ENDBRANCH   6   7
ENDBRANCH   3   6
ENDBRANCH   1   2
BRANCH   1  15
HETATM   15  N2  UNL     1      -9.556 -26.406 -31.902  1.00  0.00    -0.313 N 
HETATM   16  C6  UNL     1     -10.787 -26.325 -31.162  1.00  0.00     0.318 C 
HETATM   17  O3  UNL     1     -11.776 -25.995 -31.916  1.00  0.00    -0.247 OA
HETATM   18  N3  UNL     1     -10.996 -26.551 -29.812  1.00  0.00    -0.333 N 
ATOM     19  H3  UNL     1     -10.194 -26.809 -29.236  1.00  0.00     0.165 HD
ATOM     20  H2  UNL     1      -8.692 -26.686 -31.437  1.00  0.00     0.166 HD
BRANCH  18  21
HETATM   21  C7  UNL     1     -12.318 -26.438 -29.160  1.00  0.00     0.043 C 
HETATM   22  C14 UNL     1     -13.243 -25.760 -30.081  1.00  0.00     0.038 C 
HETATM   23  C15 UNL     1     -13.842 -25.045 -28.955  1.00  0.00     0.003 A 
HETATM   24  C16 UNL     1     -12.484 -25.288 -28.297  1.00  0.00     0.027 A 
HETATM   25  C17 UNL     1     -13.470 -24.402 -27.752  1.00  0.00    -0.037 A 
HETATM   26  C18 UNL     1     -13.432 -22.859 -27.930  1.00  0.00     0.015 C 
HETATM   27  C19 UNL     1     -13.915 -24.698 -26.332  1.00  0.00     0.015 C 
BRANCH  21  28
HETATM   28  C8  UNL     1     -12.627 -27.803 -28.672  1.00  0.00     0.014 C 
HETATM   29  C9  UNL     1     -14.034 -28.261 -28.593  1.00  0.00     0.007 C 
HETATM   30  C10 UNL     1     -13.980 -29.775 -28.293  1.00  0.00     0.000 C 
HETATM   31  C11 UNL     1     -13.482 -29.961 -26.897  1.00  0.00     0.000 C 
HETATM   32  C12 UNL     1     -12.115 -29.326 -26.777  1.00  0.00     0.000 C 
HETATM   33  C13 UNL     1     -12.097 -27.902 -27.226  1.00  0.00     0.007 C 
ENDBRANCH  21  28
ENDBRANCH  18  21
ENDBRANCH   1  15
BRANCH   1  34
HETATM   34  C20 UNL     1     -10.004 -27.256 -34.124  1.00  0.00     0.260 C 
HETATM   35  O4  UNL     1      -9.795 -28.384 -33.654  1.00  0.00    -0.269 OA
HETATM   36  N4  UNL     1     -10.633 -27.060 -35.373  1.00  0.00    -0.353 N 
ATOM     37  H4  UNL     1     -10.764 -26.108 -35.716  1.00  0.00     0.163 HD
BRANCH  36  38
HETATM   38  C21 UNL     1     -11.121 -28.216 -36.218  1.00  0.00     0.089 C 
BRANCH  38  39
HETATM   39  C22 UNL     1      -9.899 -28.563 -36.941  1.00  0.00     0.030 C 
BRANCH  39  40
HETATM   40  C23 UNL     1      -9.376 -29.824 -37.369  1.00  0.00    -0.010 C 
HETATM   41  C24 UNL     1      -8.607 -29.945 -38.656  1.00  0.00     0.024 C 
HETATM   42  C25 UNL     1      -7.621 -31.117 -38.405  1.00  0.00     0.117 C 
HETATM   43  N5  UNL     1      -8.430 -32.276 -38.236  1.00  0.00    -0.417 N 
HETATM   44  C26 UNL     1      -7.921 -33.217 -37.288  1.00  0.00     0.143 C 
HETATM   45  C27 UNL     1      -9.833 -32.116 -38.267  1.00  0.00     0.117 C 
HETATM   46  C28 UNL     1     -10.379 -30.985 -37.389  1.00  0.00     0.024 C 
ENDBRANCH  39  40
ENDBRANCH  38  39
BRANCH  38  47
HETATM   47  C29 UNL     1     -12.335 -27.709 -36.840  1.00  0.00     0.008 C 
HETATM   48  C30 UNL     1     -13.501 -27.338 -35.980  1.00  0.00     0.007 C 
HETATM   49  C31 UNL     1     -14.060 -25.953 -36.242  1.00  0.00     0.000 C 
HETATM   50  C32 UNL     1     -14.527 -25.896 -37.673  1.00  0.00     0.000 C 
HETATM   51  C33 UNL     1     -13.411 -26.364 -38.568  1.00  0.00     0.000 C 
HETATM   52  C34 UNL     1     -12.101 -26.484 -37.754  1.00  0.00     0.007 C 
ENDBRANCH  38  47
ENDBRANCH  36  38
ENDBRANCH   1  34
TORSDOF 11
ENDMDL
