MODEL 1
REMARK VINA RESULT: -11.606886144      0.000      0.000
REMARK  12 active torsions:
REMARK  status: ('A' for Active; 'I' for Inactive)
REMARK    1  A    between atoms: O1_2  and  C2_3 
REMARK       I    between atoms: C2_3  and  N1_5 
REMARK       I    between atoms: C3_7  and  N3_9 
REMARK    2  A    between atoms: C4_11  and  C5_12 
REMARK    3  A    between atoms: C4_11  and  C19_30 
REMARK       I    between atoms: C5_12  and  N4_14 
REMARK    4  A    between atoms: C11_21  and  C12_22 
REMARK    5  A    between atoms: C12_22  and  C13_23 
REMARK    6  A    between atoms: C19_30  and  N6_31 
REMARK    7  A    between atoms: C19_30  and  C32_49 
REMARK       I    between atoms: N6_31  and  C20_33 
REMARK    8  A    between atoms: C20_33  and  C21_35 
REMARK    9  A    between atoms: C21_35  and  C22_36 
REMARK   10  A    between atoms: C22_36  and  O6_37 
REMARK   11  A    between atoms: C22_36  and  C23_39 
REMARK   12  A    between atoms: C23_39  and  N7_40 
ROOT
HETATM    1  C2  UNL     1      -9.976 -28.570 -27.567  1.00  0.00     0.366 C 
HETATM    2  O2  UNL     1     -11.120 -29.036 -27.405  1.00  0.00    -0.238 OA
HETATM    3  N1  UNL     1      -9.739 -27.453 -28.400  1.00  0.00    -0.276 N 
ATOM      4  H1  UNL     1      -8.797 -27.062 -28.410  1.00  0.00     0.173 HD
HETATM    5  C3  UNL     1     -10.627 -26.891 -29.150  1.00  0.00     0.197 C 
HETATM    6  N2  UNL     1     -11.943 -27.484 -29.103  1.00  0.00    -0.063 NA
HETATM    7  N3  UNL     1     -10.403 -25.789 -29.963  1.00  0.00    -0.327 N 
ATOM      8  H3  UNL     1     -10.811 -24.909 -29.646  1.00  0.00     0.168 HD
HETATM    9  C4  UNL     1      -9.731 -25.739 -31.089  1.00  0.00     0.104 C 
ENDROOT
BRANCH   9  10
HETATM   10  C5  UNL     1      -9.694 -24.413 -31.691  1.00  0.00     0.284 C 
HETATM   11  O3  UNL     1      -8.977 -23.461 -31.217  1.00  0.00    -0.265 OA
HETATM   12  N4  UNL     1     -10.438 -24.076 -32.827  1.00  0.00    -0.257 N 
HETATM   13  C6  UNL     1     -10.290 -22.688 -33.279  1.00  0.00     0.180 C 
HETATM   14  N5  UNL     1     -11.250 -24.995 -33.461  1.00  0.00    -0.128 NA
HETATM   15  C7  UNL     1     -11.704 -22.138 -33.361  1.00  0.00     0.141 C 
HETATM   16  C8  UNL     1     -12.518 -22.538 -32.164  1.00  0.00     0.035 C 
HETATM   17  O4  UNL     1     -12.223 -22.419 -34.570  1.00  0.00    -0.377 OA
HETATM   18  C9  UNL     1     -13.158 -23.867 -32.368  1.00  0.00     0.028 C 
HETATM   19  C10 UNL     1     -12.614 -24.545 -33.616  1.00  0.00     0.128 C 
HETATM   20  C11 UNL     1     -12.848 -23.626 -34.778  1.00  0.00     0.143 C 
BRANCH  20  21
HETATM   21  C12 UNL     1     -12.364 -24.168 -36.092  1.00  0.00     0.038 C 
BRANCH  21  22
HETATM   22  C13 UNL     1     -13.245 -24.050 -37.254  1.00  0.00    -0.012 C 
HETATM   23  C14 UNL     1     -14.107 -25.296 -37.390  1.00  0.00     0.005 C 
HETATM   24  C15 UNL     1     -13.315 -26.479 -37.880  1.00  0.00     0.000 C 
HETATM   25  C16 UNL     1     -12.772 -26.141 -39.251  1.00  0.00     0.000 C 
HETATM   26  C17 UNL     1     -11.801 -24.992 -39.073  1.00  0.00     0.000 C 
HETATM   27  C18 UNL     1     -12.612 -23.814 -38.579  1.00  0.00     0.005 C 
ENDBRANCH  21  22
ENDBRANCH  20  21
ENDBRANCH   9  10
BRANCH   9  28
HETATM   28  C19 UNL     1      -9.099 -26.959 -31.543  1.00  0.00     0.144 C 
BRANCH  28  29
HETATM   29  N6  UNL     1      -9.256 -27.071 -32.988  1.00  0.00    -0.350 N 
HETATM   30  C20 UNL     1      -9.433 -28.250 -33.699  1.00  0.00     0.220 C 
HETATM   31  O5  UNL     1      -9.483 -29.353 -33.152  1.00  0.00    -0.274 OA
ATOM     32  H6  UNL     1      -9.233 -26.204 -33.526  1.00  0.00     0.163 HD
BRANCH  30  33
HETATM   33  C21 UNL     1      -9.571 -28.222 -35.201  1.00  0.00     0.136 C 
BRANCH  33  34
HETATM   34  C22 UNL     1      -9.996 -29.537 -35.729  1.00  0.00     0.155 C 
BRANCH  34  35
HETATM   35  O6  UNL     1     -11.280 -29.907 -35.367  1.00  0.00    -0.393 OA
ATOM     36  H6  UNL     1     -11.318 -30.619 -34.739  1.00  0.00     0.210 HD
ENDBRANCH  34  35
BRANCH  34  37
HETATM   37  C23 UNL     1      -9.768 -29.746 -37.179  1.00  0.00     0.304 C 
BRANCH  37  38
HETATM   38  N7  UNL     1      -8.760 -30.633 -37.557  1.00  0.00     0.091 N 
HETATM   39  C24 UNL     1      -9.229 -31.637 -38.538  1.00  0.00     0.277 C 
HETATM   40  C25 UNL     1      -8.016 -32.517 -38.690  1.00  0.00     0.020 C 
HETATM   41  C26 UNL     1      -8.281 -33.913 -39.152  1.00  0.00     0.007 C 
HETATM   42  C30 UNL     1      -7.582 -32.624 -37.242  1.00  0.00     0.020 C 
HETATM   43  C27 UNL     1      -7.136 -34.767 -38.593  1.00  0.00     0.000 C 
HETATM   44  C28 UNL     1      -5.893 -33.909 -38.401  1.00  0.00     0.000 C 
HETATM   45  C29 UNL     1      -6.089 -32.869 -37.291  1.00  0.00     0.007 C 
HETATM   46  C31 UNL     1      -7.999 -31.351 -36.611  1.00  0.00     0.277 C 
ENDBRANCH  37  38
ENDBRANCH  34  37
ENDBRANCH  33  34
ENDBRANCH  30  33
ENDBRANCH  28  29
BRANCH  28  47
HETATM   47  C32 UNL     1      -7.711 -27.144 -31.086  1.00  0.00     0.014 C 
HETATM   48  C33 UNL     1      -7.358 -28.613 -30.865  1.00  0.00     0.007 C 
HETATM   49  C34 UNL     1      -6.425 -28.648 -29.646  1.00  0.00     0.000 C 
HETATM   50  C35 UNL     1      -5.501 -27.463 -29.762  1.00  0.00     0.000 C 
HETATM   51  C36 UNL     1      -5.284 -27.053 -31.196  1.00  0.00     0.000 C 
HETATM   52  C37 UNL     1      -6.592 -26.540 -31.842  1.00  0.00     0.007 C 
ENDBRANCH  28  47
ENDBRANCH   9  28
BRANCH   1  53
HETATM   53  O1  UNL     1      -8.921 -29.189 -26.891  1.00  0.00    -0.309 OA
HETATM   54  C1  UNL     1      -9.192 -30.072 -25.794  1.00  0.00     0.215 C 
ENDBRANCH   1  53
TORSDOF 12
ENDMDL
MODEL 2
REMARK VINA RESULT: -11.310842395      0.811      1.135
REMARK  12 active torsions:
REMARK  status: ('A' for Active; 'I' for Inactive)
REMARK    1  A    between atoms: O1_2  and  C2_3 
REMARK       I    between atoms: C2_3  and  N1_5 
REMARK       I    between atoms: C3_7  and  N3_9 
REMARK    2  A    between atoms: C4_11  and  C5_12 
REMARK    3  A    between atoms: C4_11  and  C19_30 
REMARK       I    between atoms: C5_12  and  N4_14 
REMARK    4  A    between atoms: C11_21  and  C12_22 
REMARK    5  A    between atoms: C12_22  and  C13_23 
REMARK    6  A    between atoms: C19_30  and  N6_31 
REMARK    7  A    between atoms: C19_30  and  C32_49 
REMARK       I    between atoms: N6_31  and  C20_33 
REMARK    8  A    between atoms: C20_33  and  C21_35 
REMARK    9  A    between atoms: C21_35  and  C22_36 
REMARK   10  A    between atoms: C22_36  and  O6_37 
REMARK   11  A    between atoms: C22_36  and  C23_39 
REMARK   12  A    between atoms: C23_39  and  N7_40 
ROOT
HETATM    1  C2  UNL     1     -11.339 -28.353 -27.877  1.00  0.00     0.366 C 
HETATM    2  O2  UNL     1     -12.570 -28.539 -27.846  1.00  0.00    -0.238 OA
HETATM    3  N1  UNL     1     -10.756 -27.363 -28.702  1.00  0.00    -0.276 N 
ATOM      4  H1  UNL     1      -9.754 -27.196 -28.605  1.00  0.00     0.173 HD
HETATM    5  C3  UNL     1     -11.399 -26.654 -29.569  1.00  0.00     0.197 C 
HETATM    6  N2  UNL     1     -12.813 -26.930 -29.669  1.00  0.00    -0.063 NA
HETATM    7  N3  UNL     1     -10.835 -25.675 -30.373  1.00  0.00    -0.327 N 
ATOM      8  H3  UNL     1     -11.062 -24.710 -30.130  1.00  0.00     0.168 HD
HETATM    9  C4  UNL     1     -10.046 -25.837 -31.409  1.00  0.00     0.104 C 
ENDROOT
BRANCH   9  10
HETATM   10  C5  UNL     1      -9.635 -24.586 -32.034  1.00  0.00     0.284 C 
HETATM   11  O3  UNL     1      -8.727 -23.831 -31.532  1.00  0.00    -0.265 OA
HETATM   12  N4  UNL     1     -10.199 -24.113 -33.223  1.00  0.00    -0.257 N 
HETATM   13  C6  UNL     1      -9.674 -22.825 -33.692  1.00  0.00     0.180 C 
HETATM   14  N5  UNL     1     -11.180 -24.817 -33.891  1.00  0.00    -0.128 NA
HETATM   15  C7  UNL     1     -10.893 -21.937 -33.879  1.00  0.00     0.141 C 
HETATM   16  C8  UNL     1     -11.851 -22.074 -32.731  1.00  0.00     0.035 C 
HETATM   17  O4  UNL     1     -11.394 -22.121 -35.114  1.00  0.00    -0.377 OA
HETATM   18  C9  UNL     1     -12.797 -23.202 -32.950  1.00  0.00     0.028 C 
HETATM   19  C10 UNL     1     -12.372 -24.041 -34.145  1.00  0.00     0.128 C 
HETATM   20  C11 UNL     1     -12.293 -23.136 -35.339  1.00  0.00     0.143 C 
BRANCH  20  21
HETATM   21  C12 UNL     1     -11.887 -23.830 -36.607  1.00  0.00     0.038 C 
BRANCH  21  22
HETATM   22  C13 UNL     1     -12.808 -23.788 -37.742  1.00  0.00    -0.012 C 
HETATM   23  C14 UNL     1     -14.190 -24.261 -37.317  1.00  0.00     0.005 C 
HETATM   24  C15 UNL     1     -14.234 -25.751 -37.100  1.00  0.00     0.000 C 
HETATM   25  C16 UNL     1     -13.900 -26.423 -38.414  1.00  0.00     0.000 C 
HETATM   26  C17 UNL     1     -12.466 -26.059 -38.746  1.00  0.00     0.000 C 
HETATM   27  C18 UNL     1     -12.440 -24.562 -38.958  1.00  0.00     0.005 C 
ENDBRANCH  21  22
ENDBRANCH  20  21
ENDBRANCH   9  10
BRANCH   9  28
HETATM   28  C19 UNL     1      -9.665 -27.189 -31.753  1.00  0.00     0.144 C 
BRANCH  28  29
HETATM   29  N6  UNL     1     -10.003 -27.443 -33.147  1.00  0.00    -0.350 N 
HETATM   30  C20 UNL     1      -9.184 -28.057 -34.086  1.00  0.00     0.220 C 
HETATM   31  O5  UNL     1      -8.053 -28.465 -33.813  1.00  0.00    -0.274 OA
ATOM     32  H6  UNL     1     -10.926 -27.143 -33.463  1.00  0.00     0.163 HD
BRANCH  30  33
HETATM   33  C21 UNL     1      -9.657 -28.247 -35.505  1.00  0.00     0.136 C 
BRANCH  33  34
HETATM   34  C22 UNL     1     -10.148 -29.623 -35.731  1.00  0.00     0.155 C 
BRANCH  34  35
HETATM   35  O6  UNL     1     -11.352 -29.908 -35.110  1.00  0.00    -0.393 OA
ATOM     36  H6  UNL     1     -11.326 -30.665 -34.536  1.00  0.00     0.210 HD
ENDBRANCH  34  35
BRANCH  34  37
HETATM   37  C23 UNL     1     -10.156 -30.074 -37.143  1.00  0.00     0.304 C 
BRANCH  37  38
HETATM   38  N7  UNL     1      -9.092 -30.863 -37.579  1.00  0.00     0.091 N 
HETATM   39  C24 UNL     1      -9.537 -32.004 -38.410  1.00  0.00     0.277 C 
HETATM   40  C25 UNL     1      -8.246 -32.741 -38.650  1.00  0.00     0.020 C 
HETATM   41  C26 UNL     1      -8.376 -34.195 -38.964  1.00  0.00     0.007 C 
HETATM   42  C30 UNL     1      -7.631 -32.658 -37.268  1.00  0.00     0.020 C 
HETATM   43  C27 UNL     1      -7.070 -34.847 -38.495  1.00  0.00     0.000 C 
HETATM   44  C28 UNL     1      -5.937 -33.830 -38.534  1.00  0.00     0.000 C 
HETATM   45  C29 UNL     1      -6.135 -32.723 -37.492  1.00  0.00     0.007 C 
HETATM   46  C31 UNL     1      -8.135 -31.392 -36.688  1.00  0.00     0.277 C 
ENDBRANCH  37  38
ENDBRANCH  34  37
ENDBRANCH  33  34
ENDBRANCH  30  33
ENDBRANCH  28  29
BRANCH  28  47
HETATM   47  C32 UNL     1      -8.278 -27.547 -31.410  1.00  0.00     0.014 C 
HETATM   48  C33 UNL     1      -7.536 -26.412 -30.707  1.00  0.00     0.007 C 
HETATM   49  C34 UNL     1      -6.087 -26.474 -31.211  1.00  0.00     0.000 C 
HETATM   50  C35 UNL     1      -5.712 -27.931 -31.304  1.00  0.00     0.000 C 
HETATM   51  C36 UNL     1      -6.483 -28.776 -30.324  1.00  0.00     0.000 C 
HETATM   52  C37 UNL     1      -7.995 -28.784 -30.648  1.00  0.00     0.007 C 
ENDBRANCH  28  47
ENDBRANCH   9  28
BRANCH   1  53
HETATM   53  O1  UNL     1     -10.539 -29.159 -27.062  1.00  0.00    -0.309 OA
HETATM   54  C1  UNL     1      -9.117 -29.179 -27.246  1.00  0.00     0.215 C 
ENDBRANCH   1  53
TORSDOF 12
ENDMDL
MODEL 3
REMARK VINA RESULT: -11.300845981      4.178      6.980
REMARK  12 active torsions:
REMARK  status: ('A' for Active; 'I' for Inactive)
REMARK    1  A    between atoms: O1_2  and  C2_3 
REMARK       I    between atoms: C2_3  and  N1_5 
REMARK       I    between atoms: C3_7  and  N3_9 
REMARK    2  A    between atoms: C4_11  and  C5_12 
REMARK    3  A    between atoms: C4_11  and  C19_30 
REMARK       I    between atoms: C5_12  and  N4_14 
REMARK    4  A    between atoms: C11_21  and  C12_22 
REMARK    5  A    between atoms: C12_22  and  C13_23 
REMARK    6  A    between atoms: C19_30  and  N6_31 
REMARK    7  A    between atoms: C19_30  and  C32_49 
REMARK       I    between atoms: N6_31  and  C20_33 
REMARK    8  A    between atoms: C20_33  and  C21_35 
REMARK    9  A    between atoms: C21_35  and  C22_36 
REMARK   10  A    between atoms: C22_36  and  O6_37 
REMARK   11  A    between atoms: C22_36  and  C23_39 
REMARK   12  A    between atoms: C23_39  and  N7_40 
ROOT
HETATM    1  C2  UNL     1     -15.099 -27.396 -28.905  1.00  0.00     0.366 C 
HETATM    2  O2  UNL     1     -14.676 -28.360 -28.239  1.00  0.00    -0.238 OA
HETATM    3  N1  UNL     1     -14.231 -26.579 -29.666  1.00  0.00    -0.276 N 
ATOM      4  H1  UNL     1     -14.654 -25.870 -30.266  1.00  0.00     0.173 HD
HETATM    5  C3  UNL     1     -12.942 -26.664 -29.657  1.00  0.00     0.197 C 
HETATM    6  N2  UNL     1     -12.394 -27.680 -28.790  1.00  0.00    -0.063 NA
HETATM    7  N3  UNL     1     -12.086 -25.872 -30.408  1.00  0.00    -0.327 N 
ATOM      8  H3  UNL     1     -11.631 -26.329 -31.198  1.00  0.00     0.168 HD
HETATM    9  C4  UNL     1     -11.790 -24.606 -30.227  1.00  0.00     0.104 C 
ENDROOT
BRANCH   9  10
HETATM   10  C5  UNL     1     -10.846 -24.080 -31.204  1.00  0.00     0.284 C 
HETATM   11  O3  UNL     1      -9.652 -23.732 -30.889  1.00  0.00    -0.265 OA
HETATM   12  N4  UNL     1     -11.169 -23.910 -32.554  1.00  0.00    -0.257 N 
HETATM   13  C6  UNL     1     -10.098 -23.348 -33.385  1.00  0.00     0.180 C 
HETATM   14  N5  UNL     1     -12.411 -24.248 -33.051  1.00  0.00    -0.128 NA
HETATM   15  C7  UNL     1     -10.713 -22.139 -34.071  1.00  0.00     0.141 C 
HETATM   16  C8  UNL     1     -11.534 -21.324 -33.114  1.00  0.00     0.035 C 
HETATM   17  O4  UNL     1     -11.315 -22.530 -35.209  1.00  0.00    -0.377 OA
HETATM   18  C9  UNL     1     -12.931 -21.832 -33.036  1.00  0.00     0.028 C 
HETATM   19  C10 UNL     1     -13.063 -23.167 -33.753  1.00  0.00     0.128 C 
HETATM   20  C11 UNL     1     -12.616 -22.974 -35.172  1.00  0.00     0.143 C 
BRANCH  20  21
HETATM   21  C12 UNL     1     -12.696 -24.216 -36.012  1.00  0.00     0.038 C 
BRANCH  21  22
HETATM   22  C13 UNL     1     -13.415 -24.144 -37.284  1.00  0.00    -0.012 C 
HETATM   23  C14 UNL     1     -14.202 -25.425 -37.517  1.00  0.00     0.005 C 
HETATM   24  C15 UNL     1     -13.305 -26.579 -37.879  1.00  0.00     0.000 C 
HETATM   25  C16 UNL     1     -12.595 -26.231 -39.169  1.00  0.00     0.000 C 
HETATM   26  C17 UNL     1     -11.702 -25.041 -38.877  1.00  0.00     0.000 C 
HETATM   27  C18 UNL     1     -12.618 -23.894 -38.514  1.00  0.00     0.005 C 
ENDBRANCH  21  22
ENDBRANCH  20  21
ENDBRANCH   9  10
BRANCH   9  28
HETATM   28  C19 UNL     1     -12.455 -23.913 -29.146  1.00  0.00     0.144 C 
BRANCH  28  29
HETATM   29  N6  UNL     1     -11.942 -24.406 -27.874  1.00  0.00    -0.350 N 
HETATM   30  C20 UNL     1     -12.708 -24.837 -26.798  1.00  0.00     0.220 C 
HETATM   31  O5  UNL     1     -13.940 -24.848 -26.824  1.00  0.00    -0.274 OA
ATOM     32  H6  UNL     1     -10.928 -24.437 -27.763  1.00  0.00     0.163 HD
BRANCH  30  33
HETATM   33  C21 UNL     1     -12.044 -25.313 -25.531  1.00  0.00     0.136 C 
BRANCH  33  34
HETATM   34  C22 UNL     1     -10.597 -25.545 -25.732  1.00  0.00     0.155 C 
BRANCH  34  35
HETATM   35  O6  UNL     1      -9.791 -25.011 -24.742  1.00  0.00    -0.393 OA
ATOM     36  H6  UNL     1      -9.316 -24.232 -25.004  1.00  0.00     0.210 HD
ENDBRANCH  34  35
BRANCH  34  37
HETATM   37  C23 UNL     1     -10.213 -26.944 -26.039  1.00  0.00     0.304 C 
BRANCH  37  38
HETATM   38  N7  UNL     1      -9.776 -27.229 -27.333  1.00  0.00     0.091 N 
HETATM   39  C24 UNL     1      -9.178 -28.579 -27.443  1.00  0.00     0.277 C 
HETATM   40  C25 UNL     1      -8.699 -28.593 -28.871  1.00  0.00     0.020 C 
HETATM   41  C26 UNL     1      -7.584 -29.541 -29.171  1.00  0.00     0.007 C 
HETATM   42  C30 UNL     1      -8.110 -27.200 -28.969  1.00  0.00     0.020 C 
HETATM   43  C27 UNL     1      -6.829 -28.941 -30.364  1.00  0.00     0.000 C 
HETATM   44  C28 UNL     1      -7.771 -28.079 -31.195  1.00  0.00     0.000 C 
HETATM   45  C29 UNL     1      -8.214 -26.825 -30.432  1.00  0.00     0.007 C 
HETATM   46  C31 UNL     1      -8.909 -26.370 -28.039  1.00  0.00     0.277 C 
ENDBRANCH  37  38
ENDBRANCH  34  37
ENDBRANCH  33  34
ENDBRANCH  30  33
ENDBRANCH  28  29
BRANCH  28  47
HETATM   47  C32 UNL     1     -12.447 -22.444 -29.254  1.00  0.00     0.014 C 
HETATM   48  C33 UNL     1     -13.787 -21.821 -28.871  1.00  0.00     0.007 C 
HETATM   49  C34 UNL     1     -13.984 -20.623 -29.812  1.00  0.00     0.000 C 
HETATM   50  C35 UNL     1     -12.642 -19.955 -29.964  1.00  0.00     0.000 C 
HETATM   51  C36 UNL     1     -11.766 -20.163 -28.756  1.00  0.00     0.000 C 
HETATM   52  C37 UNL     1     -11.395 -21.654 -28.576  1.00  0.00     0.007 C 
ENDBRANCH  28  47
ENDBRANCH   9  28
BRANCH   1  53
HETATM   53  O1  UNL     1     -16.473 -27.144 -28.881  1.00  0.00    -0.309 OA
HETATM   54  C1  UNL     1     -17.397 -28.224 -28.693  1.00  0.00     0.215 C 
ENDBRANCH   1  53
TORSDOF 12
ENDMDL
MODEL 4
REMARK VINA RESULT: -10.887557278      2.861      7.788
REMARK  12 active torsions:
REMARK  status: ('A' for Active; 'I' for Inactive)
REMARK    1  A    between atoms: O1_2  and  C2_3 
REMARK       I    between atoms: C2_3  and  N1_5 
REMARK       I    between atoms: C3_7  and  N3_9 
REMARK    2  A    between atoms: C4_11  and  C5_12 
REMARK    3  A    between atoms: C4_11  and  C19_30 
REMARK       I    between atoms: C5_12  and  N4_14 
REMARK    4  A    between atoms: C11_21  and  C12_22 
REMARK    5  A    between atoms: C12_22  and  C13_23 
REMARK    6  A    between atoms: C19_30  and  N6_31 
REMARK    7  A    between atoms: C19_30  and  C32_49 
REMARK       I    between atoms: N6_31  and  C20_33 
REMARK    8  A    between atoms: C20_33  and  C21_35 
REMARK    9  A    between atoms: C21_35  and  C22_36 
REMARK   10  A    between atoms: C22_36  and  O6_37 
REMARK   11  A    between atoms: C22_36  and  C23_39 
REMARK   12  A    between atoms: C23_39  and  N7_40 
ROOT
HETATM    1  C2  UNL     1     -10.702 -20.323 -29.879  1.00  0.00     0.366 C 
HETATM    2  O2  UNL     1     -10.669 -19.977 -31.075  1.00  0.00    -0.238 OA
HETATM    3  N1  UNL     1     -10.431 -21.653 -29.481  1.00  0.00    -0.276 N 
ATOM      4  H1  UNL     1     -10.377 -21.846 -28.481  1.00  0.00     0.173 HD
HETATM    5  C3  UNL     1     -10.248 -22.642 -30.291  1.00  0.00     0.197 C 
HETATM    6  N2  UNL     1     -10.337 -22.318 -31.696  1.00  0.00    -0.063 NA
HETATM    7  N3  UNL     1      -9.973 -23.946 -29.907  1.00  0.00    -0.327 N 
ATOM      8  H3  UNL     1      -9.017 -24.267 -30.063  1.00  0.00     0.168 HD
HETATM    9  C4  UNL     1     -10.791 -24.819 -29.368  1.00  0.00     0.104 C 
ENDROOT
BRANCH   9  10
HETATM   10  C5  UNL     1     -10.173 -26.109 -29.090  1.00  0.00     0.284 C 
HETATM   11  O3  UNL     1     -10.061 -26.577 -27.901  1.00  0.00    -0.265 OA
HETATM   12  N4  UNL     1      -9.652 -26.931 -30.094  1.00  0.00    -0.257 N 
HETATM   13  C6  UNL     1      -9.049 -28.183 -29.624  1.00  0.00     0.180 C 
HETATM   14  N5  UNL     1      -9.707 -26.572 -31.426  1.00  0.00    -0.128 NA
HETATM   15  C7  UNL     1      -7.646 -28.199 -30.208  1.00  0.00     0.141 C 
HETATM   16  C8  UNL     1      -6.983 -26.859 -30.077  1.00  0.00     0.035 C 
HETATM   17  O4  UNL     1      -7.682 -28.742 -31.439  1.00  0.00    -0.377 OA
HETATM   18  C9  UNL     1      -7.316 -25.977 -31.229  1.00  0.00     0.028 C 
HETATM   19  C10 UNL     1      -8.418 -26.590 -32.079  1.00  0.00     0.128 C 
HETATM   20  C11 UNL     1      -7.956 -27.946 -32.526  1.00  0.00     0.143 C 
BRANCH  20  21
HETATM   21  C12 UNL     1      -8.946 -28.677 -33.386  1.00  0.00     0.038 C 
BRANCH  21  22
HETATM   22  C13 UNL     1      -8.673 -28.778 -34.819  1.00  0.00    -0.012 C 
HETATM   23  C14 UNL     1      -9.213 -27.555 -35.545  1.00  0.00     0.005 C 
HETATM   24  C15 UNL     1     -10.715 -27.575 -35.643  1.00  0.00     0.000 C 
HETATM   25  C16 UNL     1     -11.115 -28.798 -36.439  1.00  0.00     0.000 C 
HETATM   26  C17 UNL     1     -10.700 -30.009 -35.628  1.00  0.00     0.000 C 
HETATM   27  C18 UNL     1      -9.191 -29.972 -35.539  1.00  0.00     0.005 C 
ENDBRANCH  21  22
ENDBRANCH  20  21
ENDBRANCH   9  10
BRANCH   9  28
HETATM   28  C19 UNL     1     -12.142 -24.383 -29.088  1.00  0.00     0.144 C 
BRANCH  28  29
HETATM   29  N6  UNL     1     -12.837 -24.139 -30.345  1.00  0.00    -0.350 N 
HETATM   30  C20 UNL     1     -13.626 -23.034 -30.639  1.00  0.00     0.220 C 
HETATM   31  O5  UNL     1     -13.812 -22.119 -29.835  1.00  0.00    -0.274 OA
ATOM     32  H6  UNL     1     -12.736 -24.844 -31.076  1.00  0.00     0.163 HD
BRANCH  30  33
HETATM   33  C21 UNL     1     -14.300 -22.914 -31.983  1.00  0.00     0.136 C 
BRANCH  33  34
HETATM   34  C22 UNL     1     -13.738 -21.797 -32.772  1.00  0.00     0.155 C 
BRANCH  34  35
HETATM   35  O6  UNL     1     -13.172 -20.790 -32.010  1.00  0.00    -0.393 OA
ATOM     36  H6  UNL     1     -13.656 -19.973 -32.020  1.00  0.00     0.210 HD
ENDBRANCH  34  35
BRANCH  34  37
HETATM   37  C23 UNL     1     -12.845 -22.190 -33.888  1.00  0.00     0.304 C 
BRANCH  37  38
HETATM   38  N7  UNL     1     -13.120 -23.386 -34.550  1.00  0.00     0.091 N 
HETATM   39  C24 UNL     1     -12.222 -23.614 -35.704  1.00  0.00     0.277 C 
HETATM   40  C25 UNL     1     -12.787 -24.878 -36.296  1.00  0.00     0.020 C 
HETATM   41  C26 UNL     1     -12.503 -25.099 -37.746  1.00  0.00     0.007 C 
HETATM   42  C30 UNL     1     -14.269 -24.582 -36.194  1.00  0.00     0.020 C 
HETATM   43  C27 UNL     1     -13.655 -25.963 -38.275  1.00  0.00     0.000 C 
HETATM   44  C28 UNL     1     -14.235 -26.804 -37.146  1.00  0.00     0.000 C 
HETATM   45  C29 UNL     1     -14.941 -25.935 -36.098  1.00  0.00     0.007 C 
HETATM   46  C31 UNL     1     -14.415 -23.711 -35.005  1.00  0.00     0.277 C 
ENDBRANCH  37  38
ENDBRANCH  34  37
ENDBRANCH  33  34
ENDBRANCH  30  33
ENDBRANCH  28  29
BRANCH  28  47
HETATM   47  C32 UNL     1     -12.891 -25.246 -28.159  1.00  0.00     0.014 C 
HETATM   48  C33 UNL     1     -13.521 -24.463 -27.010  1.00  0.00     0.007 C 
HETATM   49  C34 UNL     1     -13.426 -25.369 -25.774  1.00  0.00     0.000 C 
HETATM   50  C35 UNL     1     -13.722 -26.774 -26.231  1.00  0.00     0.000 C 
HETATM   51  C36 UNL     1     -14.620 -26.798 -27.441  1.00  0.00     0.000 C 
HETATM   52  C37 UNL     1     -13.928 -26.168 -28.673  1.00  0.00     0.007 C 
ENDBRANCH  28  47
ENDBRANCH   9  28
BRANCH   1  53
HETATM   53  O1  UNL     1     -11.015 -19.347 -28.929  1.00  0.00    -0.309 OA
HETATM   54  C1  UNL     1     -12.362 -18.871 -28.808  1.00  0.00     0.215 C 
ENDBRANCH   1  53
TORSDOF 12
ENDMDL
MODEL 5
REMARK VINA RESULT: -10.793605255      1.981      7.103
REMARK  12 active torsions:
REMARK  status: ('A' for Active; 'I' for Inactive)
REMARK    1  A    between atoms: O1_2  and  C2_3 
REMARK       I    between atoms: C2_3  and  N1_5 
REMARK       I    between atoms: C3_7  and  N3_9 
REMARK    2  A    between atoms: C4_11  and  C5_12 
REMARK    3  A    between atoms: C4_11  and  C19_30 
REMARK       I    between atoms: C5_12  and  N4_14 
REMARK    4  A    between atoms: C11_21  and  C12_22 
REMARK    5  A    between atoms: C12_22  and  C13_23 
REMARK    6  A    between atoms: C19_30  and  N6_31 
REMARK    7  A    between atoms: C19_30  and  C32_49 
REMARK       I    between atoms: N6_31  and  C20_33 
REMARK    8  A    between atoms: C20_33  and  C21_35 
REMARK    9  A    between atoms: C21_35  and  C22_36 
REMARK   10  A    between atoms: C22_36  and  O6_37 
REMARK   11  A    between atoms: C22_36  and  C23_39 
REMARK   12  A    between atoms: C23_39  and  N7_40 
ROOT
HETATM    1  C2  UNL     1      -9.726 -21.762 -35.151  1.00  0.00     0.366 C 
HETATM    2  O2  UNL     1      -8.593 -21.629 -34.650  1.00  0.00    -0.238 OA
HETATM    3  N1  UNL     1     -10.726 -22.549 -34.533  1.00  0.00    -0.276 N 
ATOM      4  H1  UNL     1     -11.660 -22.535 -34.943  1.00  0.00     0.173 HD
HETATM    5  C3  UNL     1     -10.543 -23.286 -33.488  1.00  0.00     0.197 C 
HETATM    6  N2  UNL     1      -9.203 -23.274 -32.948  1.00  0.00    -0.063 NA
HETATM    7  N3  UNL     1     -11.521 -24.053 -32.872  1.00  0.00    -0.327 N 
ATOM      8  H3  UNL     1     -11.863 -23.706 -31.976  1.00  0.00     0.168 HD
HETATM    9  C4  UNL     1     -12.061 -25.170 -33.301  1.00  0.00     0.104 C 
ENDROOT
BRANCH   9  10
HETATM   10  C5  UNL     1     -13.064 -25.720 -32.399  1.00  0.00     0.284 C 
HETATM   11  O3  UNL     1     -14.305 -25.801 -32.716  1.00  0.00    -0.265 OA
HETATM   12  N4  UNL     1     -12.754 -26.195 -31.121  1.00  0.00    -0.257 N 
HETATM   13  C6  UNL     1     -13.897 -26.694 -30.347  1.00  0.00     0.180 C 
HETATM   14  N5  UNL     1     -11.461 -26.186 -30.637  1.00  0.00    -0.128 NA
HETATM   15  C7  UNL     1     -13.857 -25.932 -29.033  1.00  0.00     0.141 C 
HETATM   16  C8  UNL     1     -13.577 -24.474 -29.253  1.00  0.00     0.035 C 
HETATM   17  O4  UNL     1     -13.058 -26.581 -28.166  1.00  0.00    -0.377 OA
HETATM   18  C9  UNL     1     -12.113 -24.208 -29.306  1.00  0.00     0.028 C 
HETATM   19  C10 UNL     1     -11.328 -25.509 -29.368  1.00  0.00     0.128 C 
HETATM   20  C11 UNL     1     -11.705 -26.332 -28.171  1.00  0.00     0.143 C 
BRANCH  20  21
HETATM   21  C12 UNL     1     -11.000 -27.655 -28.092  1.00  0.00     0.038 C 
BRANCH  21  22
HETATM   22  C13 UNL     1      -9.668 -27.692 -27.489  1.00  0.00    -0.012 C 
HETATM   23  C14 UNL     1      -8.657 -27.019 -28.405  1.00  0.00     0.005 C 
HETATM   24  C15 UNL     1      -8.337 -27.865 -29.609  1.00  0.00     0.000 C 
HETATM   25  C16 UNL     1      -7.727 -29.160 -29.120  1.00  0.00     0.000 C 
HETATM   26  C17 UNL     1      -8.799 -29.886 -28.333  1.00  0.00     0.000 C 
HETATM   27  C18 UNL     1      -9.109 -29.023 -27.130  1.00  0.00     0.005 C 
ENDBRANCH  21  22
ENDBRANCH  20  21
ENDBRANCH   9  10
BRANCH   9  28
HETATM   28  C19 UNL     1     -11.634 -25.664 -34.591  1.00  0.00     0.144 C 
BRANCH  28  29
HETATM   29  N6  UNL     1     -11.168 -27.038 -34.448  1.00  0.00    -0.350 N 
HETATM   30  C20 UNL     1      -9.860 -27.434 -34.205  1.00  0.00     0.220 C 
HETATM   31  O5  UNL     1      -8.936 -26.628 -34.077  1.00  0.00    -0.274 OA
ATOM     32  H6  UNL     1     -11.868 -27.776 -34.534  1.00  0.00     0.163 HD
BRANCH  30  33
HETATM   33  C21 UNL     1      -9.514 -28.897 -34.091  1.00  0.00     0.136 C 
BRANCH  33  34
HETATM   34  C22 UNL     1     -10.093 -29.679 -35.205  1.00  0.00     0.155 C 
BRANCH  34  35
HETATM   35  O6  UNL     1     -11.476 -29.709 -35.220  1.00  0.00    -0.393 OA
ATOM     36  H6  UNL     1     -11.846 -30.388 -35.772  1.00  0.00     0.210 HD
ENDBRANCH  34  35
BRANCH  34  37
HETATM   37  C23 UNL     1      -9.550 -29.371 -36.550  1.00  0.00     0.304 C 
BRANCH  37  38
HETATM   38  N7  UNL     1      -8.703 -30.310 -37.139  1.00  0.00     0.091 N 
HETATM   39  C24 UNL     1      -9.431 -31.258 -38.012  1.00  0.00     0.277 C 
HETATM   40  C25 UNL     1      -8.339 -32.209 -38.424  1.00  0.00     0.020 C 
HETATM   41  C26 UNL     1      -8.786 -33.573 -38.836  1.00  0.00     0.007 C 
HETATM   42  C30 UNL     1      -7.621 -32.379 -37.100  1.00  0.00     0.020 C 
HETATM   43  C27 UNL     1      -7.610 -34.511 -38.538  1.00  0.00     0.000 C 
HETATM   44  C28 UNL     1      -6.299 -33.738 -38.600  1.00  0.00     0.000 C 
HETATM   45  C29 UNL     1      -6.190 -32.716 -37.462  1.00  0.00     0.007 C 
HETATM   46  C31 UNL     1      -7.813 -31.099 -36.381  1.00  0.00     0.277 C 
ENDBRANCH  37  38
ENDBRANCH  34  37
ENDBRANCH  33  34
ENDBRANCH  30  33
ENDBRANCH  28  29
BRANCH  28  47
HETATM   47  C32 UNL     1     -12.612 -25.485 -35.677  1.00  0.00     0.014 C 
HETATM   48  C33 UNL     1     -13.440 -26.743 -35.934  1.00  0.00     0.007 C 
HETATM   49  C34 UNL     1     -13.665 -26.802 -37.452  1.00  0.00     0.000 C 
HETATM   50  C35 UNL     1     -13.924 -25.392 -37.916  1.00  0.00     0.000 C 
HETATM   51  C36 UNL     1     -14.534 -24.543 -36.831  1.00  0.00     0.000 C 
HETATM   52  C37 UNL     1     -13.557 -24.347 -35.649  1.00  0.00     0.007 C 
ENDBRANCH  28  47
ENDBRANCH   9  28
BRANCH   1  53
HETATM   53  O1  UNL     1      -9.986 -21.100 -36.354  1.00  0.00    -0.309 OA
HETATM   54  C1  UNL     1      -9.231 -19.934 -36.707  1.00  0.00     0.215 C 
ENDBRANCH   1  53
TORSDOF 12
ENDMDL
