MODEL 1
REMARK VINA RESULT: -6.146188961      0.000      0.000
REMARK  10 active torsions:
REMARK  status: ('A' for Active; 'I' for Inactive)
REMARK    1  A    between atoms: N1_2  and  C2_3 
REMARK    2  A    between atoms: N1_2  and  C11_35 
REMARK    3  A    between atoms: C2_3  and  C3_4 
REMARK    4  A    between atoms: N2_5  and  C4_7 
REMARK    5  A    between atoms: C5_10  and  N4_11 
REMARK    6  A    between atoms: C7_17  and  N6_18 
REMARK       I    between atoms: N6_18  and  C8_20 
REMARK       I    between atoms: C8_20  and  N7_21 
REMARK       I    between atoms: C8_20  and  N8_25 
REMARK    7  A    between atoms: C11_35  and  C12_36 
REMARK    8  A    between atoms: C12_36  and  C13_38 
REMARK    9  A    between atoms: C13_38  and  O1_39 
REMARK   10  A    between atoms: C13_38  and  O2_41 
ROOT
HETATM    1  C4  UNL     1      22.276   0.172  19.928  1.00  0.00     0.150 A 
HETATM    2  N3  UNL     1      21.063  -0.014  19.405  1.00  0.00    -0.174 N 
ATOM      3  H3  UNL     1      20.539  -0.845  19.681  1.00  0.00     0.186 HD
HETATM    4  C5  UNL     1      20.484   0.854  18.513  1.00  0.00     0.678 A 
HETATM    5  N5  UNL     1      21.119   1.966  18.106  1.00  0.00    -0.186 N 
ATOM      6  H5  UNL     1      20.680   2.604  17.442  1.00  0.00     0.184 HD
HETATM    7  C6  UNL     1      22.329   2.214  18.588  1.00  0.00     0.123 A 
HETATM    8  C7  UNL     1      22.957   3.369  18.158  1.00  0.00     0.135 A 
HETATM    9  N9  UNL     1      24.176   3.614  18.653  1.00  0.00    -0.337 N 
ATOM     10  H9  UNL     1      24.677   4.454  18.364  1.00  0.00     0.168 HD
HETATM   11  C9  UNL     1      24.760   2.752  19.544  1.00  0.00     0.182 A 
HETATM   12  N10 UNL     1      24.134   1.625  19.956  1.00  0.00    -0.347 N 
ATOM     13  H10 UNL     1      24.585   0.994  20.619  1.00  0.00     0.167 HD
HETATM   14  C10 UNL     1      22.919   1.351  19.483  1.00  0.00     0.109 A 
ENDROOT
BRANCH   1  15
HETATM   15  N2  UNL     1      22.861  -0.557  20.727  1.00  0.00    -0.352 N 
HETATM   16  C3  UNL     1      23.490  -1.749  20.943  1.00  0.00     0.077 C 
ATOM     17  H2  UNL     1      22.888  -0.051  21.612  1.00  0.00     0.166 HD
BRANCH  16  18
HETATM   18  C2  UNL     1      24.456  -2.279  19.886  1.00  0.00     0.139 C 
BRANCH  18  19
HETATM   19  N1  UNL     1      23.752  -3.132  18.948  1.00  0.00    -0.290 NA
HETATM   20  C1  UNL     1      22.872  -4.014  19.607  1.00  0.00     0.116 C 
BRANCH  19  21
HETATM   21  C11 UNL     1      24.570  -3.660  17.954  1.00  0.00     0.086 C 
BRANCH  21  22
HETATM   22  C12 UNL     1      24.347  -3.400  16.527  1.00  0.00     0.088 C 
HETATM   23  N11 UNL     1      24.050  -2.030  16.151  1.00  0.00    -0.101 NA
BRANCH  22  24
HETATM   24  C13 UNL     1      23.498  -4.378  15.800  1.00  0.00     0.303 C 
BRANCH  24  25
HETATM   25  O1  UNL     1      22.140  -4.104  15.808  1.00  0.00    -0.366 OA
ATOM     26  H1  UNL     1      21.629  -4.604  16.432  1.00  0.00     0.213 HD
ENDBRANCH  24  25
BRANCH  24  27
HETATM   27  O2  UNL     1      23.854  -4.384  14.420  1.00  0.00    -0.366 OA
ATOM     28  H2  UNL     1      24.055  -5.272  14.149  1.00  0.00     0.213 HD
ENDBRANCH  24  27
ENDBRANCH  22  24
ENDBRANCH  21  22
ENDBRANCH  19  21
ENDBRANCH  18  19
ENDBRANCH  16  18
ENDBRANCH   1  15
BRANCH   4  29
HETATM   29  N4  UNL     1      19.304   0.633  18.023  1.00  0.00    -0.234 N 
ATOM     30  H42 UNL     1      18.623   0.184  18.635  1.00  0.00     0.174 HD
ATOM     31  H41 UNL     1      19.065   0.901  17.068  1.00  0.00     0.174 HD
ENDBRANCH   4  29
BRANCH   8  32
HETATM   32  N6  UNL     1      22.413   4.164  17.328  1.00  0.00    -0.325 N 
HETATM   33  C8  UNL     1      22.798   4.491  16.004  1.00  0.00     0.481 C 
HETATM   34  N7  UNL     1      22.695   3.309  15.169  1.00  0.00    -0.033 N 
HETATM   35  N8  UNL     1      24.104   5.111  15.916  1.00  0.00    -0.033 N 
ATOM     36  H73 UNL     1      23.227   2.523  15.544  1.00  0.00     0.278 HD
ATOM     37  H72 UNL     1      21.768   2.887  15.209  1.00  0.00     0.278 HD
ATOM     38  H71 UNL     1      22.972   3.544  14.216  1.00  0.00     0.278 HD
ATOM     39  H83 UNL     1      24.155   5.932  16.519  1.00  0.00     0.278 HD
ATOM     40  H82 UNL     1      24.812   4.528  16.363  1.00  0.00     0.278 HD
ATOM     41  H81 UNL     1      24.381   5.346  14.963  1.00  0.00     0.278 HD
ATOM     42  H6  UNL     1      21.575   4.637  17.665  1.00  0.00     0.165 HD
ENDBRANCH   8  32
TORSDOF 10
ENDMDL
MODEL 2
REMARK VINA RESULT: -5.817318372      3.215      6.032
REMARK  10 active torsions:
REMARK  status: ('A' for Active; 'I' for Inactive)
REMARK    1  A    between atoms: N1_2  and  C2_3 
REMARK    2  A    between atoms: N1_2  and  C11_35 
REMARK    3  A    between atoms: C2_3  and  C3_4 
REMARK    4  A    between atoms: N2_5  and  C4_7 
REMARK    5  A    between atoms: C5_10  and  N4_11 
REMARK    6  A    between atoms: C7_17  and  N6_18 
REMARK       I    between atoms: N6_18  and  C8_20 
REMARK       I    between atoms: C8_20  and  N7_21 
REMARK       I    between atoms: C8_20  and  N8_25 
REMARK    7  A    between atoms: C11_35  and  C12_36 
REMARK    8  A    between atoms: C12_36  and  C13_38 
REMARK    9  A    between atoms: C13_38  and  O1_39 
REMARK   10  A    between atoms: C13_38  and  O2_41 
ROOT
HETATM    1  C4  UNL     1      23.487   4.386  15.506  1.00  0.00     0.150 A 
HETATM    2  N3  UNL     1      23.365   3.608  14.430  1.00  0.00    -0.174 N 
ATOM      3  H3  UNL     1      23.191   2.612  14.569  1.00  0.00     0.186 HD
HETATM    4  C5  UNL     1      23.462   4.077  13.144  1.00  0.00     0.678 A 
HETATM    5  N5  UNL     1      23.690   5.376  12.888  1.00  0.00    -0.186 N 
ATOM      6  H5  UNL     1      23.761   5.715  11.928  1.00  0.00     0.184 HD
HETATM    7  C6  UNL     1      23.821   6.207  13.912  1.00  0.00     0.123 A 
HETATM    8  C7  UNL     1      24.048   7.541  13.622  1.00  0.00     0.135 A 
HETATM    9  N9  UNL     1      24.174   8.373  14.663  1.00  0.00    -0.337 N 
ATOM     10  H9  UNL     1      24.342   9.365  14.496  1.00  0.00     0.168 HD
HETATM   11  C9  UNL     1      24.078   7.911  15.949  1.00  0.00     0.182 A 
HETATM   12  N10 UNL     1      23.855   6.603  16.219  1.00  0.00    -0.347 N 
ATOM     13  H10 UNL     1      23.788   6.278  17.184  1.00  0.00     0.167 HD
HETATM   14  C10 UNL     1      23.725   5.748  15.207  1.00  0.00     0.109 A 
ENDROOT
BRANCH   1  15
HETATM   15  N2  UNL     1      23.415   4.041  16.684  1.00  0.00    -0.352 N 
HETATM   16  C3  UNL     1      22.618   3.625  17.710  1.00  0.00     0.077 C 
ATOM     17  H2  UNL     1      24.364   4.086  17.056  1.00  0.00     0.166 HD
BRANCH  16  18
HETATM   18  C2  UNL     1      21.535   2.586  17.432  1.00  0.00     0.139 C 
BRANCH  18  19
HETATM   19  N1  UNL     1      21.679   1.459  18.333  1.00  0.00    -0.290 NA
HETATM   20  C1  UNL     1      20.459   1.136  18.961  1.00  0.00     0.116 C 
BRANCH  19  21
HETATM   21  C11 UNL     1      22.816   1.525  19.131  1.00  0.00     0.086 C 
BRANCH  21  22
HETATM   22  C12 UNL     1      23.899   0.537  19.048  1.00  0.00     0.088 C 
HETATM   23  N11 UNL     1      25.175   0.916  19.627  1.00  0.00    -0.101 NA
BRANCH  22  24
HETATM   24  C13 UNL     1      24.058  -0.162  17.747  1.00  0.00     0.303 C 
BRANCH  24  25
HETATM   25  O1  UNL     1      22.969  -0.917  17.344  1.00  0.00    -0.366 OA
ATOM     26  H1  UNL     1      22.164  -0.430  17.214  1.00  0.00     0.213 HD
ENDBRANCH  24  25
BRANCH  24  27
HETATM   27  O2  UNL     1      24.231   0.799  16.709  1.00  0.00    -0.366 OA
ATOM     28  H2  UNL     1      25.152   0.859  16.484  1.00  0.00     0.213 HD
ENDBRANCH  24  27
ENDBRANCH  22  24
ENDBRANCH  21  22
ENDBRANCH  19  21
ENDBRANCH  18  19
ENDBRANCH  16  18
ENDBRANCH   1  15
BRANCH   4  29
HETATM   29  N4  UNL     1      23.342   3.286  12.122  1.00  0.00    -0.234 N 
ATOM     30  H42 UNL     1      24.202   2.909  11.724  1.00  0.00     0.174 HD
ATOM     31  H41 UNL     1      22.428   3.048  11.737  1.00  0.00     0.174 HD
ENDBRANCH   4  29
BRANCH   8  32
HETATM   32  N6  UNL     1      24.140   7.965  12.427  1.00  0.00    -0.325 N 
HETATM   33  C8  UNL     1      25.271   8.451  11.725  1.00  0.00     0.481 C 
HETATM   34  N7  UNL     1      26.242   7.383  11.581  1.00  0.00    -0.033 N 
HETATM   35  N8  UNL     1      25.850   9.642  12.313  1.00  0.00    -0.033 N 
ATOM     36  H73 UNL     1      26.494   6.966  12.477  1.00  0.00     0.278 HD
ATOM     37  H72 UNL     1      25.843   6.554  11.143  1.00  0.00     0.278 HD
ATOM     38  H71 UNL     1      27.056   7.734  11.076  1.00  0.00     0.278 HD
ATOM     39  H83 UNL     1      25.146  10.373  12.413  1.00  0.00     0.278 HD
ATOM     40  H82 UNL     1      26.075   9.487  13.295  1.00  0.00     0.278 HD
ATOM     41  H81 UNL     1      26.664   9.993  11.808  1.00  0.00     0.278 HD
ATOM     42  H6  UNL     1      23.271   7.952  11.894  1.00  0.00     0.165 HD
ENDBRANCH   8  32
TORSDOF 10
ENDMDL
MODEL 3
REMARK VINA RESULT: -5.799323319      5.640      8.879
REMARK  10 active torsions:
REMARK  status: ('A' for Active; 'I' for Inactive)
REMARK    1  A    between atoms: N1_2  and  C2_3 
REMARK    2  A    between atoms: N1_2  and  C11_35 
REMARK    3  A    between atoms: C2_3  and  C3_4 
REMARK    4  A    between atoms: N2_5  and  C4_7 
REMARK    5  A    between atoms: C5_10  and  N4_11 
REMARK    6  A    between atoms: C7_17  and  N6_18 
REMARK       I    between atoms: N6_18  and  C8_20 
REMARK       I    between atoms: C8_20  and  N7_21 
REMARK       I    between atoms: C8_20  and  N8_25 
REMARK    7  A    between atoms: C11_35  and  C12_36 
REMARK    8  A    between atoms: C12_36  and  C13_38 
REMARK    9  A    between atoms: C13_38  and  O1_39 
REMARK   10  A    between atoms: C13_38  and  O2_41 
ROOT
HETATM    1  C4  UNL     1      24.208   7.352  14.000  1.00  0.00     0.150 A 
HETATM    2  N3  UNL     1      23.669   6.136  13.903  1.00  0.00    -0.174 N 
ATOM      3  H3  UNL     1      23.025   5.832  14.634  1.00  0.00     0.186 HD
HETATM    4  C5  UNL     1      23.938   5.271  12.871  1.00  0.00     0.678 A 
HETATM    5  N5  UNL     1      24.776   5.606  11.877  1.00  0.00    -0.186 N 
ATOM      6  H5  UNL     1      24.969   4.956  11.116  1.00  0.00     0.184 HD
HETATM    7  C6  UNL     1      25.347   6.802  11.909  1.00  0.00     0.123 A 
HETATM    8  C7  UNL     1      26.201   7.126  10.870  1.00  0.00     0.135 A 
HETATM    9  N9  UNL     1      26.768   8.337  10.908  1.00  0.00    -0.337 N 
ATOM     10  H9  UNL     1      27.405   8.618  10.163  1.00  0.00     0.168 HD
HETATM   11  C9  UNL     1      26.504   9.205  11.935  1.00  0.00     0.182 A 
HETATM   12  N10 UNL     1      25.667   8.876  12.946  1.00  0.00    -0.347 N 
ATOM     13  H10 UNL     1      25.484   9.536  13.703  1.00  0.00     0.167 HD
HETATM   14  C10 UNL     1      25.085   7.678  12.938  1.00  0.00     0.109 A 
ENDROOT
BRANCH   1  15
HETATM   15  N2  UNL     1      24.020   8.180  14.889  1.00  0.00    -0.352 N 
HETATM   16  C3  UNL     1      23.602   8.414  16.167  1.00  0.00     0.077 C 
ATOM     17  H2  UNL     1      24.297   9.083  14.506  1.00  0.00     0.166 HD
BRANCH  16  18
HETATM   18  C2  UNL     1      24.024   7.450  17.273  1.00  0.00     0.139 C 
BRANCH  18  19
HETATM   19  N1  UNL     1      23.055   6.379  17.401  1.00  0.00    -0.290 NA
HETATM   20  C1  UNL     1      21.895   6.807  18.078  1.00  0.00     0.116 C 
BRANCH  19  21
HETATM   21  C11 UNL     1      23.614   5.165  17.785  1.00  0.00     0.086 C 
BRANCH  21  22
HETATM   22  C12 UNL     1      23.819   4.057  16.844  1.00  0.00     0.088 C 
HETATM   23  N11 UNL     1      24.925   4.186  15.913  1.00  0.00    -0.101 NA
BRANCH  22  24
HETATM   24  C13 UNL     1      22.601   3.505  16.197  1.00  0.00     0.303 C 
BRANCH  24  25
HETATM   25  O1  UNL     1      21.867   4.410  15.449  1.00  0.00    -0.366 OA
ATOM     26  H1  UNL     1      21.610   4.109  14.586  1.00  0.00     0.213 HD
ENDBRANCH  24  25
BRANCH  24  27
HETATM   27  O2  UNL     1      22.976   2.492  15.267  1.00  0.00    -0.366 OA
ATOM     28  H2  UNL     1      22.278   1.851  15.198  1.00  0.00     0.213 HD
ENDBRANCH  24  27
ENDBRANCH  22  24
ENDBRANCH  21  22
ENDBRANCH  19  21
ENDBRANCH  18  19
ENDBRANCH  16  18
ENDBRANCH   1  15
BRANCH   4  29
HETATM   29  N4  UNL     1      23.397   4.093  12.817  1.00  0.00    -0.234 N 
ATOM     30  H42 UNL     1      22.558   3.940  13.377  1.00  0.00     0.174 HD
ATOM     31  H41 UNL     1      23.791   3.352  12.237  1.00  0.00     0.174 HD
ENDBRANCH   4  29
BRANCH   8  32
HETATM   32  N6  UNL     1      26.446   6.315   9.921  1.00  0.00    -0.325 N 
HETATM   33  C8  UNL     1      27.603   5.536   9.674  1.00  0.00     0.481 C 
HETATM   34  N7  UNL     1      27.767   4.569  10.744  1.00  0.00    -0.033 N 
HETATM   35  N8  UNL     1      28.799   6.324   9.462  1.00  0.00    -0.033 N 
ATOM     36  H73 UNL     1      27.786   5.009  11.664  1.00  0.00     0.278 HD
ATOM     37  H72 UNL     1      26.935   3.995  10.876  1.00  0.00     0.278 HD
ATOM     38  H71 UNL     1      28.599   4.007  10.567  1.00  0.00     0.278 HD
ATOM     39  H83 UNL     1      28.655   7.002   8.714  1.00  0.00     0.278 HD
ATOM     40  H82 UNL     1      28.955   6.962  10.242  1.00  0.00     0.278 HD
ATOM     41  H81 UNL     1      29.632   5.763   9.284  1.00  0.00     0.278 HD
ATOM     42  H6  UNL     1      25.698   6.210   9.236  1.00  0.00     0.165 HD
ENDBRANCH   8  32
TORSDOF 10
ENDMDL
MODEL 4
REMARK VINA RESULT: -5.759476812      3.337      6.326
REMARK  10 active torsions:
REMARK  status: ('A' for Active; 'I' for Inactive)
REMARK    1  A    between atoms: N1_2  and  C2_3 
REMARK    2  A    between atoms: N1_2  and  C11_35 
REMARK    3  A    between atoms: C2_3  and  C3_4 
REMARK    4  A    between atoms: N2_5  and  C4_7 
REMARK    5  A    between atoms: C5_10  and  N4_11 
REMARK    6  A    between atoms: C7_17  and  N6_18 
REMARK       I    between atoms: N6_18  and  C8_20 
REMARK       I    between atoms: C8_20  and  N7_21 
REMARK       I    between atoms: C8_20  and  N8_25 
REMARK    7  A    between atoms: C11_35  and  C12_36 
REMARK    8  A    between atoms: C12_36  and  C13_38 
REMARK    9  A    between atoms: C13_38  and  O1_39 
REMARK   10  A    between atoms: C13_38  and  O2_41 
ROOT
HETATM    1  C4  UNL     1      23.033   4.625  15.458  1.00  0.00     0.150 A 
HETATM    2  N3  UNL     1      23.051   3.780  14.426  1.00  0.00    -0.174 N 
ATOM      3  H3  UNL     1      22.761   2.815  14.586  1.00  0.00     0.186 HD
HETATM    4  C5  UNL     1      23.439   4.142  13.160  1.00  0.00     0.678 A 
HETATM    5  N5  UNL     1      23.832   5.396  12.880  1.00  0.00    -0.186 N 
ATOM      6  H5  UNL     1      24.119   5.654  11.936  1.00  0.00     0.184 HD
HETATM    7  C6  UNL     1      23.838   6.288  13.860  1.00  0.00     0.123 A 
HETATM    8  C7  UNL     1      24.241   7.574  13.544  1.00  0.00     0.135 A 
HETATM    9  N9  UNL     1      24.239   8.470  14.538  1.00  0.00    -0.337 N 
ATOM     10  H9  UNL     1      24.528   9.430  14.350  1.00  0.00     0.168 HD
HETATM   11  C9  UNL     1      23.852   8.115  15.804  1.00  0.00     0.182 A 
HETATM   12  N10 UNL     1      23.461   6.853  16.100  1.00  0.00    -0.347 N 
ATOM     13  H10 UNL     1      23.178   6.608  17.049  1.00  0.00     0.167 HD
HETATM   14  C10 UNL     1      23.451   5.937  15.133  1.00  0.00     0.109 A 
ENDROOT
BRANCH   1  15
HETATM   15  N2  UNL     1      22.703   4.377  16.616  1.00  0.00    -0.352 N 
HETATM   16  C3  UNL     1      22.522   3.426  17.577  1.00  0.00     0.077 C 
ATOM     17  H2  UNL     1      22.458   5.270  17.043  1.00  0.00     0.166 HD
BRANCH  16  18
HETATM   18  C2  UNL     1      23.563   2.320  17.731  1.00  0.00     0.139 C 
BRANCH  18  19
HETATM   19  N1  UNL     1      23.371   1.623  18.988  1.00  0.00    -0.290 NA
HETATM   20  C1  UNL     1      24.598   1.374  19.636  1.00  0.00     0.116 C 
BRANCH  19  21
HETATM   21  C11 UNL     1      22.459   0.575  18.911  1.00  0.00     0.086 C 
BRANCH  21  22
HETATM   22  C12 UNL     1      21.071   0.700  19.370  1.00  0.00     0.088 C 
HETATM   23  N11 UNL     1      20.616  -0.272  20.347  1.00  0.00    -0.101 NA
BRANCH  22  24
HETATM   24  C13 UNL     1      20.049   0.968  18.326  1.00  0.00     0.303 C 
BRANCH  24  25
HETATM   25  O1  UNL     1      20.431   0.657  17.031  1.00  0.00    -0.366 OA
ATOM     26  H1  UNL     1      20.178   1.291  16.370  1.00  0.00     0.213 HD
ENDBRANCH  24  25
BRANCH  24  27
HETATM   27  O2  UNL     1      18.901   0.158  18.565  1.00  0.00    -0.366 OA
ATOM     28  H2  UNL     1      18.603  -0.219  17.746  1.00  0.00     0.213 HD
ENDBRANCH  24  27
ENDBRANCH  22  24
ENDBRANCH  21  22
ENDBRANCH  19  21
ENDBRANCH  18  19
ENDBRANCH  16  18
ENDBRANCH   1  15
BRANCH   4  29
HETATM   29  N4  UNL     1      23.446   3.288  12.184  1.00  0.00    -0.234 N 
ATOM     30  H42 UNL     1      24.031   3.508  11.378  1.00  0.00     0.174 HD
ATOM     31  H41 UNL     1      22.895   2.431  12.222  1.00  0.00     0.174 HD
ENDBRANCH   4  29
BRANCH   8  32
HETATM   32  N6  UNL     1      24.602   7.897  12.368  1.00  0.00    -0.325 N 
HETATM   33  C8  UNL     1      25.834   8.431  11.916  1.00  0.00     0.481 C 
HETATM   34  N7  UNL     1      26.887   7.457  12.134  1.00  0.00    -0.033 N 
HETATM   35  N8  UNL     1      26.154   9.721  12.492  1.00  0.00    -0.033 N 
ATOM     36  H73 UNL     1      26.933   7.148  13.105  1.00  0.00     0.278 HD
ATOM     37  H72 UNL     1      26.676   6.557  11.706  1.00  0.00     0.278 HD
ATOM     38  H71 UNL     1      27.774   7.841  11.809  1.00  0.00     0.278 HD
ATOM     39  H83 UNL     1      25.395  10.384  12.335  1.00  0.00     0.278 HD
ATOM     40  H82 UNL     1      26.133   9.677  13.511  1.00  0.00     0.278 HD
ATOM     41  H81 UNL     1      27.041  10.105  12.167  1.00  0.00     0.278 HD
ATOM     42  H6  UNL     1      23.901   7.751  11.643  1.00  0.00     0.165 HD
ENDBRANCH   8  32
TORSDOF 10
ENDMDL
MODEL 5
REMARK VINA RESULT: -5.731787855      3.950      7.129
REMARK  10 active torsions:
REMARK  status: ('A' for Active; 'I' for Inactive)
REMARK    1  A    between atoms: N1_2  and  C2_3 
REMARK    2  A    between atoms: N1_2  and  C11_35 
REMARK    3  A    between atoms: C2_3  and  C3_4 
REMARK    4  A    between atoms: N2_5  and  C4_7 
REMARK    5  A    between atoms: C5_10  and  N4_11 
REMARK    6  A    between atoms: C7_17  and  N6_18 
REMARK       I    between atoms: N6_18  and  C8_20 
REMARK       I    between atoms: C8_20  and  N7_21 
REMARK       I    between atoms: C8_20  and  N8_25 
REMARK    7  A    between atoms: C11_35  and  C12_36 
REMARK    8  A    between atoms: C12_36  and  C13_38 
REMARK    9  A    between atoms: C13_38  and  O1_39 
REMARK   10  A    between atoms: C13_38  and  O2_41 
ROOT
HETATM    1  C4  UNL     1      23.616   5.575  15.279  1.00  0.00     0.150 A 
HETATM    2  N3  UNL     1      23.088   6.607  15.938  1.00  0.00    -0.174 N 
ATOM      3  H3  UNL     1      22.651   6.431  16.843  1.00  0.00     0.186 HD
HETATM    4  C5  UNL     1      23.102   7.895  15.461  1.00  0.00     0.678 A 
HETATM    5  N5  UNL     1      23.661   8.197  14.278  1.00  0.00    -0.186 N 
ATOM      6  H5  UNL     1      23.665   9.157  13.932  1.00  0.00     0.184 HD
HETATM    7  C6  UNL     1      24.206   7.218  13.569  1.00  0.00     0.123 A 
HETATM    8  C7  UNL     1      24.780   7.557  12.357  1.00  0.00     0.135 A 
HETATM    9  N9  UNL     1      25.333   6.563  11.651  1.00  0.00    -0.337 N 
ATOM     10  H9  UNL     1      25.768   6.767  10.751  1.00  0.00     0.168 HD
HETATM   11  C9  UNL     1      25.323   5.276  12.121  1.00  0.00     0.182 A 
HETATM   12  N10 UNL     1      24.757   4.958  13.309  1.00  0.00    -0.347 N 
ATOM     13  H10 UNL     1      24.758   3.994  13.642  1.00  0.00     0.167 HD
HETATM   14  C10 UNL     1      24.199   5.924  14.037  1.00  0.00     0.109 A 
ENDROOT
BRANCH   1  15
HETATM   15  N2  UNL     1      23.641   4.399  15.636  1.00  0.00    -0.352 N 
HETATM   16  C3  UNL     1      23.926   3.510  16.631  1.00  0.00     0.077 C 
ATOM     17  H2  UNL     1      23.302   3.851  14.846  1.00  0.00     0.166 HD
BRANCH  16  18
HETATM   18  C2  UNL     1      23.519   3.845  18.064  1.00  0.00     0.139 C 
BRANCH  18  19
HETATM   19  N1  UNL     1      23.383   2.630  18.843  1.00  0.00    -0.290 NA
HETATM   20  C1  UNL     1      24.457   2.466  19.741  1.00  0.00     0.116 C 
BRANCH  19  21
HETATM   21  C11 UNL     1      22.998   1.525  18.091  1.00  0.00     0.086 C 
BRANCH  21  22
HETATM   22  C12 UNL     1      21.602   1.079  18.000  1.00  0.00     0.088 C 
HETATM   23  N11 UNL     1      20.797   1.663  16.943  1.00  0.00    -0.101 NA
BRANCH  22  24
HETATM   24  C13 UNL     1      20.856   0.973  19.280  1.00  0.00     0.303 C 
BRANCH  24  25
HETATM   25  O1  UNL     1      19.712   0.195  19.236  1.00  0.00    -0.366 OA
ATOM     26  H1  UNL     1      19.847  -0.734  19.380  1.00  0.00     0.213 HD
ENDBRANCH  24  25
BRANCH  24  27
HETATM   27  O2  UNL     1      21.680   0.344  20.259  1.00  0.00    -0.366 OA
ATOM     28  H2  UNL     1      22.556   0.230  19.910  1.00  0.00     0.213 HD
ENDBRANCH  24  27
ENDBRANCH  22  24
ENDBRANCH  21  22
ENDBRANCH  19  21
ENDBRANCH  18  19
ENDBRANCH  16  18
ENDBRANCH   1  15
BRANCH   4  29
HETATM   29  N4  UNL     1      22.572   8.871  16.131  1.00  0.00    -0.234 N 
ATOM     30  H42 UNL     1      21.654   9.198  15.830  1.00  0.00     0.174 HD
ATOM     31  H41 UNL     1      23.051   9.291  16.928  1.00  0.00     0.174 HD
ENDBRANCH   4  29
BRANCH   8  32
HETATM   32  N6  UNL     1      24.784   8.752  11.923  1.00  0.00    -0.325 N 
HETATM   33  C8  UNL     1      25.864   9.657  11.776  1.00  0.00     0.481 C 
HETATM   34  N7  UNL     1      26.794   9.136  10.791  1.00  0.00    -0.033 N 
HETATM   35  N8  UNL     1      26.518   9.988  13.025  1.00  0.00    -0.033 N 
ATOM     36  H73 UNL     1      27.109   8.193  11.017  1.00  0.00     0.278 HD
ATOM     37  H72 UNL     1      26.340   8.929   9.902  1.00  0.00     0.278 HD
ATOM     38  H71 UNL     1      27.572   9.787  10.685  1.00  0.00     0.278 HD
ATOM     39  H83 UNL     1      25.843  10.341  13.703  1.00  0.00     0.278 HD
ATOM     40  H82 UNL     1      26.820   9.143  13.509  1.00  0.00     0.278 HD
ATOM     41  H81 UNL     1      27.296  10.639  12.919  1.00  0.00     0.278 HD
ATOM     42  H6  UNL     1      23.874   9.113  11.638  1.00  0.00     0.165 HD
ENDBRANCH   8  32
TORSDOF 10
ENDMDL
