MODEL 1
REMARK VINA RESULT: -6.750556614      0.000      0.000
REMARK  6 active torsions:
REMARK  status: ('A' for Active; 'I' for Inactive)
REMARK       I    between atoms: C1_4  and  N2_5 
REMARK       I    between atoms: C1_4  and  N3_18 
REMARK    1  A    between atoms: N2_5  and  C2_7 
REMARK    2  A    between atoms: C2_7  and  C3_8 
REMARK    3  A    between atoms: C3_8  and  C4_9 
REMARK    4  A    between atoms: C4_9  and  C5_10 
REMARK    5  A    between atoms: C5_10  and  C6_11 
REMARK    6  A    between atoms: C6_11  and  C7_12 
ROOT
HETATM    1  N1  UNL     1      -1.815   3.290  12.488  1.00  0.00    -0.235 N 
ATOM      2  H11 UNL     1      -1.118   3.595  13.167  1.00  0.00     0.174 HD
ATOM      3  H12 UNL     1      -1.782   2.324  12.162  1.00  0.00     0.174 HD
HETATM    4  C1  UNL     1      -2.701   4.114  12.068  1.00  0.00     0.669 C 
HETATM    5  N2  UNL     1      -3.670   3.691  11.122  1.00  0.00    -0.227 N 
ATOM      6  H2  UNL     1      -3.619   3.984  10.146  1.00  0.00     0.177 HD
HETATM    7  N3  UNL     1      -2.747   5.449  12.518  1.00  0.00    -0.214 N 
HETATM    8  C12 UNL     1      -3.265   6.482  11.657  1.00  0.00     0.167 C 
HETATM    9  C13 UNL     1      -2.406   7.706  11.854  1.00  0.00     0.188 C 
HETATM   10  O2  UNL     1      -2.316   8.139  13.149  1.00  0.00    -0.388 OA
HETATM   11  C14 UNL     1      -2.686   7.248  14.121  1.00  0.00     0.188 C 
HETATM   12  C15 UNL     1      -2.288   5.818  13.832  1.00  0.00     0.167 C 
ENDROOT
BRANCH   5  13
HETATM   13  C2  UNL     1      -4.735   2.829  11.587  1.00  0.00     0.138 C 
BRANCH  13  14
HETATM   14  C3  UNL     1      -4.388   1.402  11.321  1.00  0.00     0.020 C 
BRANCH  14  15
HETATM   15  C4  UNL     1      -4.279   0.646  12.600  1.00  0.00     0.002 C 
BRANCH  15  16
HETATM   16  C5  UNL     1      -4.411   1.513  13.823  1.00  0.00     0.002 C 
BRANCH  16  17
HETATM   17  C6  UNL     1      -4.388   0.660  15.051  1.00  0.00     0.032 C 
BRANCH  17  18
HETATM   18  C7  UNL     1      -4.611   1.465  16.319  1.00  0.00     0.121 C 
HETATM   19  C8  UNL     1      -5.498   2.612  16.006  1.00  0.00     0.032 C 
HETATM   20  C9  UNL     1      -6.707   2.706  16.913  1.00  0.00     0.004 C 
HETATM   21  C10 UNL     1      -7.270   1.306  16.966  1.00  0.00     0.026 C 
HETATM   22  C11 UNL     1      -6.258   0.419  17.608  1.00  0.00     0.168 C 
HETATM   23  O1  UNL     1      -4.961   0.679  17.365  1.00  0.00    -0.386 OA
ENDBRANCH  17  18
ENDBRANCH  16  17
ENDBRANCH  15  16
ENDBRANCH  14  15
ENDBRANCH  13  14
ENDBRANCH   5  13
TORSDOF 6
ENDMDL
MODEL 2
REMARK VINA RESULT: -6.740502044      2.140      4.178
REMARK  6 active torsions:
REMARK  status: ('A' for Active; 'I' for Inactive)
REMARK       I    between atoms: C1_4  and  N2_5 
REMARK       I    between atoms: C1_4  and  N3_18 
REMARK    1  A    between atoms: N2_5  and  C2_7 
REMARK    2  A    between atoms: C2_7  and  C3_8 
REMARK    3  A    between atoms: C3_8  and  C4_9 
REMARK    4  A    between atoms: C4_9  and  C5_10 
REMARK    5  A    between atoms: C5_10  and  C6_11 
REMARK    6  A    between atoms: C6_11  and  C7_12 
ROOT
HETATM    1  N1  UNL     1      -1.806   4.387  11.492  1.00  0.00    -0.235 N 
ATOM      2  H11 UNL     1      -2.038   4.187  10.519  1.00  0.00     0.174 HD
ATOM      3  H12 UNL     1      -1.083   5.081  11.683  1.00  0.00     0.174 HD
HETATM    4  C1  UNL     1      -2.418   3.773  12.434  1.00  0.00     0.669 C 
HETATM    5  N2  UNL     1      -2.094   4.052  13.788  1.00  0.00    -0.227 N 
ATOM      6  H2  UNL     1      -1.557   3.390  14.349  1.00  0.00     0.177 HD
HETATM    7  N3  UNL     1      -3.417   2.815  12.171  1.00  0.00    -0.214 N 
HETATM    8  C12 UNL     1      -3.638   1.732  13.096  1.00  0.00     0.167 C 
HETATM    9  C13 UNL     1      -3.920   0.494  12.281  1.00  0.00     0.188 C 
HETATM   10  O2  UNL     1      -4.961   0.613  11.401  1.00  0.00    -0.388 OA
HETATM   11  C14 UNL     1      -5.367   1.886  11.101  1.00  0.00     0.188 C 
HETATM   12  C15 UNL     1      -4.238   2.885  10.990  1.00  0.00     0.167 C 
ENDROOT
BRANCH   5  13
HETATM   13  C2  UNL     1      -2.552   5.305  14.347  1.00  0.00     0.138 C 
BRANCH  13  14
HETATM   14  C3  UNL     1      -3.915   5.626  13.828  1.00  0.00     0.020 C 
BRANCH  14  15
HETATM   15  C4  UNL     1      -4.904   5.650  14.942  1.00  0.00     0.002 C 
BRANCH  15  16
HETATM   16  C5  UNL     1      -6.222   5.015  14.588  1.00  0.00     0.002 C 
BRANCH  16  17
HETATM   17  C6  UNL     1      -6.159   3.545  14.853  1.00  0.00     0.032 C 
BRANCH  17  18
HETATM   18  C7  UNL     1      -5.629   3.230  16.242  1.00  0.00     0.121 C 
HETATM   19  C8  UNL     1      -6.772   3.161  17.184  1.00  0.00     0.032 C 
HETATM   20  C9  UNL     1      -6.817   1.878  17.988  1.00  0.00     0.004 C 
HETATM   21  C10 UNL     1      -6.599   0.774  16.980  1.00  0.00     0.026 C 
HETATM   22  C11 UNL     1      -5.232   0.931  16.404  1.00  0.00     0.168 C 
HETATM   23  O1  UNL     1      -4.771   2.183  16.231  1.00  0.00    -0.386 OA
ENDBRANCH  17  18
ENDBRANCH  16  17
ENDBRANCH  15  16
ENDBRANCH  14  15
ENDBRANCH  13  14
ENDBRANCH   5  13
TORSDOF 6
ENDMDL
MODEL 3
REMARK VINA RESULT: -6.693801686      1.181      1.399
REMARK  6 active torsions:
REMARK  status: ('A' for Active; 'I' for Inactive)
REMARK       I    between atoms: C1_4  and  N2_5 
REMARK       I    between atoms: C1_4  and  N3_18 
REMARK    1  A    between atoms: N2_5  and  C2_7 
REMARK    2  A    between atoms: C2_7  and  C3_8 
REMARK    3  A    between atoms: C3_8  and  C4_9 
REMARK    4  A    between atoms: C4_9  and  C5_10 
REMARK    5  A    between atoms: C5_10  and  C6_11 
REMARK    6  A    between atoms: C6_11  and  C7_12 
ROOT
HETATM    1  N1  UNL     1      -2.409   3.592  12.178  1.00  0.00    -0.235 N 
ATOM      2  H11 UNL     1      -1.864   4.292  12.681  1.00  0.00     0.174 HD
ATOM      3  H12 UNL     1      -2.203   2.607  12.347  1.00  0.00     0.174 HD
HETATM    4  C1  UNL     1      -3.322   3.960  11.360  1.00  0.00     0.669 C 
HETATM    5  N2  UNL     1      -4.080   2.985  10.659  1.00  0.00    -0.227 N 
ATOM      6  H2  UNL     1      -3.924   2.809   9.666  1.00  0.00     0.177 HD
HETATM    7  N3  UNL     1      -3.607   5.320  11.126  1.00  0.00    -0.214 N 
HETATM    8  C12 UNL     1      -4.122   5.739   9.847  1.00  0.00     0.167 C 
HETATM    9  C13 UNL     1      -3.467   7.053   9.505  1.00  0.00     0.188 C 
HETATM   10  O2  UNL     1      -3.626   8.033  10.447  1.00  0.00    -0.388 OA
HETATM   11  C14 UNL     1      -4.015   7.627  11.695  1.00  0.00     0.188 C 
HETATM   12  C15 UNL     1      -3.397   6.320  12.140  1.00  0.00     0.167 C 
ENDROOT
BRANCH   5  13
HETATM   13  C2  UNL     1      -5.080   2.248  11.399  1.00  0.00     0.138 C 
BRANCH  13  14
HETATM   14  C3  UNL     1      -4.784   0.786  11.339  1.00  0.00     0.020 C 
BRANCH  14  15
HETATM   15  C4  UNL     1      -4.172   0.326  12.618  1.00  0.00     0.002 C 
BRANCH  15  16
HETATM   16  C5  UNL     1      -4.407   1.268  13.768  1.00  0.00     0.002 C 
BRANCH  16  17
HETATM   17  C6  UNL     1      -4.396   0.505  15.054  1.00  0.00     0.032 C 
BRANCH  17  18
HETATM   18  C7  UNL     1      -4.592   1.405  16.262  1.00  0.00     0.121 C 
HETATM   19  C8  UNL     1      -5.453   2.548  15.871  1.00  0.00     0.032 C 
HETATM   20  C9  UNL     1      -6.653   2.737  16.775  1.00  0.00     0.004 C 
HETATM   21  C10 UNL     1      -7.250   1.359  16.931  1.00  0.00     0.026 C 
HETATM   22  C11 UNL     1      -6.255   0.495  17.631  1.00  0.00     0.168 C 
HETATM   23  O1  UNL     1      -4.954   0.705  17.363  1.00  0.00    -0.386 OA
ENDBRANCH  17  18
ENDBRANCH  16  17
ENDBRANCH  15  16
ENDBRANCH  14  15
ENDBRANCH  13  14
ENDBRANCH   5  13
TORSDOF 6
ENDMDL
MODEL 4
REMARK VINA RESULT: -6.689747135      1.239      1.372
REMARK  6 active torsions:
REMARK  status: ('A' for Active; 'I' for Inactive)
REMARK       I    between atoms: C1_4  and  N2_5 
REMARK       I    between atoms: C1_4  and  N3_18 
REMARK    1  A    between atoms: N2_5  and  C2_7 
REMARK    2  A    between atoms: C2_7  and  C3_8 
REMARK    3  A    between atoms: C3_8  and  C4_9 
REMARK    4  A    between atoms: C4_9  and  C5_10 
REMARK    5  A    between atoms: C5_10  and  C6_11 
REMARK    6  A    between atoms: C6_11  and  C7_12 
ROOT
HETATM    1  N1  UNL     1      -2.075   4.114  14.496  1.00  0.00    -0.235 N 
ATOM      2  H11 UNL     1      -1.798   4.595  15.352  1.00  0.00     0.174 HD
ATOM      3  H12 UNL     1      -2.369   3.140  14.562  1.00  0.00     0.174 HD
HETATM    4  C1  UNL     1      -2.047   4.737  13.378  1.00  0.00     0.669 C 
HETATM    5  N2  UNL     1      -2.431   4.068  12.186  1.00  0.00    -0.227 N 
ATOM      6  H2  UNL     1      -1.737   3.774  11.498  1.00  0.00     0.177 HD
HETATM    7  N3  UNL     1      -1.640   6.083  13.286  1.00  0.00    -0.214 N 
HETATM    8  C12 UNL     1      -1.024   6.569  12.077  1.00  0.00     0.167 C 
HETATM    9  C13 UNL     1       0.081   7.512  12.482  1.00  0.00     0.188 C 
HETATM   10  O2  UNL     1      -0.317   8.547  13.285  1.00  0.00    -0.388 OA
HETATM   11  C14 UNL     1      -1.529   8.410  13.907  1.00  0.00     0.188 C 
HETATM   12  C15 UNL     1      -1.826   7.003  14.377  1.00  0.00     0.167 C 
ENDROOT
BRANCH   5  13
HETATM   13  C2  UNL     1      -3.841   3.818  11.978  1.00  0.00     0.138 C 
BRANCH  13  14
HETATM   14  C3  UNL     1      -4.034   2.462  11.384  1.00  0.00     0.020 C 
BRANCH  14  15
HETATM   15  C4  UNL     1      -4.072   1.426  12.454  1.00  0.00     0.002 C 
BRANCH  15  16
HETATM   16  C5  UNL     1      -4.809   1.867  13.690  1.00  0.00     0.002 C 
BRANCH  16  17
HETATM   17  C6  UNL     1      -4.379   1.035  14.856  1.00  0.00     0.032 C 
BRANCH  17  18
HETATM   18  C7  UNL     1      -4.603   1.739  16.183  1.00  0.00     0.121 C 
HETATM   19  C8  UNL     1      -5.629   2.795  15.996  1.00  0.00     0.032 C 
HETATM   20  C9  UNL     1      -6.777   2.703  16.979  1.00  0.00     0.004 C 
HETATM   21  C10 UNL     1      -7.181   1.248  16.978  1.00  0.00     0.026 C 
HETATM   22  C11 UNL     1      -6.038   0.446  17.502  1.00  0.00     0.168 C 
HETATM   23  O1  UNL     1      -4.795   0.862  17.197  1.00  0.00    -0.386 OA
ENDBRANCH  17  18
ENDBRANCH  16  17
ENDBRANCH  15  16
ENDBRANCH  14  15
ENDBRANCH  13  14
ENDBRANCH   5  13
TORSDOF 6
ENDMDL
MODEL 5
REMARK VINA RESULT: -6.617634006      2.440      3.094
REMARK  6 active torsions:
REMARK  status: ('A' for Active; 'I' for Inactive)
REMARK       I    between atoms: C1_4  and  N2_5 
REMARK       I    between atoms: C1_4  and  N3_18 
REMARK    1  A    between atoms: N2_5  and  C2_7 
REMARK    2  A    between atoms: C2_7  and  C3_8 
REMARK    3  A    between atoms: C3_8  and  C4_9 
REMARK    4  A    between atoms: C4_9  and  C5_10 
REMARK    5  A    between atoms: C5_10  and  C6_11 
REMARK    6  A    between atoms: C6_11  and  C7_12 
ROOT
HETATM    1  N1  UNL     1      -1.202   6.688  13.202  1.00  0.00    -0.235 N 
ATOM      2  H11 UNL     1      -0.885   7.484  12.648  1.00  0.00     0.174 HD
ATOM      3  H12 UNL     1      -1.682   6.874  14.083  1.00  0.00     0.174 HD
HETATM    4  C1  UNL     1      -0.994   5.497  12.783  1.00  0.00     0.669 C 
HETATM    5  N2  UNL     1      -1.435   4.389  13.554  1.00  0.00    -0.227 N 
ATOM      6  H2  UNL     1      -0.774   3.813  14.076  1.00  0.00     0.177 HD
HETATM    7  N3  UNL     1      -0.332   5.241  11.566  1.00  0.00    -0.214 N 
HETATM    8  C12 UNL     1       0.431   4.029  11.402  1.00  0.00     0.167 C 
HETATM    9  C13 UNL     1       1.673   4.381  10.621  1.00  0.00     0.188 C 
HETATM   10  O2  UNL     1       1.439   4.986   9.416  1.00  0.00    -0.388 OA
HETATM   11  C14 UNL     1       0.191   5.518   9.229  1.00  0.00     0.188 C 
HETATM   12  C15 UNL     1      -0.397   6.164  10.464  1.00  0.00     0.167 C 
ENDROOT
BRANCH   5  13
HETATM   13  C2  UNL     1      -2.853   4.103  13.575  1.00  0.00     0.138 C 
BRANCH  13  14
HETATM   14  C3  UNL     1      -3.242   3.371  12.334  1.00  0.00     0.020 C 
BRANCH  14  15
HETATM   15  C4  UNL     1      -3.643   1.973  12.658  1.00  0.00     0.002 C 
BRANCH  15  16
HETATM   16  C5  UNL     1      -4.785   1.888  13.636  1.00  0.00     0.002 C 
BRANCH  16  17
HETATM   17  C6  UNL     1      -4.392   1.030  14.795  1.00  0.00     0.032 C 
BRANCH  17  18
HETATM   18  C7  UNL     1      -4.592   1.732  16.128  1.00  0.00     0.121 C 
HETATM   19  C8  UNL     1      -5.607   2.800  15.957  1.00  0.00     0.032 C 
HETATM   20  C9  UNL     1      -6.745   2.718  16.953  1.00  0.00     0.004 C 
HETATM   21  C10 UNL     1      -7.165   1.268  16.951  1.00  0.00     0.026 C 
HETATM   22  C11 UNL     1      -6.026   0.450  17.459  1.00  0.00     0.168 C 
HETATM   23  O1  UNL     1      -4.782   0.854  17.141  1.00  0.00    -0.386 OA
ENDBRANCH  17  18
ENDBRANCH  16  17
ENDBRANCH  15  16
ENDBRANCH  14  15
ENDBRANCH  13  14
ENDBRANCH   5  13
TORSDOF 6
ENDMDL
