MODEL 1
REMARK VINA RESULT: -6.810654603      0.000      0.000
REMARK  6 active torsions:
REMARK  status: ('A' for Active; 'I' for Inactive)
REMARK    1  A    between atoms: C1_2  and  C2_3 
REMARK       I    between atoms: C1_2  and  N1_9 
REMARK    2  A    between atoms: C2_3  and  C3_4 
REMARK    3  A    between atoms: N1_9  and  C8_11 
REMARK    4  A    between atoms: C12_18  and  O2_19 
REMARK    5  A    between atoms: O2_19  and  C13_20 
REMARK    6  A    between atoms: C13_20  and  C14_21 
ROOT
HETATM    1  C8  UNL     1      -4.598   3.181  13.205  1.00  0.00     0.116 C 
HETATM    2  C9  UNL     1      -3.736   3.074  11.945  1.00  0.00     0.055 C 
HETATM    3  C10 UNL     1      -4.413   2.181  10.956  1.00  0.00     0.234 C 
HETATM    4  N2  UNL     1      -4.995   1.061  11.652  1.00  0.00    -0.073 N 
ATOM      5  H21 UNL     1      -5.037   0.234  11.057  1.00  0.00     0.277 HD
ATOM      6  H22 UNL     1      -5.993   1.197  11.806  1.00  0.00     0.277 HD
HETATM    7  C11 UNL     1      -4.298   0.783  12.899  1.00  0.00     0.266 C 
HETATM    8  C12 UNL     1      -4.549   1.831  13.920  1.00  0.00     0.169 C 
ENDROOT
BRANCH   1   9
HETATM    9  N1  UNL     1      -3.958   4.207  14.003  1.00  0.00    -0.354 N 
HETATM   10  C1  UNL     1      -4.535   5.507  13.995  1.00  0.00     0.218 C 
HETATM   11  O1  UNL     1      -5.559   5.786  13.336  1.00  0.00    -0.274 OA
ATOM     12  H1  UNL     1      -3.123   4.005  14.552  1.00  0.00     0.162 HD
BRANCH  10  13
HETATM   13  C2  UNL     1      -3.884   6.558  14.804  1.00  0.00     0.107 C 
BRANCH  13  14
HETATM   14  C3  UNL     1      -2.509   6.835  14.229  1.00  0.00    -0.006 C 
HETATM   15  C4  UNL     1      -1.807   7.832  15.127  1.00  0.00     0.005 C 
HETATM   16  C5  UNL     1      -1.939   9.167  14.466  1.00  0.00     0.000 C 
HETATM   17  C6  UNL     1      -2.081   8.833  13.016  1.00  0.00     0.000 C 
HETATM   18  C7  UNL     1      -2.673   7.470  12.889  1.00  0.00     0.005 C 
ENDBRANCH  13  14
ENDBRANCH  10  13
ENDBRANCH   1   9
BRANCH   8  19
HETATM   19  O2  UNL     1      -3.655   1.867  14.965  1.00  0.00    -0.382 OA
BRANCH  19  20
HETATM   20  C13 UNL     1      -4.143   1.323  16.142  1.00  0.00     0.172 C 
BRANCH  20  21
HETATM   21  C14 UNL     1      -5.490   1.851  16.470  1.00  0.00     0.009 A 
HETATM   22  C15 UNL     1      -6.486   0.842  16.999  1.00  0.00     0.007 A 
HETATM   23  C16 UNL     1      -6.005   1.938  17.855  1.00  0.00     0.007 A 
ENDBRANCH  20  21
ENDBRANCH  19  20
ENDBRANCH   8  19
TORSDOF 6
ENDMDL
MODEL 2
REMARK VINA RESULT: -6.758493943      2.084      5.583
REMARK  6 active torsions:
REMARK  status: ('A' for Active; 'I' for Inactive)
REMARK    1  A    between atoms: C1_2  and  C2_3 
REMARK       I    between atoms: C1_2  and  N1_9 
REMARK    2  A    between atoms: C2_3  and  C3_4 
REMARK    3  A    between atoms: N1_9  and  C8_11 
REMARK    4  A    between atoms: C12_18  and  O2_19 
REMARK    5  A    between atoms: O2_19  and  C13_20 
REMARK    6  A    between atoms: C13_20  and  C14_21 
ROOT
HETATM    1  C8  UNL     1      -4.423   5.638  12.631  1.00  0.00     0.116 C 
HETATM    2  C9  UNL     1      -3.277   6.652  12.599  1.00  0.00     0.055 C 
HETATM    3  C10 UNL     1      -3.608   7.744  11.634  1.00  0.00     0.234 C 
HETATM    4  N2  UNL     1      -4.230   7.170  10.468  1.00  0.00    -0.073 N 
ATOM      5  H21 UNL     1      -4.049   7.731   9.635  1.00  0.00     0.277 HD
ATOM      6  H22 UNL     1      -5.245   7.263  10.504  1.00  0.00     0.277 HD
HETATM    7  C11 UNL     1      -3.831   5.784  10.272  1.00  0.00     0.266 C 
HETATM    8  C12 UNL     1      -4.418   4.887  11.299  1.00  0.00     0.169 C 
ENDROOT
BRANCH   1   9
HETATM    9  N1  UNL     1      -4.094   4.744  13.724  1.00  0.00    -0.354 N 
HETATM   10  C1  UNL     1      -5.169   4.214  14.490  1.00  0.00     0.218 C 
HETATM   11  O1  UNL     1      -6.364   4.487  14.252  1.00  0.00    -0.274 OA
ATOM     12  H1  UNL     1      -3.126   4.504  13.936  1.00  0.00     0.162 HD
BRANCH  10  13
HETATM   13  C2  UNL     1      -4.839   3.305  15.607  1.00  0.00     0.107 C 
BRANCH  13  14
HETATM   14  C3  UNL     1      -6.008   2.367  15.834  1.00  0.00    -0.006 C 
HETATM   15  C4  UNL     1      -6.784   2.854  17.040  1.00  0.00     0.005 C 
HETATM   16  C5  UNL     1      -6.362   2.000  18.192  1.00  0.00     0.000 C 
HETATM   17  C6  UNL     1      -5.929   0.723  17.548  1.00  0.00     0.000 C 
HETATM   18  C7  UNL     1      -5.474   1.011  16.157  1.00  0.00     0.005 C 
ENDBRANCH  13  14
ENDBRANCH  10  13
ENDBRANCH   1   9
BRANCH   8  19
HETATM   19  O2  UNL     1      -3.810   3.661  11.435  1.00  0.00    -0.382 OA
BRANCH  19  20
HETATM   20  C13 UNL     1      -4.513   2.617  10.858  1.00  0.00     0.172 C 
BRANCH  20  21
HETATM   21  C14 UNL     1      -4.930   1.616  11.871  1.00  0.00     0.009 A 
HETATM   22  C15 UNL     1      -4.509   0.187  11.603  1.00  0.00     0.007 A 
HETATM   23  C16 UNL     1      -3.970   0.922  12.759  1.00  0.00     0.007 A 
ENDBRANCH  20  21
ENDBRANCH  19  20
ENDBRANCH   8  19
TORSDOF 6
ENDMDL
MODEL 3
REMARK VINA RESULT: -6.683214064      2.618      5.432
REMARK  6 active torsions:
REMARK  status: ('A' for Active; 'I' for Inactive)
REMARK    1  A    between atoms: C1_2  and  C2_3 
REMARK       I    between atoms: C1_2  and  N1_9 
REMARK    2  A    between atoms: C2_3  and  C3_4 
REMARK    3  A    between atoms: N1_9  and  C8_11 
REMARK    4  A    between atoms: C12_18  and  O2_19 
REMARK    5  A    between atoms: O2_19  and  C13_20 
REMARK    6  A    between atoms: C13_20  and  C14_21 
ROOT
HETATM    1  C8  UNL     1      -2.664   4.538  12.598  1.00  0.00     0.116 C 
HETATM    2  C9  UNL     1      -1.531   3.956  11.751  1.00  0.00     0.055 C 
HETATM    3  C10 UNL     1      -1.001   5.012  10.836  1.00  0.00     0.234 C 
HETATM    4  N2  UNL     1      -2.103   5.783  10.317  1.00  0.00    -0.073 N 
ATOM      5  H21 UNL     1      -1.891   6.161   9.394  1.00  0.00     0.277 HD
ATOM      6  H22 UNL     1      -2.215   6.659  10.826  1.00  0.00     0.277 HD
HETATM    7  C11 UNL     1      -3.339   5.014  10.305  1.00  0.00     0.266 C 
HETATM    8  C12 UNL     1      -3.859   4.780  11.676  1.00  0.00     0.169 C 
ENDROOT
BRANCH   1   9
HETATM    9  N1  UNL     1      -2.966   3.507  13.569  1.00  0.00    -0.354 N 
HETATM   10  C1  UNL     1      -3.535   3.912  14.809  1.00  0.00     0.218 C 
HETATM   11  O1  UNL     1      -3.780   5.106  15.079  1.00  0.00    -0.274 OA
ATOM     12  H1  UNL     1      -2.778   2.524  13.372  1.00  0.00     0.162 HD
BRANCH  10  13
HETATM   13  C2  UNL     1      -3.842   2.864  15.804  1.00  0.00     0.107 C 
BRANCH  13  14
HETATM   14  C3  UNL     1      -5.117   2.156  15.388  1.00  0.00    -0.006 C 
HETATM   15  C4  UNL     1      -6.295   3.023  15.781  1.00  0.00     0.005 C 
HETATM   16  C5  UNL     1      -6.839   2.454  17.052  1.00  0.00     0.000 C 
HETATM   17  C6  UNL     1      -6.447   1.012  16.992  1.00  0.00     0.000 C 
HETATM   18  C7  UNL     1      -5.222   0.878  16.152  1.00  0.00     0.005 C 
ENDBRANCH  13  14
ENDBRANCH  10  13
ENDBRANCH   1   9
BRANCH   8  19
HETATM   19  O2  UNL     1      -4.778   3.764  11.796  1.00  0.00    -0.382 OA
BRANCH  19  20
HETATM   20  C13 UNL     1      -4.594   2.728  10.895  1.00  0.00     0.172 C 
BRANCH  20  21
HETATM   21  C14 UNL     1      -5.153   1.453  11.407  1.00  0.00     0.009 A 
HETATM   22  C15 UNL     1      -4.762   0.205  10.647  1.00  0.00     0.007 A 
HETATM   23  C16 UNL     1      -4.319   0.404  12.037  1.00  0.00     0.007 A 
ENDBRANCH  20  21
ENDBRANCH  19  20
ENDBRANCH   8  19
TORSDOF 6
ENDMDL
MODEL 4
REMARK VINA RESULT: -6.624337618      1.746      5.503
REMARK  6 active torsions:
REMARK  status: ('A' for Active; 'I' for Inactive)
REMARK    1  A    between atoms: C1_2  and  C2_3 
REMARK       I    between atoms: C1_2  and  N1_9 
REMARK    2  A    between atoms: C2_3  and  C3_4 
REMARK    3  A    between atoms: N1_9  and  C8_11 
REMARK    4  A    between atoms: C12_18  and  O2_19 
REMARK    5  A    between atoms: O2_19  and  C13_20 
REMARK    6  A    between atoms: C13_20  and  C14_21 
ROOT
HETATM    1  C8  UNL     1      -4.051   6.052  13.602  1.00  0.00     0.116 C 
HETATM    2  C9  UNL     1      -2.886   6.899  14.116  1.00  0.00     0.055 C 
HETATM    3  C10 UNL     1      -2.473   7.870  13.057  1.00  0.00     0.234 C 
HETATM    4  N2  UNL     1      -2.509   7.211  11.775  1.00  0.00    -0.073 N 
ATOM      5  H21 UNL     1      -1.831   7.616  11.129  1.00  0.00     0.277 HD
ATOM      6  H22 UNL     1      -3.364   7.434  11.266  1.00  0.00     0.277 HD
HETATM    7  C11 UNL     1      -2.327   5.773  11.903  1.00  0.00     0.266 C 
HETATM    8  C12 UNL     1      -3.508   5.118  12.520  1.00  0.00     0.169 C 
ENDROOT
BRANCH   1   9
HETATM    9  N1  UNL     1      -4.494   5.296  14.756  1.00  0.00    -0.354 N 
HETATM   10  C1  UNL     1      -5.886   5.026  14.875  1.00  0.00     0.218 C 
HETATM   11  O1  UNL     1      -6.721   5.410  14.031  1.00  0.00    -0.274 OA
ATOM     12  H1  UNL     1      -3.832   4.968  15.459  1.00  0.00     0.162 HD
BRANCH  10  13
HETATM   13  C2  UNL     1      -6.342   4.258  16.052  1.00  0.00     0.107 C 
BRANCH  13  14
HETATM   14  C3  UNL     1      -6.294   2.780  15.718  1.00  0.00    -0.006 C 
HETATM   15  C4  UNL     1      -7.231   2.047  16.656  1.00  0.00     0.005 C 
HETATM   16  C5  UNL     1      -6.378   1.448  17.729  1.00  0.00     0.000 C 
HETATM   17  C6  UNL     1      -5.049   1.271  17.068  1.00  0.00     0.000 C 
HETATM   18  C7  UNL     1      -4.912   2.279  15.976  1.00  0.00     0.005 C 
ENDBRANCH  13  14
ENDBRANCH  10  13
ENDBRANCH   1   9
BRANCH   8  19
HETATM   19  O2  UNL     1      -3.290   3.859  13.030  1.00  0.00    -0.382 OA
BRANCH  19  20
HETATM   20  C13 UNL     1      -3.355   2.850  12.084  1.00  0.00     0.172 C 
BRANCH  20  21
HETATM   21  C14 UNL     1      -4.474   1.915  12.361  1.00  0.00     0.009 A 
HETATM   22  C15 UNL     1      -4.957   1.094  11.185  1.00  0.00     0.007 A 
HETATM   23  C16 UNL     1      -4.316   0.443  12.340  1.00  0.00     0.007 A 
ENDBRANCH  20  21
ENDBRANCH  19  20
ENDBRANCH   8  19
TORSDOF 6
ENDMDL
MODEL 5
REMARK VINA RESULT: -6.575578679      1.765      5.761
REMARK  6 active torsions:
REMARK  status: ('A' for Active; 'I' for Inactive)
REMARK    1  A    between atoms: C1_2  and  C2_3 
REMARK       I    between atoms: C1_2  and  N1_9 
REMARK    2  A    between atoms: C2_3  and  C3_4 
REMARK    3  A    between atoms: N1_9  and  C8_11 
REMARK    4  A    between atoms: C12_18  and  O2_19 
REMARK    5  A    between atoms: O2_19  and  C13_20 
REMARK    6  A    between atoms: C13_20  and  C14_21 
ROOT
HETATM    1  C8  UNL     1      -3.325   3.133  12.535  1.00  0.00     0.116 C 
HETATM    2  C9  UNL     1      -4.458   4.100  12.185  1.00  0.00     0.055 C 
HETATM    3  C10 UNL     1      -4.544   4.248  10.700  1.00  0.00     0.234 C 
HETATM    4  N2  UNL     1      -3.211   4.312  10.155  1.00  0.00    -0.073 N 
ATOM      5  H21 UNL     1      -3.186   4.860   9.295  1.00  0.00     0.277 HD
ATOM      6  H22 UNL     1      -2.920   3.411   9.778  1.00  0.00     0.277 HD
HETATM    7  C11 UNL     1      -2.255   4.813  11.131  1.00  0.00     0.266 C 
HETATM    8  C12 UNL     1      -2.002   3.830  12.215  1.00  0.00     0.169 C 
ENDROOT
BRANCH   1   9
HETATM    9  N1  UNL     1      -3.456   2.911  13.961  1.00  0.00    -0.354 N 
HETATM   10  C1  UNL     1      -4.079   1.705  14.387  1.00  0.00     0.218 C 
HETATM   11  O1  UNL     1      -4.504   0.847  13.587  1.00  0.00    -0.274 OA
ATOM     12  H1  UNL     1      -3.114   3.596  14.635  1.00  0.00     0.162 HD
BRANCH  10  13
HETATM   13  C2  UNL     1      -4.217   1.476  15.840  1.00  0.00     0.107 C 
BRANCH  13  14
HETATM   14  C3  UNL     1      -5.681   1.245  16.159  1.00  0.00    -0.006 C 
HETATM   15  C4  UNL     1      -6.432   2.540  15.927  1.00  0.00     0.005 C 
HETATM   16  C5  UNL     1      -6.627   3.168  17.270  1.00  0.00     0.000 C 
HETATM   17  C6  UNL     1      -6.611   2.006  18.210  1.00  0.00     0.000 C 
HETATM   18  C7  UNL     1      -5.804   0.905  17.608  1.00  0.00     0.005 C 
ENDBRANCH  13  14
ENDBRANCH  10  13
ENDBRANCH   1   9
BRANCH   8  19
HETATM   19  O2  UNL     1      -1.434   4.340  13.359  1.00  0.00    -0.382 OA
BRANCH  19  20
HETATM   20  C13 UNL     1      -1.144   5.693  13.288  1.00  0.00     0.172 C 
BRANCH  20  21
HETATM   21  C14 UNL     1      -1.809   6.450  14.377  1.00  0.00     0.009 A 
HETATM   22  C15 UNL     1      -2.452   7.760  13.976  1.00  0.00     0.007 A 
HETATM   23  C16 UNL     1      -3.276   6.635  14.449  1.00  0.00     0.007 A 
ENDBRANCH  20  21
ENDBRANCH  19  20
ENDBRANCH   8  19
TORSDOF 6
ENDMDL
