MODEL 1
REMARK VINA RESULT: -8.006036861      0.000      0.000
REMARK  9 active torsions:
REMARK  status: ('A' for Active; 'I' for Inactive)
REMARK    1  A    between atoms: C2_2  and  N1_3 
REMARK    2  A    between atoms: C2_2  and  C3_7 
REMARK       I    between atoms: C3_7  and  N2_9 
REMARK    3  A    between atoms: N2_9  and  C4_11 
REMARK    4  A    between atoms: C4_11  and  C5_12 
REMARK    5  A    between atoms: C4_11  and  C6_14 
REMARK    6  A    between atoms: C6_14  and  N4_18 
REMARK    7  A    between atoms: N4_18  and  C7_20 
REMARK    8  A    between atoms: C7_20  and  C8_21 
REMARK    9  A    between atoms: C10_25  and  C11_26 
ROOT
HETATM    1  C6  UNL     1      59.833  35.888  75.624  1.00  0.00     0.095 C 
HETATM    2  N3  UNL     1      58.722  36.445  75.171  1.00  0.00    -0.387 N 
ATOM      3  H31 UNL     1      57.859  35.907  75.262  1.00  0.00     0.157 HD
ATOM      4  H32 UNL     1      58.822  37.377  74.769  1.00  0.00     0.157 HD
ENDROOT
BRANCH   1   5
HETATM    5  C4  UNL     1      61.065  36.657  75.495  1.00  0.00     0.161 C 
BRANCH   5   6
HETATM    6  N2  UNL     1      62.191  36.172  76.253  1.00  0.00    -0.347 N 
HETATM    7  C3  UNL     1      62.362  36.620  77.584  1.00  0.00     0.248 C 
HETATM    8  O1  UNL     1      61.534  37.422  78.073  1.00  0.00    -0.271 OA
ATOM      9  H2  UNL     1      62.853  35.517  75.837  1.00  0.00     0.163 HD
BRANCH   7  10
HETATM   10  C2  UNL     1      63.491  36.183  78.445  1.00  0.00     0.270 C 
HETATM   11  C1  UNL     1      63.776  37.152  79.570  1.00  0.00     0.050 C 
BRANCH  10  12
HETATM   12  N1  UNL     1      64.712  36.026  77.688  1.00  0.00    -0.067 N 
ATOM     13  H13 UNL     1      64.781  36.677  76.905  1.00  0.00     0.275 HD
ATOM     14  H12 UNL     1      65.538  36.342  78.197  1.00  0.00     0.275 HD
ATOM     15  H11 UNL     1      64.770  35.050  77.402  1.00  0.00     0.275 HD
ENDBRANCH  10  12
ENDBRANCH   7  10
ENDBRANCH   5   6
BRANCH   5  16
HETATM   16  C5  UNL     1      61.545  36.705  74.045  1.00  0.00     0.119 C 
HETATM   17  S1  UNL     1      62.973  35.629  73.854  1.00  0.00    -0.095 SA
ENDBRANCH   5  16
ENDBRANCH   1   5
BRANCH   1  18
HETATM   18  N4  UNL     1      59.694  34.597  76.182  1.00  0.00    -0.360 N 
ATOM     19  H4  UNL     1      59.935  34.450  77.162  1.00  0.00     0.162 HD
BRANCH  18  20
HETATM   20  C7  UNL     1      59.219  33.483  75.401  1.00  0.00     0.124 A 
HETATM   21  C9  UNL     1      59.113  32.160  76.170  1.00  0.00     0.060 A 
HETATM   22  C10 UNL     1      57.907  32.866  75.578  1.00  0.00     0.127 A 
BRANCH  20  23
HETATM   23  C8  UNL     1      59.961  33.242  74.110  1.00  0.00     0.260 C 
HETATM   24  N5  UNL     1      61.058  32.370  74.136  1.00  0.00    -0.060 NA
HETATM   25  O2  UNL     1      59.570  33.826  73.070  1.00  0.00    -0.274 OA
ENDBRANCH  20  23
BRANCH  22  26
HETATM   26  C11 UNL     1      56.959  33.310  76.616  1.00  0.00     0.180 C 
HETATM   27  O3  UNL     1      56.957  34.488  77.018  1.00  0.00    -0.648 OA
HETATM   28  O4  UNL     1      56.064  32.412  77.152  1.00  0.00    -0.648 OA
ENDBRANCH  22  26
ENDBRANCH  18  20
ENDBRANCH   1  18
TORSDOF 9
ENDMDL
MODEL 2
REMARK VINA RESULT: -7.958000054      2.507      4.036
REMARK  9 active torsions:
REMARK  status: ('A' for Active; 'I' for Inactive)
REMARK    1  A    between atoms: C2_2  and  N1_3 
REMARK    2  A    between atoms: C2_2  and  C3_7 
REMARK       I    between atoms: C3_7  and  N2_9 
REMARK    3  A    between atoms: N2_9  and  C4_11 
REMARK    4  A    between atoms: C4_11  and  C5_12 
REMARK    5  A    between atoms: C4_11  and  C6_14 
REMARK    6  A    between atoms: C6_14  and  N4_18 
REMARK    7  A    between atoms: N4_18  and  C7_20 
REMARK    8  A    between atoms: C7_20  and  C8_21 
REMARK    9  A    between atoms: C10_25  and  C11_26 
ROOT
HETATM    1  C6  UNL     1      59.951  36.079  77.313  1.00  0.00     0.095 C 
HETATM    2  N3  UNL     1      59.336  36.409  78.437  1.00  0.00    -0.387 N 
ATOM      3  H31 UNL     1      58.390  36.785  78.358  1.00  0.00     0.157 HD
ATOM      4  H32 UNL     1      59.863  36.256  79.296  1.00  0.00     0.157 HD
ENDROOT
BRANCH   1   5
HETATM    5  C4  UNL     1      61.303  35.544  77.426  1.00  0.00     0.161 C 
BRANCH   5   6
HETATM    6  N2  UNL     1      62.288  36.135  76.554  1.00  0.00    -0.347 N 
HETATM    7  C3  UNL     1      62.708  35.413  75.411  1.00  0.00     0.248 C 
HETATM    8  O1  UNL     1      62.215  34.285  75.182  1.00  0.00    -0.271 OA
ATOM      9  H2  UNL     1      62.675  37.056  76.758  1.00  0.00     0.163 HD
BRANCH   7  10
HETATM   10  C2  UNL     1      63.718  35.933  74.455  1.00  0.00     0.270 C 
HETATM   11  C1  UNL     1      64.863  36.642  75.143  1.00  0.00     0.050 C 
BRANCH  10  12
HETATM   12  N1  UNL     1      63.137  36.863  73.514  1.00  0.00    -0.067 N 
ATOM     13  H13 UNL     1      63.448  37.823  73.659  1.00  0.00     0.275 HD
ATOM     14  H12 UNL     1      63.497  36.747  72.566  1.00  0.00     0.275 HD
ATOM     15  H11 UNL     1      62.124  36.759  73.569  1.00  0.00     0.275 HD
ENDBRANCH  10  12
ENDBRANCH   7  10
ENDBRANCH   5   6
BRANCH   5  16
HETATM   16  C5  UNL     1      61.858  35.719  78.839  1.00  0.00     0.119 C 
HETATM   17  S1  UNL     1      63.150  36.970  78.821  1.00  0.00    -0.095 SA
ENDBRANCH   5  16
ENDBRANCH   1   5
BRANCH   1  18
HETATM   18  N4  UNL     1      59.220  36.292  76.123  1.00  0.00    -0.360 N 
ATOM     19  H4  UNL     1      59.103  37.244  75.776  1.00  0.00     0.162 HD
BRANCH  18  20
HETATM   20  C7  UNL     1      58.637  35.199  75.388  1.00  0.00     0.124 A 
HETATM   21  C9  UNL     1      57.673  35.620  74.271  1.00  0.00     0.060 A 
HETATM   22  C10 UNL     1      58.971  34.882  74.002  1.00  0.00     0.127 A 
BRANCH  20  23
HETATM   23  C8  UNL     1      57.977  34.137  76.231  1.00  0.00     0.260 C 
HETATM   24  N5  UNL     1      56.952  34.532  77.101  1.00  0.00    -0.060 NA
HETATM   25  O2  UNL     1      58.370  32.950  76.123  1.00  0.00    -0.274 OA
ENDBRANCH  20  23
BRANCH  22  26
HETATM   26  C11 UNL     1      59.916  35.692  73.211  1.00  0.00     0.180 C 
HETATM   27  O3  UNL     1      59.976  36.927  73.358  1.00  0.00    -0.648 OA
HETATM   28  O4  UNL     1      60.743  35.080  72.297  1.00  0.00    -0.648 OA
ENDBRANCH  22  26
ENDBRANCH  18  20
ENDBRANCH   1  18
TORSDOF 9
ENDMDL
MODEL 3
REMARK VINA RESULT: -7.889233101      2.495      4.275
REMARK  9 active torsions:
REMARK  status: ('A' for Active; 'I' for Inactive)
REMARK    1  A    between atoms: C2_2  and  N1_3 
REMARK    2  A    between atoms: C2_2  and  C3_7 
REMARK       I    between atoms: C3_7  and  N2_9 
REMARK    3  A    between atoms: N2_9  and  C4_11 
REMARK    4  A    between atoms: C4_11  and  C5_12 
REMARK    5  A    between atoms: C4_11  and  C6_14 
REMARK    6  A    between atoms: C6_14  and  N4_18 
REMARK    7  A    between atoms: N4_18  and  C7_20 
REMARK    8  A    between atoms: C7_20  and  C8_21 
REMARK    9  A    between atoms: C10_25  and  C11_26 
ROOT
HETATM    1  C6  UNL     1      60.600  35.873  76.809  1.00  0.00     0.095 C 
HETATM    2  N3  UNL     1      60.478  36.159  78.095  1.00  0.00    -0.387 N 
ATOM      3  H31 UNL     1      59.631  36.650  78.385  1.00  0.00     0.157 HD
ATOM      4  H32 UNL     1      61.246  35.858  78.694  1.00  0.00     0.157 HD
ENDROOT
BRANCH   1   5
HETATM    5  C4  UNL     1      61.809  35.172  76.394  1.00  0.00     0.161 C 
BRANCH   5   6
HETATM    6  N2  UNL     1      62.646  35.868  75.447  1.00  0.00    -0.347 N 
HETATM    7  C3  UNL     1      62.846  35.300  74.167  1.00  0.00     0.248 C 
HETATM    8  O1  UNL     1      62.293  34.212  73.884  1.00  0.00    -0.271 OA
ATOM      9  H2  UNL     1      63.085  36.754  75.696  1.00  0.00     0.163 HD
BRANCH   7  10
HETATM   10  C2  UNL     1      63.691  35.935  73.124  1.00  0.00     0.270 C 
HETATM   11  C1  UNL     1      64.782  36.805  73.708  1.00  0.00     0.050 C 
BRANCH  10  12
HETATM   12  N1  UNL     1      62.910  36.761  72.232  1.00  0.00    -0.067 N 
ATOM     13  H13 UNL     1      62.896  37.743  72.508  1.00  0.00     0.275 HD
ATOM     14  H12 UNL     1      63.348  36.885  71.319  1.00  0.00     0.275 HD
ATOM     15  H11 UNL     1      61.978  36.351  72.173  1.00  0.00     0.275 HD
ENDBRANCH  10  12
ENDBRANCH   7  10
ENDBRANCH   5   6
BRANCH   5  16
HETATM   16  C5  UNL     1      62.716  34.867  77.586  1.00  0.00     0.119 C 
HETATM   17  S1  UNL     1      64.117  35.996  77.573  1.00  0.00    -0.095 SA
ENDBRANCH   5  16
ENDBRANCH   1   5
BRANCH   1  18
HETATM   18  N4  UNL     1      59.535  36.291  75.979  1.00  0.00    -0.360 N 
ATOM     19  H4  UNL     1      59.349  37.288  75.874  1.00  0.00     0.162 HD
BRANCH  18  20
HETATM   20  C7  UNL     1      58.706  35.343  75.279  1.00  0.00     0.124 A 
HETATM   21  C9  UNL     1      57.620  35.972  74.395  1.00  0.00     0.060 A 
HETATM   22  C10 UNL     1      58.754  35.134  73.834  1.00  0.00     0.127 A 
BRANCH  20  23
HETATM   23  C8  UNL     1      58.081  34.276  76.141  1.00  0.00     0.260 C 
HETATM   24  N5  UNL     1      57.525  34.664  77.367  1.00  0.00    -0.060 NA
HETATM   25  O2  UNL     1      58.082  33.090  75.730  1.00  0.00    -0.274 OA
ENDBRANCH  20  23
BRANCH  22  26
HETATM   26  C11 UNL     1      59.637  35.918  72.950  1.00  0.00     0.180 C 
HETATM   27  O3  UNL     1      59.899  37.108  73.203  1.00  0.00    -0.648 OA
HETATM   28  O4  UNL     1      60.180  35.330  71.831  1.00  0.00    -0.648 OA
ENDBRANCH  22  26
ENDBRANCH  18  20
ENDBRANCH   1  18
TORSDOF 9
ENDMDL
MODEL 4
REMARK VINA RESULT: -7.863448503      2.824      4.563
REMARK  9 active torsions:
REMARK  status: ('A' for Active; 'I' for Inactive)
REMARK    1  A    between atoms: C2_2  and  N1_3 
REMARK    2  A    between atoms: C2_2  and  C3_7 
REMARK       I    between atoms: C3_7  and  N2_9 
REMARK    3  A    between atoms: N2_9  and  C4_11 
REMARK    4  A    between atoms: C4_11  and  C5_12 
REMARK    5  A    between atoms: C4_11  and  C6_14 
REMARK    6  A    between atoms: C6_14  and  N4_18 
REMARK    7  A    between atoms: N4_18  and  C7_20 
REMARK    8  A    between atoms: C7_20  and  C8_21 
REMARK    9  A    between atoms: C10_25  and  C11_26 
ROOT
HETATM    1  C6  UNL     1      61.615  36.094  75.304  1.00  0.00     0.095 C 
HETATM    2  N3  UNL     1      61.222  36.799  76.352  1.00  0.00    -0.387 N 
ATOM      3  H31 UNL     1      60.316  37.264  76.288  1.00  0.00     0.157 HD
ATOM      4  H32 UNL     1      61.864  36.814  77.145  1.00  0.00     0.157 HD
ENDROOT
BRANCH   1   5
HETATM    5  C4  UNL     1      62.910  35.429  75.395  1.00  0.00     0.161 C 
BRANCH   5   6
HETATM    6  N2  UNL     1      63.993  36.062  74.684  1.00  0.00    -0.347 N 
HETATM    7  C3  UNL     1      64.150  35.796  73.302  1.00  0.00     0.248 C 
HETATM    8  O1  UNL     1      63.347  35.023  72.731  1.00  0.00    -0.271 OA
ATOM      9  H2  UNL     1      64.634  36.690  75.167  1.00  0.00     0.163 HD
BRANCH   7  10
HETATM   10  C2  UNL     1      65.234  36.394  72.483  1.00  0.00     0.270 C 
HETATM   11  C1  UNL     1      64.713  37.093  71.246  1.00  0.00     0.050 C 
BRANCH  10  12
HETATM   12  N1  UNL     1      66.188  35.399  72.048  1.00  0.00    -0.067 N 
ATOM     13  H13 UNL     1      66.834  35.118  72.785  1.00  0.00     0.275 HD
ATOM     14  H12 UNL     1      65.764  34.485  71.887  1.00  0.00     0.275 HD
ATOM     15  H11 UNL     1      66.660  35.769  71.223  1.00  0.00     0.275 HD
ENDBRANCH  10  12
ENDBRANCH   7  10
ENDBRANCH   5   6
BRANCH   5  16
HETATM   16  C5  UNL     1      63.386  35.325  76.844  1.00  0.00     0.119 C 
HETATM   17  S1  UNL     1      64.848  36.349  77.066  1.00  0.00    -0.095 SA
ENDBRANCH   5  16
ENDBRANCH   1   5
BRANCH   1  18
HETATM   18  N4  UNL     1      60.727  36.072  74.205  1.00  0.00    -0.360 N 
ATOM     19  H4  UNL     1      60.970  36.587  73.359  1.00  0.00     0.162 HD
BRANCH  18  20
HETATM   20  C7  UNL     1      59.486  35.341  74.251  1.00  0.00     0.124 A 
HETATM   21  C9  UNL     1      58.894  34.998  72.877  1.00  0.00     0.060 A 
HETATM   22  C10 UNL     1      59.354  33.940  73.862  1.00  0.00     0.127 A 
BRANCH  20  23
HETATM   23  C8  UNL     1      58.409  35.956  75.109  1.00  0.00     0.260 C 
HETATM   24  N5  UNL     1      58.189  35.407  76.379  1.00  0.00    -0.060 NA
HETATM   25  O2  UNL     1      57.756  36.928  74.656  1.00  0.00    -0.274 OA
ENDBRANCH  20  23
BRANCH  22  26
HETATM   26  C11 UNL     1      60.487  33.154  73.342  1.00  0.00     0.180 C 
HETATM   27  O3  UNL     1      60.722  33.103  72.120  1.00  0.00    -0.648 OA
HETATM   28  O4  UNL     1      61.299  32.465  74.214  1.00  0.00    -0.648 OA
ENDBRANCH  22  26
ENDBRANCH  18  20
ENDBRANCH   1  18
TORSDOF 9
ENDMDL
MODEL 5
REMARK VINA RESULT: -7.844366954      2.213      3.069
REMARK  9 active torsions:
REMARK  status: ('A' for Active; 'I' for Inactive)
REMARK    1  A    between atoms: C2_2  and  N1_3 
REMARK    2  A    between atoms: C2_2  and  C3_7 
REMARK       I    between atoms: C3_7  and  N2_9 
REMARK    3  A    between atoms: N2_9  and  C4_11 
REMARK    4  A    between atoms: C4_11  and  C5_12 
REMARK    5  A    between atoms: C4_11  and  C6_14 
REMARK    6  A    between atoms: C6_14  and  N4_18 
REMARK    7  A    between atoms: N4_18  and  C7_20 
REMARK    8  A    between atoms: C7_20  and  C8_21 
REMARK    9  A    between atoms: C10_25  and  C11_26 
ROOT
HETATM    1  C6  UNL     1      60.353  33.700  74.512  1.00  0.00     0.095 C 
HETATM    2  N3  UNL     1      61.369  32.921  74.179  1.00  0.00    -0.387 N 
ATOM      3  H31 UNL     1      61.157  31.947  73.961  1.00  0.00     0.157 HD
ATOM      4  H32 UNL     1      62.286  33.366  74.164  1.00  0.00     0.157 HD
ENDROOT
BRANCH   1   5
HETATM    5  C4  UNL     1      60.656  35.092  74.824  1.00  0.00     0.161 C 
BRANCH   5   6
HETATM    6  N2  UNL     1      61.656  35.305  75.841  1.00  0.00    -0.347 N 
HETATM    7  C3  UNL     1      61.236  35.609  77.158  1.00  0.00     0.248 C 
HETATM    8  O1  UNL     1      60.012  35.683  77.411  1.00  0.00    -0.271 OA
ATOM      9  H2  UNL     1      62.648  35.238  75.615  1.00  0.00     0.163 HD
BRANCH   7  10
HETATM   10  C2  UNL     1      62.187  35.849  78.274  1.00  0.00     0.270 C 
HETATM   11  C1  UNL     1      63.573  35.317  77.985  1.00  0.00     0.050 C 
BRANCH  10  12
HETATM   12  N1  UNL     1      61.736  35.236  79.503  1.00  0.00    -0.067 N 
ATOM     13  H13 UNL     1      60.840  34.758  79.404  1.00  0.00     0.275 HD
ATOM     14  H12 UNL     1      62.292  34.424  79.770  1.00  0.00     0.275 HD
ATOM     15  H11 UNL     1      61.723  35.963  80.218  1.00  0.00     0.275 HD
ENDBRANCH  10  12
ENDBRANCH   7  10
ENDBRANCH   5   6
BRANCH   5  16
HETATM   16  C5  UNL     1      61.165  35.844  73.595  1.00  0.00     0.119 C 
HETATM   17  S1  UNL     1      59.835  35.987  72.391  1.00  0.00    -0.095 SA
ENDBRANCH   5  16
ENDBRANCH   1   5
BRANCH   1  18
HETATM   18  N4  UNL     1      59.082  33.084  74.533  1.00  0.00    -0.360 N 
ATOM     19  H4  UNL     1      58.721  32.661  73.678  1.00  0.00     0.162 HD
BRANCH  18  20
HETATM   20  C7  UNL     1      58.283  33.039  75.732  1.00  0.00     0.124 A 
HETATM   21  C9  UNL     1      57.444  31.764  75.895  1.00  0.00     0.060 A 
HETATM   22  C10 UNL     1      58.555  32.146  76.856  1.00  0.00     0.127 A 
BRANCH  20  23
HETATM   23  C8  UNL     1      57.401  34.240  75.962  1.00  0.00     0.260 C 
HETATM   24  N5  UNL     1      56.846  34.412  77.237  1.00  0.00    -0.060 NA
HETATM   25  O2  UNL     1      57.200  35.033  75.011  1.00  0.00    -0.274 OA
ENDBRANCH  20  23
BRANCH  22  26
HETATM   26  C11 UNL     1      59.659  31.170  76.841  1.00  0.00     0.180 C 
HETATM   27  O3  UNL     1      59.966  30.568  75.796  1.00  0.00    -0.648 OA
HETATM   28  O4  UNL     1      60.364  30.918  77.996  1.00  0.00    -0.648 OA
ENDBRANCH  22  26
ENDBRANCH  18  20
ENDBRANCH   1  18
TORSDOF 9
ENDMDL
