MODEL 1
REMARK VINA RESULT: -7.921543126      0.000      0.000
REMARK  3 active torsions:
REMARK  status: ('A' for Active; 'I' for Inactive)
REMARK    1  A    between atoms: N3_7  and  C3_8 
REMARK    2  A    between atoms: N4_11  and  C6_12 
REMARK    3  A    between atoms: C6_12  and  N5_14 
ROOT
HETATM    1  C3  UNL     1      10.806  14.101  15.079  1.00  0.00     0.131 C 
HETATM    2  C4  UNL     1      11.219  13.580  16.458  1.00  0.00     0.049 C 
HETATM    3  C5  UNL     1      12.677  13.094  16.240  1.00  0.00     0.127 C 
HETATM    4  N4  UNL     1      13.455  14.259  15.981  1.00  0.00    -0.358 N 
HETATM    5  C13 UNL     1      12.777  15.509  15.679  1.00  0.00     0.127 C 
HETATM    6  C14 UNL     1      11.616  15.334  14.743  1.00  0.00     0.049 C 
ENDROOT
BRANCH   1   7
HETATM    7  N3  UNL     1       9.389  14.379  15.008  1.00  0.00    -0.213 N 
HETATM    8  N2  UNL     1       8.463  13.741  15.730  1.00  0.00    -0.224 N 
HETATM    9  N1  UNL     1       7.261  14.206  15.457  1.00  0.00    -0.272 N 
ATOM     10  H2  UNL     1       8.660  12.997  16.399  1.00  0.00     0.210 HD
HETATM   11  C2  UNL     1       7.405  15.173  14.534  1.00  0.00     0.109 A 
ATOM     12  H1  UNL     1       6.384  13.890  15.870  1.00  0.00     0.190 HD
HETATM   13  C1  UNL     1       6.269  15.951  13.959  1.00  0.00     0.092 C 
HETATM   14  N6  UNL     1       8.717  15.253  14.282  1.00  0.00    -0.270 N 
ATOM     15  H6  UNL     1       9.140  15.901  13.618  1.00  0.00     0.190 HD
ENDBRANCH   1   7
BRANCH   4  16
HETATM   16  C6  UNL     1      14.869  14.244  15.990  1.00  0.00     0.172 C 
HETATM   17  S1  UNL     1      15.556  14.629  14.499  1.00  0.00    -0.041 SA
BRANCH  16  18
HETATM   18  N5  UNL     1      15.776  13.975  17.000  1.00  0.00    -0.358 N 
HETATM   19  C7  UNL     1      17.151  13.670  16.543  1.00  0.00     0.125 C 
HETATM   20  C8  UNL     1      17.524  12.249  16.861  1.00  0.00     0.020 C 
HETATM   21  C9  UNL     1      16.432  11.470  17.520  1.00  0.00     0.002 C 
HETATM   22  C10 UNL     1      16.369  11.785  19.000  1.00  0.00     0.002 C 
HETATM   23  C11 UNL     1      16.544  13.256  19.232  1.00  0.00     0.020 C 
HETATM   24  C12 UNL     1      15.450  13.964  18.398  1.00  0.00     0.125 C 
ENDBRANCH  16  18
ENDBRANCH   4  16
TORSDOF 3
ENDMDL
MODEL 2
REMARK VINA RESULT: -7.423197768      1.945      7.860
REMARK  3 active torsions:
REMARK  status: ('A' for Active; 'I' for Inactive)
REMARK    1  A    between atoms: N3_7  and  C3_8 
REMARK    2  A    between atoms: N4_11  and  C6_12 
REMARK    3  A    between atoms: C6_12  and  N5_14 
ROOT
HETATM    1  C3  UNL     1      15.262  14.362  16.659  1.00  0.00     0.131 C 
HETATM    2  C4  UNL     1      14.166  14.413  17.727  1.00  0.00     0.049 C 
HETATM    3  C5  UNL     1      13.008  15.168  17.022  1.00  0.00     0.127 C 
HETATM    4  N4  UNL     1      12.542  14.311  15.984  1.00  0.00    -0.358 N 
HETATM    5  C13 UNL     1      13.347  13.161  15.601  1.00  0.00     0.127 C 
HETATM    6  C14 UNL     1      14.812  13.475  15.518  1.00  0.00     0.049 C 
ENDROOT
BRANCH   1   7
HETATM    7  N3  UNL     1      16.523  13.908  17.200  1.00  0.00    -0.213 N 
HETATM    8  N2  UNL     1      17.603  13.639  16.460  1.00  0.00    -0.224 N 
HETATM    9  N1  UNL     1      18.602  13.247  17.223  1.00  0.00    -0.272 N 
ATOM     10  H2  UNL     1      17.647  13.726  15.445  1.00  0.00     0.210 HD
HETATM   11  C2  UNL     1      18.164  13.259  18.495  1.00  0.00     0.109 A 
ATOM     12  H1  UNL     1      19.535  12.982  16.908  1.00  0.00     0.190 HD
HETATM   13  C1  UNL     1      19.003  12.877  19.668  1.00  0.00     0.092 C 
HETATM   14  N6  UNL     1      16.891  13.668  18.445  1.00  0.00    -0.270 N 
ATOM     15  H6  UNL     1      16.286  13.778  19.258  1.00  0.00     0.190 HD
ENDBRANCH   1   7
BRANCH   4  16
HETATM   16  C6  UNL     1      11.329  14.543  15.294  1.00  0.00     0.172 C 
HETATM   17  S1  UNL     1      11.310  15.994  14.434  1.00  0.00    -0.041 SA
BRANCH  16  18
HETATM   18  N5  UNL     1      10.170  13.793  15.201  1.00  0.00    -0.358 N 
HETATM   19  C7  UNL     1       9.477  13.869  13.894  1.00  0.00     0.125 C 
HETATM   20  C8  UNL     1       8.137  14.534  14.031  1.00  0.00     0.020 C 
HETATM   21  C9  UNL     1       7.828  14.993  15.419  1.00  0.00     0.002 C 
HETATM   22  C10 UNL     1       7.340  13.838  16.268  1.00  0.00     0.002 C 
HETATM   23  C11 UNL     1       8.158  12.610  16.003  1.00  0.00     0.020 C 
HETATM   24  C12 UNL     1       9.633  13.000  16.270  1.00  0.00     0.125 C 
ENDBRANCH  16  18
ENDBRANCH   4  16
TORSDOF 3
ENDMDL
MODEL 3
REMARK VINA RESULT: -7.357608070      2.303      3.426
REMARK  3 active torsions:
REMARK  status: ('A' for Active; 'I' for Inactive)
REMARK    1  A    between atoms: N3_7  and  C3_8 
REMARK    2  A    between atoms: N4_11  and  C6_12 
REMARK    3  A    between atoms: C6_12  and  N5_14 
ROOT
HETATM    1  C3  UNL     1      12.666  14.514  16.042  1.00  0.00     0.131 C 
HETATM    2  C4  UNL     1      13.646  13.395  15.682  1.00  0.00     0.049 C 
HETATM    3  C5  UNL     1      15.023  13.965  16.117  1.00  0.00     0.127 C 
HETATM    4  N4  UNL     1      14.990  14.052  17.538  1.00  0.00    -0.358 N 
HETATM    5  C13 UNL     1      13.716  13.918  18.227  1.00  0.00     0.127 C 
HETATM    6  C14 UNL     1      12.604  14.663  17.547  1.00  0.00     0.049 C 
ENDROOT
BRANCH   1   7
HETATM    7  N3  UNL     1      11.350  14.278  15.493  1.00  0.00    -0.213 N 
HETATM    8  N2  UNL     1      10.978  14.630  14.259  1.00  0.00    -0.224 N 
HETATM    9  N1  UNL     1       9.726  14.288  14.035  1.00  0.00    -0.272 N 
ATOM     10  H2  UNL     1      11.581  15.100  13.583  1.00  0.00     0.210 HD
HETATM   11  C2  UNL     1       9.267  13.696  15.153  1.00  0.00     0.109 A 
ATOM     12  H1  UNL     1       9.202  14.444  13.175  1.00  0.00     0.190 HD
HETATM   13  C1  UNL     1       7.882  13.163  15.303  1.00  0.00     0.092 C 
HETATM   14  N6  UNL     1      10.284  13.707  16.022  1.00  0.00    -0.270 N 
ATOM     15  H6  UNL     1      10.241  13.326  16.967  1.00  0.00     0.190 HD
ENDBRANCH   1   7
BRANCH   4  16
HETATM   16  C6  UNL     1      16.153  14.281  18.312  1.00  0.00     0.172 C 
HETATM   17  S1  UNL     1      17.566  13.716  17.587  1.00  0.00    -0.041 SA
BRANCH  16  18
HETATM   18  N5  UNL     1      16.329  14.885  19.545  1.00  0.00    -0.358 N 
HETATM   19  C7  UNL     1      16.721  13.970  20.640  1.00  0.00     0.125 C 
HETATM   20  C8  UNL     1      15.642  13.881  21.683  1.00  0.00     0.020 C 
HETATM   21  C9  UNL     1      14.427  14.691  21.366  1.00  0.00     0.002 C 
HETATM   22  C10 UNL     1      14.648  16.147  21.719  1.00  0.00     0.002 C 
HETATM   23  C11 UNL     1      16.021  16.585  21.307  1.00  0.00     0.020 C 
HETATM   24  C12 UNL     1      16.140  16.286  19.792  1.00  0.00     0.125 C 
ENDBRANCH  16  18
ENDBRANCH   4  16
TORSDOF 3
ENDMDL
MODEL 4
REMARK VINA RESULT: -7.263847312      1.951      2.982
REMARK  3 active torsions:
REMARK  status: ('A' for Active; 'I' for Inactive)
REMARK    1  A    between atoms: N3_7  and  C3_8 
REMARK    2  A    between atoms: N4_11  and  C6_12 
REMARK    3  A    between atoms: C6_12  and  N5_14 
ROOT
HETATM    1  C3  UNL     1      12.983  14.479  15.927  1.00  0.00     0.131 C 
HETATM    2  C4  UNL     1      13.712  13.184  15.558  1.00  0.00     0.049 C 
HETATM    3  C5  UNL     1      15.208  13.534  15.780  1.00  0.00     0.127 C 
HETATM    4  N4  UNL     1      15.373  13.722  17.182  1.00  0.00    -0.358 N 
HETATM    5  C13 UNL     1      14.193  13.860  18.021  1.00  0.00     0.127 C 
HETATM    6  C14 UNL     1      13.140  14.739  17.410  1.00  0.00     0.049 C 
ENDROOT
BRANCH   1   7
HETATM    7  N3  UNL     1      11.587  14.437  15.555  1.00  0.00    -0.213 N 
HETATM    8  N2  UNL     1      10.987  15.355  14.791  1.00  0.00    -0.224 N 
HETATM    9  N1  UNL     1       9.716  15.057  14.621  1.00  0.00    -0.272 N 
ATOM     10  H2  UNL     1      11.451  16.173  14.395  1.00  0.00     0.210 HD
HETATM   11  C2  UNL     1       9.478  13.915  15.290  1.00  0.00     0.109 A 
ATOM     12  H1  UNL     1       9.037  15.594  14.081  1.00  0.00     0.190 HD
HETATM   13  C1  UNL     1       8.147  13.244  15.344  1.00  0.00     0.092 C 
HETATM   14  N6  UNL     1      10.642  13.564  15.850  1.00  0.00    -0.270 N 
ATOM     15  H6  UNL     1      10.780  12.735  16.426  1.00  0.00     0.190 HD
ENDBRANCH   1   7
BRANCH   4  16
HETATM   16  C6  UNL     1      16.647  13.798  17.793  1.00  0.00     0.172 C 
HETATM   17  S1  UNL     1      17.925  13.584  16.715  1.00  0.00    -0.041 SA
BRANCH  16  18
HETATM   18  N5  UNL     1      17.021  14.018  19.107  1.00  0.00    -0.358 N 
HETATM   19  C7  UNL     1      17.894  12.976  19.693  1.00  0.00     0.125 C 
HETATM   20  C8  UNL     1      17.195  12.248  20.807  1.00  0.00     0.020 C 
HETATM   21  C9  UNL     1      15.792  12.706  21.041  1.00  0.00     0.002 C 
HETATM   22  C10 UNL     1      15.775  13.978  21.863  1.00  0.00     0.002 C 
HETATM   23  C11 UNL     1      16.848  14.917  21.399  1.00  0.00     0.020 C 
HETATM   24  C12 UNL     1      16.604  15.148  19.888  1.00  0.00     0.125 C 
ENDBRANCH  16  18
ENDBRANCH   4  16
TORSDOF 3
ENDMDL
MODEL 5
REMARK VINA RESULT: -7.234962639      1.136      1.550
REMARK  3 active torsions:
REMARK  status: ('A' for Active; 'I' for Inactive)
REMARK    1  A    between atoms: N3_7  and  C3_8 
REMARK    2  A    between atoms: N4_11  and  C6_12 
REMARK    3  A    between atoms: C6_12  and  N5_14 
ROOT
HETATM    1  C3  UNL     1      11.278  14.380  16.080  1.00  0.00     0.131 C 
HETATM    2  C4  UNL     1      12.161  15.449  15.428  1.00  0.00     0.049 C 
HETATM    3  C5  UNL     1      13.383  15.539  16.380  1.00  0.00     0.127 C 
HETATM    4  N4  UNL     1      14.074  14.299  16.267  1.00  0.00    -0.358 N 
HETATM    5  C13 UNL     1      13.416  13.180  15.610  1.00  0.00     0.127 C 
HETATM    6  C14 UNL     1      11.974  13.038  16.003  1.00  0.00     0.049 C 
ENDROOT
BRANCH   1   7
HETATM    7  N3  UNL     1       9.968  14.318  15.473  1.00  0.00    -0.213 N 
HETATM    8  N2  UNL     1       9.261  13.193  15.328  1.00  0.00    -0.224 N 
HETATM    9  N1  UNL     1       8.108  13.442  14.744  1.00  0.00    -0.272 N 
ATOM     10  H2  UNL     1       9.573  12.270  15.629  1.00  0.00     0.210 HD
HETATM   11  C2  UNL     1       8.058  14.764  14.501  1.00  0.00     0.109 A 
ATOM     12  H1  UNL     1       7.385  12.759  14.518  1.00  0.00     0.190 HD
HETATM   13  C1  UNL     1       6.906  15.448  13.845  1.00  0.00     0.092 C 
HETATM   14  N6  UNL     1       9.210  15.269  14.958  1.00  0.00    -0.270 N 
ATOM     15  H6  UNL     1       9.468  16.254  14.915  1.00  0.00     0.190 HD
ENDBRANCH   1   7
BRANCH   4  16
HETATM   16  C6  UNL     1      15.376  14.105  16.784  1.00  0.00     0.172 C 
HETATM   17  S1  UNL     1      16.564  13.984  15.593  1.00  0.00    -0.041 SA
BRANCH  16  18
HETATM   18  N5  UNL     1      15.839  14.001  18.084  1.00  0.00    -0.358 N 
HETATM   19  C7  UNL     1      17.304  14.144  18.241  1.00  0.00     0.125 C 
HETATM   20  C8  UNL     1      17.925  12.862  18.719  1.00  0.00     0.020 C 
HETATM   21  C9  UNL     1      16.948  11.744  18.889  1.00  0.00     0.002 C 
HETATM   22  C10 UNL     1      16.209  11.875  20.204  1.00  0.00     0.002 C 
HETATM   23  C11 UNL     1      15.828  13.304  20.452  1.00  0.00     0.020 C 
HETATM   24  C12 UNL     1      15.001  13.756  19.223  1.00  0.00     0.125 C 
ENDBRANCH  16  18
ENDBRANCH   4  16
TORSDOF 3
ENDMDL
