MODEL 1
REMARK VINA RESULT: -7.293370623      0.000      0.000
REMARK  7 active torsions:
REMARK  status: ('A' for Active; 'I' for Inactive)
REMARK    1  A    between atoms: C2_2  and  C3_3 
REMARK    2  A    between atoms: N1_7  and  N2_9 
REMARK    3  A    between atoms: N2_9  and  C7_10 
REMARK    4  A    between atoms: C9_15  and  N5_16 
REMARK    5  A    between atoms: C10_19  and  N6_20 
REMARK    6  A    between atoms: C11_27  and  N9_28 
REMARK    7  A    between atoms: N10_31  and  O3_32 
ROOT
HETATM    1  C3  UNL     1      30.765 -64.656  46.146  1.00  0.00     0.090 A 
HETATM    2  C4  UNL     1      31.347 -63.725  45.359  1.00  0.00     0.015 A 
HETATM    3  C5  UNL     1      31.615 -62.338  45.850  1.00  0.00     0.055 C 
HETATM    4  C6  UNL     1      31.766 -64.078  44.080  1.00  0.00     0.155 A 
HETATM    5  N1  UNL     1      32.266 -63.307  43.258  1.00  0.00    -0.214 N 
ATOM      6  H1  UNL     1      32.457 -63.888  42.442  1.00  0.00     0.203 HD
HETATM    7  N8  UNL     1      31.565 -65.379  43.683  1.00  0.00    -0.172 N 
ATOM      8  H8  UNL     1      31.870 -65.649  42.748  1.00  0.00     0.186 HD
HETATM    9  C11 UNL     1      30.996 -66.307  44.449  1.00  0.00     0.709 A 
HETATM   10  N10 UNL     1      30.603 -65.924  45.677  1.00  0.00    -0.052 N 
ENDROOT
BRANCH   5  11
HETATM   11  N2  UNL     1      32.649 -62.183  42.937  1.00  0.00    -0.286 NA
BRANCH  11  12
HETATM   12  C7  UNL     1      33.028 -61.073  42.618  1.00  0.00     0.284 A 
HETATM   13  N3  UNL     1      32.918 -60.010  43.488  1.00  0.00    -0.301 N 
HETATM   14  C8  UNL     1      33.325 -58.779  43.202  1.00  0.00     0.157 A 
ATOM     15  H3  UNL     1      32.499 -60.178  44.403  1.00  0.00     0.171 HD
HETATM   16  N4  UNL     1      33.217 -57.673  44.099  1.00  0.00    -0.080 NA
HETATM   17  C9  UNL     1      33.896 -58.528  41.971  1.00  0.00     0.187 A 
HETATM   18  C10 UNL     1      34.027 -59.555  41.070  1.00  0.00     0.139 A 
HETATM   19  N7  UNL     1      33.596 -60.753  41.428  1.00  0.00    -0.299 N 
ATOM     20  H7  UNL     1      33.701 -61.506  40.747  1.00  0.00     0.171 HD
BRANCH  17  21
HETATM   21  N5  UNL     1      34.360 -57.243  41.600  1.00  0.00    -0.108 N 
HETATM   22  O1  UNL     1      33.599 -56.466  41.024  1.00  0.00    -0.532 OA
HETATM   23  O2  UNL     1      35.641 -56.881  41.882  1.00  0.00    -0.532 OA
ENDBRANCH  17  21
BRANCH  18  24
HETATM   24  N6  UNL     1      34.557 -59.323  39.909  1.00  0.00    -0.383 N 
ATOM     25  H62 UNL     1      34.443 -58.434  39.422  1.00  0.00     0.157 HD
ATOM     26  H61 UNL     1      35.113 -60.048  39.458  1.00  0.00     0.157 HD
ENDBRANCH  18  24
ENDBRANCH  11  12
ENDBRANCH   5  11
BRANCH   1  27
HETATM   27  C2  UNL     1      30.214 -64.409  47.469  1.00  0.00     0.023 C 
HETATM   28  C1  UNL     1      29.004 -64.012  47.760  1.00  0.00     0.013 C 
ENDBRANCH   1  27
BRANCH   9  29
HETATM   29  N9  UNL     1      30.780 -67.648  44.040  1.00  0.00    -0.209 N 
HETATM   30  C12 UNL     1      31.113 -68.176  42.946  1.00  0.00     0.137 C 
ATOM     31  H9  UNL     1      30.301 -68.254  44.707  1.00  0.00     0.182 HD
ENDBRANCH   9  29
BRANCH  10  32
HETATM   32  O3  UNL     1      30.010 -66.864  46.506  1.00  0.00    -0.269 OA
ATOM     33  H3  UNL     1      29.088 -67.056  46.383  1.00  0.00     0.245 HD
ENDBRANCH  10  32
TORSDOF 7
ENDMDL
MODEL 2
REMARK VINA RESULT: -7.204327262      0.497      1.808
REMARK  7 active torsions:
REMARK  status: ('A' for Active; 'I' for Inactive)
REMARK    1  A    between atoms: C2_2  and  C3_3 
REMARK    2  A    between atoms: N1_7  and  N2_9 
REMARK    3  A    between atoms: N2_9  and  C7_10 
REMARK    4  A    between atoms: C9_15  and  N5_16 
REMARK    5  A    between atoms: C10_19  and  N6_20 
REMARK    6  A    between atoms: C11_27  and  N9_28 
REMARK    7  A    between atoms: N10_31  and  O3_32 
ROOT
HETATM    1  C3  UNL     1      30.596 -65.164  46.132  1.00  0.00     0.090 A 
HETATM    2  C4  UNL     1      31.177 -64.160  45.439  1.00  0.00     0.015 A 
HETATM    3  C5  UNL     1      31.435 -62.824  46.059  1.00  0.00     0.055 C 
HETATM    4  C6  UNL     1      31.604 -64.389  44.134  1.00  0.00     0.155 A 
HETATM    5  N1  UNL     1      32.104 -63.541  43.391  1.00  0.00    -0.214 N 
ATOM      6  H1  UNL     1      32.301 -64.043  42.525  1.00  0.00     0.203 HD
HETATM    7  N8  UNL     1      31.413 -65.648  43.616  1.00  0.00    -0.172 N 
ATOM      8  H8  UNL     1      31.724 -65.827  42.661  1.00  0.00     0.186 HD
HETATM    9  C11 UNL     1      30.845 -66.647  44.288  1.00  0.00     0.709 A 
HETATM   10  N10 UNL     1      30.444 -66.383  45.544  1.00  0.00    -0.052 N 
ENDROOT
BRANCH   5  11
HETATM   11  N2  UNL     1      32.481 -62.391  43.179  1.00  0.00    -0.286 NA
BRANCH  11  12
HETATM   12  C7  UNL     1      32.856 -61.253  42.969  1.00  0.00     0.284 A 
HETATM   13  N3  UNL     1      33.549 -60.936  41.821  1.00  0.00    -0.301 N 
HETATM   14  C8  UNL     1      33.973 -59.712  41.530  1.00  0.00     0.157 A 
ATOM     15  H3  UNL     1      33.748 -61.684  41.157  1.00  0.00     0.171 HD
HETATM   16  N4  UNL     1      34.689 -59.375  40.342  1.00  0.00    -0.080 NA
HETATM   17  C9  UNL     1      33.714 -58.683  42.414  1.00  0.00     0.187 A 
HETATM   18  C10 UNL     1      33.028 -58.950  43.572  1.00  0.00     0.139 A 
HETATM   19  N7  UNL     1      32.640 -60.195  43.790  1.00  0.00    -0.299 N 
ATOM     20  H7  UNL     1      32.130 -60.377  44.656  1.00  0.00     0.171 HD
BRANCH  17  21
HETATM   21  N5  UNL     1      34.129 -57.353  42.167  1.00  0.00    -0.108 N 
HETATM   22  O1  UNL     1      35.247 -56.988  42.530  1.00  0.00    -0.532 OA
HETATM   23  O2  UNL     1      33.288 -56.490  41.533  1.00  0.00    -0.532 OA
ENDBRANCH  17  21
BRANCH  18  24
HETATM   24  N6  UNL     1      32.788 -57.988  44.408  1.00  0.00    -0.383 N 
ATOM     25  H62 UNL     1      32.386 -57.097  44.118  1.00  0.00     0.157 HD
ATOM     26  H61 UNL     1      33.003 -58.117  45.397  1.00  0.00     0.157 HD
ENDBRANCH  18  24
ENDBRANCH  11  12
ENDBRANCH   5  11
BRANCH   1  27
HETATM   27  C2  UNL     1      30.038 -65.045  47.469  1.00  0.00     0.023 C 
HETATM   28  C1  UNL     1      29.058 -64.270  47.851  1.00  0.00     0.013 C 
ENDBRANCH   1  27
BRANCH   9  29
HETATM   29  N9  UNL     1      30.639 -67.945  43.754  1.00  0.00    -0.209 N 
HETATM   30  C12 UNL     1      31.326 -68.526  42.873  1.00  0.00     0.137 C 
ATOM     31  H9  UNL     1      29.845 -68.466  44.124  1.00  0.00     0.182 HD
ENDBRANCH   9  29
BRANCH  10  32
HETATM   32  O3  UNL     1      29.853 -67.400  46.279  1.00  0.00    -0.269 OA
ATOM     33  H3  UNL     1      30.372 -67.838  46.942  1.00  0.00     0.245 HD
ENDBRANCH  10  32
TORSDOF 7
ENDMDL
MODEL 3
REMARK VINA RESULT: -7.188912055      2.132      8.741
REMARK  7 active torsions:
REMARK  status: ('A' for Active; 'I' for Inactive)
REMARK    1  A    between atoms: C2_2  and  C3_3 
REMARK    2  A    between atoms: N1_7  and  N2_9 
REMARK    3  A    between atoms: N2_9  and  C7_10 
REMARK    4  A    between atoms: C9_15  and  N5_16 
REMARK    5  A    between atoms: C10_19  and  N6_20 
REMARK    6  A    between atoms: C11_27  and  N9_28 
REMARK    7  A    between atoms: N10_31  and  O3_32 
ROOT
HETATM    1  C3  UNL     1      35.454 -61.924  41.921  1.00  0.00     0.090 A 
HETATM    2  C4  UNL     1      34.566 -62.659  42.625  1.00  0.00     0.015 A 
HETATM    3  C5  UNL     1      34.872 -64.057  43.059  1.00  0.00     0.055 C 
HETATM    4  C6  UNL     1      33.359 -62.084  43.014  1.00  0.00     0.155 A 
HETATM    5  N1  UNL     1      32.457 -62.667  43.617  1.00  0.00    -0.214 N 
ATOM      6  H1  UNL     1      31.732 -61.959  43.744  1.00  0.00     0.203 HD
HETATM    7  N8  UNL     1      33.137 -60.775  42.656  1.00  0.00    -0.172 N 
ATOM      8  H8  UNL     1      32.256 -60.343  42.937  1.00  0.00     0.186 HD
HETATM    9  C11 UNL     1      34.004 -60.039  41.965  1.00  0.00     0.709 A 
HETATM   10  N10 UNL     1      35.156 -60.633  41.608  1.00  0.00    -0.052 N 
ENDROOT
BRANCH   5  11
HETATM   11  N2  UNL     1      31.998 -63.680  44.142  1.00  0.00    -0.286 NA
BRANCH  11  12
HETATM   12  C7  UNL     1      31.545 -64.682  44.662  1.00  0.00     0.284 A 
HETATM   13  N3  UNL     1      31.179 -65.770  43.901  1.00  0.00    -0.301 N 
HETATM   14  C8  UNL     1      30.691 -66.896  44.410  1.00  0.00     0.157 A 
ATOM     15  H3  UNL     1      31.287 -65.709  42.888  1.00  0.00     0.171 HD
HETATM   16  N4  UNL     1      30.312 -68.029  43.628  1.00  0.00    -0.080 NA
HETATM   17  C9  UNL     1      30.537 -67.003  45.777  1.00  0.00     0.187 A 
HETATM   18  C10 UNL     1      30.888 -65.944  46.577  1.00  0.00     0.139 A 
HETATM   19  N7  UNL     1      31.365 -64.857  45.994  1.00  0.00    -0.299 N 
ATOM     20  H7  UNL     1      31.622 -64.079  46.603  1.00  0.00     0.171 HD
BRANCH  17  21
HETATM   21  N5  UNL     1      30.032 -68.174  46.392  1.00  0.00    -0.108 N 
HETATM   22  O1  UNL     1      28.819 -68.290  46.570  1.00  0.00    -0.532 OA
HETATM   23  O2  UNL     1      30.889 -69.156  46.780  1.00  0.00    -0.532 OA
ENDBRANCH  17  21
BRANCH  18  24
HETATM   24  N6  UNL     1      30.739 -66.038  47.863  1.00  0.00    -0.383 N 
ATOM     25  H62 UNL     1      30.796 -66.927  48.358  1.00  0.00     0.157 HD
ATOM     26  H61 UNL     1      30.560 -65.196  48.410  1.00  0.00     0.157 HD
ENDBRANCH  18  24
ENDBRANCH  11  12
ENDBRANCH   5  11
BRANCH   1  27
HETATM   27  C2  UNL     1      36.715 -62.417  41.388  1.00  0.00     0.023 C 
HETATM   28  C1  UNL     1      37.740 -62.859  42.066  1.00  0.00     0.013 C 
ENDBRANCH   1  27
BRANCH   9  29
HETATM   29  N9  UNL     1      33.774 -58.690  41.588  1.00  0.00    -0.209 N 
HETATM   30  C12 UNL     1      33.807 -57.674  42.330  1.00  0.00     0.137 C 
ATOM     31  H9  UNL     1      33.557 -58.525  40.605  1.00  0.00     0.182 HD
ENDBRANCH   9  29
BRANCH  10  32
HETATM   32  O3  UNL     1      36.087 -59.896  40.890  1.00  0.00    -0.269 OA
ATOM     33  H3  UNL     1      35.831 -59.043  40.563  1.00  0.00     0.245 HD
ENDBRANCH  10  32
TORSDOF 7
ENDMDL
MODEL 4
REMARK VINA RESULT: -7.188881248      2.947      9.379
REMARK  7 active torsions:
REMARK  status: ('A' for Active; 'I' for Inactive)
REMARK    1  A    between atoms: C2_2  and  C3_3 
REMARK    2  A    between atoms: N1_7  and  N2_9 
REMARK    3  A    between atoms: N2_9  and  C7_10 
REMARK    4  A    between atoms: C9_15  and  N5_16 
REMARK    5  A    between atoms: C10_19  and  N6_20 
REMARK    6  A    between atoms: C11_27  and  N9_28 
REMARK    7  A    between atoms: N10_31  and  O3_32 
ROOT
HETATM    1  C3  UNL     1      32.020 -61.194  44.196  1.00  0.00     0.090 A 
HETATM    2  C4  UNL     1      31.668 -62.261  44.947  1.00  0.00     0.015 A 
HETATM    3  C5  UNL     1      31.731 -63.655  44.410  1.00  0.00     0.055 C 
HETATM    4  C6  UNL     1      31.298 -62.069  46.276  1.00  0.00     0.155 A 
HETATM    5  N1  UNL     1      30.916 -62.956  47.041  1.00  0.00    -0.214 N 
ATOM      6  H1  UNL     1      30.734 -62.474  47.923  1.00  0.00     0.203 HD
HETATM    7  N8  UNL     1      31.315 -60.782  46.758  1.00  0.00    -0.172 N 
ATOM      8  H8  UNL     1      31.046 -60.630  47.731  1.00  0.00     0.186 HD
HETATM    9  C11 UNL     1      31.662 -59.723  46.031  1.00  0.00     0.709 A 
HETATM   10  N10 UNL     1      32.010 -59.952  44.753  1.00  0.00    -0.052 N 
ENDROOT
BRANCH   5  11
HETATM   11  N2  UNL     1      30.645 -64.134  47.268  1.00  0.00    -0.286 NA
BRANCH  11  12
HETATM   12  C7  UNL     1      30.379 -65.299  47.493  1.00  0.00     0.284 A 
HETATM   13  N3  UNL     1      30.120 -66.177  46.464  1.00  0.00    -0.301 N 
HETATM   14  C8  UNL     1      29.837 -67.462  46.644  1.00  0.00     0.157 A 
ATOM     15  H3  UNL     1      30.146 -65.820  45.508  1.00  0.00     0.171 HD
HETATM   16  N4  UNL     1      29.569 -68.378  45.583  1.00  0.00    -0.080 NA
HETATM   17  C9  UNL     1      29.797 -67.967  47.928  1.00  0.00     0.187 A 
HETATM   18  C10 UNL     1      30.048 -67.130  48.987  1.00  0.00     0.139 A 
HETATM   19  N7  UNL     1      30.322 -65.863  48.725  1.00  0.00    -0.299 N 
ATOM     20  H7  UNL     1      30.506 -65.255  49.523  1.00  0.00     0.171 HD
BRANCH  17  21
HETATM   21  N5  UNL     1      29.510 -69.327  48.197  1.00  0.00    -0.108 N 
HETATM   22  O1  UNL     1      30.436 -70.125  48.347  1.00  0.00    -0.532 OA
HETATM   23  O2  UNL     1      28.216 -69.739  48.285  1.00  0.00    -0.532 OA
ENDBRANCH  17  21
BRANCH  18  24
HETATM   24  N6  UNL     1      30.006 -67.599  50.196  1.00  0.00    -0.383 N 
ATOM     25  H62 UNL     1      29.294 -68.263  50.502  1.00  0.00     0.157 HD
ATOM     26  H61 UNL     1      30.707 -67.303  50.873  1.00  0.00     0.157 HD
ENDBRANCH  18  24
ENDBRANCH  11  12
ENDBRANCH   5  11
BRANCH   1  27
HETATM   27  C2  UNL     1      32.355 -61.239  42.782  1.00  0.00     0.023 C 
HETATM   28  C1  UNL     1      33.536 -61.422  42.255  1.00  0.00     0.013 C 
ENDBRANCH   1  27
BRANCH   9  29
HETATM   29  N9  UNL     1      31.673 -58.392  46.524  1.00  0.00    -0.209 N 
HETATM   30  C12 UNL     1      30.954 -57.911  47.439  1.00  0.00     0.137 C 
ATOM     31  H9  UNL     1      32.338 -57.753  46.088  1.00  0.00     0.182 HD
ENDBRANCH   9  29
BRANCH  10  32
HETATM   32  O3  UNL     1      32.382 -58.873  43.964  1.00  0.00    -0.269 OA
ATOM     33  H3  UNL     1      33.016 -58.257  44.311  1.00  0.00     0.245 HD
ENDBRANCH  10  32
TORSDOF 7
ENDMDL
MODEL 5
REMARK VINA RESULT: -7.188324470      2.153      8.619
REMARK  7 active torsions:
REMARK  status: ('A' for Active; 'I' for Inactive)
REMARK    1  A    between atoms: C2_2  and  C3_3 
REMARK    2  A    between atoms: N1_7  and  N2_9 
REMARK    3  A    between atoms: N2_9  and  C7_10 
REMARK    4  A    between atoms: C9_15  and  N5_16 
REMARK    5  A    between atoms: C10_19  and  N6_20 
REMARK    6  A    between atoms: C11_27  and  N9_28 
REMARK    7  A    between atoms: N10_31  and  O3_32 
ROOT
HETATM    1  C3  UNL     1      35.454 -61.931  41.937  1.00  0.00     0.090 A 
HETATM    2  C4  UNL     1      34.571 -62.687  42.624  1.00  0.00     0.015 A 
HETATM    3  C5  UNL     1      34.887 -64.093  43.026  1.00  0.00     0.055 C 
HETATM    4  C6  UNL     1      33.360 -62.130  43.025  1.00  0.00     0.155 A 
HETATM    5  N1  UNL     1      32.461 -62.733  43.615  1.00  0.00    -0.214 N 
ATOM      6  H1  UNL     1      31.732 -62.033  43.757  1.00  0.00     0.203 HD
HETATM    7  N8  UNL     1      33.129 -60.815  42.697  1.00  0.00    -0.172 N 
ATOM      8  H8  UNL     1      32.245 -60.396  42.987  1.00  0.00     0.186 HD
HETATM    9  C11 UNL     1      33.991 -60.057  42.023  1.00  0.00     0.709 A 
HETATM   10  N10 UNL     1      35.147 -60.635  41.653  1.00  0.00    -0.052 N 
ENDROOT
BRANCH   5  11
HETATM   11  N2  UNL     1      32.009 -63.760  44.116  1.00  0.00    -0.286 NA
BRANCH  11  12
HETATM   12  C7  UNL     1      31.564 -64.777  44.612  1.00  0.00     0.284 A 
HETATM   13  N3  UNL     1      31.448 -64.907  45.979  1.00  0.00    -0.301 N 
HETATM   14  C8  UNL     1      30.958 -65.986  46.579  1.00  0.00     0.157 A 
ATOM     15  H3  UNL     1      31.756 -64.130  46.564  1.00  0.00     0.171 HD
HETATM   16  N4  UNL     1      30.833 -66.126  47.994  1.00  0.00    -0.080 NA
HETATM   17  C9  UNL     1      30.534 -67.049  45.808  1.00  0.00     0.187 A 
HETATM   18  C10 UNL     1      30.630 -66.967  44.441  1.00  0.00     0.139 A 
HETATM   19  N7  UNL     1      31.130 -65.859  43.919  1.00  0.00    -0.299 N 
ATOM     20  H7  UNL     1      31.194 -65.814  42.901  1.00  0.00     0.171 HD
BRANCH  17  21
HETATM   21  N5  UNL     1      29.994 -68.227  46.376  1.00  0.00    -0.108 N 
HETATM   22  O1  UNL     1      28.784 -68.297  46.595  1.00  0.00    -0.532 OA
HETATM   23  O2  UNL     1      30.816 -69.269  46.676  1.00  0.00    -0.532 OA
ENDBRANCH  17  21
BRANCH  18  24
HETATM   24  N6  UNL     1      30.238 -67.966  43.712  1.00  0.00    -0.383 N 
ATOM     25  H62 UNL     1      29.933 -68.852  44.115  1.00  0.00     0.157 HD
ATOM     26  H61 UNL     1      30.229 -67.873  42.697  1.00  0.00     0.157 HD
ENDBRANCH  18  24
ENDBRANCH  11  12
ENDBRANCH   5  11
BRANCH   1  27
HETATM   27  C2  UNL     1      36.718 -62.403  41.394  1.00  0.00     0.023 C 
HETATM   28  C1  UNL     1      37.743 -62.863  42.061  1.00  0.00     0.013 C 
ENDBRANCH   1  27
BRANCH   9  29
HETATM   29  N9  UNL     1      33.752 -58.702  41.676  1.00  0.00    -0.209 N 
HETATM   30  C12 UNL     1      33.799 -57.700  42.437  1.00  0.00     0.137 C 
ATOM     31  H9  UNL     1      33.515 -58.519  40.701  1.00  0.00     0.182 HD
ENDBRANCH   9  29
BRANCH  10  32
HETATM   32  O3  UNL     1      36.073 -59.877  40.952  1.00  0.00    -0.269 OA
ATOM     33  H3  UNL     1      35.795 -59.042  40.594  1.00  0.00     0.245 HD
ENDBRANCH  10  32
TORSDOF 7
ENDMDL
