MODEL 1
REMARK VINA RESULT: -5.858569374      0.000      0.000
REMARK  8 active torsions:
REMARK  status: ('A' for Active; 'I' for Inactive)
REMARK    1  A    between atoms: S1_2  and  C2_3 
REMARK    2  A    between atoms: C2_3  and  N1_5 
REMARK    3  A    between atoms: N1_5  and  C4_7 
REMARK    4  A    between atoms: C5_10  and  C6_11 
REMARK    5  A    between atoms: C9_19  and  N6_20 
REMARK    6  A    between atoms: N8_26  and  C11_27 
REMARK    7  A    between atoms: C11_27  and  C13_29 
REMARK    8  A    between atoms: C13_29  and  N9_30 
ROOT
HETATM    1  C4  UNL     1     -20.371  31.294  10.932  1.00  0.00     0.683 A 
HETATM    2  N2  UNL     1     -20.740  31.315   9.659  1.00  0.00    -0.185 N 
ATOM      3  H2  UNL     1     -20.657  32.201   9.160  1.00  0.00     0.184 HD
HETATM    4  C5  UNL     1     -21.224  30.244   8.962  1.00  0.00     0.131 A 
HETATM    5  C7  UNL     1     -21.329  29.064   9.640  1.00  0.00     0.083 A 
HETATM    6  C8  UNL     1     -21.772  27.896   9.083  1.00  0.00     0.148 A 
HETATM    7  N4  UNL     1     -22.152  27.771   7.730  1.00  0.00    -0.081 NA
HETATM    8  N5  UNL     1     -21.816  26.780   9.855  1.00  0.00    -0.178 N 
ATOM      9  H5  UNL     1     -22.148  25.915   9.431  1.00  0.00     0.185 HD
HETATM   10  C9  UNL     1     -21.449  26.753  11.134  1.00  0.00     0.678 A 
HETATM   11  N7  UNL     1     -21.014  27.897  11.673  1.00  0.00    -0.175 N 
ATOM     12  H7  UNL     1     -20.728  27.895  12.652  1.00  0.00     0.186 HD
HETATM   13  C10 UNL     1     -20.935  29.070  10.973  1.00  0.00     0.155 A 
HETATM   14  N8  UNL     1     -20.466  30.154  11.618  1.00  0.00    -0.161 N 
ENDROOT
BRANCH  14  15
HETATM   15  C11 UNL     1     -20.086  30.039  13.013  1.00  0.00     0.131 C 
HETATM   16  C12 UNL     1     -21.126  30.608  13.949  1.00  0.00     0.035 C 
BRANCH  15  17
HETATM   17  C13 UNL     1     -18.759  30.681  13.310  1.00  0.00     0.255 C 
BRANCH  17  18
HETATM   18  N9  UNL     1     -17.760  29.628  13.308  1.00  0.00    -0.077 N 
ATOM     19  H93 UNL     1     -17.963  28.887  12.637  1.00  0.00     0.274 HD
ATOM     20  H92 UNL     1     -16.868  29.925  12.912  1.00  0.00     0.274 HD
ATOM     21  H91 UNL     1     -17.677  29.287  14.266  1.00  0.00     0.274 HD
ENDBRANCH  17  18
ENDBRANCH  15  17
ENDBRANCH  14  15
BRANCH   1  22
HETATM   22  N1  UNL     1     -19.923  32.352  11.515  1.00  0.00    -0.213 N 
ATOM     23  H1  UNL     1     -18.953  32.338  11.828  1.00  0.00     0.179 HD
BRANCH  22  24
HETATM   24  C2  UNL     1     -20.673  33.540  11.760  1.00  0.00     0.157 C 
HETATM   25  C3  UNL     1     -20.245  34.289  12.999  1.00  0.00     0.044 C 
BRANCH  24  26
HETATM   26  S1  UNL     1     -22.465  33.256  11.796  1.00  0.00    -0.148 SA
HETATM   27  C1  UNL     1     -23.246  33.906  10.320  1.00  0.00     0.092 C 
ENDBRANCH  24  26
ENDBRANCH  22  24
ENDBRANCH   1  22
BRANCH   4  28
HETATM   28  C6  UNL     1     -21.587  30.404   7.580  1.00  0.00     0.283 C 
HETATM   29  N3  UNL     1     -22.935  30.759   7.205  1.00  0.00    -0.056 NA
HETATM   30  O1  UNL     1     -20.753  30.240   6.667  1.00  0.00    -0.269 OA
ENDBRANCH   4  28
BRANCH  10  31
HETATM   31  N6  UNL     1     -21.508  25.670  11.832  1.00  0.00    -0.234 N 
ATOM     32  H62 UNL     1     -22.390  25.172  11.956  1.00  0.00     0.174 HD
ATOM     33  H61 UNL     1     -20.680  25.278  12.281  1.00  0.00     0.174 HD
ENDBRANCH  10  31
TORSDOF 8
ENDMDL
MODEL 2
REMARK VINA RESULT: -5.662727014      1.054      1.399
REMARK  8 active torsions:
REMARK  status: ('A' for Active; 'I' for Inactive)
REMARK    1  A    between atoms: S1_2  and  C2_3 
REMARK    2  A    between atoms: C2_3  and  N1_5 
REMARK    3  A    between atoms: N1_5  and  C4_7 
REMARK    4  A    between atoms: C5_10  and  C6_11 
REMARK    5  A    between atoms: C9_19  and  N6_20 
REMARK    6  A    between atoms: N8_26  and  C11_27 
REMARK    7  A    between atoms: C11_27  and  C13_29 
REMARK    8  A    between atoms: C13_29  and  N9_30 
ROOT
HETATM    1  C4  UNL     1     -20.443  31.293  10.908  1.00  0.00     0.683 A 
HETATM    2  N2  UNL     1     -20.819  31.306   9.636  1.00  0.00    -0.185 N 
ATOM      3  H2  UNL     1     -20.751  32.192   9.135  1.00  0.00     0.184 HD
HETATM    4  C5  UNL     1     -21.289  30.226   8.944  1.00  0.00     0.131 A 
HETATM    5  C7  UNL     1     -21.373  29.046   9.625  1.00  0.00     0.083 A 
HETATM    6  C8  UNL     1     -21.799  27.870   9.072  1.00  0.00     0.148 A 
HETATM    7  N4  UNL     1     -22.184  27.737   7.722  1.00  0.00    -0.081 NA
HETATM    8  N5  UNL     1     -21.823  26.756   9.847  1.00  0.00    -0.178 N 
ATOM      9  H5  UNL     1     -22.144  25.884   9.427  1.00  0.00     0.185 HD
HETATM   10  C9  UNL     1     -21.450  26.737  11.125  1.00  0.00     0.678 A 
HETATM   11  N7  UNL     1     -21.030  27.889  11.659  1.00  0.00    -0.175 N 
ATOM     12  H7  UNL     1     -20.740  27.893  12.637  1.00  0.00     0.186 HD
HETATM   13  C10 UNL     1     -20.973  29.061  10.956  1.00  0.00     0.155 A 
HETATM   14  N8  UNL     1     -20.517  30.153  11.596  1.00  0.00    -0.161 N 
ENDROOT
BRANCH  14  15
HETATM   15  C11 UNL     1     -20.129  30.047  12.990  1.00  0.00     0.131 C 
HETATM   16  C12 UNL     1     -21.156  30.638  13.927  1.00  0.00     0.035 C 
BRANCH  15  17
HETATM   17  C13 UNL     1     -18.793  30.676  13.272  1.00  0.00     0.255 C 
BRANCH  17  18
HETATM   18  N9  UNL     1     -17.806  29.611  13.268  1.00  0.00    -0.077 N 
ATOM     19  H93 UNL     1     -17.812  29.064  12.407  1.00  0.00     0.274 HD
ATOM     20  H92 UNL     1     -16.848  29.956  13.199  1.00  0.00     0.274 HD
ATOM     21  H91 UNL     1     -17.966  29.046  14.102  1.00  0.00     0.274 HD
ENDBRANCH  17  18
ENDBRANCH  15  17
ENDBRANCH  14  15
BRANCH   1  22
HETATM   22  N1  UNL     1     -20.009  32.359  11.487  1.00  0.00    -0.213 N 
ATOM     23  H1  UNL     1     -19.000  32.455  11.595  1.00  0.00     0.179 HD
BRANCH  22  24
HETATM   24  C2  UNL     1     -20.824  33.416  11.989  1.00  0.00     0.157 C 
HETATM   25  C3  UNL     1     -21.295  34.382  10.929  1.00  0.00     0.044 C 
BRANCH  24  26
HETATM   26  S1  UNL     1     -20.048  34.324  13.356  1.00  0.00    -0.148 SA
HETATM   27  C1  UNL     1     -21.271  35.250  14.284  1.00  0.00     0.092 C 
ENDBRANCH  24  26
ENDBRANCH  22  24
ENDBRANCH   1  22
BRANCH   4  28
HETATM   28  C6  UNL     1     -21.660  30.378   7.564  1.00  0.00     0.283 C 
HETATM   29  N3  UNL     1     -20.663  30.350   6.521  1.00  0.00    -0.056 NA
HETATM   30  O1  UNL     1     -22.850  30.541   7.226  1.00  0.00    -0.269 OA
ENDBRANCH   4  28
BRANCH  10  31
HETATM   31  N6  UNL     1     -21.489  25.655  11.825  1.00  0.00    -0.234 N 
ATOM     32  H62 UNL     1     -22.167  25.541  12.579  1.00  0.00     0.174 HD
ATOM     33  H61 UNL     1     -20.848  24.881  11.650  1.00  0.00     0.174 HD
ENDBRANCH  10  31
TORSDOF 8
ENDMDL
MODEL 3
REMARK VINA RESULT: -5.506868646      2.637      5.055
REMARK  8 active torsions:
REMARK  status: ('A' for Active; 'I' for Inactive)
REMARK    1  A    between atoms: S1_2  and  C2_3 
REMARK    2  A    between atoms: C2_3  and  N1_5 
REMARK    3  A    between atoms: N1_5  and  C4_7 
REMARK    4  A    between atoms: C5_10  and  C6_11 
REMARK    5  A    between atoms: C9_19  and  N6_20 
REMARK    6  A    between atoms: N8_26  and  C11_27 
REMARK    7  A    between atoms: C11_27  and  C13_29 
REMARK    8  A    between atoms: C13_29  and  N9_30 
ROOT
HETATM    1  C4  UNL     1     -20.831  30.324   7.994  1.00  0.00     0.683 A 
HETATM    2  N2  UNL     1     -20.045  30.845   8.928  1.00  0.00    -0.185 N 
ATOM      3  H2  UNL     1     -19.553  31.708   8.699  1.00  0.00     0.184 HD
HETATM    4  C5  UNL     1     -19.844  30.316  10.171  1.00  0.00     0.131 A 
HETATM    5  C7  UNL     1     -20.510  29.161  10.466  1.00  0.00     0.083 A 
HETATM    6  C8  UNL     1     -20.436  28.519  11.670  1.00  0.00     0.148 A 
HETATM    7  N4  UNL     1     -19.674  28.989  12.760  1.00  0.00    -0.081 NA
HETATM    8  N5  UNL     1     -21.160  27.385  11.850  1.00  0.00    -0.178 N 
ATOM      9  H5  UNL     1     -21.098  26.912  12.752  1.00  0.00     0.185 HD
HETATM   10  C9  UNL     1     -21.948  26.856  10.917  1.00  0.00     0.678 A 
HETATM   11  N7  UNL     1     -22.019  27.490   9.742  1.00  0.00    -0.175 N 
ATOM     12  H7  UNL     1     -22.619  27.100   9.015  1.00  0.00     0.186 HD
HETATM   13  C10 UNL     1     -21.327  28.638   9.469  1.00  0.00     0.155 A 
HETATM   14  N8  UNL     1     -21.491  29.196   8.256  1.00  0.00    -0.161 N 
ENDROOT
BRANCH  14  15
HETATM   15  C11 UNL     1     -22.370  28.556   7.296  1.00  0.00     0.131 C 
HETATM   16  C12 UNL     1     -23.478  29.467   6.823  1.00  0.00     0.035 C 
BRANCH  15  17
HETATM   17  C13 UNL     1     -22.976  27.283   7.817  1.00  0.00     0.255 C 
BRANCH  17  18
HETATM   18  N9  UNL     1     -24.022  26.891   6.890  1.00  0.00    -0.077 N 
ATOM     19  H93 UNL     1     -24.923  27.321   7.101  1.00  0.00     0.274 HD
ATOM     20  H92 UNL     1     -23.899  27.289   5.959  1.00  0.00     0.274 HD
ATOM     21  H91 UNL     1     -24.057  25.871   6.887  1.00  0.00     0.274 HD
ENDBRANCH  17  18
ENDBRANCH  15  17
ENDBRANCH  14  15
BRANCH   1  22
HETATM   22  N1  UNL     1     -20.966  30.888   6.844  1.00  0.00    -0.213 N 
ATOM     23  H1  UNL     1     -21.189  30.287   6.052  1.00  0.00     0.179 HD
BRANCH  22  24
HETATM   24  C2  UNL     1     -20.829  32.284   6.588  1.00  0.00     0.157 C 
HETATM   25  C3  UNL     1     -22.126  33.053   6.679  1.00  0.00     0.044 C 
BRANCH  24  26
HETATM   26  S1  UNL     1     -20.007  32.641   5.009  1.00  0.00    -0.148 SA
HETATM   27  C1  UNL     1     -18.673  33.816   5.234  1.00  0.00     0.092 C 
ENDBRANCH  24  26
ENDBRANCH  22  24
ENDBRANCH   1  22
BRANCH   4  28
HETATM   28  C6  UNL     1     -18.965  30.985  11.090  1.00  0.00     0.283 C 
HETATM   29  N3  UNL     1     -19.456  32.028  11.959  1.00  0.00    -0.056 NA
HETATM   30  O1  UNL     1     -17.755  30.689  11.164  1.00  0.00    -0.269 OA
ENDBRANCH   4  28
BRANCH  10  31
HETATM   31  N6  UNL     1     -22.618  25.775  11.131  1.00  0.00    -0.234 N 
ATOM     32  H62 UNL     1     -22.286  25.072  11.792  1.00  0.00     0.174 HD
ATOM     33  H61 UNL     1     -23.498  25.587  10.649  1.00  0.00     0.174 HD
ENDBRANCH  10  31
TORSDOF 8
ENDMDL
MODEL 4
REMARK VINA RESULT: -5.303835017      3.112      6.133
REMARK  8 active torsions:
REMARK  status: ('A' for Active; 'I' for Inactive)
REMARK    1  A    between atoms: S1_2  and  C2_3 
REMARK    2  A    between atoms: C2_3  and  N1_5 
REMARK    3  A    between atoms: N1_5  and  C4_7 
REMARK    4  A    between atoms: C5_10  and  C6_11 
REMARK    5  A    between atoms: C9_19  and  N6_20 
REMARK    6  A    between atoms: N8_26  and  C11_27 
REMARK    7  A    between atoms: C11_27  and  C13_29 
REMARK    8  A    between atoms: C13_29  and  N9_30 
ROOT
HETATM    1  C4  UNL     1     -19.233  31.164  13.030  1.00  0.00     0.683 A 
HETATM    2  N2  UNL     1     -19.308  32.273  13.753  1.00  0.00    -0.185 N 
ATOM      3  H2  UNL     1     -18.774  32.304  14.622  1.00  0.00     0.184 HD
HETATM    4  C5  UNL     1     -20.043  33.378  13.426  1.00  0.00     0.131 A 
HETATM    5  C7  UNL     1     -20.750  33.324  12.260  1.00  0.00     0.083 A 
HETATM    6  C8  UNL     1     -21.515  34.350  11.779  1.00  0.00     0.148 A 
HETATM    7  N4  UNL     1     -21.644  35.598  12.426  1.00  0.00    -0.081 NA
HETATM    8  N5  UNL     1     -22.160  34.185  10.596  1.00  0.00    -0.178 N 
ATOM      9  H5  UNL     1     -22.728  34.956  10.246  1.00  0.00     0.185 HD
HETATM   10  C9  UNL     1     -22.091  33.073   9.867  1.00  0.00     0.678 A 
HETATM   11  N7  UNL     1     -21.340  32.074  10.340  1.00  0.00    -0.175 N 
ATOM     12  H7  UNL     1     -21.274  31.214   9.795  1.00  0.00     0.186 HD
HETATM   13  C10 UNL     1     -20.654  32.149  11.522  1.00  0.00     0.155 A 
HETATM   14  N8  UNL     1     -19.917  31.085  11.888  1.00  0.00    -0.161 N 
ENDROOT
BRANCH  14  15
HETATM   15  C11 UNL     1     -19.894  29.912  11.035  1.00  0.00     0.131 C 
HETATM   16  C12 UNL     1     -19.840  30.260   9.566  1.00  0.00     0.035 C 
BRANCH  15  17
HETATM   17  C13 UNL     1     -21.061  28.995  11.275  1.00  0.00     0.255 C 
BRANCH  17  18
HETATM   18  N9  UNL     1     -20.529  27.747  11.792  1.00  0.00    -0.077 N 
ATOM     19  H93 UNL     1     -21.217  27.207  12.318  1.00  0.00     0.274 HD
ATOM     20  H92 UNL     1     -20.351  27.057  11.062  1.00  0.00     0.274 HD
ATOM     21  H91 UNL     1     -19.697  27.974  12.337  1.00  0.00     0.274 HD
ENDBRANCH  17  18
ENDBRANCH  15  17
ENDBRANCH  14  15
BRANCH   1  22
HETATM   22  N1  UNL     1     -18.514  30.165  13.411  1.00  0.00    -0.213 N 
ATOM     23  H1  UNL     1     -18.914  29.542  14.112  1.00  0.00     0.179 HD
BRANCH  22  24
HETATM   24  C2  UNL     1     -17.206  29.859  12.934  1.00  0.00     0.157 C 
HETATM   25  C3  UNL     1     -16.240  29.445  14.018  1.00  0.00     0.044 C 
BRANCH  24  26
HETATM   26  S1  UNL     1     -16.483  31.192  11.936  1.00  0.00    -0.148 SA
HETATM   27  C1  UNL     1     -14.693  31.161  12.028  1.00  0.00     0.092 C 
ENDBRANCH  24  26
ENDBRANCH  22  24
ENDBRANCH   1  22
BRANCH   4  28
HETATM   28  C6  UNL     1     -20.034  34.518  14.301  1.00  0.00     0.283 C 
HETATM   29  N3  UNL     1     -18.947  35.467  14.269  1.00  0.00    -0.056 NA
HETATM   30  O1  UNL     1     -20.958  34.719  15.114  1.00  0.00    -0.269 OA
ENDBRANCH   4  28
BRANCH  10  31
HETATM   31  N6  UNL     1     -22.722  32.958   8.748  1.00  0.00    -0.234 N 
ATOM     32  H62 UNL     1     -22.410  33.459   7.915  1.00  0.00     0.174 HD
ATOM     33  H61 UNL     1     -23.548  32.367   8.658  1.00  0.00     0.174 HD
ENDBRANCH  10  31
TORSDOF 8
ENDMDL
MODEL 5
REMARK VINA RESULT: -5.212207948      1.765      2.198
REMARK  8 active torsions:
REMARK  status: ('A' for Active; 'I' for Inactive)
REMARK    1  A    between atoms: S1_2  and  C2_3 
REMARK    2  A    between atoms: C2_3  and  N1_5 
REMARK    3  A    between atoms: N1_5  and  C4_7 
REMARK    4  A    between atoms: C5_10  and  C6_11 
REMARK    5  A    between atoms: C9_19  and  N6_20 
REMARK    6  A    between atoms: N8_26  and  C11_27 
REMARK    7  A    between atoms: C11_27  and  C13_29 
REMARK    8  A    between atoms: C13_29  and  N9_30 
ROOT
HETATM    1  C4  UNL     1     -20.346  30.883  10.053  1.00  0.00     0.683 A 
HETATM    2  N2  UNL     1     -20.638  31.524   8.930  1.00  0.00    -0.185 N 
ATOM      3  H2  UNL     1     -20.287  32.476   8.828  1.00  0.00     0.184 HD
HETATM    4  C5  UNL     1     -21.372  31.010   7.898  1.00  0.00     0.131 A 
HETATM    5  C7  UNL     1     -21.835  29.734   8.046  1.00  0.00     0.083 A 
HETATM    6  C8  UNL     1     -22.562  29.068   7.100  1.00  0.00     0.148 A 
HETATM    7  N4  UNL     1     -22.902  29.617   5.846  1.00  0.00    -0.081 NA
HETATM    8  N5  UNL     1     -22.952  27.792   7.356  1.00  0.00    -0.178 N 
ATOM      9  H5  UNL     1     -23.495  27.304   6.644  1.00  0.00     0.185 HD
HETATM   10  C9  UNL     1     -22.665  27.145   8.482  1.00  0.00     0.678 A 
HETATM   11  N7  UNL     1     -21.951  27.800   9.403  1.00  0.00    -0.175 N 
ATOM     12  H7  UNL     1     -21.720  27.319  10.272  1.00  0.00     0.186 HD
HETATM   13  C10 UNL     1     -21.514  29.086   9.234  1.00  0.00     0.155 A 
HETATM   14  N8  UNL     1     -20.788  29.636  10.224  1.00  0.00    -0.161 N 
ENDROOT
BRANCH  14  15
HETATM   15  C11 UNL     1     -20.518  28.860  11.419  1.00  0.00     0.131 C 
HETATM   16  C12 UNL     1     -21.381  29.272  12.589  1.00  0.00     0.035 C 
BRANCH  15  17
HETATM   17  C13 UNL     1     -19.074  28.916  11.835  1.00  0.00     0.255 C 
BRANCH  17  18
HETATM   18  N9  UNL     1     -19.045  28.985  13.285  1.00  0.00    -0.077 N 
ATOM     19  H93 UNL     1     -18.120  29.204  13.656  1.00  0.00     0.274 HD
ATOM     20  H92 UNL     1     -19.533  29.801  13.655  1.00  0.00     0.274 HD
ATOM     21  H91 UNL     1     -19.419  28.103  13.638  1.00  0.00     0.274 HD
ENDBRANCH  17  18
ENDBRANCH  15  17
ENDBRANCH  14  15
BRANCH   1  22
HETATM   22  N1  UNL     1     -19.646  31.441  10.979  1.00  0.00    -0.213 N 
ATOM     23  H1  UNL     1     -18.724  31.050  11.168  1.00  0.00     0.179 HD
BRANCH  22  24
HETATM   24  C2  UNL     1     -20.054  32.562  11.760  1.00  0.00     0.157 C 
HETATM   25  C3  UNL     1     -19.457  32.590  13.147  1.00  0.00     0.044 C 
BRANCH  24  26
HETATM   26  S1  UNL     1     -21.857  32.745  11.857  1.00  0.00    -0.148 SA
HETATM   27  C1  UNL     1     -22.410  32.741  13.561  1.00  0.00     0.092 C 
ENDBRANCH  24  26
ENDBRANCH  22  24
ENDBRANCH   1  22
BRANCH   4  28
HETATM   28  C6  UNL     1     -21.614  31.815   6.732  1.00  0.00     0.283 C 
HETATM   29  N3  UNL     1     -20.688  31.812   5.625  1.00  0.00    -0.056 NA
HETATM   30  O1  UNL     1     -22.624  32.541   6.643  1.00  0.00    -0.269 OA
ENDBRANCH   4  28
BRANCH  10  31
HETATM   31  N6  UNL     1     -23.057  25.932   8.684  1.00  0.00    -0.234 N 
ATOM     32  H62 UNL     1     -23.237  25.301   7.903  1.00  0.00     0.174 HD
ATOM     33  H61 UNL     1     -23.200  25.566   9.625  1.00  0.00     0.174 HD
ENDBRANCH  10  31
TORSDOF 8
ENDMDL
