MODEL 1
REMARK VINA RESULT: -4.830207224      0.000      0.000
REMARK  10 active torsions:
REMARK  status: ('A' for Active; 'I' for Inactive)
REMARK    1  A    between atoms: C2_2  and  C3_3 
REMARK    2  A    between atoms: C3_3  and  C4_4 
REMARK    3  A    between atoms: C4_4  and  C5_5 
REMARK    4  A    between atoms: C5_5  and  O1_6 
REMARK    5  A    between atoms: C5_5  and  C6_8 
REMARK    6  A    between atoms: C6_8  and  O2_9 
REMARK    7  A    between atoms: O2_9  and  O3_10 
REMARK    8  A    between atoms: C15_24  and  N2_25 
REMARK    9  A    between atoms: C16_29  and  C17_30 
REMARK   10  A    between atoms: C18_34  and  O7_35 
ROOT
HETATM    1  C6  UNL     1      39.765  -2.535 -13.248  1.00  0.00     0.205 C 
HETATM    2  C7  UNL     1      40.036  -3.517 -14.413  1.00  0.00     0.053 C 
HETATM    3  C8  UNL     1      41.364  -3.409 -15.054  1.00  0.00     0.010 C 
HETATM    4  C9  UNL     1      42.229  -4.608 -15.005  1.00  0.00     0.015 C 
HETATM    5  C10 UNL     1      43.278  -4.453 -16.105  1.00  0.00     0.012 C 
HETATM    6  C11 UNL     1      42.790  -5.220 -13.828  1.00  0.00     0.231 C 
HETATM    7  N1  UNL     1      41.715  -5.981 -13.142  1.00  0.00    -0.017 N 
ATOM      8  H11 UNL     1      41.920  -6.967 -12.982  1.00  0.00     0.283 HD
ATOM      9  H12 UNL     1      40.879  -6.144 -13.702  1.00  0.00     0.283 HD
HETATM   10  C12 UNL     1      41.502  -5.189 -11.928  1.00  0.00     0.475 C 
HETATM   11  O4  UNL     1      42.749  -4.849 -11.576  1.00  0.00    -0.324 OA
HETATM   12  C13 UNL     1      43.535  -4.692 -12.758  1.00  0.00     0.122 C 
HETATM   13  C14 UNL     1      44.716  -5.640 -12.404  1.00  0.00     0.051 C 
HETATM   14  C15 UNL     1      44.066  -3.336 -12.642  1.00  0.00     0.257 C 
HETATM   15  C16 UNL     1      43.000  -2.418 -11.987  1.00  0.00     0.250 C 
HETATM   16  O6  UNL     1      41.920  -2.532 -12.734  1.00  0.00    -0.313 OA
HETATM   17  C18 UNL     1      40.727  -2.960 -12.162  1.00  0.00     0.325 C 
HETATM   18  O8  UNL     1      40.547  -4.299 -12.073  1.00  0.00    -0.275 OA
ENDROOT
BRANCH   1  19
HETATM   19  C5  UNL     1      38.325  -2.600 -12.911  1.00  0.00     0.164 C 
BRANCH  19  20
HETATM   20  C4  UNL     1      37.466  -2.002 -14.012  1.00  0.00     0.035 C 
BRANCH  20  21
HETATM   21  C3  UNL     1      36.207  -1.363 -13.389  1.00  0.00     0.002 C 
BRANCH  21  22
HETATM   22  C2  UNL     1      36.588   0.100 -13.150  1.00  0.00    -0.004 C 
HETATM   23  C1  UNL     1      35.477   0.779 -12.365  1.00  0.00     0.005 C 
ENDBRANCH  21  22
ENDBRANCH  20  21
ENDBRANCH  19  20
BRANCH  19  24
HETATM   24  O1  UNL     1      37.802  -3.820 -12.588  1.00  0.00    -0.392 OA
ATOM     25  H1  UNL     1      38.406  -4.486 -12.896  1.00  0.00     0.210 HD
ENDBRANCH  19  24
ENDBRANCH   1  19
BRANCH   1  26
HETATM   26  O2  UNL     1      40.060  -1.286 -13.800  1.00  0.00    -0.221 OA
BRANCH  26  27
HETATM   27  O3  UNL     1      40.214  -0.358 -12.914  1.00  0.00    -0.249 OA
ATOM     28  H3  UNL     1      39.483   0.247 -12.872  1.00  0.00     0.253 HD
ENDBRANCH  26  27
ENDBRANCH   1  26
BRANCH  17  29
HETATM   29  O7  UNL     1      40.670  -2.402 -10.946  1.00  0.00    -0.335 OA
HETATM   30  C19 UNL     1      39.925  -2.756  -9.917  1.00  0.00     0.208 C 
ENDBRANCH  17  29
BRANCH  15  31
HETATM   31  C17 UNL     1      43.637  -1.100 -11.830  1.00  0.00     0.262 C 
HETATM   32  N3  UNL     1      44.753  -0.812 -11.023  1.00  0.00    -0.060 NA
HETATM   33  O5  UNL     1      43.134  -0.138 -12.483  1.00  0.00    -0.274 OA
ENDBRANCH  15  31
BRANCH  14  34
HETATM   34  N2  UNL     1      44.678  -2.730 -13.759  1.00  0.00    -0.069 N 
ATOM     35  H23 UNL     1      45.217  -3.438 -14.258  1.00  0.00     0.275 HD
ATOM     36  H22 UNL     1      43.956  -2.507 -14.444  1.00  0.00     0.275 HD
ATOM     37  H21 UNL     1      45.266  -1.908 -13.627  1.00  0.00     0.275 HD
ENDBRANCH  14  34
TORSDOF 10
ENDMDL
MODEL 2
REMARK VINA RESULT: -4.744489461      3.366      5.291
REMARK  10 active torsions:
REMARK  status: ('A' for Active; 'I' for Inactive)
REMARK    1  A    between atoms: C2_2  and  C3_3 
REMARK    2  A    between atoms: C3_3  and  C4_4 
REMARK    3  A    between atoms: C4_4  and  C5_5 
REMARK    4  A    between atoms: C5_5  and  O1_6 
REMARK    5  A    between atoms: C5_5  and  C6_8 
REMARK    6  A    between atoms: C6_8  and  O2_9 
REMARK    7  A    between atoms: O2_9  and  O3_10 
REMARK    8  A    between atoms: C15_24  and  N2_25 
REMARK    9  A    between atoms: C16_29  and  C17_30 
REMARK   10  A    between atoms: C18_34  and  O7_35 
ROOT
HETATM    1  C6  UNL     1      35.764  -0.156 -12.923  1.00  0.00     0.205 C 
HETATM    2  C7  UNL     1      36.806   0.365 -13.942  1.00  0.00     0.053 C 
HETATM    3  C8  UNL     1      38.212   0.369 -13.484  1.00  0.00     0.010 C 
HETATM    4  C9  UNL     1      39.169  -0.454 -14.256  1.00  0.00     0.015 C 
HETATM    5  C10 UNL     1      40.570   0.069 -13.942  1.00  0.00     0.012 C 
HETATM    6  C11 UNL     1      39.162  -1.888 -14.389  1.00  0.00     0.231 C 
HETATM    7  N1  UNL     1      38.088  -2.262 -15.343  1.00  0.00    -0.017 N 
ATOM      8  H11 UNL     1      38.394  -2.822 -16.139  1.00  0.00     0.283 HD
ATOM      9  H12 UNL     1      37.720  -1.491 -15.901  1.00  0.00     0.283 HD
HETATM   10  C12 UNL     1      37.109  -2.913 -14.469  1.00  0.00     0.475 C 
HETATM   11  O4  UNL     1      37.884  -3.626 -13.640  1.00  0.00    -0.324 OA
HETATM   12  C13 UNL     1      39.110  -2.921 -13.435  1.00  0.00     0.122 C 
HETATM   13  C14 UNL     1      40.115  -4.048 -13.805  1.00  0.00     0.051 C 
HETATM   14  C15 UNL     1      39.189  -2.780 -11.983  1.00  0.00     0.257 C 
HETATM   15  C16 UNL     1      37.766  -2.556 -11.408  1.00  0.00     0.250 C 
HETATM   16  O6  UNL     1      37.282  -1.508 -12.044  1.00  0.00    -0.313 OA
HETATM   17  C18 UNL     1      36.094  -1.620 -12.758  1.00  0.00     0.325 C 
HETATM   18  O8  UNL     1      36.196  -2.077 -14.029  1.00  0.00    -0.275 OA
ENDROOT
BRANCH   1  19
HETATM   19  C5  UNL     1      34.413   0.158 -13.441  1.00  0.00     0.164 C 
BRANCH  19  20
HETATM   20  C4  UNL     1      33.850   1.419 -12.808  1.00  0.00     0.035 C 
BRANCH  20  21
HETATM   21  C3  UNL     1      33.173   2.280 -13.896  1.00  0.00     0.002 C 
BRANCH  21  22
HETATM   22  C2  UNL     1      33.375   3.725 -13.435  1.00  0.00    -0.004 C 
HETATM   23  C1  UNL     1      34.478   3.761 -12.389  1.00  0.00     0.005 C 
ENDBRANCH  21  22
ENDBRANCH  20  21
ENDBRANCH  19  20
BRANCH  19  24
HETATM   24  O1  UNL     1      34.260   0.266 -14.794  1.00  0.00    -0.392 OA
ATOM     25  H1  UNL     1      33.348   0.094 -14.999  1.00  0.00     0.210 HD
ENDBRANCH  19  24
ENDBRANCH   1  19
BRANCH   1  26
HETATM   26  O2  UNL     1      36.015   0.608 -11.782  1.00  0.00    -0.221 OA
BRANCH  26  27
HETATM   27  O3  UNL     1      35.646   0.028 -10.687  1.00  0.00    -0.249 OA
ATOM     28  H3  UNL     1      36.341  -0.037 -10.043  1.00  0.00     0.253 HD
ENDBRANCH  26  27
ENDBRANCH   1  26
BRANCH  17  29
HETATM   29  O7  UNL     1      35.296  -2.422 -12.040  1.00  0.00    -0.335 OA
HETATM   30  C19 UNL     1      34.493  -3.375 -12.469  1.00  0.00     0.208 C 
ENDBRANCH  17  29
BRANCH  15  31
HETATM   31  C17 UNL     1      37.919  -2.508  -9.945  1.00  0.00     0.262 C 
HETATM   32  N3  UNL     1      39.112  -2.730  -9.231  1.00  0.00    -0.060 NA
HETATM   33  O5  UNL     1      36.883  -2.241  -9.266  1.00  0.00    -0.274 OA
ENDBRANCH  15  31
BRANCH  14  34
HETATM   34  N2  UNL     1      40.137  -1.901 -11.419  1.00  0.00    -0.069 N 
ATOM     35  H23 UNL     1      41.020  -2.400 -11.315  1.00  0.00     0.275 HD
ATOM     36  H22 UNL     1      40.384  -1.199 -12.117  1.00  0.00     0.275 HD
ATOM     37  H21 UNL     1      39.926  -1.428 -10.541  1.00  0.00     0.275 HD
ENDBRANCH  14  34
TORSDOF 10
ENDMDL
MODEL 3
REMARK VINA RESULT: -4.686376040      1.882      2.283
REMARK  10 active torsions:
REMARK  status: ('A' for Active; 'I' for Inactive)
REMARK    1  A    between atoms: C2_2  and  C3_3 
REMARK    2  A    between atoms: C3_3  and  C4_4 
REMARK    3  A    between atoms: C4_4  and  C5_5 
REMARK    4  A    between atoms: C5_5  and  O1_6 
REMARK    5  A    between atoms: C5_5  and  C6_8 
REMARK    6  A    between atoms: C6_8  and  O2_9 
REMARK    7  A    between atoms: O2_9  and  O3_10 
REMARK    8  A    between atoms: C15_24  and  N2_25 
REMARK    9  A    between atoms: C16_29  and  C17_30 
REMARK   10  A    between atoms: C18_34  and  O7_35 
ROOT
HETATM    1  C6  UNL     1      40.172  -1.646 -13.629  1.00  0.00     0.205 C 
HETATM    2  C7  UNL     1      40.409  -3.118 -14.046  1.00  0.00     0.053 C 
HETATM    3  C8  UNL     1      41.422  -3.335 -15.101  1.00  0.00     0.010 C 
HETATM    4  C9  UNL     1      42.591  -4.170 -14.743  1.00  0.00     0.015 C 
HETATM    5  C10 UNL     1      43.213  -4.659 -16.050  1.00  0.00     0.012 C 
HETATM    6  C11 UNL     1      43.601  -3.865 -13.763  1.00  0.00     0.231 C 
HETATM    7  N1  UNL     1      43.029  -4.107 -12.414  1.00  0.00    -0.017 N 
ATOM      8  H11 UNL     1      43.558  -4.757 -11.832  1.00  0.00     0.283 HD
ATOM      9  H12 UNL     1      42.165  -4.648 -12.404  1.00  0.00     0.283 HD
HETATM   10  C12 UNL     1      42.915  -2.748 -11.878  1.00  0.00     0.475 C 
HETATM   11  O4  UNL     1      44.047  -2.169 -12.301  1.00  0.00    -0.324 OA
HETATM   12  C13 UNL     1      44.406  -2.729 -13.565  1.00  0.00     0.122 C 
HETATM   13  C14 UNL     1      45.869  -3.153 -13.248  1.00  0.00     0.051 C 
HETATM   14  C15 UNL     1      44.513  -1.564 -14.441  1.00  0.00     0.257 C 
HETATM   15  C16 UNL     1      43.432  -0.522 -14.047  1.00  0.00     0.250 C 
HETATM   16  O6  UNL     1      42.280  -1.160 -14.104  1.00  0.00    -0.313 OA
HETATM   17  C18 UNL     1      41.468  -1.224 -12.978  1.00  0.00     0.325 C 
HETATM   18  O8  UNL     1      41.733  -2.221 -12.100  1.00  0.00    -0.275 OA
ENDROOT
BRANCH   1  19
HETATM   19  C5  UNL     1      38.962  -1.595 -12.776  1.00  0.00     0.164 C 
BRANCH  19  20
HETATM   20  C4  UNL     1      37.836  -2.436 -13.353  1.00  0.00     0.035 C 
BRANCH  20  21
HETATM   21  C3  UNL     1      36.485  -1.745 -13.071  1.00  0.00     0.002 C 
BRANCH  21  22
HETATM   22  C2  UNL     1      36.738  -0.262 -13.354  1.00  0.00    -0.004 C 
HETATM   23  C1  UNL     1      35.749   0.570 -12.554  1.00  0.00     0.005 C 
ENDBRANCH  21  22
ENDBRANCH  20  21
ENDBRANCH  19  20
BRANCH  19  24
HETATM   24  O1  UNL     1      39.099  -1.926 -11.458  1.00  0.00    -0.392 OA
ATOM     25  H1  UNL     1      38.935  -1.145 -10.943  1.00  0.00     0.210 HD
ENDBRANCH  19  24
ENDBRANCH   1  19
BRANCH   1  26
HETATM   26  O2  UNL     1      39.917  -1.001 -14.841  1.00  0.00    -0.221 OA
BRANCH  26  27
HETATM   27  O3  UNL     1      40.031   0.284 -14.770  1.00  0.00    -0.249 OA
ATOM     28  H3  UNL     1      40.603   0.573 -14.069  1.00  0.00     0.253 HD
ENDBRANCH  26  27
ENDBRANCH   1  26
BRANCH  17  29
HETATM   29  O7  UNL     1      41.569  -0.034 -12.372  1.00  0.00    -0.335 OA
HETATM   30  C19 UNL     1      41.815   0.221 -11.101  1.00  0.00     0.208 C 
ENDBRANCH  17  29
BRANCH  15  31
HETATM   31  C17 UNL     1      43.657   0.646 -14.913  1.00  0.00     0.262 C 
HETATM   32  N3  UNL     1      44.822   1.436 -14.950  1.00  0.00    -0.060 NA
HETATM   33  O5  UNL     1      42.716   0.970 -15.697  1.00  0.00    -0.274 OA
ENDBRANCH  15  31
BRANCH  14  34
HETATM   34  N2  UNL     1      44.594  -1.748 -15.837  1.00  0.00    -0.069 N 
ATOM     35  H23 UNL     1      44.613  -2.748 -16.032  1.00  0.00     0.275 HD
ATOM     36  H22 UNL     1      43.702  -1.479 -16.252  1.00  0.00     0.275 HD
ATOM     37  H21 UNL     1      45.345  -1.299 -16.361  1.00  0.00     0.275 HD
ENDBRANCH  14  34
TORSDOF 10
ENDMDL
MODEL 4
REMARK VINA RESULT: -4.609025460      2.029      3.456
REMARK  10 active torsions:
REMARK  status: ('A' for Active; 'I' for Inactive)
REMARK    1  A    between atoms: C2_2  and  C3_3 
REMARK    2  A    between atoms: C3_3  and  C4_4 
REMARK    3  A    between atoms: C4_4  and  C5_5 
REMARK    4  A    between atoms: C5_5  and  O1_6 
REMARK    5  A    between atoms: C5_5  and  C6_8 
REMARK    6  A    between atoms: C6_8  and  O2_9 
REMARK    7  A    between atoms: O2_9  and  O3_10 
REMARK    8  A    between atoms: C15_24  and  N2_25 
REMARK    9  A    between atoms: C16_29  and  C17_30 
REMARK   10  A    between atoms: C18_34  and  O7_35 
ROOT
HETATM    1  C6  UNL     1      40.946  -2.821 -13.226  1.00  0.00     0.205 C 
HETATM    2  C7  UNL     1      40.558  -3.924 -12.211  1.00  0.00     0.053 C 
HETATM    3  C8  UNL     1      41.036  -5.288 -12.526  1.00  0.00     0.010 C 
HETATM    4  C9  UNL     1      41.935  -5.925 -11.538  1.00  0.00     0.015 C 
HETATM    5  C10 UNL     1      41.895  -7.431 -11.797  1.00  0.00     0.012 C 
HETATM    6  C11 UNL     1      43.258  -5.491 -11.170  1.00  0.00     0.231 C 
HETATM    7  N1  UNL     1      43.129  -4.313 -10.277  1.00  0.00    -0.017 N 
ATOM      8  H11 UNL     1      43.594  -4.404  -9.373  1.00  0.00     0.283 HD
ATOM      9  H12 UNL     1      42.197  -4.163  -9.892  1.00  0.00     0.283 HD
HETATM   10  C12 UNL     1      43.632  -3.226 -11.122  1.00  0.00     0.475 C 
HETATM   11  O4  UNL     1      44.675  -3.794 -11.742  1.00  0.00    -0.324 OA
HETATM   12  C13 UNL     1      44.394  -5.181 -11.941  1.00  0.00     0.122 C 
HETATM   13  C14 UNL     1      45.668  -5.792 -11.292  1.00  0.00     0.051 C 
HETATM   14  C15 UNL     1      44.555  -5.363 -13.381  1.00  0.00     0.257 C 
HETATM   15  C16 UNL     1      44.051  -4.095 -14.121  1.00  0.00     0.250 C 
HETATM   16  O6  UNL     1      42.810  -3.913 -13.717  1.00  0.00    -0.313 OA
HETATM   17  C18 UNL     1      42.449  -2.714 -13.113  1.00  0.00     0.325 C 
HETATM   18  O8  UNL     1      42.670  -2.620 -11.780  1.00  0.00    -0.275 OA
ENDROOT
BRANCH   1  19
HETATM   19  C5  UNL     1      40.174  -1.600 -12.901  1.00  0.00     0.164 C 
BRANCH  19  20
HETATM   20  C4  UNL     1      38.725  -1.924 -12.579  1.00  0.00     0.035 C 
BRANCH  20  21
HETATM   21  C3  UNL     1      37.829  -1.478 -13.754  1.00  0.00     0.002 C 
BRANCH  21  22
HETATM   22  C2  UNL     1      36.979  -2.705 -14.087  1.00  0.00    -0.004 C 
HETATM   23  C1  UNL     1      36.736  -3.500 -12.814  1.00  0.00     0.005 C 
ENDBRANCH  21  22
ENDBRANCH  20  21
ENDBRANCH  19  20
BRANCH  19  24
HETATM   24  O1  UNL     1      40.653  -0.791 -11.910  1.00  0.00    -0.392 OA
ATOM     25  H1  UNL     1      41.388  -1.233 -11.502  1.00  0.00     0.210 HD
ENDBRANCH  19  24
ENDBRANCH   1  19
BRANCH   1  26
HETATM   26  O2  UNL     1      40.511  -3.337 -14.449  1.00  0.00    -0.221 OA
BRANCH  26  27
HETATM   27  O3  UNL     1      41.018  -2.728 -15.470  1.00  0.00    -0.249 OA
ATOM     28  H3  UNL     1      41.062  -1.785 -15.362  1.00  0.00     0.253 HD
ENDBRANCH  26  27
ENDBRANCH   1  26
BRANCH  17  29
HETATM   29  O7  UNL     1      43.113  -1.749 -13.762  1.00  0.00    -0.335 OA
HETATM   30  C19 UNL     1      43.652  -0.651 -13.269  1.00  0.00     0.208 C 
ENDBRANCH  17  29
BRANCH  15  31
HETATM   31  C17 UNL     1      44.323  -4.322 -15.550  1.00  0.00     0.262 C 
HETATM   32  N3  UNL     1      45.594  -4.462 -16.138  1.00  0.00    -0.060 NA
HETATM   33  O5  UNL     1      43.320  -4.398 -16.320  1.00  0.00    -0.274 OA
ENDBRANCH  15  31
BRANCH  14  34
HETATM   34  N2  UNL     1      44.099  -6.551 -13.988  1.00  0.00    -0.069 N 
ATOM     35  H23 UNL     1      43.080  -6.549 -13.981  1.00  0.00     0.275 HD
ATOM     36  H22 UNL     1      44.294  -6.501 -14.988  1.00  0.00     0.275 HD
ATOM     37  H21 UNL     1      44.425  -7.452 -13.638  1.00  0.00     0.275 HD
ENDBRANCH  14  34
TORSDOF 10
ENDMDL
MODEL 5
REMARK VINA RESULT: -4.566030172      2.128      2.748
REMARK  10 active torsions:
REMARK  status: ('A' for Active; 'I' for Inactive)
REMARK    1  A    between atoms: C2_2  and  C3_3 
REMARK    2  A    between atoms: C3_3  and  C4_4 
REMARK    3  A    between atoms: C4_4  and  C5_5 
REMARK    4  A    between atoms: C5_5  and  O1_6 
REMARK    5  A    between atoms: C5_5  and  C6_8 
REMARK    6  A    between atoms: C6_8  and  O2_9 
REMARK    7  A    between atoms: O2_9  and  O3_10 
REMARK    8  A    between atoms: C15_24  and  N2_25 
REMARK    9  A    between atoms: C16_29  and  C17_30 
REMARK   10  A    between atoms: C18_34  and  O7_35 
ROOT
HETATM    1  C6  UNL     1      40.283  -3.016 -13.053  1.00  0.00     0.205 C 
HETATM    2  C7  UNL     1      40.322  -4.443 -12.453  1.00  0.00     0.053 C 
HETATM    3  C8  UNL     1      41.428  -5.308 -12.916  1.00  0.00     0.010 C 
HETATM    4  C9  UNL     1      42.369  -5.799 -11.884  1.00  0.00     0.015 C 
HETATM    5  C10 UNL     1      43.084  -7.016 -12.469  1.00  0.00     0.012 C 
HETATM    6  C11 UNL     1      43.260  -5.003 -11.081  1.00  0.00     0.231 C 
HETATM    7  N1  UNL     1      42.461  -4.338 -10.020  1.00  0.00    -0.017 N 
ATOM      8  H11 UNL     1      42.778  -4.516  -9.067  1.00  0.00     0.283 HD
ATOM      9  H12 UNL     1      41.524  -4.718  -9.884  1.00  0.00     0.283 HD
HETATM   10  C12 UNL     1      42.505  -2.933 -10.434  1.00  0.00     0.475 C 
HETATM   11  O4  UNL     1      43.769  -2.789 -10.852  1.00  0.00    -0.324 OA
HETATM   12  C13 UNL     1      44.210  -4.023 -11.421  1.00  0.00     0.122 C 
HETATM   13  C14 UNL     1      45.514  -4.229 -10.598  1.00  0.00     0.051 C 
HETATM   14  C15 UNL     1      44.645  -3.649 -12.765  1.00  0.00     0.257 C 
HETATM   15  C16 UNL     1      43.713  -2.537 -13.317  1.00  0.00     0.250 C 
HETATM   16  O6  UNL     1      42.490  -3.022 -13.240  1.00  0.00    -0.313 OA
HETATM   17  C18 UNL     1      41.521  -2.342 -12.510  1.00  0.00     0.325 C 
HETATM   18  O8  UNL     1      41.477  -2.600 -11.182  1.00  0.00    -0.275 OA
ENDROOT
BRANCH   1  19
HETATM   19  C5  UNL     1      38.987  -2.397 -12.693  1.00  0.00     0.164 C 
BRANCH  19  20
HETATM   20  C4  UNL     1      37.837  -3.376 -12.852  1.00  0.00     0.035 C 
BRANCH  20  21
HETATM   21  C3  UNL     1      36.839  -2.827 -13.894  1.00  0.00     0.002 C 
BRANCH  21  22
HETATM   22  C2  UNL     1      35.478  -2.871 -13.196  1.00  0.00    -0.004 C 
HETATM   23  C1  UNL     1      35.586  -3.745 -11.956  1.00  0.00     0.005 C 
ENDBRANCH  21  22
ENDBRANCH  20  21
ENDBRANCH  19  20
BRANCH  19  24
HETATM   24  O1  UNL     1      38.879  -1.821 -11.459  1.00  0.00    -0.392 OA
ATOM     25  H1  UNL     1      39.208  -2.441 -10.818  1.00  0.00     0.210 HD
ENDBRANCH  19  24
ENDBRANCH   1  19
BRANCH   1  26
HETATM   26  O2  UNL     1      40.326  -3.242 -14.431  1.00  0.00    -0.221 OA
BRANCH  26  27
HETATM   27  O3  UNL     1      40.620  -2.185 -15.113  1.00  0.00    -0.249 OA
ATOM     28  H3  UNL     1      41.545  -1.968 -15.091  1.00  0.00     0.253 HD
ENDBRANCH  26  27
ENDBRANCH   1  26
BRANCH  17  29
HETATM   29  O7  UNL     1      41.735  -1.037 -12.723  1.00  0.00    -0.335 OA
HETATM   30  C19 UNL     1      41.693  -0.048 -11.852  1.00  0.00     0.208 C 
ENDBRANCH  17  29
BRANCH  15  31
HETATM   31  C17 UNL     1      44.262  -2.160 -14.629  1.00  0.00     0.262 C 
HETATM   32  N3  UNL     1      43.602  -2.279 -15.866  1.00  0.00    -0.060 NA
HETATM   33  O5  UNL     1      45.436  -1.683 -14.646  1.00  0.00    -0.274 OA
ENDBRANCH  15  31
BRANCH  14  34
HETATM   34  N2  UNL     1      44.899  -4.655 -13.719  1.00  0.00    -0.069 N 
ATOM     35  H23 UNL     1      44.015  -5.101 -13.964  1.00  0.00     0.275 HD
ATOM     36  H22 UNL     1      45.151  -4.210 -14.601  1.00  0.00     0.275 HD
ATOM     37  H21 UNL     1      45.584  -5.382 -13.514  1.00  0.00     0.275 HD
ENDBRANCH  14  34
TORSDOF 10
ENDMDL
