MODEL 1
REMARK VINA RESULT: -7.355727447      0.000      0.000
REMARK  11 active torsions:
REMARK  status: ('A' for Active; 'I' for Inactive)
REMARK    1  A    between atoms: C2_3  and  S1_4 
REMARK    2  A    between atoms: S1_4  and  C3_5 
REMARK    3  A    between atoms: C3_5  and  C4_6 
REMARK    4  A    between atoms: C4_6  and  O1_7 
REMARK    5  A    between atoms: C4_6  and  C5_9 
REMARK    6  A    between atoms: C6_13  and  N3_14 
REMARK    7  A    between atoms: C10_25  and  C11_26 
REMARK    8  A    between atoms: C11_26  and  C12_27 
REMARK    9  A    between atoms: C12_27  and  C13_28 
REMARK   10  A    between atoms: C13_28  and  C14_29 
REMARK   11  A    between atoms: C14_29  and  O2_30 
ROOT
HETATM    1  N1  UNL     1      41.000  -5.389 -19.591  1.00  0.00    -0.197 NA
HETATM    2  C1  UNL     1      41.837  -4.664 -19.291  1.00  0.00     0.069 C 
HETATM    3  C2  UNL     1      42.902  -3.759 -18.893  1.00  0.00     0.197 C 
ENDROOT
BRANCH   3   4
HETATM    4  S1  UNL     1      43.582  -4.298 -17.299  1.00  0.00    -0.152 SA
BRANCH   4   5
HETATM    5  C3  UNL     1      42.346  -4.110 -16.007  1.00  0.00     0.108 C 
BRANCH   5   6
HETATM    6  C4  UNL     1      42.811  -3.109 -15.002  1.00  0.00     0.158 C 
BRANCH   6   7
HETATM    7  O1  UNL     1      43.222  -1.907 -15.639  1.00  0.00    -0.393 OA
ATOM      8  H1  UNL     1      43.417  -1.234 -14.997  1.00  0.00     0.210 HD
ENDBRANCH   6   7
BRANCH   6   9
HETATM    9  C5  UNL     1      41.735  -2.723 -14.037  1.00  0.00     0.224 C 
HETATM   10  N2  UNL     1      40.530  -2.407 -14.740  1.00  0.00    -0.044 N 
HETATM   11  C6  UNL     1      39.733  -1.522 -13.908  1.00  0.00     0.323 C 
ATOM     12  H22 UNL     1      40.707  -2.021 -15.668  1.00  0.00     0.280 HD
ATOM     13  H21 UNL     1      40.017  -3.239 -15.032  1.00  0.00     0.280 HD
HETATM   14  C16 UNL     1      40.626  -0.927 -12.882  1.00  0.00     0.178 C 
HETATM   15  O3  UNL     1      40.376  -1.283 -11.582  1.00  0.00    -0.382 OA
HETATM   16  C19 UNL     1      42.004  -1.494 -13.234  1.00  0.00     0.054 C 
HETATM   17  C17 UNL     1      41.616  -1.037 -10.957  1.00  0.00     0.168 C 
HETATM   18  C18 UNL     1      42.549  -1.820 -11.857  1.00  0.00     0.035 C 
BRANCH  11  19
HETATM   19  N3  UNL     1      38.580  -2.218 -13.385  1.00  0.00    -0.296 N 
HETATM   20  C7  UNL     1      38.457  -3.537 -13.197  1.00  0.00     0.187 A 
HETATM   21  N4  UNL     1      37.245  -3.818 -12.698  1.00  0.00    -0.346 N 
HETATM   22  C8  UNL     1      36.590  -2.660 -12.567  1.00  0.00     0.122 A 
ATOM     23  H4  UNL     1      36.889  -4.744 -12.462  1.00  0.00     0.167 HD
HETATM   24  C9  UNL     1      35.306  -2.379 -12.100  1.00  0.00     0.132 A 
HETATM   25  C15 UNL     1      37.413  -1.638 -12.994  1.00  0.00     0.143 A 
HETATM   26  N5  UNL     1      34.546  -3.332 -11.705  1.00  0.00    -0.383 N 
HETATM   27  N6  UNL     1      34.953  -1.083 -12.100  1.00  0.00    -0.320 N 
ATOM     28  H52 UNL     1      34.814  -4.316 -11.705  1.00  0.00     0.157 HD
ATOM     29  H51 UNL     1      33.607  -3.126 -11.364  1.00  0.00     0.157 HD
HETATM   30  C10 UNL     1      35.760  -0.082 -12.518  1.00  0.00     0.164 A 
ATOM     31  H6  UNL     1      34.021  -0.840 -11.764  1.00  0.00     0.169 HD
HETATM   32  N7  UNL     1      37.002  -0.356 -12.970  1.00  0.00    -0.319 N 
ATOM     33  H7  UNL     1      37.617   0.393 -13.287  1.00  0.00     0.169 HD
BRANCH  30  34
HETATM   34  C11 UNL     1      35.291   1.298 -12.483  1.00  0.00    -0.030 C 
BRANCH  34  35
HETATM   35  C12 UNL     1      34.896   2.437 -12.473  1.00  0.00    -0.096 C 
BRANCH  35  36
HETATM   36  C13 UNL     1      34.435   3.825 -12.464  1.00  0.00     0.120 C 
BRANCH  36  37
HETATM   37  C14 UNL     1      33.014   3.924 -13.031  1.00  0.00     0.176 C 
BRANCH  37  38
HETATM   38  O2  UNL     1      33.019   3.809 -14.400  1.00  0.00    -0.400 OA
ATOM     39  H2  UNL     1      33.000   2.897 -14.666  1.00  0.00     0.209 HD
ENDBRANCH  37  38
ENDBRANCH  36  37
ENDBRANCH  35  36
ENDBRANCH  34  35
ENDBRANCH  30  34
ENDBRANCH  11  19
ENDBRANCH   6   9
ENDBRANCH   5   6
ENDBRANCH   4   5
ENDBRANCH   3   4
TORSDOF 11
ENDMDL
MODEL 2
REMARK VINA RESULT: -7.351690586      1.872      2.636
REMARK  11 active torsions:
REMARK  status: ('A' for Active; 'I' for Inactive)
REMARK    1  A    between atoms: C2_3  and  S1_4 
REMARK    2  A    between atoms: S1_4  and  C3_5 
REMARK    3  A    between atoms: C3_5  and  C4_6 
REMARK    4  A    between atoms: C4_6  and  O1_7 
REMARK    5  A    between atoms: C4_6  and  C5_9 
REMARK    6  A    between atoms: C6_13  and  N3_14 
REMARK    7  A    between atoms: C10_25  and  C11_26 
REMARK    8  A    between atoms: C11_26  and  C12_27 
REMARK    9  A    between atoms: C12_27  and  C13_28 
REMARK   10  A    between atoms: C13_28  and  C14_29 
REMARK   11  A    between atoms: C14_29  and  O2_30 
ROOT
HETATM    1  N1  UNL     1      41.597  -8.188 -11.473  1.00  0.00    -0.197 NA
HETATM    2  C1  UNL     1      42.312  -7.385 -11.874  1.00  0.00     0.069 C 
HETATM    3  C2  UNL     1      43.201  -6.360 -12.394  1.00  0.00     0.197 C 
ENDROOT
BRANCH   3   4
HETATM    4  S1  UNL     1      42.322  -5.384 -13.646  1.00  0.00    -0.152 SA
BRANCH   4   5
HETATM    5  C3  UNL     1      43.484  -4.353 -14.550  1.00  0.00     0.108 C 
BRANCH   5   6
HETATM    6  C4  UNL     1      42.837  -3.055 -14.908  1.00  0.00     0.158 C 
BRANCH   6   7
HETATM    7  O1  UNL     1      42.237  -3.127 -16.194  1.00  0.00    -0.393 OA
ATOM      8  H1  UNL     1      42.378  -2.323 -16.679  1.00  0.00     0.210 HD
ENDBRANCH   6   7
BRANCH   6   9
HETATM    9  C5  UNL     1      41.745  -2.677 -13.958  1.00  0.00     0.224 C 
HETATM   10  N2  UNL     1      40.559  -2.333 -14.680  1.00  0.00    -0.044 N 
HETATM   11  C6  UNL     1      39.754  -1.455 -13.847  1.00  0.00     0.323 C 
ATOM     12  H22 UNL     1      40.760  -1.930 -15.595  1.00  0.00     0.280 HD
ATOM     13  H21 UNL     1      40.043  -3.152 -15.000  1.00  0.00     0.280 HD
HETATM   14  C16 UNL     1      40.631  -0.892 -12.790  1.00  0.00     0.178 C 
HETATM   15  O3  UNL     1      40.351  -1.271 -11.503  1.00  0.00    -0.382 OA
HETATM   16  C19 UNL     1      42.010  -1.467 -13.125  1.00  0.00     0.054 C 
HETATM   17  C17 UNL     1      41.579  -1.052 -10.848  1.00  0.00     0.168 C 
HETATM   18  C18 UNL     1      42.522  -1.827 -11.744  1.00  0.00     0.035 C 
BRANCH  11  19
HETATM   19  N3  UNL     1      38.583  -2.149 -13.362  1.00  0.00    -0.296 N 
HETATM   20  C7  UNL     1      38.448  -3.468 -13.186  1.00  0.00     0.187 A 
HETATM   21  N4  UNL     1      37.221  -3.746 -12.725  1.00  0.00    -0.346 N 
HETATM   22  C8  UNL     1      36.568  -2.586 -12.606  1.00  0.00     0.122 A 
ATOM     23  H4  UNL     1      36.853  -4.672 -12.506  1.00  0.00     0.167 HD
HETATM   24  C9  UNL     1      35.272  -2.301 -12.174  1.00  0.00     0.132 A 
HETATM   25  C15 UNL     1      37.408  -1.565 -13.002  1.00  0.00     0.143 A 
HETATM   26  N5  UNL     1      34.496  -3.252 -11.808  1.00  0.00    -0.383 N 
HETATM   27  N6  UNL     1      34.925  -1.003 -12.176  1.00  0.00    -0.320 N 
ATOM     28  H52 UNL     1      34.759  -4.238 -11.807  1.00  0.00     0.157 HD
ATOM     29  H51 UNL     1      33.548  -3.044 -11.494  1.00  0.00     0.157 HD
HETATM   30  C10 UNL     1      35.750  -0.004 -12.565  1.00  0.00     0.164 A 
ATOM     31  H6  UNL     1      33.985  -0.757 -11.867  1.00  0.00     0.169 HD
HETATM   32  N7  UNL     1      37.002  -0.282 -12.982  1.00  0.00    -0.319 N 
ATOM     33  H7  UNL     1      37.630   0.466 -13.276  1.00  0.00     0.169 HD
BRANCH  30  34
HETATM   34  C11 UNL     1      35.287   1.378 -12.534  1.00  0.00    -0.030 C 
BRANCH  34  35
HETATM   35  C12 UNL     1      34.916   2.525 -12.525  1.00  0.00    -0.096 C 
BRANCH  35  36
HETATM   36  C13 UNL     1      34.466   3.917 -12.534  1.00  0.00     0.120 C 
BRANCH  36  37
HETATM   37  C14 UNL     1      33.082   4.031 -13.184  1.00  0.00     0.176 C 
BRANCH  37  38
HETATM   38  O2  UNL     1      33.136   3.714 -14.520  1.00  0.00    -0.400 OA
ATOM     39  H2  UNL     1      32.550   4.264 -15.026  1.00  0.00     0.209 HD
ENDBRANCH  37  38
ENDBRANCH  36  37
ENDBRANCH  35  36
ENDBRANCH  34  35
ENDBRANCH  30  34
ENDBRANCH  11  19
ENDBRANCH   6   9
ENDBRANCH   5   6
ENDBRANCH   4   5
ENDBRANCH   3   4
TORSDOF 11
ENDMDL
MODEL 3
REMARK VINA RESULT: -7.102061305      3.413      8.915
REMARK  11 active torsions:
REMARK  status: ('A' for Active; 'I' for Inactive)
REMARK    1  A    between atoms: C2_3  and  S1_4 
REMARK    2  A    between atoms: S1_4  and  C3_5 
REMARK    3  A    between atoms: C3_5  and  C4_6 
REMARK    4  A    between atoms: C4_6  and  O1_7 
REMARK    5  A    between atoms: C4_6  and  C5_9 
REMARK    6  A    between atoms: C6_13  and  N3_14 
REMARK    7  A    between atoms: C10_25  and  C11_26 
REMARK    8  A    between atoms: C11_26  and  C12_27 
REMARK    9  A    between atoms: C12_27  and  C13_28 
REMARK   10  A    between atoms: C13_28  and  C14_29 
REMARK   11  A    between atoms: C14_29  and  O2_30 
ROOT
HETATM    1  N1  UNL     1      33.737   5.104 -12.067  1.00  0.00    -0.197 NA
HETATM    2  C1  UNL     1      33.571   4.352 -12.917  1.00  0.00     0.069 C 
HETATM    3  C2  UNL     1      33.359   3.383 -13.979  1.00  0.00     0.197 C 
ENDROOT
BRANCH   3   4
HETATM    4  S1  UNL     1      33.147   1.734 -13.252  1.00  0.00    -0.152 SA
BRANCH   4   5
HETATM    5  C3  UNL     1      34.467   0.644 -13.802  1.00  0.00     0.108 C 
BRANCH   5   6
HETATM    6  C4  UNL     1      35.612   0.711 -12.845  1.00  0.00     0.158 C 
BRANCH   6   7
HETATM    7  O1  UNL     1      35.169   1.107 -11.554  1.00  0.00    -0.393 OA
ATOM      8  H1  UNL     1      35.308   2.037 -11.419  1.00  0.00     0.210 HD
ENDBRANCH   6   7
BRANCH   6   9
HETATM    9  C5  UNL     1      36.288  -0.612 -12.668  1.00  0.00     0.224 C 
HETATM   10  N2  UNL     1      37.487  -0.661 -13.446  1.00  0.00    -0.044 N 
HETATM   11  C6  UNL     1      37.797  -2.054 -13.723  1.00  0.00     0.323 C 
ATOM     12  H22 UNL     1      37.428  -0.096 -14.294  1.00  0.00     0.280 HD
ATOM     13  H21 UNL     1      38.263  -0.167 -13.005  1.00  0.00     0.280 HD
HETATM   14  C16 UNL     1      36.564  -2.852 -13.503  1.00  0.00     0.178 C 
HETATM   15  O3  UNL     1      36.597  -3.743 -12.463  1.00  0.00    -0.382 OA
HETATM   16  C19 UNL     1      35.515  -1.797 -13.142  1.00  0.00     0.054 C 
HETATM   17  C17 UNL     1      35.229  -3.925 -12.176  1.00  0.00     0.168 C 
HETATM   18  C18 UNL     1      34.780  -2.488 -12.010  1.00  0.00     0.035 C 
BRANCH  11  19
HETATM   19  N3  UNL     1      38.945  -2.481 -12.956  1.00  0.00    -0.296 N 
HETATM   20  C7  UNL     1      39.074  -2.458 -11.625  1.00  0.00     0.187 A 
HETATM   21  N4  UNL     1      40.278  -2.928 -11.272  1.00  0.00    -0.346 N 
HETATM   22  C8  UNL     1      40.923  -3.254 -12.396  1.00  0.00     0.122 A 
ATOM     23  H4  UNL     1      40.636  -3.020 -10.322  1.00  0.00     0.167 HD
HETATM   24  C9  UNL     1      42.197  -3.784 -12.604  1.00  0.00     0.132 A 
HETATM   25  C15 UNL     1      40.101  -2.980 -13.471  1.00  0.00     0.143 A 
HETATM   26  N5  UNL     1      42.956  -4.036 -11.604  1.00  0.00    -0.383 N 
HETATM   27  N6  UNL     1      42.542  -3.997 -13.885  1.00  0.00    -0.320 N 
ATOM     28  H52 UNL     1      42.695  -3.874 -10.631  1.00  0.00     0.157 HD
ATOM     29  H51 UNL     1      43.887  -4.423 -11.755  1.00  0.00     0.157 HD
HETATM   30  C10 UNL     1      41.735  -3.729 -14.937  1.00  0.00     0.164 A 
ATOM     31  H6  UNL     1      43.466  -4.385 -14.075  1.00  0.00     0.169 HD
HETATM   32  N7  UNL     1      40.503  -3.216 -14.734  1.00  0.00    -0.319 N 
ATOM     33  H7  UNL     1      39.889  -3.011 -15.522  1.00  0.00     0.169 HD
BRANCH  30  34
HETATM   34  C11 UNL     1      42.194  -3.993 -16.295  1.00  0.00    -0.030 C 
BRANCH  34  35
HETATM   35  C12 UNL     1      42.581  -4.230 -17.412  1.00  0.00    -0.096 C 
BRANCH  35  36
HETATM   36  C13 UNL     1      43.035  -4.530 -18.769  1.00  0.00     0.120 C 
BRANCH  36  37
HETATM   37  C14 UNL     1      41.947  -5.280 -19.548  1.00  0.00     0.176 C 
BRANCH  37  38
HETATM   38  O2  UNL     1      42.491  -6.011 -20.577  1.00  0.00    -0.400 OA
ATOM     39  H2  UNL     1      42.281  -5.625 -21.419  1.00  0.00     0.209 HD
ENDBRANCH  37  38
ENDBRANCH  36  37
ENDBRANCH  35  36
ENDBRANCH  34  35
ENDBRANCH  30  34
ENDBRANCH  11  19
ENDBRANCH   6   9
ENDBRANCH   5   6
ENDBRANCH   4   5
ENDBRANCH   3   4
TORSDOF 11
ENDMDL
MODEL 4
REMARK VINA RESULT: -7.074680378      1.271      1.355
REMARK  11 active torsions:
REMARK  status: ('A' for Active; 'I' for Inactive)
REMARK    1  A    between atoms: C2_3  and  S1_4 
REMARK    2  A    between atoms: S1_4  and  C3_5 
REMARK    3  A    between atoms: C3_5  and  C4_6 
REMARK    4  A    between atoms: C4_6  and  O1_7 
REMARK    5  A    between atoms: C4_6  and  C5_9 
REMARK    6  A    between atoms: C6_13  and  N3_14 
REMARK    7  A    between atoms: C10_25  and  C11_26 
REMARK    8  A    between atoms: C11_26  and  C12_27 
REMARK    9  A    between atoms: C12_27  and  C13_28 
REMARK   10  A    between atoms: C13_28  and  C14_29 
REMARK   11  A    between atoms: C14_29  and  O2_30 
ROOT
HETATM    1  N1  UNL     1      43.480  -2.464 -18.576  1.00  0.00    -0.197 NA
HETATM    2  C1  UNL     1      43.967  -3.431 -18.197  1.00  0.00     0.069 C 
HETATM    3  C2  UNL     1      44.574  -4.653 -17.698  1.00  0.00     0.197 C 
ENDROOT
BRANCH   3   4
HETATM    4  S1  UNL     1      44.186  -4.837 -15.935  1.00  0.00    -0.152 SA
BRANCH   4   5
HETATM    5  C3  UNL     1      42.637  -4.007 -15.555  1.00  0.00     0.108 C 
BRANCH   5   6
HETATM    6  C4  UNL     1      42.904  -2.788 -14.735  1.00  0.00     0.158 C 
BRANCH   6   7
HETATM    7  O1  UNL     1      43.043  -1.642 -15.564  1.00  0.00    -0.393 OA
ATOM      8  H1  UNL     1      43.598  -0.991 -15.150  1.00  0.00     0.210 HD
ENDBRANCH   6   7
BRANCH   6   9
HETATM    9  C5  UNL     1      41.790  -2.483 -13.783  1.00  0.00     0.224 C 
HETATM   10  N2  UNL     1      40.632  -2.047 -14.501  1.00  0.00    -0.044 N 
HETATM   11  C6  UNL     1      39.817  -1.239 -13.609  1.00  0.00     0.323 C 
ATOM     12  H22 UNL     1      40.867  -1.560 -15.367  1.00  0.00     0.280 HD
ATOM     13  H21 UNL     1      40.112  -2.821 -14.914  1.00  0.00     0.280 HD
HETATM   14  C16 UNL     1      40.672  -0.799 -12.478  1.00  0.00     0.178 C 
HETATM   15  O3  UNL     1      40.347  -1.296 -11.243  1.00  0.00    -0.382 OA
HETATM   16  C19 UNL     1      42.050  -1.365 -12.829  1.00  0.00     0.054 C 
HETATM   17  C17 UNL     1      41.559  -1.166 -10.535  1.00  0.00     0.168 C 
HETATM   18  C18 UNL     1      42.515  -1.868 -11.476  1.00  0.00     0.035 C 
BRANCH  11  19
HETATM   19  N3  UNL     1      38.621  -1.955 -13.228  1.00  0.00    -0.296 N 
HETATM   20  C7  UNL     1      38.487  -3.278 -13.091  1.00  0.00     0.187 A 
HETATM   21  N4  UNL     1      37.232  -3.577 -12.729  1.00  0.00    -0.346 N 
HETATM   22  C8  UNL     1      36.560  -2.426 -12.633  1.00  0.00     0.122 A 
ATOM     23  H4  UNL     1      36.859  -4.511 -12.557  1.00  0.00     0.167 HD
HETATM   24  C9  UNL     1      35.233  -2.162 -12.293  1.00  0.00     0.132 A 
HETATM   25  C15 UNL     1      37.416  -1.389 -12.944  1.00  0.00     0.143 A 
HETATM   26  N5  UNL     1      34.441  -3.128 -12.007  1.00  0.00    -0.383 N 
HETATM   27  N6  UNL     1      34.873  -0.868 -12.293  1.00  0.00    -0.320 N 
ATOM     28  H52 UNL     1      34.714  -4.111 -12.007  1.00  0.00     0.157 HD
ATOM     29  H51 UNL     1      33.471  -2.936 -11.759  1.00  0.00     0.157 HD
HETATM   30  C10 UNL     1      35.714   0.147 -12.598  1.00  0.00     0.164 A 
ATOM     31  H6  UNL     1      33.910  -0.637 -12.049  1.00  0.00     0.169 HD
HETATM   32  N7  UNL     1      36.997  -0.110 -12.926  1.00  0.00    -0.319 N 
ATOM     33  H7  UNL     1      37.637   0.650 -13.157  1.00  0.00     0.169 HD
BRANCH  30  34
HETATM   34  C11 UNL     1      35.235   1.524 -12.572  1.00  0.00    -0.030 C 
BRANCH  34  35
HETATM   35  C12 UNL     1      34.829   2.658 -12.533  1.00  0.00    -0.096 C 
BRANCH  35  36
HETATM   36  C13 UNL     1      34.332   4.032 -12.466  1.00  0.00     0.120 C 
BRANCH  36  37
HETATM   37  C14 UNL     1      34.036   4.428 -11.014  1.00  0.00     0.176 C 
BRANCH  37  38
HETATM   38  O2  UNL     1      33.682   5.753 -10.926  1.00  0.00    -0.400 OA
ATOM     39  H2  UNL     1      32.935   5.945 -11.481  1.00  0.00     0.209 HD
ENDBRANCH  37  38
ENDBRANCH  36  37
ENDBRANCH  35  36
ENDBRANCH  34  35
ENDBRANCH  30  34
ENDBRANCH  11  19
ENDBRANCH   6   9
ENDBRANCH   5   6
ENDBRANCH   4   5
ENDBRANCH   3   4
TORSDOF 11
ENDMDL
MODEL 5
REMARK VINA RESULT: -6.985915916      1.770      2.731
REMARK  11 active torsions:
REMARK  status: ('A' for Active; 'I' for Inactive)
REMARK    1  A    between atoms: C2_3  and  S1_4 
REMARK    2  A    between atoms: S1_4  and  C3_5 
REMARK    3  A    between atoms: C3_5  and  C4_6 
REMARK    4  A    between atoms: C4_6  and  O1_7 
REMARK    5  A    between atoms: C4_6  and  C5_9 
REMARK    6  A    between atoms: C6_13  and  N3_14 
REMARK    7  A    between atoms: C10_25  and  C11_26 
REMARK    8  A    between atoms: C11_26  and  C12_27 
REMARK    9  A    between atoms: C12_27  and  C13_28 
REMARK   10  A    between atoms: C13_28  and  C14_29 
REMARK   11  A    between atoms: C14_29  and  O2_30 
ROOT
HETATM    1  N1  UNL     1      41.244  -3.761 -10.706  1.00  0.00    -0.197 NA
HETATM    2  C1  UNL     1      41.825  -4.502 -11.361  1.00  0.00     0.069 C 
HETATM    3  C2  UNL     1      42.575  -5.424 -12.197  1.00  0.00     0.197 C 
ENDROOT
BRANCH   3   4
HETATM    4  S1  UNL     1      43.833  -4.504 -13.125  1.00  0.00    -0.152 SA
BRANCH   4   5
HETATM    5  C3  UNL     1      43.399  -4.456 -14.870  1.00  0.00     0.108 C 
BRANCH   5   6
HETATM    6  C4  UNL     1      42.929  -3.087 -15.238  1.00  0.00     0.158 C 
BRANCH   6   7
HETATM    7  O1  UNL     1      42.362  -3.081 -16.540  1.00  0.00    -0.393 OA
ATOM      8  H1  UNL     1      43.034  -3.189 -17.203  1.00  0.00     0.210 HD
ENDBRANCH   6   7
BRANCH   6   9
HETATM    9  C5  UNL     1      41.866  -2.579 -14.316  1.00  0.00     0.224 C 
HETATM   10  N2  UNL     1      40.584  -2.663 -14.947  1.00  0.00    -0.044 N 
HETATM   11  C6  UNL     1      39.705  -1.686 -14.328  1.00  0.00     0.323 C 
ATOM     12  H22 UNL     1      40.638  -2.556 -15.960  1.00  0.00     0.280 HD
ATOM     13  H21 UNL     1      40.198  -3.607 -14.927  1.00  0.00     0.280 HD
HETATM   14  C16 UNL     1      40.548  -0.689 -13.622  1.00  0.00     0.178 C 
HETATM   15  O3  UNL     1      40.441  -0.664 -12.256  1.00  0.00    -0.382 OA
HETATM   16  C19 UNL     1      41.976  -1.139 -13.940  1.00  0.00     0.054 C 
HETATM   17  C17 UNL     1      41.659  -0.069 -11.867  1.00  0.00     0.168 C 
HETATM   18  C18 UNL     1      42.651  -0.952 -12.595  1.00  0.00     0.035 C 
BRANCH  11  19
HETATM   19  N3  UNL     1      38.716  -2.343 -13.503  1.00  0.00    -0.296 N 
HETATM   20  C7  UNL     1      38.712  -3.626 -13.126  1.00  0.00     0.187 A 
HETATM   21  N4  UNL     1      37.636  -3.878 -12.367  1.00  0.00    -0.346 N 
HETATM   22  C8  UNL     1      36.948  -2.737 -12.261  1.00  0.00     0.122 A 
ATOM     23  H4  UNL     1      37.389  -4.774 -11.948  1.00  0.00     0.167 HD
HETATM   24  C9  UNL     1      35.761  -2.439 -11.591  1.00  0.00     0.132 A 
HETATM   25  C15 UNL     1      37.612  -1.755 -12.970  1.00  0.00     0.143 A 
HETATM   26  N5  UNL     1      35.150  -3.353 -10.935  1.00  0.00    -0.383 N 
HETATM   27  N6  UNL     1      35.336  -1.168 -11.689  1.00  0.00    -0.320 N 
ATOM     28  H52 UNL     1      35.473  -4.318 -10.861  1.00  0.00     0.157 HD
ATOM     29  H51 UNL     1      34.282  -3.135 -10.446  1.00  0.00     0.157 HD
HETATM   30  C10 UNL     1      35.986  -0.207 -12.384  1.00  0.00     0.164 A 
ATOM     31  H6  UNL     1      34.471  -0.913 -11.212  1.00  0.00     0.169 HD
HETATM   32  N7  UNL     1      37.134  -0.498 -13.031  1.00  0.00    -0.319 N 
ATOM     33  H7  UNL     1      37.631   0.221 -13.557  1.00  0.00     0.169 HD
BRANCH  30  34
HETATM   34  C11 UNL     1      35.449   1.147 -12.436  1.00  0.00    -0.030 C 
BRANCH  34  35
HETATM   35  C12 UNL     1      34.986   2.259 -12.472  1.00  0.00    -0.096 C 
BRANCH  35  36
HETATM   36  C13 UNL     1      34.407   3.602 -12.514  1.00  0.00     0.120 C 
BRANCH  36  37
HETATM   37  C14 UNL     1      32.970   3.552 -13.048  1.00  0.00     0.176 C 
BRANCH  37  38
HETATM   38  O2  UNL     1      32.925   3.900 -14.377  1.00  0.00    -0.400 OA
ATOM     39  H2  UNL     1      32.235   4.532 -14.541  1.00  0.00     0.209 HD
ENDBRANCH  37  38
ENDBRANCH  36  37
ENDBRANCH  35  36
ENDBRANCH  34  35
ENDBRANCH  30  34
ENDBRANCH  11  19
ENDBRANCH   6   9
ENDBRANCH   5   6
ENDBRANCH   4   5
ENDBRANCH   3   4
TORSDOF 11
ENDMDL
