MODEL 1
REMARK VINA RESULT: -6.410288574      0.000      0.000
REMARK  11 active torsions:
REMARK  status: ('A' for Active; 'I' for Inactive)
REMARK    1  A    between atoms: C2_2  and  C3_3 
REMARK    2  A    between atoms: C3_3  and  O1_4 
REMARK    3  A    between atoms: C7_9  and  N1_10 
REMARK    4  A    between atoms: C8_14  and  O2_15 
REMARK    5  A    between atoms: O2_15  and  C9_16 
REMARK    6  A    between atoms: C10_17  and  N2_18 
REMARK    7  A    between atoms: C12_23  and  N3_24 
REMARK    8  A    between atoms: C13_28  and  O3_29 
REMARK    9  A    between atoms: O3_29  and  C14_30 
REMARK   10  A    between atoms: C17_33  and  O4_34 
REMARK   11  A    between atoms: C19_38  and  O6_39 
ROOT
HETATM    1  C9  UNL     1      38.463  -2.357 -13.274  1.00  0.00     0.183 C 
HETATM    2  C10 UNL     1      37.277  -3.144 -13.783  1.00  0.00     0.217 C 
HETATM    3  C11 UNL     1      36.122  -2.969 -12.816  1.00  0.00     0.071 C 
HETATM    4  C12 UNL     1      36.139  -1.720 -12.023  1.00  0.00     0.217 C 
HETATM    5  C13 UNL     1      36.796  -0.556 -12.686  1.00  0.00     0.184 C 
HETATM    6  C19 UNL     1      38.064  -0.913 -13.429  1.00  0.00     0.180 C 
ENDROOT
BRANCH   1   7
HETATM    7  O2  UNL     1      39.649  -2.552 -13.866  1.00  0.00    -0.371 OA
BRANCH   7   8
HETATM    8  C8  UNL     1      40.783  -2.745 -13.082  1.00  0.00     0.186 C 
HETATM    9  C3  UNL     1      41.304  -4.085 -13.443  1.00  0.00     0.085 C 
HETATM   10  C4  UNL     1      42.692  -4.445 -13.087  1.00  0.00     0.040 C 
HETATM   11  C5  UNL     1      43.552  -3.326 -12.626  1.00  0.00     0.005 C 
HETATM   12  C6  UNL     1      43.191  -2.010 -13.254  1.00  0.00     0.035 C 
HETATM   13  C7  UNL     1      41.769  -1.650 -13.178  1.00  0.00     0.215 C 
BRANCH   9  14
HETATM   14  C2  UNL     1      40.944  -4.409 -14.876  1.00  0.00     0.036 C 
HETATM   15  C1  UNL     1      42.083  -4.499 -15.823  1.00  0.00     0.008 C 
ENDBRANCH   9  14
BRANCH   9  16
HETATM   16  O1  UNL     1      40.433  -4.990 -12.705  1.00  0.00    -0.387 OA
ATOM     17  H1  UNL     1      39.899  -4.383 -12.206  1.00  0.00     0.210 HD
ENDBRANCH   9  16
BRANCH  13  18
HETATM   18  N1  UNL     1      41.658  -0.712 -12.047  1.00  0.00    -0.072 N 
ATOM     19  H13 UNL     1      41.819  -1.145 -11.138  1.00  0.00     0.274 HD
ATOM     20  H12 UNL     1      42.422  -0.038 -11.997  1.00  0.00     0.274 HD
ATOM     21  H11 UNL     1      40.737  -0.282 -12.138  1.00  0.00     0.274 HD
ENDBRANCH  13  18
ENDBRANCH   7   8
ENDBRANCH   1   7
BRANCH   2  22
HETATM   22  N2  UNL     1      36.917  -2.598 -15.077  1.00  0.00    -0.072 N 
ATOM     23  H23 UNL     1      36.265  -3.190 -15.591  1.00  0.00     0.274 HD
ATOM     24  H22 UNL     1      36.321  -1.773 -15.009  1.00  0.00     0.274 HD
ATOM     25  H21 UNL     1      37.783  -2.424 -15.587  1.00  0.00     0.274 HD
ENDBRANCH   2  22
BRANCH   6  26
HETATM   26  O6  UNL     1      39.087  -0.028 -13.169  1.00  0.00    -0.390 OA
ATOM     27  H6  UNL     1      38.873   0.873 -13.382  1.00  0.00     0.210 HD
ENDBRANCH   6  26
BRANCH   5  28
HETATM   28  O3  UNL     1      35.878   0.032 -13.535  1.00  0.00    -0.363 OA
BRANCH  28  29
HETATM   29  C14 UNL     1      34.654   0.300 -12.993  1.00  0.00     0.215 C 
HETATM   30  C15 UNL     1      34.833   1.212 -11.802  1.00  0.00     0.077 C 
HETATM   31  C16 UNL     1      34.866   2.637 -12.127  1.00  0.00     0.041 C 
HETATM   32  C17 UNL     1      34.073   3.266 -12.977  1.00  0.00     0.188 C 
HETATM   33  O5  UNL     1      33.089   2.586 -13.670  1.00  0.00    -0.253 OA
HETATM   34  S1  UNL     1      33.447   0.955 -14.165  1.00  0.00     0.030 SA
BRANCH  32  35
HETATM   35  O4  UNL     1      34.192   4.643 -13.215  1.00  0.00    -0.335 OA
HETATM   36  C18 UNL     1      34.442   5.544 -12.127  1.00  0.00     0.212 C 
ENDBRANCH  32  35
ENDBRANCH  28  29
ENDBRANCH   5  28
BRANCH   4  37
HETATM   37  N3  UNL     1      36.617  -1.918 -10.644  1.00  0.00    -0.072 N 
ATOM     38  H33 UNL     1      37.137  -2.792 -10.562  1.00  0.00     0.274 HD
ATOM     39  H32 UNL     1      37.361  -1.259 -10.418  1.00  0.00     0.274 HD
ATOM     40  H31 UNL     1      35.869  -1.873  -9.952  1.00  0.00     0.274 HD
ENDBRANCH   4  37
TORSDOF 11
ENDMDL
MODEL 2
REMARK VINA RESULT: -5.870467798      1.278      1.795
REMARK  11 active torsions:
REMARK  status: ('A' for Active; 'I' for Inactive)
REMARK    1  A    between atoms: C2_2  and  C3_3 
REMARK    2  A    between atoms: C3_3  and  O1_4 
REMARK    3  A    between atoms: C7_9  and  N1_10 
REMARK    4  A    between atoms: C8_14  and  O2_15 
REMARK    5  A    between atoms: O2_15  and  C9_16 
REMARK    6  A    between atoms: C10_17  and  N2_18 
REMARK    7  A    between atoms: C12_23  and  N3_24 
REMARK    8  A    between atoms: C13_28  and  O3_29 
REMARK    9  A    between atoms: O3_29  and  C14_30 
REMARK   10  A    between atoms: C17_33  and  O4_34 
REMARK   11  A    between atoms: C19_38  and  O6_39 
ROOT
HETATM    1  C9  UNL     1      38.794  -2.281 -13.598  1.00  0.00     0.183 C 
HETATM    2  C10 UNL     1      37.607  -3.080 -14.083  1.00  0.00     0.217 C 
HETATM    3  C11 UNL     1      36.520  -3.031 -13.028  1.00  0.00     0.071 C 
HETATM    4  C12 UNL     1      36.544  -1.845 -12.143  1.00  0.00     0.217 C 
HETATM    5  C13 UNL     1      37.105  -0.606 -12.757  1.00  0.00     0.184 C 
HETATM    6  C19 UNL     1      38.329  -0.848 -13.611  1.00  0.00     0.180 C 
ENDROOT
BRANCH   1   7
HETATM    7  O2  UNL     1      39.941  -2.377 -14.284  1.00  0.00    -0.371 OA
BRANCH   7   8
HETATM    8  C8  UNL     1      40.889  -3.326 -13.908  1.00  0.00     0.186 C 
HETATM    9  C3  UNL     1      42.198  -2.790 -14.350  1.00  0.00     0.085 C 
HETATM   10  C4  UNL     1      43.441  -3.351 -13.781  1.00  0.00     0.040 C 
HETATM   11  C5  UNL     1      43.271  -4.235 -12.600  1.00  0.00     0.005 C 
HETATM   12  C6  UNL     1      42.087  -3.863 -11.753  1.00  0.00     0.035 C 
HETATM   13  C7  UNL     1      40.822  -3.704 -12.482  1.00  0.00     0.215 C 
BRANCH   9  14
HETATM   14  C2  UNL     1      42.163  -1.278 -14.351  1.00  0.00     0.036 C 
HETATM   15  C1  UNL     1      42.987  -0.612 -13.312  1.00  0.00     0.008 C 
ENDBRANCH   9  14
BRANCH   9  16
HETATM   16  O1  UNL     1      42.217  -3.090 -15.775  1.00  0.00    -0.387 OA
ATOM     17  H1  UNL     1      42.770  -2.395 -16.112  1.00  0.00     0.210 HD
ENDBRANCH   9  16
BRANCH  13  18
HETATM   18  N1  UNL     1      40.089  -4.967 -12.284  1.00  0.00    -0.072 N 
ATOM     19  H13 UNL     1      39.075  -4.866 -12.336  1.00  0.00     0.274 HD
ATOM     20  H12 UNL     1      40.184  -5.622 -13.060  1.00  0.00     0.274 HD
ATOM     21  H11 UNL     1      40.418  -5.338 -11.393  1.00  0.00     0.274 HD
ENDBRANCH  13  18
ENDBRANCH   7   8
ENDBRANCH   1   7
BRANCH   2  22
HETATM   22  N2  UNL     1      37.133  -2.456 -15.303  1.00  0.00    -0.072 N 
ATOM     23  H23 UNL     1      36.116  -2.451 -15.378  1.00  0.00     0.274 HD
ATOM     24  H22 UNL     1      37.271  -1.445 -15.312  1.00  0.00     0.274 HD
ATOM     25  H21 UNL     1      37.588  -2.927 -16.085  1.00  0.00     0.274 HD
ENDBRANCH   2  22
BRANCH   6  26
HETATM   26  O6  UNL     1      39.331   0.060 -13.355  1.00  0.00    -0.390 OA
ATOM     27  H6  UNL     1      39.012   0.931 -13.148  1.00  0.00     0.210 HD
ENDBRANCH   6  26
BRANCH   5  28
HETATM   28  O3  UNL     1      36.104   0.002 -13.492  1.00  0.00    -0.363 OA
BRANCH  28  29
HETATM   29  C14 UNL     1      34.907   0.154 -12.855  1.00  0.00     0.215 C 
HETATM   30  C15 UNL     1      35.073   1.149 -11.729  1.00  0.00     0.077 C 
HETATM   31  C16 UNL     1      34.903   2.546 -12.123  1.00  0.00     0.041 C 
HETATM   32  C17 UNL     1      33.970   3.027 -12.927  1.00  0.00     0.188 C 
HETATM   33  O5  UNL     1      33.021   2.196 -13.494  1.00  0.00    -0.253 OA
HETATM   34  S1  UNL     1      33.535   0.592 -13.942  1.00  0.00     0.030 SA
BRANCH  32  35
HETATM   35  O4  UNL     1      33.898   4.392 -13.240  1.00  0.00    -0.335 OA
HETATM   36  C18 UNL     1      34.453   5.367 -12.346  1.00  0.00     0.212 C 
ENDBRANCH  32  35
ENDBRANCH  28  29
ENDBRANCH   5  28
BRANCH   4  37
HETATM   37  N3  UNL     1      37.128  -2.125 -10.820  1.00  0.00    -0.072 N 
ATOM     38  H33 UNL     1      36.404  -2.148 -10.102  1.00  0.00     0.274 HD
ATOM     39  H32 UNL     1      37.453  -3.089 -10.762  1.00  0.00     0.274 HD
ATOM     40  H31 UNL     1      37.872  -1.475 -10.566  1.00  0.00     0.274 HD
ENDBRANCH   4  37
TORSDOF 11
ENDMDL
MODEL 3
REMARK VINA RESULT: -5.727161248      3.738      5.139
REMARK  11 active torsions:
REMARK  status: ('A' for Active; 'I' for Inactive)
REMARK    1  A    between atoms: C2_2  and  C3_3 
REMARK    2  A    between atoms: C3_3  and  O1_4 
REMARK    3  A    between atoms: C7_9  and  N1_10 
REMARK    4  A    between atoms: C8_14  and  O2_15 
REMARK    5  A    between atoms: O2_15  and  C9_16 
REMARK    6  A    between atoms: C10_17  and  N2_18 
REMARK    7  A    between atoms: C12_23  and  N3_24 
REMARK    8  A    between atoms: C13_28  and  O3_29 
REMARK    9  A    between atoms: O3_29  and  C14_30 
REMARK   10  A    between atoms: C17_33  and  O4_34 
REMARK   11  A    between atoms: C19_38  and  O6_39 
ROOT
HETATM    1  C9  UNL     1      41.770  -2.539 -14.112  1.00  0.00     0.183 C 
HETATM    2  C10 UNL     1      41.907  -3.663 -13.111  1.00  0.00     0.217 C 
HETATM    3  C11 UNL     1      41.656  -3.113 -11.721  1.00  0.00     0.071 C 
HETATM    4  C12 UNL     1      40.795  -1.911 -11.658  1.00  0.00     0.217 C 
HETATM    5  C13 UNL     1      39.781  -1.798 -12.747  1.00  0.00     0.184 C 
HETATM    6  C19 UNL     1      40.303  -2.195 -14.109  1.00  0.00     0.180 C 
ENDROOT
BRANCH   1   7
HETATM    7  O2  UNL     1      42.166  -2.766 -15.372  1.00  0.00    -0.371 OA
BRANCH   7   8
HETATM    8  C8  UNL     1      43.504  -3.055 -15.629  1.00  0.00     0.186 C 
HETATM    9  C3  UNL     1      43.500  -4.243 -16.515  1.00  0.00     0.085 C 
HETATM   10  C4  UNL     1      44.717  -4.581 -17.280  1.00  0.00     0.040 C 
HETATM   11  C5  UNL     1      45.776  -3.541 -17.306  1.00  0.00     0.005 C 
HETATM   12  C6  UNL     1      45.229  -2.144 -17.229  1.00  0.00     0.035 C 
HETATM   13  C7  UNL     1      44.277  -1.904 -16.136  1.00  0.00     0.215 C 
BRANCH   9  14
HETATM   14  C2  UNL     1      42.238  -4.260 -17.349  1.00  0.00     0.036 C 
HETATM   15  C1  UNL     1      42.412  -4.629 -18.776  1.00  0.00     0.008 C 
ENDBRANCH   9  14
BRANCH   9  16
HETATM   16  O1  UNL     1      43.263  -5.345 -15.594  1.00  0.00    -0.387 OA
ATOM     17  H1  UNL     1      43.122  -6.071 -16.191  1.00  0.00     0.210 HD
ENDBRANCH   9  16
BRANCH  13  18
HETATM   18  N1  UNL     1      45.056  -1.254 -15.068  1.00  0.00    -0.072 N 
ATOM     19  H13 UNL     1      45.779  -0.623 -15.414  1.00  0.00     0.274 HD
ATOM     20  H12 UNL     1      44.528  -0.556 -14.544  1.00  0.00     0.274 HD
ATOM     21  H11 UNL     1      45.417  -2.013 -14.491  1.00  0.00     0.274 HD
ENDBRANCH  13  18
ENDBRANCH   7   8
ENDBRANCH   1   7
BRANCH   2  22
HETATM   22  N2  UNL     1      40.902  -4.657 -13.433  1.00  0.00    -0.072 N 
ATOM     23  H23 UNL     1      40.859  -4.871 -14.429  1.00  0.00     0.274 HD
ATOM     24  H22 UNL     1      41.149  -5.591 -13.107  1.00  0.00     0.274 HD
ATOM     25  H21 UNL     1      40.013  -4.326 -13.058  1.00  0.00     0.274 HD
ENDBRANCH   2  22
BRANCH   6  26
HETATM   26  O6  UNL     1      39.946  -1.295 -15.088  1.00  0.00    -0.390 OA
ATOM     27  H6  UNL     1      39.021  -1.078 -15.086  1.00  0.00     0.210 HD
ENDBRANCH   6  26
BRANCH   5  28
HETATM   28  O3  UNL     1      38.685  -2.563 -12.397  1.00  0.00    -0.363 OA
BRANCH  28  29
HETATM   29  C14 UNL     1      37.582  -1.870 -11.989  1.00  0.00     0.215 C 
HETATM   30  C15 UNL     1      36.545  -1.906 -13.088  1.00  0.00     0.077 C 
HETATM   31  C16 UNL     1      35.670  -3.078 -13.058  1.00  0.00     0.041 C 
HETATM   32  C17 UNL     1      35.114  -3.615 -11.987  1.00  0.00     0.188 C 
HETATM   33  O5  UNL     1      35.328  -3.081 -10.729  1.00  0.00    -0.253 OA
HETATM   34  S1  UNL     1      36.904  -2.413 -10.407  1.00  0.00     0.030 SA
BRANCH  32  35
HETATM   35  O4  UNL     1      34.287  -4.744 -12.073  1.00  0.00    -0.335 OA
HETATM   36  C18 UNL     1      34.406  -5.800 -11.110  1.00  0.00     0.212 C 
ENDBRANCH  32  35
ENDBRANCH  28  29
ENDBRANCH   5  28
BRANCH   4  37
HETATM   37  N3  UNL     1      41.558  -0.665 -11.474  1.00  0.00    -0.072 N 
ATOM     38  H33 UNL     1      41.637  -0.155 -12.354  1.00  0.00     0.274 HD
ATOM     39  H32 UNL     1      41.021   0.014 -10.936  1.00  0.00     0.274 HD
ATOM     40  H31 UNL     1      42.476  -0.815 -11.056  1.00  0.00     0.274 HD
ENDBRANCH   4  37
TORSDOF 11
ENDMDL
MODEL 4
REMARK VINA RESULT: -5.678224588      2.435      4.320
REMARK  11 active torsions:
REMARK  status: ('A' for Active; 'I' for Inactive)
REMARK    1  A    between atoms: C2_2  and  C3_3 
REMARK    2  A    between atoms: C3_3  and  O1_4 
REMARK    3  A    between atoms: C7_9  and  N1_10 
REMARK    4  A    between atoms: C8_14  and  O2_15 
REMARK    5  A    between atoms: O2_15  and  C9_16 
REMARK    6  A    between atoms: C10_17  and  N2_18 
REMARK    7  A    between atoms: C12_23  and  N3_24 
REMARK    8  A    between atoms: C13_28  and  O3_29 
REMARK    9  A    between atoms: O3_29  and  C14_30 
REMARK   10  A    between atoms: C17_33  and  O4_34 
REMARK   11  A    between atoms: C19_38  and  O6_39 
ROOT
HETATM    1  C9  UNL     1      41.138  -2.006 -13.876  1.00  0.00     0.183 C 
HETATM    2  C10 UNL     1      41.089  -0.617 -13.283  1.00  0.00     0.217 C 
HETATM    3  C11 UNL     1      39.721  -0.019 -13.547  1.00  0.00     0.071 C 
HETATM    4  C12 UNL     1      38.623  -0.996 -13.721  1.00  0.00     0.217 C 
HETATM    5  C13 UNL     1      38.794  -2.282 -12.983  1.00  0.00     0.184 C 
HETATM    6  C19 UNL     1      40.205  -2.824 -13.022  1.00  0.00     0.180 C 
ENDROOT
BRANCH   1   7
HETATM    7  O2  UNL     1      42.327  -2.620 -13.943  1.00  0.00    -0.371 OA
BRANCH   7   8
HETATM    8  C8  UNL     1      42.836  -2.996 -15.183  1.00  0.00     0.186 C 
HETATM    9  C3  UNL     1      44.100  -2.239 -15.350  1.00  0.00     0.085 C 
HETATM   10  C4  UNL     1      45.079  -2.676 -16.366  1.00  0.00     0.040 C 
HETATM   11  C5  UNL     1      44.837  -4.013 -16.965  1.00  0.00     0.005 C 
HETATM   12  C6  UNL     1      44.169  -4.969 -16.019  1.00  0.00     0.035 C 
HETATM   13  C7  UNL     1      42.959  -4.456 -15.361  1.00  0.00     0.215 C 
BRANCH   9  14
HETATM   14  C2  UNL     1      44.716  -1.961 -13.997  1.00  0.00     0.036 C 
HETATM   15  C1  UNL     1      46.002  -2.647 -13.720  1.00  0.00     0.008 C 
ENDBRANCH   9  14
BRANCH   9  16
HETATM   16  O1  UNL     1      43.644  -0.915 -15.748  1.00  0.00    -0.387 OA
ATOM     17  H1  UNL     1      44.420  -0.559 -16.166  1.00  0.00     0.210 HD
ENDBRANCH   9  16
BRANCH  13  18
HETATM   18  N1  UNL     1      41.828  -5.013 -16.124  1.00  0.00    -0.072 N 
ATOM     19  H13 UNL     1      41.739  -4.626 -17.064  1.00  0.00     0.274 HD
ATOM     20  H12 UNL     1      41.962  -5.984 -16.405  1.00  0.00     0.274 HD
ATOM     21  H11 UNL     1      41.005  -4.864 -15.541  1.00  0.00     0.274 HD
ENDBRANCH  13  18
ENDBRANCH   7   8
ENDBRANCH   1   7
BRANCH   2  22
HETATM   22  N2  UNL     1      41.298  -0.747 -11.854  1.00  0.00    -0.072 N 
ATOM     23  H23 UNL     1      42.227  -0.447 -11.559  1.00  0.00     0.274 HD
ATOM     24  H22 UNL     1      40.762  -0.070 -11.311  1.00  0.00     0.274 HD
ATOM     25  H21 UNL     1      41.093  -1.713 -11.602  1.00  0.00     0.274 HD
ENDBRANCH   2  22
BRANCH   6  26
HETATM   26  O6  UNL     1      40.239  -4.171 -13.305  1.00  0.00    -0.390 OA
ATOM     27  H6  UNL     1      41.016  -4.609 -12.978  1.00  0.00     0.210 HD
ENDBRANCH   6  26
BRANCH   5  28
HETATM   28  O3  UNL     1      38.376  -2.091 -11.680  1.00  0.00    -0.363 OA
BRANCH  28  29
HETATM   29  C14 UNL     1      37.134  -2.569 -11.378  1.00  0.00     0.215 C 
HETATM   30  C15 UNL     1      36.311  -1.453 -10.777  1.00  0.00     0.077 C 
HETATM   31  C16 UNL     1      35.619  -0.615 -11.754  1.00  0.00     0.041 C 
HETATM   32  C17 UNL     1      34.972  -1.033 -12.829  1.00  0.00     0.188 C 
HETATM   33  O5  UNL     1      34.895  -2.380 -13.135  1.00  0.00    -0.253 OA
HETATM   34  S1  UNL     1      36.284  -3.361 -12.759  1.00  0.00     0.030 SA
BRANCH  32  35
HETATM   35  O4  UNL     1      34.339  -0.138 -13.704  1.00  0.00    -0.335 OA
HETATM   36  C18 UNL     1      34.319   1.265 -13.409  1.00  0.00     0.212 C 
ENDBRANCH  32  35
ENDBRANCH  28  29
ENDBRANCH   5  28
BRANCH   4  37
HETATM   37  N3  UNL     1      38.257  -1.207 -15.131  1.00  0.00    -0.072 N 
ATOM     38  H33 UNL     1      38.414  -0.360 -15.678  1.00  0.00     0.274 HD
ATOM     39  H32 UNL     1      38.921  -1.829 -15.591  1.00  0.00     0.274 HD
ATOM     40  H31 UNL     1      37.302  -1.545 -15.250  1.00  0.00     0.274 HD
ENDBRANCH   4  37
TORSDOF 11
ENDMDL
MODEL 5
REMARK VINA RESULT: -5.617588842      3.743      8.744
REMARK  11 active torsions:
REMARK  status: ('A' for Active; 'I' for Inactive)
REMARK    1  A    between atoms: C2_2  and  C3_3 
REMARK    2  A    between atoms: C3_3  and  O1_4 
REMARK    3  A    between atoms: C7_9  and  N1_10 
REMARK    4  A    between atoms: C8_14  and  O2_15 
REMARK    5  A    between atoms: O2_15  and  C9_16 
REMARK    6  A    between atoms: C10_17  and  N2_18 
REMARK    7  A    between atoms: C12_23  and  N3_24 
REMARK    8  A    between atoms: C13_28  and  O3_29 
REMARK    9  A    between atoms: O3_29  and  C14_30 
REMARK   10  A    between atoms: C17_33  and  O4_34 
REMARK   11  A    between atoms: C19_38  and  O6_39 
ROOT
HETATM    1  C9  UNL     1      39.834  -1.808 -12.658  1.00  0.00     0.183 C 
HETATM    2  C10 UNL     1      39.839  -2.489 -14.007  1.00  0.00     0.217 C 
HETATM    3  C11 UNL     1      41.214  -2.334 -14.628  1.00  0.00     0.071 C 
HETATM    4  C12 UNL     1      42.328  -2.157 -13.671  1.00  0.00     0.217 C 
HETATM    5  C13 UNL     1      42.131  -2.802 -12.339  1.00  0.00     0.184 C 
HETATM    6  C19 UNL     1      40.729  -2.655 -11.793  1.00  0.00     0.180 C 
ENDROOT
BRANCH   1   7
HETATM    7  O2  UNL     1      38.655  -1.640 -12.042  1.00  0.00    -0.371 OA
BRANCH   7   8
HETATM    8  C8  UNL     1      37.492  -1.541 -12.801  1.00  0.00     0.186 C 
HETATM    9  C3  UNL     1      36.449  -2.275 -12.044  1.00  0.00     0.085 C 
HETATM   10  C4  UNL     1      35.026  -2.048 -12.366  1.00  0.00     0.040 C 
HETATM   11  C5  UNL     1      34.738  -0.892 -13.252  1.00  0.00     0.005 C 
HETATM   12  C6  UNL     1      35.721   0.232 -13.089  1.00  0.00     0.035 C 
HETATM   13  C7  UNL     1      37.135  -0.157 -13.168  1.00  0.00     0.215 C 
BRANCH   9  14
HETATM   14  C2  UNL     1      36.751  -2.216 -10.563  1.00  0.00     0.036 C 
HETATM   15  C1  UNL     1      35.896  -3.065  -9.697  1.00  0.00     0.008 C 
ENDBRANCH   9  14
BRANCH   9  16
HETATM   16  O1  UNL     1      36.733  -3.669 -12.352  1.00  0.00    -0.387 OA
ATOM     17  H1  UNL     1      36.592  -3.694 -13.291  1.00  0.00     0.210 HD
ENDBRANCH   9  16
BRANCH  13  18
HETATM   18  N1  UNL     1      37.560   0.173 -14.540  1.00  0.00    -0.072 N 
ATOM     19  H13 UNL     1      38.510  -0.126 -14.758  1.00  0.00     0.274 HD
ATOM     20  H12 UNL     1      37.092  -0.379 -15.258  1.00  0.00     0.274 HD
ATOM     21  H11 UNL     1      37.415   1.178 -14.637  1.00  0.00     0.274 HD
ENDBRANCH  13  18
ENDBRANCH   7   8
ENDBRANCH   1   7
BRANCH   2  22
HETATM   22  N2  UNL     1      39.558  -3.894 -13.785  1.00  0.00    -0.072 N 
ATOM     23  H23 UNL     1      40.148  -4.309 -13.066  1.00  0.00     0.274 HD
ATOM     24  H22 UNL     1      38.660  -4.052 -13.327  1.00  0.00     0.274 HD
ATOM     25  H21 UNL     1      39.635  -4.367 -14.686  1.00  0.00     0.274 HD
ENDBRANCH   2  22
BRANCH   6  26
HETATM   26  O6  UNL     1      40.722  -2.287 -10.466  1.00  0.00    -0.390 OA
ATOM     27  H6  UNL     1      40.332  -1.436 -10.309  1.00  0.00     0.210 HD
ENDBRANCH   6  26
BRANCH   5  28
HETATM   28  O3  UNL     1      42.479  -4.135 -12.450  1.00  0.00    -0.363 OA
BRANCH  28  29
HETATM   29  C14 UNL     1      42.011  -4.956 -11.465  1.00  0.00     0.215 C 
HETATM   30  C15 UNL     1      41.665  -6.298 -12.067  1.00  0.00     0.077 C 
HETATM   31  C16 UNL     1      42.785  -7.234 -12.148  1.00  0.00     0.041 C 
HETATM   32  C17 UNL     1      43.692  -7.455 -11.212  1.00  0.00     0.188 C 
HETATM   33  O5  UNL     1      43.653  -6.776 -10.007  1.00  0.00    -0.253 OA
HETATM   34  S1  UNL     1      43.113  -5.120 -10.045  1.00  0.00     0.030 SA
BRANCH  32  35
HETATM   35  O4  UNL     1      44.730  -8.381 -11.394  1.00  0.00    -0.335 OA
HETATM   36  C18 UNL     1      45.756  -8.131 -12.365  1.00  0.00     0.212 C 
ENDBRANCH  32  35
ENDBRANCH  28  29
ENDBRANCH   5  28
BRANCH   4  37
HETATM   37  N3  UNL     1      42.769  -0.757 -13.552  1.00  0.00    -0.072 N 
ATOM     38  H33 UNL     1      42.113  -0.217 -12.987  1.00  0.00     0.274 HD
ATOM     39  H32 UNL     1      43.596  -0.685 -12.961  1.00  0.00     0.274 HD
ATOM     40  H31 UNL     1      42.927  -0.309 -14.454  1.00  0.00     0.274 HD
ENDBRANCH   4  37
TORSDOF 11
ENDMDL
