MODEL 1
REMARK VINA RESULT: -6.161958529      0.000      0.000
REMARK  9 active torsions:
REMARK  status: ('A' for Active; 'I' for Inactive)
REMARK    1  A    between atoms: C2_2  and  C3_3 
REMARK    2  A    between atoms: C2_2  and  C9_10 
REMARK    3  A    between atoms: C2_2  and  C10_15 
REMARK    4  A    between atoms: C4_4  and  C5_5 
REMARK    5  A    between atoms: C5_5  and  N1_6 
REMARK    6  A    between atoms: C9_10  and  N2_11 
REMARK    7  A    between atoms: C10_15  and  N3_16 
REMARK       I    between atoms: N3_16  and  C11_18 
REMARK       I    between atoms: C11_18  and  N4_20 
REMARK    8  A    between atoms: C13_22  and  C15_25 
REMARK    9  A    between atoms: C15_25  and  N6_26 
ROOT
HETATM    1  N3  UNL     1      17.235 -13.658  20.742  1.00  0.00    -0.321 N 
ATOM      2  H3  UNL     1      17.977 -14.179  20.275  1.00  0.00     0.169 HD
HETATM    3  C11 UNL     1      17.375 -13.470  22.108  1.00  0.00     0.323 C 
HETATM    4  O1  UNL     1      16.562 -12.872  22.865  1.00  0.00    -0.247 OA
HETATM    5  N4  UNL     1      18.556 -14.002  22.743  1.00  0.00    -0.305 N 
HETATM    6  C12 UNL     1      19.829 -14.717  22.707  1.00  0.00     0.178 A 
HETATM    7  C13 UNL     1      19.376 -14.217  23.976  1.00  0.00     0.166 A 
HETATM    8  C14 UNL     1      18.657 -15.150  24.871  1.00  0.00     0.094 C 
HETATM    9  N5  UNL     1      18.077 -15.898  25.566  1.00  0.00    -0.194 NA
ENDROOT
BRANCH   7  10
HETATM   10  C15 UNL     1      19.832 -12.957  24.636  1.00  0.00     0.284 C 
BRANCH  10  11
HETATM   11  N6  UNL     1      21.089 -13.037  25.302  1.00  0.00    -0.075 N 
HETATM   12  C16 UNL     1      20.975 -12.269  26.552  1.00  0.00     0.271 C 
HETATM   13  C17 UNL     1      21.501 -14.359  25.644  1.00  0.00     0.271 C 
HETATM   14  C18 UNL     1      22.158 -12.432  24.489  1.00  0.00     0.271 C 
ENDBRANCH  10  11
ENDBRANCH   7  10
BRANCH   1  15
HETATM   15  C10 UNL     1      16.177 -13.207  19.935  1.00  0.00     0.089 C 
BRANCH  15  16
HETATM   16  C2  UNL     1      16.032 -11.776  19.603  1.00  0.00     0.075 C 
HETATM   17  C1  UNL     1      17.317 -10.962  19.724  1.00  0.00     0.037 C 
BRANCH  16  18
HETATM   18  C3  UNL     1      15.806 -11.774  18.094  1.00  0.00    -0.088 C 
HETATM   19  C4  UNL     1      15.648 -11.770  16.900  1.00  0.00    -0.077 C 
BRANCH  19  20
HETATM   20  C5  UNL     1      15.463 -11.742  15.454  1.00  0.00     0.329 C 
BRANCH  20  21
HETATM   21  N1  UNL     1      16.149 -10.594  14.899  1.00  0.00    -0.069 N 
HETATM   22  C6  UNL     1      17.228 -10.206  15.763  1.00  0.00     0.272 C 
HETATM   23  C7  UNL     1      16.710 -10.964  13.601  1.00  0.00     0.272 C 
HETATM   24  C8  UNL     1      15.251  -9.485  14.697  1.00  0.00     0.272 C 
ENDBRANCH  20  21
ENDBRANCH  19  20
ENDBRANCH  16  18
BRANCH  16  25
HETATM   25  C9  UNL     1      14.892 -10.999  20.137  1.00  0.00     0.257 C 
BRANCH  25  26
HETATM   26  N2  UNL     1      15.302  -9.605  20.386  1.00  0.00    -0.077 N 
ATOM     27  H23 UNL     1      16.075  -9.547  21.049  1.00  0.00     0.274 HD
ATOM     28  H22 UNL     1      15.767  -9.194  19.577  1.00  0.00     0.274 HD
ATOM     29  H21 UNL     1      14.499  -9.052  20.687  1.00  0.00     0.274 HD
ENDBRANCH  25  26
ENDBRANCH  16  25
ENDBRANCH  15  16
ENDBRANCH   1  15
TORSDOF 9
ENDMDL
MODEL 2
REMARK VINA RESULT: -6.094583132      2.522      8.248
REMARK  9 active torsions:
REMARK  status: ('A' for Active; 'I' for Inactive)
REMARK    1  A    between atoms: C2_2  and  C3_3 
REMARK    2  A    between atoms: C2_2  and  C9_10 
REMARK    3  A    between atoms: C2_2  and  C10_15 
REMARK    4  A    between atoms: C4_4  and  C5_5 
REMARK    5  A    between atoms: C5_5  and  N1_6 
REMARK    6  A    between atoms: C9_10  and  N2_11 
REMARK    7  A    between atoms: C10_15  and  N3_16 
REMARK       I    between atoms: N3_16  and  C11_18 
REMARK       I    between atoms: C11_18  and  N4_20 
REMARK    8  A    between atoms: C13_22  and  C15_25 
REMARK    9  A    between atoms: C15_25  and  N6_26 
ROOT
HETATM    1  N3  UNL     1      18.920 -12.729  22.310  1.00  0.00    -0.321 N 
ATOM      2  H3  UNL     1      18.383 -13.517  22.671  1.00  0.00     0.169 HD
HETATM    3  C11 UNL     1      18.240 -11.830  21.506  1.00  0.00     0.323 C 
HETATM    4  O1  UNL     1      18.728 -10.806  20.952  1.00  0.00    -0.247 OA
HETATM    5  N4  UNL     1      16.838 -12.071  21.264  1.00  0.00    -0.305 N 
HETATM    6  C12 UNL     1      15.613 -12.848  21.437  1.00  0.00     0.178 A 
HETATM    7  C13 UNL     1      15.549 -11.668  20.620  1.00  0.00     0.166 A 
HETATM    8  C14 UNL     1      15.675 -11.831  19.156  1.00  0.00     0.094 C 
HETATM    9  N5  UNL     1      15.789 -11.974  17.996  1.00  0.00    -0.194 NA
ENDROOT
BRANCH   7  10
HETATM   10  C15 UNL     1      15.040 -10.330  21.050  1.00  0.00     0.284 C 
BRANCH  10  11
HETATM   11  N6  UNL     1      13.625 -10.171  21.003  1.00  0.00    -0.075 N 
HETATM   12  C16 UNL     1      13.310  -9.381  19.803  1.00  0.00     0.271 C 
HETATM   13  C17 UNL     1      12.888 -11.390  20.924  1.00  0.00     0.271 C 
HETATM   14  C18 UNL     1      13.137  -9.430  22.180  1.00  0.00     0.271 C 
ENDBRANCH  10  11
ENDBRANCH   7  10
BRANCH   1  15
HETATM   15  C10 UNL     1      20.274 -12.668  22.681  1.00  0.00     0.089 C 
BRANCH  15  16
HETATM   16  C2  UNL     1      20.711 -13.085  24.028  1.00  0.00     0.075 C 
HETATM   17  C1  UNL     1      20.574 -12.011  25.102  1.00  0.00     0.037 C 
BRANCH  16  18
HETATM   18  C3  UNL     1      19.650 -14.092  24.460  1.00  0.00    -0.088 C 
HETATM   19  C4  UNL     1      18.798 -14.879  24.786  1.00  0.00    -0.077 C 
BRANCH  19  20
HETATM   20  C5  UNL     1      17.755 -15.814  25.190  1.00  0.00     0.329 C 
BRANCH  20  21
HETATM   21  N1  UNL     1      17.406 -16.666  24.072  1.00  0.00    -0.069 N 
HETATM   22  C6  UNL     1      18.505 -17.536  23.760  1.00  0.00     0.272 C 
HETATM   23  C7  UNL     1      16.260 -17.491  24.450  1.00  0.00     0.272 C 
HETATM   24  C8  UNL     1      17.038 -15.895  22.913  1.00  0.00     0.272 C 
ENDBRANCH  20  21
ENDBRANCH  19  20
ENDBRANCH  16  18
BRANCH  16  25
HETATM   25  C9  UNL     1      21.987 -13.814  24.204  1.00  0.00     0.257 C 
BRANCH  25  26
HETATM   26  N2  UNL     1      23.068 -12.868  24.536  1.00  0.00    -0.077 N 
ATOM     27  H23 UNL     1      22.708 -11.940  24.761  1.00  0.00     0.274 HD
ATOM     28  H22 UNL     1      23.501 -13.082  25.434  1.00  0.00     0.274 HD
ATOM     29  H21 UNL     1      23.752 -12.838  23.779  1.00  0.00     0.274 HD
ENDBRANCH  25  26
ENDBRANCH  16  25
ENDBRANCH  15  16
ENDBRANCH   1  15
TORSDOF 9
ENDMDL
MODEL 3
REMARK VINA RESULT: -6.057320556      2.623      5.026
REMARK  9 active torsions:
REMARK  status: ('A' for Active; 'I' for Inactive)
REMARK    1  A    between atoms: C2_2  and  C3_3 
REMARK    2  A    between atoms: C2_2  and  C9_10 
REMARK    3  A    between atoms: C2_2  and  C10_15 
REMARK    4  A    between atoms: C4_4  and  C5_5 
REMARK    5  A    between atoms: C5_5  and  N1_6 
REMARK    6  A    between atoms: C9_10  and  N2_11 
REMARK    7  A    between atoms: C10_15  and  N3_16 
REMARK       I    between atoms: N3_16  and  C11_18 
REMARK       I    between atoms: C11_18  and  N4_20 
REMARK    8  A    between atoms: C13_22  and  C15_25 
REMARK    9  A    between atoms: C15_25  and  N6_26 
ROOT
HETATM    1  N3  UNL     1      18.705 -11.898  21.567  1.00  0.00    -0.321 N 
ATOM      2  H3  UNL     1      18.288 -11.573  22.439  1.00  0.00     0.169 HD
HETATM    3  C11 UNL     1      19.769 -12.778  21.678  1.00  0.00     0.323 C 
HETATM    4  O1  UNL     1      20.426 -13.278  20.724  1.00  0.00    -0.247 OA
HETATM    5  N4  UNL     1      20.181 -13.172  23.004  1.00  0.00    -0.305 N 
HETATM    6  C12 UNL     1      20.058 -13.132  24.459  1.00  0.00     0.178 A 
HETATM    7  C13 UNL     1      21.090 -13.957  23.896  1.00  0.00     0.166 A 
HETATM    8  C14 UNL     1      22.454 -13.394  23.802  1.00  0.00     0.094 C 
HETATM    9  N5  UNL     1      23.530 -12.929  23.723  1.00  0.00    -0.194 NA
ENDROOT
BRANCH   7  10
HETATM   10  C15 UNL     1      21.018 -15.436  23.695  1.00  0.00     0.284 C 
BRANCH  10  11
HETATM   11  N6  UNL     1      21.091 -16.218  24.884  1.00  0.00    -0.075 N 
HETATM   12  C16 UNL     1      21.780 -17.473  24.544  1.00  0.00     0.271 C 
HETATM   13  C17 UNL     1      21.808 -15.609  25.957  1.00  0.00     0.271 C 
HETATM   14  C18 UNL     1      19.745 -16.554  25.380  1.00  0.00     0.271 C 
ENDBRANCH  10  11
ENDBRANCH   7  10
BRANCH   1  15
HETATM   15  C10 UNL     1      18.140 -11.407  20.378  1.00  0.00     0.089 C 
BRANCH  15  16
HETATM   16  C2  UNL     1      16.719 -11.647  20.057  1.00  0.00     0.075 C 
HETATM   17  C1  UNL     1      16.375 -11.539  18.575  1.00  0.00     0.037 C 
BRANCH  16  18
HETATM   18  C3  UNL     1      16.536 -13.140  20.309  1.00  0.00    -0.088 C 
HETATM   19  C4  UNL     1      16.369 -14.317  20.504  1.00  0.00    -0.077 C 
BRANCH  19  20
HETATM   20  C5  UNL     1      16.159 -15.736  20.763  1.00  0.00     0.329 C 
BRANCH  20  21
HETATM   21  N1  UNL     1      17.096 -16.191  21.770  1.00  0.00    -0.069 N 
HETATM   22  C6  UNL     1      16.728 -17.504  22.221  1.00  0.00     0.272 C 
HETATM   23  C7  UNL     1      18.427 -16.267  21.173  1.00  0.00     0.272 C 
HETATM   24  C8  UNL     1      17.159 -15.282  22.885  1.00  0.00     0.272 C 
ENDBRANCH  20  21
ENDBRANCH  19  20
ENDBRANCH  16  18
BRANCH  16  25
HETATM   25  C9  UNL     1      15.656 -11.014  20.868  1.00  0.00     0.257 C 
BRANCH  25  26
HETATM   26  N2  UNL     1      15.445  -9.622  20.429  1.00  0.00    -0.077 N 
ATOM     27  H23 UNL     1      15.822  -9.455  19.496  1.00  0.00     0.274 HD
ATOM     28  H22 UNL     1      14.464  -9.429  20.231  1.00  0.00     0.274 HD
ATOM     29  H21 UNL     1      15.830  -8.976  21.118  1.00  0.00     0.274 HD
ENDBRANCH  25  26
ENDBRANCH  16  25
ENDBRANCH  15  16
ENDBRANCH   1  15
TORSDOF 9
ENDMDL
MODEL 4
REMARK VINA RESULT: -5.955585907      1.393      1.985
REMARK  9 active torsions:
REMARK  status: ('A' for Active; 'I' for Inactive)
REMARK    1  A    between atoms: C2_2  and  C3_3 
REMARK    2  A    between atoms: C2_2  and  C9_10 
REMARK    3  A    between atoms: C2_2  and  C10_15 
REMARK    4  A    between atoms: C4_4  and  C5_5 
REMARK    5  A    between atoms: C5_5  and  N1_6 
REMARK    6  A    between atoms: C9_10  and  N2_11 
REMARK    7  A    between atoms: C10_15  and  N3_16 
REMARK       I    between atoms: N3_16  and  C11_18 
REMARK       I    between atoms: C11_18  and  N4_20 
REMARK    8  A    between atoms: C13_22  and  C15_25 
REMARK    9  A    between atoms: C15_25  and  N6_26 
ROOT
HETATM    1  N3  UNL     1      17.742 -11.333  21.030  1.00  0.00    -0.321 N 
ATOM      2  H3  UNL     1      18.564 -11.040  20.503  1.00  0.00     0.169 HD
HETATM    3  C11 UNL     1      17.954 -12.229  22.065  1.00  0.00     0.323 C 
HETATM    4  O1  UNL     1      17.069 -12.721  22.818  1.00  0.00    -0.247 OA
HETATM    5  N4  UNL     1      19.309 -12.652  22.322  1.00  0.00    -0.305 N 
HETATM    6  C12 UNL     1      20.741 -12.636  22.037  1.00  0.00     0.178 A 
HETATM    7  C13 UNL     1      20.281 -13.465  23.117  1.00  0.00     0.166 A 
HETATM    8  C14 UNL     1      20.046 -14.898  22.839  1.00  0.00     0.094 C 
HETATM    9  N5  UNL     1      19.851 -16.032  22.600  1.00  0.00    -0.194 NA
ENDROOT
BRANCH   7  10
HETATM   10  C15 UNL     1      20.326 -13.118  24.570  1.00  0.00     0.284 C 
BRANCH  10  11
HETATM   11  N6  UNL     1      21.585 -13.321  25.207  1.00  0.00    -0.075 N 
HETATM   12  C16 UNL     1      21.506 -12.709  26.542  1.00  0.00     0.271 C 
HETATM   13  C17 UNL     1      21.955 -14.688  25.380  1.00  0.00     0.271 C 
HETATM   14  C18 UNL     1      22.668 -12.656  24.462  1.00  0.00     0.271 C 
ENDBRANCH  10  11
ENDBRANCH   7  10
BRANCH   1  15
HETATM   15  C10 UNL     1      16.511 -10.786  20.630  1.00  0.00     0.089 C 
BRANCH  15  16
HETATM   16  C2  UNL     1      15.610 -11.526  19.725  1.00  0.00     0.075 C 
HETATM   17  C1  UNL     1      14.213 -10.928  19.589  1.00  0.00     0.037 C 
BRANCH  16  18
HETATM   18  C3  UNL     1      16.193 -11.266  18.339  1.00  0.00    -0.088 C 
HETATM   19  C4  UNL     1      16.655 -11.039  17.250  1.00  0.00    -0.077 C 
BRANCH  19  20
HETATM   20  C5  UNL     1      17.193 -10.755  15.925  1.00  0.00     0.329 C 
BRANCH  20  21
HETATM   21  N1  UNL     1      16.149 -10.907  14.933  1.00  0.00    -0.069 N 
HETATM   22  C6  UNL     1      15.587 -12.227  15.015  1.00  0.00     0.272 C 
HETATM   23  C7  UNL     1      15.090  -9.940  15.213  1.00  0.00     0.272 C 
HETATM   24  C8  UNL     1      16.641 -10.659  13.603  1.00  0.00     0.272 C 
ENDBRANCH  20  21
ENDBRANCH  19  20
ENDBRANCH  16  18
BRANCH  16  25
HETATM   25  C9  UNL     1      15.521 -13.000  19.804  1.00  0.00     0.257 C 
BRANCH  25  26
HETATM   26  N2  UNL     1      14.777 -13.398  21.013  1.00  0.00    -0.077 N 
ATOM     27  H23 UNL     1      15.334 -13.994  21.626  1.00  0.00     0.274 HD
ATOM     28  H22 UNL     1      14.640 -12.615  21.652  1.00  0.00     0.274 HD
ATOM     29  H21 UNL     1      13.894 -13.838  20.752  1.00  0.00     0.274 HD
ENDBRANCH  25  26
ENDBRANCH  16  25
ENDBRANCH  15  16
ENDBRANCH   1  15
TORSDOF 9
ENDMDL
MODEL 5
REMARK VINA RESULT: -5.900820159      2.499      9.030
REMARK  9 active torsions:
REMARK  status: ('A' for Active; 'I' for Inactive)
REMARK    1  A    between atoms: C2_2  and  C3_3 
REMARK    2  A    between atoms: C2_2  and  C9_10 
REMARK    3  A    between atoms: C2_2  and  C10_15 
REMARK    4  A    between atoms: C4_4  and  C5_5 
REMARK    5  A    between atoms: C5_5  and  N1_6 
REMARK    6  A    between atoms: C9_10  and  N2_11 
REMARK    7  A    between atoms: C10_15  and  N3_16 
REMARK       I    between atoms: N3_16  and  C11_18 
REMARK       I    between atoms: C11_18  and  N4_20 
REMARK    8  A    between atoms: C13_22  and  C15_25 
REMARK    9  A    between atoms: C15_25  and  N6_26 
ROOT
HETATM    1  N3  UNL     1      18.956 -13.484  22.308  1.00  0.00    -0.321 N 
ATOM      2  H3  UNL     1      18.418 -14.339  22.171  1.00  0.00     0.169 HD
HETATM    3  C11 UNL     1      18.397 -12.314  21.820  1.00  0.00     0.323 C 
HETATM    4  O1  UNL     1      18.910 -11.162  21.874  1.00  0.00    -0.247 OA
HETATM    5  N4  UNL     1      17.104 -12.400  21.185  1.00  0.00    -0.305 N 
HETATM    6  C12 UNL     1      15.937 -13.152  20.731  1.00  0.00     0.178 A 
HETATM    7  C13 UNL     1      15.957 -11.736  20.492  1.00  0.00     0.166 A 
HETATM    8  C14 UNL     1      16.409 -11.263  19.166  1.00  0.00     0.094 C 
HETATM    9  N5  UNL     1      16.783 -10.902  18.112  1.00  0.00    -0.194 NA
ENDROOT
BRANCH   7  10
HETATM   10  C15 UNL     1      15.262 -10.698  21.313  1.00  0.00     0.284 C 
BRANCH  10  11
HETATM   11  N6  UNL     1      13.856 -10.595  21.104  1.00  0.00    -0.075 N 
HETATM   12  C16 UNL     1      13.403  -9.361  21.764  1.00  0.00     0.271 C 
HETATM   13  C17 UNL     1      13.458 -10.525  19.736  1.00  0.00     0.271 C 
HETATM   14  C18 UNL     1      13.146 -11.730  21.718  1.00  0.00     0.271 C 
ENDBRANCH  10  11
ENDBRANCH   7  10
BRANCH   1  15
HETATM   15  C10 UNL     1      20.189 -13.614  22.971  1.00  0.00     0.089 C 
BRANCH  15  16
HETATM   16  C2  UNL     1      20.318 -13.284  24.403  1.00  0.00     0.075 C 
HETATM   17  C1  UNL     1      19.048 -13.491  25.221  1.00  0.00     0.037 C 
BRANCH  16  18
HETATM   18  C3  UNL     1      21.220 -14.387  24.950  1.00  0.00    -0.088 C 
HETATM   19  C4  UNL     1      21.930 -15.268  25.363  1.00  0.00    -0.077 C 
BRANCH  19  20
HETATM   20  C5  UNL     1      22.770 -16.348  25.866  1.00  0.00     0.329 C 
BRANCH  20  21
HETATM   21  N1  UNL     1      23.539 -16.913  24.776  1.00  0.00    -0.069 N 
HETATM   22  C6  UNL     1      24.463 -15.935  24.274  1.00  0.00     0.272 C 
HETATM   23  C7  UNL     1      24.304 -18.051  25.281  1.00  0.00     0.272 C 
HETATM   24  C8  UNL     1      22.688 -17.383  23.714  1.00  0.00     0.272 C 
ENDBRANCH  20  21
ENDBRANCH  19  20
ENDBRANCH  16  18
BRANCH  16  25
HETATM   25  C9  UNL     1      20.989 -12.034  24.822  1.00  0.00     0.257 C 
BRANCH  25  26
HETATM   26  N2  UNL     1      20.875 -11.863  26.283  1.00  0.00    -0.077 N 
ATOM     27  H23 UNL     1      21.417 -11.067  26.617  1.00  0.00     0.274 HD
ATOM     28  H22 UNL     1      19.949 -11.540  26.558  1.00  0.00     0.274 HD
ATOM     29  H21 UNL     1      21.135 -12.728  26.757  1.00  0.00     0.274 HD
ENDBRANCH  25  26
ENDBRANCH  16  25
ENDBRANCH  15  16
ENDBRANCH   1  15
TORSDOF 9
ENDMDL
