MODEL 1
REMARK VINA RESULT: -5.942526712      0.000      0.000
REMARK  7 active torsions:
REMARK  status: ('A' for Active; 'I' for Inactive)
REMARK    1  A    between atoms: C3_3  and  C4_4 
REMARK    2  A    between atoms: C6_6  and  N1_7 
REMARK    3  A    between atoms: N1_7  and  S1_9 
REMARK    4  A    between atoms: S1_9  and  S2_12 
REMARK    5  A    between atoms: S2_12  and  C8_13 
REMARK    6  A    between atoms: C8_13  and  N2_15 
REMARK    7  A    between atoms: N3_20  and  C13_22 
ROOT
HETATM    1  C4  UNL     1      28.544  -8.726  -5.958  1.00  0.00     0.035 C 
HETATM    2  C5  UNL     1      29.825  -8.884  -5.789  1.00  0.00     0.137 C 
HETATM    3  C6  UNL     1      30.728  -9.605  -6.731  1.00  0.00     0.150 C 
HETATM    4  C10 UNL     1      32.080  -9.480  -6.178  1.00  0.00     0.060 C 
HETATM    5  C11 UNL     1      31.909  -8.969  -4.790  1.00  0.00     0.245 C 
HETATM    6  N3  UNL     1      30.573  -8.405  -4.666  1.00  0.00    -0.043 N 
HETATM    7  C12 UNL     1      30.065  -8.863  -3.399  1.00  0.00     0.279 C 
ENDROOT
BRANCH   3   8
HETATM    8  N1  UNL     1      30.543  -9.072  -8.060  1.00  0.00    -0.333 N 
ATOM      9  H1  UNL     1      30.554  -8.067  -8.235  1.00  0.00     0.170 HD
BRANCH   8  10
HETATM   10  S1  UNL     1      30.289 -10.278  -9.424  1.00  0.00     0.080 S 
HETATM   11  C7  UNL     1      31.409 -11.680  -9.793  1.00  0.00     0.149 C 
HETATM   12  O1  UNL     1      28.686  -9.983 -10.522  1.00  0.00    -0.239 OA
BRANCH  10  13
HETATM   13  S2  UNL     1      31.155  -8.807 -10.533  1.00  0.00     0.011 SA
BRANCH  13  14
HETATM   14  C8  UNL     1      31.575  -9.064 -12.085  1.00  0.00     0.147 C 
HETATM   15  S3  UNL     1      33.172  -9.175 -12.548  1.00  0.00    -0.052 SA
BRANCH  14  16
HETATM   16  N2  UNL     1      30.645  -9.215 -13.139  1.00  0.00    -0.379 N 
HETATM   17  C9  UNL     1      30.977  -8.841 -14.519  1.00  0.00     0.147 C 
ATOM     18  H2  UNL     1      29.720  -9.593 -12.936  1.00  0.00     0.160 HD
ENDBRANCH  14  16
ENDBRANCH  13  14
ENDBRANCH  10  13
ENDBRANCH   8  10
ENDBRANCH   3   8
BRANCH   1  19
HETATM   19  C3  UNL     1      27.639  -8.031  -5.067  1.00  0.00    -0.002 C 
HETATM   20  C2  UNL     1      26.683  -8.708  -4.436  1.00  0.00    -0.031 C 
HETATM   21  C1  UNL     1      25.738  -8.037  -3.519  1.00  0.00     0.036 C 
ENDBRANCH   1  19
BRANCH   6  22
HETATM   22  C13 UNL     1      30.622  -6.962  -4.768  1.00  0.00     0.239 C 
HETATM   23  C14 UNL     1      30.491  -6.243  -3.464  1.00  0.00     0.035 C 
ENDBRANCH   6  22
TORSDOF 7
ENDMDL
MODEL 2
REMARK VINA RESULT: -5.849004481      4.078      8.020
REMARK  7 active torsions:
REMARK  status: ('A' for Active; 'I' for Inactive)
REMARK    1  A    between atoms: C3_3  and  C4_4 
REMARK    2  A    between atoms: C6_6  and  N1_7 
REMARK    3  A    between atoms: N1_7  and  S1_9 
REMARK    4  A    between atoms: S1_9  and  S2_12 
REMARK    5  A    between atoms: S2_12  and  C8_13 
REMARK    6  A    between atoms: C8_13  and  N2_15 
REMARK    7  A    between atoms: N3_20  and  C13_22 
ROOT
HETATM    1  C4  UNL     1      32.085  -6.846 -12.421  1.00  0.00     0.035 C 
HETATM    2  C5  UNL     1      31.969  -8.058 -12.882  1.00  0.00     0.137 C 
HETATM    3  C6  UNL     1      31.886  -9.286 -12.041  1.00  0.00     0.150 C 
HETATM    4  C10 UNL     1      31.701 -10.406 -12.969  1.00  0.00     0.060 C 
HETATM    5  C11 UNL     1      31.987  -9.865 -14.326  1.00  0.00     0.245 C 
HETATM    6  N3  UNL     1      31.919  -8.412 -14.268  1.00  0.00    -0.043 N 
HETATM    7  C12 UNL     1      33.045  -7.931 -15.026  1.00  0.00     0.279 C 
ENDROOT
BRANCH   3   8
HETATM    8  N1  UNL     1      30.845  -9.112 -11.056  1.00  0.00    -0.333 N 
ATOM      9  H1  UNL     1      30.308  -8.246 -10.998  1.00  0.00     0.170 HD
BRANCH   8  10
HETATM   10  S1  UNL     1      30.526 -10.513  -9.909  1.00  0.00     0.080 S 
HETATM   11  C7  UNL     1      28.876 -10.965  -9.256  1.00  0.00     0.149 C 
HETATM   12  O1  UNL     1      32.111 -11.554  -9.389  1.00  0.00    -0.239 OA
BRANCH  10  13
HETATM   13  S2  UNL     1      31.124  -9.159  -8.510  1.00  0.00     0.011 SA
BRANCH  13  14
HETATM   14  C8  UNL     1      32.535  -8.362  -8.664  1.00  0.00     0.147 C 
HETATM   15  S3  UNL     1      32.596  -6.697  -8.703  1.00  0.00    -0.052 SA
BRANCH  14  16
HETATM   16  N2  UNL     1      33.793  -8.999  -8.769  1.00  0.00    -0.379 N 
HETATM   17  C9  UNL     1      34.419  -9.663  -7.620  1.00  0.00     0.147 C 
ATOM     18  H2  UNL     1      34.279  -8.997  -9.666  1.00  0.00     0.160 HD
ENDBRANCH  14  16
ENDBRANCH  13  14
ENDBRANCH  10  13
ENDBRANCH   8  10
ENDBRANCH   3   8
BRANCH   1  19
HETATM   19  C3  UNL     1      32.166  -5.633 -13.207  1.00  0.00    -0.002 C 
HETATM   20  C2  UNL     1      33.159  -4.773 -12.995  1.00  0.00    -0.031 C 
HETATM   21  C1  UNL     1      33.279  -3.523 -13.774  1.00  0.00     0.036 C 
ENDBRANCH   1  19
BRANCH   6  22
HETATM   22  C13 UNL     1      30.649  -7.945 -14.784  1.00  0.00     0.239 C 
HETATM   23  C14 UNL     1      30.703  -7.420 -16.182  1.00  0.00     0.035 C 
ENDBRANCH   6  22
TORSDOF 7
ENDMDL
MODEL 3
REMARK VINA RESULT: -5.813407125      4.244      5.130
REMARK  7 active torsions:
REMARK  status: ('A' for Active; 'I' for Inactive)
REMARK    1  A    between atoms: C3_3  and  C4_4 
REMARK    2  A    between atoms: C6_6  and  N1_7 
REMARK    3  A    between atoms: N1_7  and  S1_9 
REMARK    4  A    between atoms: S1_9  and  S2_12 
REMARK    5  A    between atoms: S2_12  and  C8_13 
REMARK    6  A    between atoms: C8_13  and  N2_15 
REMARK    7  A    between atoms: N3_20  and  C13_22 
ROOT
HETATM    1  C4  UNL     1      28.655  -5.120  -9.667  1.00  0.00     0.035 C 
HETATM    2  C5  UNL     1      29.946  -5.251  -9.558  1.00  0.00     0.137 C 
HETATM    3  C6  UNL     1      30.648  -6.519  -9.210  1.00  0.00     0.150 C 
HETATM    4  C10 UNL     1      32.082  -6.220  -9.263  1.00  0.00     0.060 C 
HETATM    5  C11 UNL     1      32.189  -4.736  -9.332  1.00  0.00     0.245 C 
HETATM    6  N3  UNL     1      30.899  -4.199  -9.738  1.00  0.00    -0.043 N 
HETATM    7  C12 UNL     1      30.662  -3.057  -8.894  1.00  0.00     0.279 C 
ENDROOT
BRANCH   3   8
HETATM    8  N1  UNL     1      30.195  -7.566 -10.095  1.00  0.00    -0.333 N 
ATOM      9  H1  UNL     1      30.206  -7.447 -11.109  1.00  0.00     0.170 HD
BRANCH   8  10
HETATM   10  S1  UNL     1      29.596  -9.122  -9.322  1.00  0.00     0.080 S 
HETATM   11  C7  UNL     1      29.976  -9.643  -7.608  1.00  0.00     0.149 C 
HETATM   12  O1  UNL     1      28.477 -10.258 -10.472  1.00  0.00    -0.239 OA
BRANCH  10  13
HETATM   13  S2  UNL     1      31.186  -9.917 -10.315  1.00  0.00     0.011 SA
BRANCH  13  14
HETATM   14  C8  UNL     1      31.659  -9.320 -11.755  1.00  0.00     0.147 C 
HETATM   15  S3  UNL     1      33.182  -8.680 -11.974  1.00  0.00    -0.052 SA
BRANCH  14  16
HETATM   16  N2  UNL     1      30.841  -9.301 -12.908  1.00  0.00    -0.379 N 
HETATM   17  C9  UNL     1      31.413  -9.332 -14.259  1.00  0.00     0.147 C 
ATOM     18  H2  UNL     1      29.827  -9.263 -12.799  1.00  0.00     0.160 HD
ENDBRANCH  14  16
ENDBRANCH  13  14
ENDBRANCH  10  13
ENDBRANCH   8  10
ENDBRANCH   3   8
BRANCH   1  19
HETATM   19  C3  UNL     1      27.940  -3.907 -10.004  1.00  0.00    -0.002 C 
HETATM   20  C2  UNL     1      26.652  -3.791  -9.692  1.00  0.00    -0.031 C 
HETATM   21  C1  UNL     1      25.885  -2.571 -10.019  1.00  0.00     0.036 C 
ENDBRANCH   1  19
BRANCH   6  22
HETATM   22  C13 UNL     1      30.911  -3.867 -11.148  1.00  0.00     0.239 C 
HETATM   23  C14 UNL     1      32.249  -3.466 -11.679  1.00  0.00     0.035 C 
ENDBRANCH   6  22
TORSDOF 7
ENDMDL
MODEL 4
REMARK VINA RESULT: -5.787484617      3.166      8.574
REMARK  7 active torsions:
REMARK  status: ('A' for Active; 'I' for Inactive)
REMARK    1  A    between atoms: C3_3  and  C4_4 
REMARK    2  A    between atoms: C6_6  and  N1_7 
REMARK    3  A    between atoms: N1_7  and  S1_9 
REMARK    4  A    between atoms: S1_9  and  S2_12 
REMARK    5  A    between atoms: S2_12  and  C8_13 
REMARK    6  A    between atoms: C8_13  and  N2_15 
REMARK    7  A    between atoms: N3_20  and  C13_22 
ROOT
HETATM    1  C4  UNL     1      32.325  -7.160 -12.986  1.00  0.00     0.035 C 
HETATM    2  C5  UNL     1      32.085  -8.222 -13.700  1.00  0.00     0.137 C 
HETATM    3  C6  UNL     1      32.144  -9.622 -13.193  1.00  0.00     0.150 C 
HETATM    4  C10 UNL     1      31.742 -10.480 -14.312  1.00  0.00     0.060 C 
HETATM    5  C11 UNL     1      31.756  -9.610 -15.520  1.00  0.00     0.245 C 
HETATM    6  N3  UNL     1      31.740  -8.220 -15.090  1.00  0.00    -0.043 N 
HETATM    7  C12 UNL     1      32.697  -7.536 -15.919  1.00  0.00     0.279 C 
ENDROOT
BRANCH   3   8
HETATM    8  N1  UNL     1      31.334  -9.726 -12.002  1.00  0.00    -0.333 N 
ATOM      9  H1  UNL     1      30.399  -9.320 -11.959  1.00  0.00     0.170 HD
BRANCH   8  10
HETATM   10  S1  UNL     1      32.056 -10.619 -10.567  1.00  0.00     0.080 S 
HETATM   11  C7  UNL     1      31.529 -12.282 -10.007  1.00  0.00     0.149 C 
HETATM   12  O1  UNL     1      33.486  -9.666  -9.613  1.00  0.00    -0.239 OA
BRANCH  10  13
HETATM   13  S2  UNL     1      30.761  -9.446  -9.522  1.00  0.00     0.011 SA
BRANCH  13  14
HETATM   14  C8  UNL     1      30.640  -9.568  -7.903  1.00  0.00     0.147 C 
HETATM   15  S3  UNL     1      29.280  -9.050  -7.089  1.00  0.00    -0.052 SA
BRANCH  14  16
HETATM   16  N2  UNL     1      31.649 -10.112  -7.074  1.00  0.00    -0.379 N 
HETATM   17  C9  UNL     1      32.475  -9.264  -6.208  1.00  0.00     0.147 C 
ATOM     18  H2  UNL     1      31.806 -11.120  -7.079  1.00  0.00     0.160 HD
ENDBRANCH  14  16
ENDBRANCH  13  14
ENDBRANCH  10  13
ENDBRANCH   8  10
ENDBRANCH   3   8
BRANCH   1  19
HETATM   19  C3  UNL     1      32.275  -5.787 -13.444  1.00  0.00    -0.002 C 
HETATM   20  C2  UNL     1      33.244  -4.942 -13.104  1.00  0.00    -0.031 C 
HETATM   21  C1  UNL     1      33.231  -3.533 -13.550  1.00  0.00     0.036 C 
ENDBRANCH   1  19
BRANCH   6  22
HETATM   22  C13 UNL     1      30.404  -7.672 -15.199  1.00  0.00     0.239 C 
HETATM   23  C14 UNL     1      30.098  -7.043 -16.519  1.00  0.00     0.035 C 
ENDBRANCH   6  22
TORSDOF 7
ENDMDL
MODEL 5
REMARK VINA RESULT: -5.646490646      4.012      8.189
REMARK  7 active torsions:
REMARK  status: ('A' for Active; 'I' for Inactive)
REMARK    1  A    between atoms: C3_3  and  C4_4 
REMARK    2  A    between atoms: C6_6  and  N1_7 
REMARK    3  A    between atoms: N1_7  and  S1_9 
REMARK    4  A    between atoms: S1_9  and  S2_12 
REMARK    5  A    between atoms: S2_12  and  C8_13 
REMARK    6  A    between atoms: C8_13  and  N2_15 
REMARK    7  A    between atoms: N3_20  and  C13_22 
ROOT
HETATM    1  C4  UNL     1      32.017  -6.829 -12.630  1.00  0.00     0.035 C 
HETATM    2  C5  UNL     1      31.908  -7.976 -13.235  1.00  0.00     0.137 C 
HETATM    3  C6  UNL     1      31.812  -9.296 -12.549  1.00  0.00     0.150 C 
HETATM    4  C10 UNL     1      31.640 -10.296 -13.608  1.00  0.00     0.060 C 
HETATM    5  C11 UNL     1      31.947  -9.595 -14.886  1.00  0.00     0.245 C 
HETATM    6  N3  UNL     1      31.878  -8.160 -14.654  1.00  0.00    -0.043 N 
HETATM    7  C12 UNL     1      33.015  -7.594 -15.332  1.00  0.00     0.279 C 
ENDROOT
BRANCH   3   8
HETATM    8  N1  UNL     1      30.756  -9.240 -11.566  1.00  0.00    -0.333 N 
ATOM      9  H1  UNL     1      29.913  -8.688 -11.723  1.00  0.00     0.170 HD
BRANCH   8  10
HETATM   10  S1  UNL     1      30.994 -10.202 -10.018  1.00  0.00     0.080 S 
HETATM   11  C7  UNL     1      29.632 -10.837  -8.970  1.00  0.00     0.149 C 
HETATM   12  O1  UNL     1      32.864 -10.536  -9.512  1.00  0.00    -0.239 OA
BRANCH  10  13
HETATM   13  S2  UNL     1      31.249  -8.349  -9.216  1.00  0.00     0.011 SA
BRANCH  13  14
HETATM   14  C8  UNL     1      29.973  -7.389  -8.898  1.00  0.00     0.147 C 
HETATM   15  S3  UNL     1      29.321  -7.285  -7.368  1.00  0.00    -0.052 SA
BRANCH  14  16
HETATM   16  N2  UNL     1      29.331  -6.583  -9.867  1.00  0.00    -0.379 N 
HETATM   17  C9  UNL     1      29.733  -5.191 -10.100  1.00  0.00     0.147 C 
ATOM     18  H2  UNL     1      28.569  -6.979 -10.418  1.00  0.00     0.160 HD
ENDBRANCH  14  16
ENDBRANCH  13  14
ENDBRANCH  10  13
ENDBRANCH   8  10
ENDBRANCH   3   8
BRANCH   1  19
HETATM   19  C3  UNL     1      32.111  -5.529 -13.262  1.00  0.00    -0.002 C 
HETATM   20  C2  UNL     1      33.162  -4.751 -13.019  1.00  0.00    -0.031 C 
HETATM   21  C1  UNL     1      33.296  -3.418 -13.643  1.00  0.00     0.036 C 
ENDBRANCH   1  19
BRANCH   6  22
HETATM   22  C13 UNL     1      30.616  -7.631 -15.128  1.00  0.00     0.239 C 
HETATM   23  C14 UNL     1      30.599  -7.276 -16.580  1.00  0.00     0.035 C 
ENDBRANCH   6  22
TORSDOF 7
ENDMDL
