MODEL 1
REMARK VINA RESULT: -8.109105265      0.000      0.000
REMARK  6 active torsions:
REMARK  status: ('A' for Active; 'I' for Inactive)
REMARK    1  A    between atoms: C2_2  and  C5_5 
REMARK    2  A    between atoms: C8_8  and  N1_9 
REMARK    3  A    between atoms: N2_12  and  S1_13 
REMARK    4  A    between atoms: S1_13  and  C11_16 
REMARK    5  A    between atoms: C13_18  and  C14_19 
REMARK    6  A    between atoms: C14_19  and  N3_20 
ROOT
HETATM    1  N1  UNL     1      32.801  -8.212 -11.756  1.00  0.00    -0.406 N 
HETATM    2  C9  UNL     1      32.551  -7.549 -10.550  1.00  0.00     0.132 C 
HETATM    3  C10 UNL     1      32.120  -8.587  -9.508  1.00  0.00     0.127 C 
HETATM    4  N2  UNL     1      31.329  -9.625 -10.119  1.00  0.00    -0.202 NA
HETATM    5  C16 UNL     1      32.055 -10.396 -11.074  1.00  0.00     0.127 C 
HETATM    6  C17 UNL     1      33.117  -9.588 -11.744  1.00  0.00     0.132 C 
ENDROOT
BRANCH   4   7
HETATM    7  S1  UNL     1      30.534 -10.608  -8.979  1.00  0.00     0.259 S 
HETATM    8  O1  UNL     1      31.350 -11.823  -8.658  1.00  0.00    -0.204 OA
HETATM    9  O2  UNL     1      29.261 -11.116  -9.642  1.00  0.00    -0.204 OA
BRANCH   7  10
HETATM   10  C11 UNL     1      30.123  -9.714  -7.531  1.00  0.00     0.144 A 
HETATM   11  C12 UNL     1      28.923  -9.055  -7.284  1.00  0.00     0.053 A 
HETATM   12  C13 UNL     1      28.967  -8.462  -6.033  1.00  0.00    -0.015 A 
HETATM   13  C15 UNL     1      30.215  -8.773  -5.527  1.00  0.00     0.097 A 
HETATM   14  N4  UNL     1      30.884  -9.517  -6.435  1.00  0.00    -0.355 N 
ATOM     15  H4  UNL     1      31.830  -9.878  -6.309  1.00  0.00     0.166 HD
BRANCH  12  16
HETATM   16  C14 UNL     1      27.869  -7.667  -5.411  1.00  0.00     0.269 C 
BRANCH  16  17
HETATM   17  N3  UNL     1      26.800  -8.534  -5.014  1.00  0.00    -0.075 N 
ATOM     18  H33 UNL     1      26.672  -9.307  -5.667  1.00  0.00     0.274 HD
ATOM     19  H32 UNL     1      27.037  -9.077  -4.183  1.00  0.00     0.274 HD
ATOM     20  H31 UNL     1      25.942  -7.996  -4.887  1.00  0.00     0.274 HD
ENDBRANCH  16  17
ENDBRANCH  12  16
ENDBRANCH   7  10
ENDBRANCH   4   7
BRANCH   1  21
HETATM   21  C8  UNL     1      32.241  -7.744 -12.955  1.00  0.00     0.079 C 
HETATM   22  C7  UNL     1      32.455  -6.307 -13.301  1.00  0.00     0.025 C 
HETATM   23  C6  UNL     1      32.467  -6.247 -14.802  1.00  0.00     0.007 C 
HETATM   24  C5  UNL     1      32.522  -7.628 -15.350  1.00  0.00    -0.005 C 
HETATM   25  C18 UNL     1      32.639  -8.545 -14.187  1.00  0.00     0.030 C 
BRANCH  24  26
HETATM   26  C2  UNL     1      31.373  -7.948 -16.274  1.00  0.00    -0.048 C 
HETATM   27  C1  UNL     1      31.205  -9.453 -16.337  1.00  0.00     0.015 C 
HETATM   28  C3  UNL     1      30.091  -7.366 -15.759  1.00  0.00     0.015 C 
HETATM   29  C4  UNL     1      31.592  -7.456 -17.675  1.00  0.00     0.015 C 
ENDBRANCH  24  26
ENDBRANCH   1  21
TORSDOF 6
ENDMDL
MODEL 2
REMARK VINA RESULT: -7.877025925      2.067      8.718
REMARK  6 active torsions:
REMARK  status: ('A' for Active; 'I' for Inactive)
REMARK    1  A    between atoms: C2_2  and  C5_5 
REMARK    2  A    between atoms: C8_8  and  N1_9 
REMARK    3  A    between atoms: N2_12  and  S1_13 
REMARK    4  A    between atoms: S1_13  and  C11_16 
REMARK    5  A    between atoms: C13_18  and  C14_19 
REMARK    6  A    between atoms: C14_19  and  N3_20 
ROOT
HETATM    1  N1  UNL     1      29.936  -7.859  -6.404  1.00  0.00    -0.406 N 
HETATM    2  C9  UNL     1      31.304  -7.718  -6.145  1.00  0.00     0.132 C 
HETATM    3  C10 UNL     1      32.083  -8.341  -7.309  1.00  0.00     0.127 C 
HETATM    4  N2  UNL     1      31.401  -9.505  -7.814  1.00  0.00    -0.202 NA
HETATM    5  C16 UNL     1      30.130  -9.207  -8.388  1.00  0.00     0.127 C 
HETATM    6  C17 UNL     1      29.491  -8.027  -7.733  1.00  0.00     0.132 C 
ENDROOT
BRANCH   4   7
HETATM    7  S1  UNL     1      32.369 -10.437  -8.861  1.00  0.00     0.259 S 
HETATM    8  O1  UNL     1      31.806 -11.815  -9.024  1.00  0.00    -0.204 OA
HETATM    9  O2  UNL     1      33.720 -10.607  -8.181  1.00  0.00    -0.204 OA
BRANCH   7  10
HETATM   10  C11 UNL     1      32.587  -9.649 -10.409  1.00  0.00     0.144 A 
HETATM   11  C12 UNL     1      31.959  -9.992 -11.602  1.00  0.00     0.053 A 
HETATM   12  C13 UNL     1      32.382  -9.143 -12.612  1.00  0.00    -0.015 A 
HETATM   13  C15 UNL     1      33.277  -8.279 -12.008  1.00  0.00     0.097 A 
HETATM   14  N4  UNL     1      33.383  -8.600 -10.700  1.00  0.00    -0.355 N 
ATOM     15  H4  UNL     1      33.980  -8.117 -10.028  1.00  0.00     0.166 HD
BRANCH  12  16
HETATM   16  C14 UNL     1      31.932  -9.193 -14.032  1.00  0.00     0.269 C 
BRANCH  16  17
HETATM   17  N3  UNL     1      30.506  -9.076 -14.100  1.00  0.00    -0.075 N 
ATOM     18  H33 UNL     1      30.124  -8.586 -13.291  1.00  0.00     0.274 HD
ATOM     19  H32 UNL     1      30.211  -8.421 -14.825  1.00  0.00     0.274 HD
ATOM     20  H31 UNL     1      30.084  -9.997 -14.223  1.00  0.00     0.274 HD
ENDBRANCH  16  17
ENDBRANCH  12  16
ENDBRANCH   7  10
ENDBRANCH   4   7
BRANCH   1  21
HETATM   21  C8  UNL     1      29.076  -8.373  -5.422  1.00  0.00     0.079 C 
HETATM   22  C7  UNL     1      29.699  -9.031  -4.234  1.00  0.00     0.025 C 
HETATM   23  C6  UNL     1      28.746  -8.802  -3.095  1.00  0.00     0.007 C 
HETATM   24  C5  UNL     1      27.710  -7.819  -3.509  1.00  0.00    -0.005 C 
HETATM   25  C18 UNL     1      28.073  -7.365  -4.877  1.00  0.00     0.030 C 
BRANCH  24  26
HETATM   26  C2  UNL     1      26.304  -8.351  -3.390  1.00  0.00    -0.048 C 
HETATM   27  C1  UNL     1      26.316  -9.554  -2.468  1.00  0.00     0.015 C 
HETATM   28  C3  UNL     1      25.389  -7.326  -2.791  1.00  0.00     0.015 C 
HETATM   29  C4  UNL     1      25.730  -8.793  -4.705  1.00  0.00     0.015 C 
ENDBRANCH  24  26
ENDBRANCH   1  21
TORSDOF 6
ENDMDL
MODEL 3
REMARK VINA RESULT: -7.824665731      0.901      1.032
REMARK  6 active torsions:
REMARK  status: ('A' for Active; 'I' for Inactive)
REMARK    1  A    between atoms: C2_2  and  C5_5 
REMARK    2  A    between atoms: C8_8  and  N1_9 
REMARK    3  A    between atoms: N2_12  and  S1_13 
REMARK    4  A    between atoms: S1_13  and  C11_16 
REMARK    5  A    between atoms: C13_18  and  C14_19 
REMARK    6  A    between atoms: C14_19  and  N3_20 
ROOT
HETATM    1  N1  UNL     1      32.784  -8.567 -11.665  1.00  0.00    -0.406 N 
HETATM    2  C9  UNL     1      32.945  -7.785 -10.516  1.00  0.00     0.132 C 
HETATM    3  C10 UNL     1      32.437  -8.585  -9.311  1.00  0.00     0.127 C 
HETATM    4  N2  UNL     1      31.296  -9.385  -9.675  1.00  0.00    -0.202 NA
HETATM    5  C16 UNL     1      31.599 -10.393 -10.638  1.00  0.00     0.127 C 
HETATM    6  C17 UNL     1      32.706  -9.972 -11.547  1.00  0.00     0.132 C 
ENDROOT
BRANCH   4   7
HETATM    7  S1  UNL     1      30.476 -10.021  -8.324  1.00  0.00     0.259 S 
HETATM    8  O1  UNL     1      31.421 -10.752  -7.421  1.00  0.00    -0.204 OA
HETATM    9  O2  UNL     1      29.499 -11.063  -8.849  1.00  0.00    -0.204 OA
BRANCH   7  10
HETATM   10  C11 UNL     1      29.598  -8.778  -7.459  1.00  0.00     0.144 A 
HETATM   11  C12 UNL     1      28.927  -8.935  -6.251  1.00  0.00     0.053 A 
HETATM   12  C13 UNL     1      28.352  -7.731  -5.877  1.00  0.00    -0.015 A 
HETATM   13  C15 UNL     1      28.689  -6.842  -6.881  1.00  0.00     0.097 A 
HETATM   14  N4  UNL     1      29.428  -7.487  -7.810  1.00  0.00    -0.355 N 
ATOM     15  H4  UNL     1      29.805  -7.058  -8.656  1.00  0.00     0.166 HD
BRANCH  12  16
HETATM   16  C14 UNL     1      27.552  -7.498  -4.641  1.00  0.00     0.269 C 
BRANCH  16  17
HETATM   17  N3  UNL     1      26.661  -8.598  -4.419  1.00  0.00    -0.075 N 
ATOM     18  H33 UNL     1      26.777  -9.001  -3.489  1.00  0.00     0.274 HD
ATOM     19  H32 UNL     1      25.692  -8.291  -4.330  1.00  0.00     0.274 HD
ATOM     20  H31 UNL     1      26.775  -9.295  -5.155  1.00  0.00     0.274 HD
ENDBRANCH  16  17
ENDBRANCH  12  16
ENDBRANCH   7  10
ENDBRANCH   4   7
BRANCH   1  21
HETATM   21  C8  UNL     1      32.171  -8.034 -12.808  1.00  0.00     0.079 C 
HETATM   22  C7  UNL     1      32.169  -6.548 -12.961  1.00  0.00     0.025 C 
HETATM   23  C6  UNL     1      32.185  -6.290 -14.441  1.00  0.00     0.007 C 
HETATM   24  C5  UNL     1      32.452  -7.564 -15.160  1.00  0.00    -0.005 C 
HETATM   25  C18 UNL     1      32.695  -8.598 -14.122  1.00  0.00     0.030 C 
BRANCH  24  26
HETATM   26  C2  UNL     1      31.372  -7.926 -16.150  1.00  0.00    -0.048 C 
HETATM   27  C1  UNL     1      31.251  -9.436 -16.206  1.00  0.00     0.015 C 
HETATM   28  C3  UNL     1      30.045  -7.377 -15.721  1.00  0.00     0.015 C 
HETATM   29  C4  UNL     1      31.663  -7.441 -17.540  1.00  0.00     0.015 C 
ENDBRANCH  24  26
ENDBRANCH   1  21
TORSDOF 6
ENDMDL
MODEL 4
REMARK VINA RESULT: -7.795155520      2.456      9.110
REMARK  6 active torsions:
REMARK  status: ('A' for Active; 'I' for Inactive)
REMARK    1  A    between atoms: C2_2  and  C5_5 
REMARK    2  A    between atoms: C8_8  and  N1_9 
REMARK    3  A    between atoms: N2_12  and  S1_13 
REMARK    4  A    between atoms: S1_13  and  C11_16 
REMARK    5  A    between atoms: C13_18  and  C14_19 
REMARK    6  A    between atoms: C14_19  and  N3_20 
ROOT
HETATM    1  N1  UNL     1      30.117  -8.303  -5.352  1.00  0.00    -0.406 N 
HETATM    2  C9  UNL     1      31.227  -9.153  -5.402  1.00  0.00     0.132 C 
HETATM    3  C10 UNL     1      31.392  -9.649  -6.842  1.00  0.00     0.127 C 
HETATM    4  N2  UNL     1      30.107  -9.846  -7.464  1.00  0.00    -0.202 NA
HETATM    5  C16 UNL     1      29.364  -8.638  -7.613  1.00  0.00     0.127 C 
HETATM    6  C17 UNL     1      29.677  -7.660  -6.530  1.00  0.00     0.132 C 
ENDROOT
BRANCH   4   7
HETATM    7  S1  UNL     1      30.206 -10.717  -8.924  1.00  0.00     0.259 S 
HETATM    8  O1  UNL     1      28.852 -11.188  -9.359  1.00  0.00    -0.204 OA
HETATM    9  O2  UNL     1      31.020 -11.971  -8.639  1.00  0.00    -0.204 OA
BRANCH   7  10
HETATM   10  C11 UNL     1      30.990  -9.783 -10.180  1.00  0.00     0.144 A 
HETATM   11  C12 UNL     1      31.979 -10.237 -11.047  1.00  0.00     0.053 A 
HETATM   12  C13 UNL     1      32.355  -9.214 -11.902  1.00  0.00    -0.015 A 
HETATM   13  C15 UNL     1      31.575  -8.132 -11.538  1.00  0.00     0.097 A 
HETATM   14  N4  UNL     1      30.772  -8.494 -10.512  1.00  0.00    -0.355 N 
ATOM     15  H4  UNL     1      30.098  -7.880 -10.055  1.00  0.00     0.166 HD
BRANCH  12  16
HETATM   16  C14 UNL     1      33.386  -9.314 -12.973  1.00  0.00     0.269 C 
BRANCH  16  17
HETATM   17  N3  UNL     1      32.907  -8.701 -14.176  1.00  0.00    -0.075 N 
ATOM     18  H33 UNL     1      33.500  -8.917 -14.978  1.00  0.00     0.274 HD
ATOM     19  H32 UNL     1      32.044  -9.134 -14.507  1.00  0.00     0.274 HD
ATOM     20  H31 UNL     1      32.801  -7.696 -14.039  1.00  0.00     0.274 HD
ENDBRANCH  16  17
ENDBRANCH  12  16
ENDBRANCH   7  10
ENDBRANCH   4   7
BRANCH   1  21
HETATM   21  C8  UNL     1      29.131  -8.476  -4.369  1.00  0.00     0.079 C 
HETATM   22  C7  UNL     1      29.588  -8.662  -2.959  1.00  0.00     0.025 C 
HETATM   23  C6  UNL     1      28.498  -8.087  -2.098  1.00  0.00     0.007 C 
HETATM   24  C5  UNL     1      27.536  -7.343  -2.954  1.00  0.00    -0.005 C 
HETATM   25  C18 UNL     1      28.078  -7.377  -4.336  1.00  0.00     0.030 C 
BRANCH  24  26
HETATM   26  C2  UNL     1      26.120  -7.850  -2.835  1.00  0.00    -0.048 C 
HETATM   27  C1  UNL     1      26.036  -8.783  -1.643  1.00  0.00     0.015 C 
HETATM   28  C3  UNL     1      25.163  -6.721  -2.599  1.00  0.00     0.015 C 
HETATM   29  C4  UNL     1      25.667  -8.615  -4.044  1.00  0.00     0.015 C 
ENDBRANCH  24  26
ENDBRANCH   1  21
TORSDOF 6
ENDMDL
MODEL 5
REMARK VINA RESULT: -7.765322326      0.914      1.150
REMARK  6 active torsions:
REMARK  status: ('A' for Active; 'I' for Inactive)
REMARK    1  A    between atoms: C2_2  and  C5_5 
REMARK    2  A    between atoms: C8_8  and  N1_9 
REMARK    3  A    between atoms: N2_12  and  S1_13 
REMARK    4  A    between atoms: S1_13  and  C11_16 
REMARK    5  A    between atoms: C13_18  and  C14_19 
REMARK    6  A    between atoms: C14_19  and  N3_20 
ROOT
HETATM    1  N1  UNL     1      32.783  -8.195 -11.705  1.00  0.00    -0.406 N 
HETATM    2  C9  UNL     1      32.533  -7.516 -10.507  1.00  0.00     0.132 C 
HETATM    3  C10 UNL     1      32.085  -8.538  -9.456  1.00  0.00     0.127 C 
HETATM    4  N2  UNL     1      31.286  -9.573 -10.060  1.00  0.00    -0.202 NA
HETATM    5  C16 UNL     1      32.008 -10.362 -11.003  1.00  0.00     0.127 C 
HETATM    6  C17 UNL     1      33.083  -9.574 -11.676  1.00  0.00     0.132 C 
ENDROOT
BRANCH   4   7
HETATM    7  S1  UNL     1      30.474 -10.535  -8.914  1.00  0.00     0.259 S 
HETATM    8  O1  UNL     1      31.310 -11.711  -8.513  1.00  0.00    -0.204 OA
HETATM    9  O2  UNL     1      29.243 -11.105  -9.605  1.00  0.00    -0.204 OA
BRANCH   7  10
HETATM   10  C11 UNL     1      29.981  -9.598  -7.519  1.00  0.00     0.144 A 
HETATM   11  C12 UNL     1      30.561  -9.638  -6.255  1.00  0.00     0.053 A 
HETATM   12  C13 UNL     1      29.901  -8.758  -5.413  1.00  0.00    -0.015 A 
HETATM   13  C15 UNL     1      28.911  -8.184  -6.190  1.00  0.00     0.097 A 
HETATM   14  N4  UNL     1      28.978  -8.700  -7.438  1.00  0.00    -0.355 N 
ATOM     15  H4  UNL     1      28.359  -8.446  -8.207  1.00  0.00     0.166 HD
BRANCH  12  16
HETATM   16  C14 UNL     1      30.231  -8.517  -3.979  1.00  0.00     0.269 C 
BRANCH  16  17
HETATM   17  N3  UNL     1      29.472  -9.400  -3.145  1.00  0.00    -0.075 N 
ATOM     18  H33 UNL     1      28.472  -9.199  -3.186  1.00  0.00     0.274 HD
ATOM     19  H32 UNL     1      29.449 -10.350  -3.516  1.00  0.00     0.274 HD
ATOM     20  H31 UNL     1      29.828  -9.371  -2.189  1.00  0.00     0.274 HD
ENDBRANCH  16  17
ENDBRANCH  12  16
ENDBRANCH   7  10
ENDBRANCH   4   7
BRANCH   1  21
HETATM   21  C8  UNL     1      32.234  -7.734 -12.911  1.00  0.00     0.079 C 
HETATM   22  C7  UNL     1      32.461  -6.301 -13.269  1.00  0.00     0.025 C 
HETATM   23  C6  UNL     1      32.483  -6.255 -14.771  1.00  0.00     0.007 C 
HETATM   24  C5  UNL     1      32.532  -7.642 -15.306  1.00  0.00    -0.005 C 
HETATM   25  C18 UNL     1      32.634  -8.549 -14.134  1.00  0.00     0.030 C 
BRANCH  24  26
HETATM   26  C2  UNL     1      31.387  -7.961 -16.234  1.00  0.00    -0.048 C 
HETATM   27  C1  UNL     1      31.222  -9.467 -16.301  1.00  0.00     0.015 C 
HETATM   28  C3  UNL     1      30.102  -7.384 -15.722  1.00  0.00     0.015 C 
HETATM   29  C4  UNL     1      31.610  -7.466 -17.633  1.00  0.00     0.015 C 
ENDBRANCH  24  26
ENDBRANCH   1  21
TORSDOF 6
ENDMDL
