MODEL 1
REMARK VINA RESULT: -5.355622071      0.000      0.000
REMARK  8 active torsions:
REMARK  status: ('A' for Active; 'I' for Inactive)
REMARK    1  A    between atoms: C2_2  and  C3_3 
REMARK    2  A    between atoms: C3_3  and  O1_4 
REMARK    3  A    between atoms: C3_3  and  C4_6 
REMARK    4  A    between atoms: C5_11  and  S1_12 
REMARK    5  A    between atoms: S1_12  and  C6_13 
REMARK    6  A    between atoms: C6_13  and  N3_15 
REMARK    7  A    between atoms: C9_18  and  N4_19 
REMARK    8  A    between atoms: N4_19  and  N5_20 
ROOT
HETATM    1  C4  UNL     1       0.163  -0.640  -4.680  1.00  0.00     0.123 A 
HETATM    2  N1  UNL     1       0.687   0.472  -5.200  1.00  0.00    -0.294 N 
ATOM      3  H1  UNL     1       1.278   1.132  -4.695  1.00  0.00     0.187 HD
HETATM    4  N2  UNL     1       0.327   0.594  -6.477  1.00  0.00    -0.290 N 
ATOM      5  H2  UNL     1       0.600   1.356  -7.097  1.00  0.00     0.187 HD
HETATM    6  C5  UNL     1      -0.452  -0.441  -6.819  1.00  0.00     0.137 A 
HETATM    7  C9  UNL     1      -0.560  -1.230  -5.684  1.00  0.00     0.196 A 
ENDROOT
BRANCH   6   8
HETATM    8  S1  UNL     1      -1.237  -0.905  -8.338  1.00  0.00    -0.038 SA
BRANCH   8   9
HETATM    9  C6  UNL     1      -0.177  -1.034  -9.726  1.00  0.00     0.142 C 
HETATM   10  S2  UNL     1       0.607  -2.379 -10.125  1.00  0.00    -0.052 SA
BRANCH   9  11
HETATM   11  N3  UNL     1      -0.024   0.134 -10.559  1.00  0.00    -0.375 N 
HETATM   12  C7  UNL     1       0.036   1.451  -9.928  1.00  0.00     0.150 C 
HETATM   13  C8  UNL     1       0.043   0.014 -11.991  1.00  0.00     0.150 C 
ENDBRANCH   9  11
ENDBRANCH   8   9
ENDBRANCH   6   8
BRANCH   7  14
HETATM   14  N4  UNL     1      -1.275  -2.376  -5.568  1.00  0.00    -0.328 NA
BRANCH  14  15
HETATM   15  N5  UNL     1      -1.887  -3.325  -5.496  1.00  0.00    -0.280 N 
ATOM     16  H52 UNL     1      -2.265  -2.378  -5.470  1.00  0.00     0.191 HD
ATOM     17  H51 UNL     1      -2.415  -4.196  -5.434  1.00  0.00     0.191 HD
ENDBRANCH  14  15
ENDBRANCH   7  14
BRANCH   1  18
HETATM   18  C3  UNL     1       0.373  -1.209  -3.342  1.00  0.00     0.074 C 
BRANCH  18  19
HETATM   19  C2  UNL     1       1.465  -2.253  -3.253  1.00  0.00     0.062 C 
HETATM   20  C1  UNL     1       2.830  -1.601  -3.130  1.00  0.00     0.012 C 
ENDBRANCH  18  19
BRANCH  18  21
HETATM   21  O1  UNL     1       0.277  -0.347  -2.288  1.00  0.00    -0.362 OA
ATOM     22  H1  UNL     1       0.131  -0.743  -1.437  1.00  0.00     0.217 HD
ENDBRANCH  18  21
ENDBRANCH   1  18
TORSDOF 8
ENDMDL
MODEL 2
REMARK VINA RESULT: -5.347705244      2.288      3.680
REMARK  8 active torsions:
REMARK  status: ('A' for Active; 'I' for Inactive)
REMARK    1  A    between atoms: C2_2  and  C3_3 
REMARK    2  A    between atoms: C3_3  and  O1_4 
REMARK    3  A    between atoms: C3_3  and  C4_6 
REMARK    4  A    between atoms: C5_11  and  S1_12 
REMARK    5  A    between atoms: S1_12  and  C6_13 
REMARK    6  A    between atoms: C6_13  and  N3_15 
REMARK    7  A    between atoms: C9_18  and  N4_19 
REMARK    8  A    between atoms: N4_19  and  N5_20 
ROOT
HETATM    1  C4  UNL     1      -0.222   0.662  -4.661  1.00  0.00     0.123 A 
HETATM    2  N1  UNL     1      -0.716  -0.485  -5.133  1.00  0.00    -0.294 N 
ATOM      3  H1  UNL     1      -1.323  -1.118  -4.613  1.00  0.00     0.187 HD
HETATM    4  N2  UNL     1      -0.300  -0.682  -6.384  1.00  0.00    -0.290 N 
ATOM      5  H2  UNL     1      -0.541  -1.483  -6.966  1.00  0.00     0.187 HD
HETATM    6  C5  UNL     1       0.486   0.337  -6.756  1.00  0.00     0.137 A 
HETATM    7  C9  UNL     1       0.540   1.196  -5.668  1.00  0.00     0.196 A 
ENDROOT
BRANCH   6   8
HETATM    8  S1  UNL     1       1.332   0.715  -8.266  1.00  0.00    -0.038 SA
BRANCH   8   9
HETATM    9  C6  UNL     1       0.307   0.959  -9.664  1.00  0.00     0.142 C 
HETATM   10  S2  UNL     1      -0.349   2.375 -10.050  1.00  0.00    -0.052 SA
BRANCH   9  11
HETATM   11  N3  UNL     1       0.062  -0.177 -10.518  1.00  0.00    -0.375 N 
HETATM   12  C7  UNL     1       0.013  -1.512  -9.925  1.00  0.00     0.150 C 
HETATM   13  C8  UNL     1      -0.107  -0.010 -11.937  1.00  0.00     0.150 C 
ENDBRANCH   9  11
ENDBRANCH   8   9
ENDBRANCH   6   8
BRANCH   7  14
HETATM   14  N4  UNL     1       1.241   2.353  -5.593  1.00  0.00    -0.328 NA
BRANCH  14  15
HETATM   15  N5  UNL     1       1.844   3.311  -5.554  1.00  0.00    -0.280 N 
ATOM     16  H52 UNL     1       1.587   2.744  -4.746  1.00  0.00     0.191 HD
ATOM     17  H51 UNL     1       2.385   4.176  -5.547  1.00  0.00     0.191 HD
ENDBRANCH  14  15
ENDBRANCH   7  14
BRANCH   1  18
HETATM   18  C3  UNL     1      -0.492   1.310  -3.371  1.00  0.00     0.074 C 
BRANCH  18  19
HETATM   19  C2  UNL     1      -1.639   2.298  -3.377  1.00  0.00     0.062 C 
HETATM   20  C1  UNL     1      -2.946   1.615  -3.017  1.00  0.00     0.012 C 
ENDBRANCH  18  19
BRANCH  18  21
HETATM   21  O1  UNL     1      -0.378   0.530  -2.257  1.00  0.00    -0.362 OA
ATOM     22  H1  UNL     1       0.435   0.046  -2.168  1.00  0.00     0.217 HD
ENDBRANCH  18  21
ENDBRANCH   1  18
TORSDOF 8
ENDMDL
MODEL 3
REMARK VINA RESULT: -5.241115461      1.212      2.282
REMARK  8 active torsions:
REMARK  status: ('A' for Active; 'I' for Inactive)
REMARK    1  A    between atoms: C2_2  and  C3_3 
REMARK    2  A    between atoms: C3_3  and  O1_4 
REMARK    3  A    between atoms: C3_3  and  C4_6 
REMARK    4  A    between atoms: C5_11  and  S1_12 
REMARK    5  A    between atoms: S1_12  and  C6_13 
REMARK    6  A    between atoms: C6_13  and  N3_15 
REMARK    7  A    between atoms: C9_18  and  N4_19 
REMARK    8  A    between atoms: N4_19  and  N5_20 
ROOT
HETATM    1  C4  UNL     1      -0.161  -1.362  -4.508  1.00  0.00     0.123 A 
HETATM    2  N1  UNL     1      -0.826  -2.314  -5.167  1.00  0.00    -0.294 N 
ATOM      3  H1  UNL     1      -1.012  -3.250  -4.809  1.00  0.00     0.187 HD
HETATM    4  N2  UNL     1      -1.210  -1.862  -6.359  1.00  0.00    -0.290 N 
ATOM      5  H2  UNL     1      -1.737  -2.396  -7.051  1.00  0.00     0.187 HD
HETATM    6  C5  UNL     1      -0.796  -0.596  -6.509  1.00  0.00     0.137 A 
HETATM    7  C9  UNL     1      -0.130  -0.270  -5.337  1.00  0.00     0.196 A 
ENDROOT
BRANCH   6   8
HETATM    8  S1  UNL     1      -0.988   0.585  -7.816  1.00  0.00    -0.038 SA
BRANCH   8   9
HETATM    9  C6  UNL     1       0.275   0.579  -9.029  1.00  0.00     0.142 C 
HETATM   10  S2  UNL     1       1.759   0.022  -8.766  1.00  0.00    -0.052 SA
BRANCH   9  11
HETATM   11  N3  UNL     1      -0.056   1.087 -10.338  1.00  0.00    -0.375 N 
HETATM   12  C7  UNL     1      -0.496   2.474 -10.469  1.00  0.00     0.150 C 
HETATM   13  C8  UNL     1       0.019   0.239 -11.498  1.00  0.00     0.150 C 
ENDBRANCH   9  11
ENDBRANCH   8   9
ENDBRANCH   6   8
BRANCH   7  14
HETATM   14  N4  UNL     1       0.473   0.911  -5.058  1.00  0.00    -0.328 NA
BRANCH  14  15
HETATM   15  N5  UNL     1       0.990   1.885  -4.801  1.00  0.00    -0.280 N 
ATOM     16  H52 UNL     1       1.177   0.984  -4.359  1.00  0.00     0.191 HD
ATOM     17  H51 UNL     1       1.440   2.775  -4.589  1.00  0.00     0.191 HD
ENDBRANCH  14  15
ENDBRANCH   7  14
BRANCH   1  18
HETATM   18  C3  UNL     1       0.360  -1.395  -3.135  1.00  0.00     0.074 C 
BRANCH  18  19
HETATM   19  C2  UNL     1       1.573  -2.276  -2.930  1.00  0.00     0.062 C 
HETATM   20  C1  UNL     1       2.853  -1.518  -3.235  1.00  0.00     0.012 C 
ENDBRANCH  18  19
BRANCH  18  21
HETATM   21  O1  UNL     1       0.351  -0.216  -2.448  1.00  0.00    -0.362 OA
ATOM     22  H1  UNL     1      -0.425  -0.041  -1.928  1.00  0.00     0.217 HD
ENDBRANCH  18  21
ENDBRANCH   1  18
TORSDOF 8
ENDMDL
MODEL 4
REMARK VINA RESULT: -5.238822284      2.026      2.855
REMARK  8 active torsions:
REMARK  status: ('A' for Active; 'I' for Inactive)
REMARK    1  A    between atoms: C2_2  and  C3_3 
REMARK    2  A    between atoms: C3_3  and  O1_4 
REMARK    3  A    between atoms: C3_3  and  C4_6 
REMARK    4  A    between atoms: C5_11  and  S1_12 
REMARK    5  A    between atoms: S1_12  and  C6_13 
REMARK    6  A    between atoms: C6_13  and  N3_15 
REMARK    7  A    between atoms: C9_18  and  N4_19 
REMARK    8  A    between atoms: N4_19  and  N5_20 
ROOT
HETATM    1  C4  UNL     1       0.170   1.354  -4.517  1.00  0.00     0.123 A 
HETATM    2  N1  UNL     1       0.858   2.304  -5.156  1.00  0.00    -0.294 N 
ATOM      3  H1  UNL     1       1.052   3.234  -4.785  1.00  0.00     0.187 HD
HETATM    4  N2  UNL     1       1.254   1.860  -6.348  1.00  0.00    -0.290 N 
ATOM      5  H2  UNL     1       1.798   2.393  -7.026  1.00  0.00     0.187 HD
HETATM    6  C5  UNL     1       0.825   0.602  -6.518  1.00  0.00     0.137 A 
HETATM    7  C9  UNL     1       0.136   0.272  -5.359  1.00  0.00     0.196 A 
ENDROOT
BRANCH   6   8
HETATM    8  S1  UNL     1       1.019  -0.568  -7.834  1.00  0.00    -0.038 SA
BRANCH   8   9
HETATM    9  C6  UNL     1      -0.275  -0.598  -9.013  1.00  0.00     0.142 C 
HETATM   10  S2  UNL     1      -1.764  -0.074  -8.714  1.00  0.00    -0.052 SA
BRANCH   9  11
HETATM   11  N3  UNL     1       0.034  -1.105 -10.328  1.00  0.00    -0.375 N 
HETATM   12  C7  UNL     1       0.439  -2.502 -10.471  1.00  0.00     0.150 C 
HETATM   13  C8  UNL     1      -0.030  -0.249 -11.483  1.00  0.00     0.150 C 
ENDBRANCH   9  11
ENDBRANCH   8   9
ENDBRANCH   6   8
BRANCH   7  14
HETATM   14  N4  UNL     1      -0.487  -0.903  -5.102  1.00  0.00    -0.328 NA
BRANCH  14  15
HETATM   15  N5  UNL     1      -1.015  -1.875  -4.860  1.00  0.00    -0.280 N 
ATOM     16  H52 UNL     1      -1.458  -0.957  -4.896  1.00  0.00     0.191 HD
ATOM     17  H51 UNL     1      -1.466  -2.764  -4.644  1.00  0.00     0.191 HD
ENDBRANCH  14  15
ENDBRANCH   7  14
BRANCH   1  18
HETATM   18  C3  UNL     1      -0.371   1.380  -3.152  1.00  0.00     0.074 C 
BRANCH  18  19
HETATM   19  C2  UNL     1      -1.592   2.254  -2.962  1.00  0.00     0.062 C 
HETATM   20  C1  UNL     1      -2.866   1.466  -3.207  1.00  0.00     0.012 C 
ENDBRANCH  18  19
BRANCH  18  21
HETATM   21  O1  UNL     1      -0.364   0.199  -2.469  1.00  0.00    -0.362 OA
ATOM     22  H1  UNL     1       0.377  -0.373  -2.629  1.00  0.00     0.217 HD
ENDBRANCH  18  21
ENDBRANCH   1  18
TORSDOF 8
ENDMDL
MODEL 5
REMARK VINA RESULT: -5.216581560      0.934      1.420
REMARK  8 active torsions:
REMARK  status: ('A' for Active; 'I' for Inactive)
REMARK    1  A    between atoms: C2_2  and  C3_3 
REMARK    2  A    between atoms: C3_3  and  O1_4 
REMARK    3  A    between atoms: C3_3  and  C4_6 
REMARK    4  A    between atoms: C5_11  and  S1_12 
REMARK    5  A    between atoms: S1_12  and  C6_13 
REMARK    6  A    between atoms: C6_13  and  N3_15 
REMARK    7  A    between atoms: C9_18  and  N4_19 
REMARK    8  A    between atoms: N4_19  and  N5_20 
ROOT
HETATM    1  C4  UNL     1       0.226  -0.638  -4.640  1.00  0.00     0.123 A 
HETATM    2  N1  UNL     1       0.715   0.523  -5.081  1.00  0.00    -0.294 N 
ATOM      3  H1  UNL     1       1.313   1.147  -4.542  1.00  0.00     0.187 HD
HETATM    4  N2  UNL     1       0.306   0.747  -6.329  1.00  0.00    -0.290 N 
ATOM      5  H2  UNL     1       0.546   1.564  -6.891  1.00  0.00     0.187 HD
HETATM    6  C5  UNL     1      -0.469  -0.269  -6.732  1.00  0.00     0.137 A 
HETATM    7  C9  UNL     1      -0.525  -1.154  -5.664  1.00  0.00     0.196 A 
ENDROOT
BRANCH   6   8
HETATM    8  S1  UNL     1      -1.302  -0.617  -8.257  1.00  0.00    -0.038 SA
BRANCH   8   9
HETATM    9  C6  UNL     1      -0.682   0.224  -9.662  1.00  0.00     0.142 C 
HETATM   10  S2  UNL     1      -0.693   1.823  -9.819  1.00  0.00    -0.052 SA
BRANCH   9  11
HETATM   11  N3  UNL     1      -0.117  -0.576 -10.721  1.00  0.00    -0.375 N 
HETATM   12  C7  UNL     1       0.204  -1.977 -10.457  1.00  0.00     0.150 C 
HETATM   13  C8  UNL     1       0.154  -0.003 -12.013  1.00  0.00     0.150 C 
ENDBRANCH   9  11
ENDBRANCH   8   9
ENDBRANCH   6   8
BRANCH   7  14
HETATM   14  N4  UNL     1      -1.218  -2.318  -5.622  1.00  0.00    -0.328 NA
BRANCH  14  15
HETATM   15  N5  UNL     1      -1.822  -3.274  -5.584  1.00  0.00    -0.280 N 
ATOM     16  H52 UNL     1      -0.806  -3.223  -5.660  1.00  0.00     0.191 HD
ATOM     17  H51 UNL     1      -2.390  -4.121  -5.547  1.00  0.00     0.191 HD
ENDBRANCH  14  15
ENDBRANCH   7  14
BRANCH   1  18
HETATM   18  C3  UNL     1       0.492  -1.315  -3.364  1.00  0.00     0.074 C 
BRANCH  18  19
HETATM   19  C2  UNL     1       1.637  -2.305  -3.389  1.00  0.00     0.062 C 
HETATM   20  C1  UNL     1       2.953  -1.621  -3.066  1.00  0.00     0.012 C 
ENDBRANCH  18  19
BRANCH  18  21
HETATM   21  O1  UNL     1       0.376  -0.559  -2.233  1.00  0.00    -0.362 OA
ATOM     22  H1  UNL     1      -0.493  -0.230  -2.038  1.00  0.00     0.217 HD
ENDBRANCH  18  21
ENDBRANCH   1  18
TORSDOF 8
ENDMDL
