MODEL 1
REMARK VINA RESULT: -7.277422776      0.000      0.000
REMARK  8 active torsions:
REMARK  status: ('A' for Active; 'I' for Inactive)
REMARK    1  A    between atoms: C3_3  and  C4_4 
REMARK    2  A    between atoms: C4_4  and  C5_5 
REMARK    3  A    between atoms: C5_5  and  O2_7 
REMARK    4  A    between atoms: O2_7  and  C6_8 
REMARK    5  A    between atoms: C8_10  and  O3_11 
REMARK    6  A    between atoms: O3_11  and  C9_12 
REMARK    7  A    between atoms: C16_20  and  C17_22 
REMARK    8  A    between atoms: C17_22  and  O5_23 
ROOT
HETATM    1  C6  UNL     1      24.938  51.007  -1.390  1.00  0.00     0.207 A 
HETATM    2  C7  UNL     1      24.469  50.630  -2.735  1.00  0.00     0.109 C 
HETATM    3  C8  UNL     1      24.389  51.760  -3.758  1.00  0.00     0.165 C 
HETATM    4  C11 UNL     1      24.531  51.234  -5.143  1.00  0.00    -0.058 C 
HETATM    5  C12 UNL     1      23.232  50.639  -5.695  1.00  0.00     0.046 C 
HETATM    6  C13 UNL     1      25.565  51.200  -5.919  1.00  0.00    -0.022 C 
HETATM    7  C14 UNL     1      26.962  51.674  -5.682  1.00  0.00     0.030 C 
HETATM    8  C15 UNL     1      27.903  50.570  -5.416  1.00  0.00     0.050 C 
HETATM    9  C16 UNL     1      29.044  50.765  -4.487  1.00  0.00     0.128 C 
HETATM   10  F1  UNL     1      29.343  49.467  -4.006  1.00  0.00    -0.240 F 
HETATM   11  C18 UNL     1      28.855  51.592  -3.293  1.00  0.00     0.023 C 
HETATM   12  C19 UNL     1      29.979  52.539  -2.932  1.00  0.00     0.013 C 
HETATM   13  C20 UNL     1      28.661  50.765  -2.001  1.00  0.00     0.011 C 
HETATM   14  C21 UNL     1      27.270  50.175  -1.934  1.00  0.00     0.044 C 
HETATM   15  C22 UNL     1      26.333  50.845  -1.013  1.00  0.00     0.118 A 
HETATM   16  C23 UNL     1      26.681  50.571   0.462  1.00  0.00     0.052 C 
HETATM   17  O6  UNL     1      25.798  52.088  -1.204  1.00  0.00    -0.335 OA
ENDROOT
BRANCH   1  18
HETATM   18  O2  UNL     1      24.041  50.728  -0.298  1.00  0.00    -0.280 OA
BRANCH  18  19
HETATM   19  C5  UNL     1      23.189  49.675  -0.229  1.00  0.00     0.265 C 
HETATM   20  O1  UNL     1      21.978  49.866  -0.488  1.00  0.00    -0.265 OA
BRANCH  19  21
HETATM   21  C4  UNL     1      23.721  48.333   0.151  1.00  0.00     0.138 C 
BRANCH  21  22
HETATM   22  C3  UNL     1      22.917  47.722   1.239  1.00  0.00    -0.021 C 
HETATM   23  C2  UNL     1      23.411  46.824   2.080  1.00  0.00    -0.034 C 
HETATM   24  C1  UNL     1      22.628  46.200   3.174  1.00  0.00     0.036 C 
ENDBRANCH  21  22
ENDBRANCH  19  21
ENDBRANCH  18  19
ENDBRANCH   1  18
BRANCH   3  25
HETATM   25  O3  UNL     1      25.164  52.871  -3.454  1.00  0.00    -0.312 OA
BRANCH  25  26
HETATM   26  C9  UNL     1      24.887  54.182  -3.815  1.00  0.00     0.255 C 
HETATM   27  C10 UNL     1      25.718  55.340  -3.407  1.00  0.00     0.126 C 
HETATM   28  O4  UNL     1      23.864  54.362  -4.530  1.00  0.00    -0.266 OA
ENDBRANCH  25  26
ENDBRANCH   3  25
BRANCH   9  29
HETATM   29  C17 UNL     1      30.257  51.117  -5.320  1.00  0.00     0.208 C 
BRANCH  29  30
HETATM   30  O5  UNL     1      30.773  50.103  -6.075  1.00  0.00    -0.398 OA
ATOM     31  H5  UNL     1      31.629  50.264  -6.452  1.00  0.00     0.209 HD
ENDBRANCH  29  30
ENDBRANCH   9  29
TORSDOF 8
ENDMDL
MODEL 2
REMARK VINA RESULT: -7.005466481      2.191      4.634
REMARK  8 active torsions:
REMARK  status: ('A' for Active; 'I' for Inactive)
REMARK    1  A    between atoms: C3_3  and  C4_4 
REMARK    2  A    between atoms: C4_4  and  C5_5 
REMARK    3  A    between atoms: C5_5  and  O2_7 
REMARK    4  A    between atoms: O2_7  and  C6_8 
REMARK    5  A    between atoms: C8_10  and  O3_11 
REMARK    6  A    between atoms: O3_11  and  C9_12 
REMARK    7  A    between atoms: C16_20  and  C17_22 
REMARK    8  A    between atoms: C17_22  and  O5_23 
ROOT
HETATM    1  C6  UNL     1      25.304  50.431  -0.669  1.00  0.00     0.207 A 
HETATM    2  C7  UNL     1      26.630  51.052  -0.506  1.00  0.00     0.109 C 
HETATM    3  C8  UNL     1      27.697  50.628  -1.511  1.00  0.00     0.165 C 
HETATM    4  C11 UNL     1      28.723  51.694  -1.680  1.00  0.00    -0.058 C 
HETATM    5  C12 UNL     1      29.772  51.699  -0.564  1.00  0.00     0.046 C 
HETATM    6  C13 UNL     1      28.844  52.595  -2.600  1.00  0.00    -0.022 C 
HETATM    7  C14 UNL     1      27.994  52.867  -3.798  1.00  0.00     0.030 C 
HETATM    8  C15 UNL     1      27.130  54.050  -3.629  1.00  0.00     0.050 C 
HETATM    9  C16 UNL     1      25.785  54.092  -4.257  1.00  0.00     0.128 C 
HETATM   10  F1  UNL     1      25.041  54.990  -3.456  1.00  0.00    -0.240 F 
HETATM   11  C18 UNL     1      24.989  52.864  -4.314  1.00  0.00     0.023 C 
HETATM   12  C19 UNL     1      24.241  52.593  -5.601  1.00  0.00     0.013 C 
HETATM   13  C20 UNL     1      23.878  52.807  -3.241  1.00  0.00     0.011 C 
HETATM   14  C21 UNL     1      24.451  52.489  -1.878  1.00  0.00     0.044 C 
HETATM   15  C22 UNL     1      24.246  51.108  -1.401  1.00  0.00     0.118 A 
HETATM   16  C23 UNL     1      22.780  50.845  -1.011  1.00  0.00     0.052 C 
HETATM   17  O6  UNL     1      24.859  50.001  -1.918  1.00  0.00    -0.335 OA
ENDROOT
BRANCH   1  18
HETATM   18  O2  UNL     1      24.800  49.694   0.461  1.00  0.00    -0.280 OA
BRANCH  18  19
HETATM   19  C5  UNL     1      24.916  48.354   0.642  1.00  0.00     0.265 C 
HETATM   20  O1  UNL     1      26.049  47.878   0.886  1.00  0.00    -0.265 OA
BRANCH  19  21
HETATM   21  C4  UNL     1      23.696  47.500   0.543  1.00  0.00     0.138 C 
BRANCH  21  22
HETATM   22  C3  UNL     1      23.032  47.354   1.863  1.00  0.00    -0.021 C 
HETATM   23  C2  UNL     1      23.313  46.368   2.704  1.00  0.00    -0.034 C 
HETATM   24  C1  UNL     1      22.665  46.201   4.026  1.00  0.00     0.036 C 
ENDBRANCH  21  22
ENDBRANCH  19  21
ENDBRANCH  18  19
ENDBRANCH   1  18
BRANCH   3  25
HETATM   25  O3  UNL     1      27.200  50.081  -2.686  1.00  0.00    -0.312 OA
BRANCH  25  26
HETATM   26  C9  UNL     1      27.953  49.498  -3.696  1.00  0.00     0.255 C 
HETATM   27  C10 UNL     1      27.564  49.516  -5.127  1.00  0.00     0.126 C 
HETATM   28  O4  UNL     1      29.020  48.929  -3.341  1.00  0.00    -0.266 OA
ENDBRANCH  25  26
ENDBRANCH   3  25
BRANCH   9  29
HETATM   29  C17 UNL     1      25.919  54.826  -5.574  1.00  0.00     0.208 C 
BRANCH  29  30
HETATM   30  O5  UNL     1      25.378  56.079  -5.611  1.00  0.00    -0.398 OA
ATOM     31  H5  UNL     1      24.493  56.137  -5.951  1.00  0.00     0.209 HD
ENDBRANCH  29  30
ENDBRANCH   9  29
TORSDOF 8
ENDMDL
MODEL 3
REMARK VINA RESULT: -6.969952824      2.764      4.377
REMARK  8 active torsions:
REMARK  status: ('A' for Active; 'I' for Inactive)
REMARK    1  A    between atoms: C3_3  and  C4_4 
REMARK    2  A    between atoms: C4_4  and  C5_5 
REMARK    3  A    between atoms: C5_5  and  O2_7 
REMARK    4  A    between atoms: O2_7  and  C6_8 
REMARK    5  A    between atoms: C8_10  and  O3_11 
REMARK    6  A    between atoms: O3_11  and  C9_12 
REMARK    7  A    between atoms: C16_20  and  C17_22 
REMARK    8  A    between atoms: C17_22  and  O5_23 
ROOT
HETATM    1  C6  UNL     1      27.103  50.542  -3.097  1.00  0.00     0.207 A 
HETATM    2  C7  UNL     1      25.658  50.799  -2.969  1.00  0.00     0.109 C 
HETATM    3  C8  UNL     1      25.184  52.189  -3.381  1.00  0.00     0.165 C 
HETATM    4  C11 UNL     1      23.761  52.160  -3.816  1.00  0.00    -0.058 C 
HETATM    5  C12 UNL     1      22.775  52.169  -2.642  1.00  0.00     0.046 C 
HETATM    6  C13 UNL     1      23.253  52.117  -5.005  1.00  0.00    -0.022 C 
HETATM    7  C14 UNL     1      23.927  52.082  -6.337  1.00  0.00     0.030 C 
HETATM    8  C15 UNL     1      23.900  50.744  -6.956  1.00  0.00     0.050 C 
HETATM    9  C16 UNL     1      25.031  50.286  -7.803  1.00  0.00     0.128 C 
HETATM   10  F1  UNL     1      24.994  48.874  -7.722  1.00  0.00    -0.240 F 
HETATM   11  C18 UNL     1      26.396  50.666  -7.432  1.00  0.00     0.023 C 
HETATM   12  C19 UNL     1      27.318  51.086  -8.555  1.00  0.00     0.013 C 
HETATM   13  C20 UNL     1      27.179  49.528  -6.738  1.00  0.00     0.011 C 
HETATM   14  C21 UNL     1      26.731  49.353  -5.304  1.00  0.00     0.044 C 
HETATM   15  C22 UNL     1      27.645  49.888  -4.277  1.00  0.00     0.118 A 
HETATM   16  C23 UNL     1      28.920  49.036  -4.140  1.00  0.00     0.052 C 
HETATM   17  O6  UNL     1      27.873  51.215  -4.045  1.00  0.00    -0.335 OA
ENDROOT
BRANCH   1  18
HETATM   18  O2  UNL     1      27.793  50.156  -1.893  1.00  0.00    -0.280 OA
BRANCH  18  19
HETATM   19  C5  UNL     1      28.039  50.966  -0.833  1.00  0.00     0.265 C 
HETATM   20  O1  UNL     1      28.668  52.032  -1.026  1.00  0.00    -0.265 OA
BRANCH  19  21
HETATM   21  C4  UNL     1      27.554  50.560   0.519  1.00  0.00     0.138 C 
BRANCH  21  22
HETATM   22  C3  UNL     1      26.133  50.133   0.476  1.00  0.00    -0.021 C 
HETATM   23  C2  UNL     1      25.123  50.984   0.598  1.00  0.00    -0.034 C 
HETATM   24  C1  UNL     1      23.697  50.581   0.558  1.00  0.00     0.036 C 
ENDBRANCH  21  22
ENDBRANCH  19  21
ENDBRANCH  18  19
ENDBRANCH   1  18
BRANCH   3  25
HETATM   25  O3  UNL     1      26.055  52.871  -4.221  1.00  0.00    -0.312 OA
BRANCH  25  26
HETATM   26  C9  UNL     1      26.256  54.244  -4.245  1.00  0.00     0.255 C 
HETATM   27  C10 UNL     1      25.924  55.143  -3.113  1.00  0.00     0.126 C 
HETATM   28  O4  UNL     1      26.749  54.720  -5.303  1.00  0.00    -0.266 OA
ENDBRANCH  25  26
ENDBRANCH   3  25
BRANCH   9  29
HETATM   29  C17 UNL     1      24.662  50.563  -9.244  1.00  0.00     0.208 C 
BRANCH  29  30
HETATM   30  O5  UNL     1      24.307  49.473  -9.985  1.00  0.00    -0.398 OA
ATOM     31  H5  UNL     1      24.470  48.629  -9.581  1.00  0.00     0.209 HD
ENDBRANCH  29  30
ENDBRANCH   9  29
TORSDOF 8
ENDMDL
MODEL 4
REMARK VINA RESULT: -6.961739803      2.334      4.819
REMARK  8 active torsions:
REMARK  status: ('A' for Active; 'I' for Inactive)
REMARK    1  A    between atoms: C3_3  and  C4_4 
REMARK    2  A    between atoms: C4_4  and  C5_5 
REMARK    3  A    between atoms: C5_5  and  O2_7 
REMARK    4  A    between atoms: O2_7  and  C6_8 
REMARK    5  A    between atoms: C8_10  and  O3_11 
REMARK    6  A    between atoms: O3_11  and  C9_12 
REMARK    7  A    between atoms: C16_20  and  C17_22 
REMARK    8  A    between atoms: C17_22  and  O5_23 
ROOT
HETATM    1  C6  UNL     1      25.643  51.170  -1.458  1.00  0.00     0.207 A 
HETATM    2  C7  UNL     1      26.783  52.003  -1.878  1.00  0.00     0.109 C 
HETATM    3  C8  UNL     1      27.678  51.417  -2.965  1.00  0.00     0.165 C 
HETATM    4  C11 UNL     1      28.354  52.496  -3.737  1.00  0.00    -0.058 C 
HETATM    5  C12 UNL     1      29.587  53.061  -3.023  1.00  0.00     0.046 C 
HETATM    6  C13 UNL     1      28.053  53.016  -4.882  1.00  0.00    -0.022 C 
HETATM    7  C14 UNL     1      26.925  52.708  -5.811  1.00  0.00     0.030 C 
HETATM    8  C15 UNL     1      25.858  53.726  -5.772  1.00  0.00     0.050 C 
HETATM    9  C16 UNL     1      24.440  53.334  -5.972  1.00  0.00     0.128 C 
HETATM   10  F1  UNL     1      23.692  54.334  -5.305  1.00  0.00    -0.240 F 
HETATM   11  C18 UNL     1      23.970  52.060  -5.422  1.00  0.00     0.023 C 
HETATM   12  C19 UNL     1      23.050  51.236  -6.295  1.00  0.00     0.013 C 
HETATM   13  C20 UNL     1      23.164  52.220  -4.112  1.00  0.00     0.011 C 
HETATM   14  C21 UNL     1      24.078  52.503  -2.941  1.00  0.00     0.044 C 
HETATM   15  C22 UNL     1      24.320  51.370  -2.028  1.00  0.00     0.118 A 
HETATM   16  C23 UNL     1      23.081  51.042  -1.175  1.00  0.00     0.052 C 
HETATM   17  O6  UNL     1      25.055  50.259  -2.334  1.00  0.00    -0.335 OA
ENDROOT
BRANCH   1  18
HETATM   18  O2  UNL     1      25.588  50.817  -0.062  1.00  0.00    -0.280 OA
BRANCH  18  19
HETATM   19  C5  UNL     1      26.441  49.972   0.570  1.00  0.00     0.265 C 
HETATM   20  O1  UNL     1      27.498  50.440   1.054  1.00  0.00    -0.265 OA
BRANCH  19  21
HETATM   21  C4  UNL     1      26.091  48.525   0.667  1.00  0.00     0.138 C 
BRANCH  21  22
HETATM   22  C3  UNL     1      24.633  48.335   0.871  1.00  0.00    -0.021 C 
HETATM   23  C2  UNL     1      24.136  47.411   1.682  1.00  0.00    -0.034 C 
HETATM   24  C1  UNL     1      22.685  47.202   1.902  1.00  0.00     0.036 C 
ENDBRANCH  21  22
ENDBRANCH  19  21
ENDBRANCH  18  19
ENDBRANCH   1  18
BRANCH   3  25
HETATM   25  O3  UNL     1      27.085  50.417  -3.724  1.00  0.00    -0.312 OA
BRANCH  25  26
HETATM   26  C9  UNL     1      27.754  49.463  -4.480  1.00  0.00     0.255 C 
HETATM   27  C10 UNL     1      29.041  48.849  -4.075  1.00  0.00     0.126 C 
HETATM   28  O4  UNL     1      27.208  49.124  -5.564  1.00  0.00    -0.266 OA
ENDBRANCH  25  26
ENDBRANCH   3  25
BRANCH   9  29
HETATM   29  C17 UNL     1      24.105  53.560  -7.430  1.00  0.00     0.208 C 
BRANCH  29  30
HETATM   30  O5  UNL     1      23.146  54.500  -7.679  1.00  0.00    -0.398 OA
ATOM     31  H5  UNL     1      22.617  54.355  -8.454  1.00  0.00     0.209 HD
ENDBRANCH  29  30
ENDBRANCH   9  29
TORSDOF 8
ENDMDL
MODEL 5
REMARK VINA RESULT: -6.854279343      2.287      4.646
REMARK  8 active torsions:
REMARK  status: ('A' for Active; 'I' for Inactive)
REMARK    1  A    between atoms: C3_3  and  C4_4 
REMARK    2  A    between atoms: C4_4  and  C5_5 
REMARK    3  A    between atoms: C5_5  and  O2_7 
REMARK    4  A    between atoms: O2_7  and  C6_8 
REMARK    5  A    between atoms: C8_10  and  O3_11 
REMARK    6  A    between atoms: O3_11  and  C9_12 
REMARK    7  A    between atoms: C16_20  and  C17_22 
REMARK    8  A    between atoms: C17_22  and  O5_23 
ROOT
HETATM    1  C6  UNL     1      25.309  50.639  -1.035  1.00  0.00     0.207 A 
HETATM    2  C7  UNL     1      26.622  51.303  -0.970  1.00  0.00     0.109 C 
HETATM    3  C8  UNL     1      27.637  50.889  -2.032  1.00  0.00     0.165 C 
HETATM    4  C11 UNL     1      28.615  51.981  -2.289  1.00  0.00    -0.058 C 
HETATM    5  C12 UNL     1      29.733  52.043  -1.243  1.00  0.00     0.046 C 
HETATM    6  C13 UNL     1      28.649  52.865  -3.233  1.00  0.00    -0.022 C 
HETATM    7  C14 UNL     1      27.717  53.083  -4.380  1.00  0.00     0.030 C 
HETATM    8  C15 UNL     1      26.828  54.243  -4.180  1.00  0.00     0.050 C 
HETATM    9  C16 UNL     1      25.445  54.230  -4.721  1.00  0.00     0.128 C 
HETATM   10  F1  UNL     1      24.725  55.124  -3.892  1.00  0.00    -0.240 F 
HETATM   11  C18 UNL     1      24.686  52.978  -4.701  1.00  0.00     0.023 C 
HETATM   12  C19 UNL     1      23.867  52.655  -5.932  1.00  0.00     0.013 C 
HETATM   13  C20 UNL     1      23.647  52.911  -3.558  1.00  0.00     0.011 C 
HETATM   14  C21 UNL     1      24.316  52.642  -2.229  1.00  0.00     0.044 C 
HETATM   15  C22 UNL     1      24.186  51.267  -1.711  1.00  0.00     0.118 A 
HETATM   16  C23 UNL     1      22.757  50.968  -1.222  1.00  0.00     0.052 C 
HETATM   17  O6  UNL     1      24.799  50.167  -2.243  1.00  0.00    -0.335 OA
ENDROOT
BRANCH   1  18
HETATM   18  O2  UNL     1      24.902  49.912   0.141  1.00  0.00    -0.280 OA
BRANCH  18  19
HETATM   19  C5  UNL     1      25.732  49.248   0.983  1.00  0.00     0.265 C 
HETATM   20  O1  UNL     1      26.498  49.915   1.717  1.00  0.00    -0.265 OA
BRANCH  19  21
HETATM   21  C4  UNL     1      25.705  47.756   1.005  1.00  0.00     0.138 C 
BRANCH  21  22
HETATM   22  C3  UNL     1      24.340  47.247   1.289  1.00  0.00    -0.021 C 
HETATM   23  C2  UNL     1      23.932  46.927   2.510  1.00  0.00    -0.034 C 
HETATM   24  C1  UNL     1      22.575  46.417   2.819  1.00  0.00     0.036 C 
ENDBRANCH  21  22
ENDBRANCH  19  21
ENDBRANCH  18  19
ENDBRANCH   1  18
BRANCH   3  25
HETATM   25  O3  UNL     1      27.083  50.301  -3.162  1.00  0.00    -0.312 OA
BRANCH  25  26
HETATM   26  C9  UNL     1      27.773  49.577  -4.124  1.00  0.00     0.255 C 
HETATM   27  C10 UNL     1      29.063  48.891  -3.869  1.00  0.00     0.126 C 
HETATM   28  O4  UNL     1      27.245  49.519  -5.267  1.00  0.00    -0.266 OA
ENDBRANCH  25  26
ENDBRANCH   3  25
BRANCH   9  29
HETATM   29  C17 UNL     1      25.471  54.938  -6.058  1.00  0.00     0.208 C 
BRANCH  29  30
HETATM   30  O5  UNL     1      25.745  56.275  -6.016  1.00  0.00    -0.398 OA
ATOM     31  H5  UNL     1      25.621  56.695  -5.173  1.00  0.00     0.209 HD
ENDBRANCH  29  30
ENDBRANCH   9  29
TORSDOF 8
ENDMDL
