MODEL 1
REMARK VINA RESULT: -5.536671079      0.000      0.000
REMARK  3 active torsions:
REMARK  status: ('A' for Active; 'I' for Inactive)
REMARK    1  A    between atoms: C1_4  and  C2_6 
REMARK    2  A    between atoms: C2_6  and  N3_7 
REMARK    3  A    between atoms: C2_6  and  C3_11 
ROOT
HETATM    1  C2  UNL     1      -3.662 -22.399  12.887  1.00  0.00     0.335 C 
ENDROOT
BRANCH   1   2
HETATM    2  C1  UNL     1      -3.749 -22.989  11.540  1.00  0.00     0.126 C 
HETATM    3  N1  UNL     1      -3.442 -22.310  10.485  1.00  0.00    -0.389 N 
ATOM      4  H12 UNL     1      -3.502 -22.719   9.553  1.00  0.00     0.157 HD
ATOM      5  H11 UNL     1      -3.137 -21.349  10.640  1.00  0.00     0.157 HD
HETATM    6  N2  UNL     1      -4.174 -24.332  11.324  1.00  0.00    -0.085 NA
ENDBRANCH   1   2
BRANCH   1   7
HETATM    7  N3  UNL     1      -2.601 -21.444  12.903  1.00  0.00    -0.060 N 
ATOM      8  H33 UNL     1      -1.685 -21.877  12.779  1.00  0.00     0.275 HD
ATOM      9  H32 UNL     1      -2.593 -20.856  12.069  1.00  0.00     0.275 HD
ATOM     10  H31 UNL     1      -2.661 -20.900  13.763  1.00  0.00     0.275 HD
ENDBRANCH   1   7
BRANCH   1  11
HETATM   11  C3  UNL     1      -4.960 -21.832  13.320  1.00  0.00     0.268 C 
HETATM   12  N4  UNL     1      -6.152 -21.953  12.584  1.00  0.00    -0.060 NA
HETATM   13  O1  UNL     1      -5.005 -21.206  14.409  1.00  0.00    -0.274 OA
ENDBRANCH   1  11
TORSDOF 3
ENDMDL
MODEL 2
REMARK VINA RESULT: -5.526141678      1.149      1.149
REMARK  3 active torsions:
REMARK  status: ('A' for Active; 'I' for Inactive)
REMARK    1  A    between atoms: C1_4  and  C2_6 
REMARK    2  A    between atoms: C2_6  and  N3_7 
REMARK    3  A    between atoms: C2_6  and  C3_11 
ROOT
HETATM    1  C2  UNL     1      -3.638 -22.487  12.753  1.00  0.00     0.335 C 
ENDROOT
BRANCH   1   2
HETATM    2  C1  UNL     1      -3.654 -23.051  11.392  1.00  0.00     0.126 C 
HETATM    3  N1  UNL     1      -3.354 -22.332  10.362  1.00  0.00    -0.389 N 
ATOM      4  H12 UNL     1      -3.365 -22.722   9.419  1.00  0.00     0.157 HD
ATOM      5  H11 UNL     1      -3.107 -21.360  10.546  1.00  0.00     0.157 HD
HETATM    6  N2  UNL     1      -4.000 -24.408  11.135  1.00  0.00    -0.085 NA
ENDBRANCH   1   2
BRANCH   1   7
HETATM    7  N3  UNL     1      -2.564 -21.552  12.851  1.00  0.00    -0.060 N 
ATOM      8  H33 UNL     1      -1.926 -21.770  13.616  1.00  0.00     0.275 HD
ATOM      9  H32 UNL     1      -1.898 -21.642  12.082  1.00  0.00     0.275 HD
ATOM     10  H31 UNL     1      -2.952 -20.612  12.924  1.00  0.00     0.275 HD
ENDBRANCH   1   7
BRANCH   1  11
HETATM   11  C3  UNL     1      -4.950 -21.905  13.119  1.00  0.00     0.268 C 
HETATM   12  N4  UNL     1      -5.209 -21.267  14.344  1.00  0.00    -0.060 NA
HETATM   13  O1  UNL     1      -5.890 -21.982  12.288  1.00  0.00    -0.274 OA
ENDBRANCH   1  11
TORSDOF 3
ENDMDL
MODEL 3
REMARK VINA RESULT: -5.174023093      1.755      1.755
REMARK  3 active torsions:
REMARK  status: ('A' for Active; 'I' for Inactive)
REMARK    1  A    between atoms: C1_4  and  C2_6 
REMARK    2  A    between atoms: C2_6  and  N3_7 
REMARK    3  A    between atoms: C2_6  and  C3_11 
ROOT
HETATM    1  C2  UNL     1      -3.838 -22.010  12.613  1.00  0.00     0.335 C 
ENDROOT
BRANCH   1   2
HETATM    2  C1  UNL     1      -2.948 -22.528  11.559  1.00  0.00     0.126 C 
HETATM    3  N1  UNL     1      -3.125 -22.222  10.317  1.00  0.00    -0.389 N 
ATOM      4  H12 UNL     1      -2.510 -22.580   9.588  1.00  0.00     0.157 HD
ATOM      5  H11 UNL     1      -3.910 -21.603  10.112  1.00  0.00     0.157 HD
HETATM    6  N2  UNL     1      -1.852 -23.391  11.846  1.00  0.00    -0.085 NA
ENDBRANCH   1   2
BRANCH   1   7
HETATM    7  N3  UNL     1      -3.827 -20.583  12.563  1.00  0.00    -0.060 N 
ATOM      8  H33 UNL     1      -4.469 -20.212  11.863  1.00  0.00     0.275 HD
ATOM      9  H32 UNL     1      -4.256 -20.161  13.387  1.00  0.00     0.275 HD
ATOM     10  H31 UNL     1      -2.868 -20.266  12.418  1.00  0.00     0.275 HD
ENDBRANCH   1   7
BRANCH   1  11
HETATM   11  C3  UNL     1      -5.199 -22.584  12.511  1.00  0.00     0.268 C 
HETATM   12  N4  UNL     1      -6.314 -22.085  13.206  1.00  0.00    -0.060 NA
HETATM   13  O1  UNL     1      -5.374 -23.575  11.758  1.00  0.00    -0.274 OA
ENDBRANCH   1  11
TORSDOF 3
ENDMDL
MODEL 4
REMARK VINA RESULT: -4.901962318      1.240      1.240
REMARK  3 active torsions:
REMARK  status: ('A' for Active; 'I' for Inactive)
REMARK    1  A    between atoms: C1_4  and  C2_6 
REMARK    2  A    between atoms: C2_6  and  N3_7 
REMARK    3  A    between atoms: C2_6  and  C3_11 
ROOT
HETATM    1  C2  UNL     1      -3.982 -22.032  12.578  1.00  0.00     0.335 C 
ENDROOT
BRANCH   1   2
HETATM    2  C1  UNL     1      -3.630 -22.851  11.406  1.00  0.00     0.126 C 
HETATM    3  N1  UNL     1      -2.987 -22.352  10.403  1.00  0.00    -0.389 N 
ATOM      4  H12 UNL     1      -2.743 -22.919   9.592  1.00  0.00     0.157 HD
ATOM      5  H11 UNL     1      -2.739 -21.365  10.473  1.00  0.00     0.157 HD
HETATM    6  N2  UNL     1      -3.976 -24.230  11.310  1.00  0.00    -0.085 NA
ENDBRANCH   1   2
BRANCH   1   7
HETATM    7  N3  UNL     1      -3.713 -20.662  12.280  1.00  0.00    -0.060 N 
ATOM      8  H33 UNL     1      -3.053 -20.243  12.934  1.00  0.00     0.275 HD
ATOM      9  H32 UNL     1      -3.160 -20.550  11.429  1.00  0.00     0.275 HD
ATOM     10  H31 UNL     1      -4.597 -20.155  12.240  1.00  0.00     0.275 HD
ENDBRANCH   1   7
BRANCH   1  11
HETATM   11  C3  UNL     1      -5.379 -22.269  13.011  1.00  0.00     0.268 C 
HETATM   12  N4  UNL     1      -5.757 -23.264  13.928  1.00  0.00    -0.060 NA
HETATM   13  O1  UNL     1      -6.284 -21.538  12.533  1.00  0.00    -0.274 OA
ENDBRANCH   1  11
TORSDOF 3
ENDMDL
MODEL 5
REMARK VINA RESULT: -4.861577193      1.220      1.220
REMARK  3 active torsions:
REMARK  status: ('A' for Active; 'I' for Inactive)
REMARK    1  A    between atoms: C1_4  and  C2_6 
REMARK    2  A    between atoms: C2_6  and  N3_7 
REMARK    3  A    between atoms: C2_6  and  C3_11 
ROOT
HETATM    1  C2  UNL     1      -3.604 -22.607  12.720  1.00  0.00     0.335 C 
ENDROOT
BRANCH   1   2
HETATM    2  C1  UNL     1      -4.092 -23.375  11.562  1.00  0.00     0.126 C 
HETATM    3  N1  UNL     1      -5.203 -23.077  10.974  1.00  0.00    -0.389 N 
ATOM      4  H12 UNL     1      -5.540 -23.609  10.172  1.00  0.00     0.157 HD
ATOM      5  H11 UNL     1      -5.716 -22.283  11.357  1.00  0.00     0.157 HD
HETATM    6  N2  UNL     1      -3.374 -24.483  11.028  1.00  0.00    -0.085 NA
ENDBRANCH   1   2
BRANCH   1   7
HETATM    7  N3  UNL     1      -2.358 -22.000  12.378  1.00  0.00    -0.060 N 
ATOM      8  H33 UNL     1      -1.564 -22.617  12.548  1.00  0.00     0.275 HD
ATOM      9  H32 UNL     1      -2.241 -21.892  11.370  1.00  0.00     0.275 HD
ATOM     10  H31 UNL     1      -2.276 -21.114  12.877  1.00  0.00     0.275 HD
ENDBRANCH   1   7
BRANCH   1  11
HETATM   11  C3  UNL     1      -4.614 -21.633  13.195  1.00  0.00     0.268 C 
HETATM   12  N4  UNL     1      -5.636 -21.946  14.108  1.00  0.00    -0.060 NA
HETATM   13  O1  UNL     1      -4.558 -20.455  12.760  1.00  0.00    -0.274 OA
ENDBRANCH   1  11
TORSDOF 3
ENDMDL
