MODEL 1
REMARK VINA RESULT: -4.816856931      0.000      0.000
REMARK  4 active torsions:
REMARK  status: ('A' for Active; 'I' for Inactive)
REMARK    1  A    between atoms: N1_1  and  N2_4 
REMARK       I    between atoms: N2_4  and  C1_6 
REMARK    2  A    between atoms: C1_6  and  C2_8 
REMARK    3  A    between atoms: C2_8  and  N3_9 
REMARK    4  A    between atoms: C2_8  and  C3_13 
ROOT
HETATM    1  C2  UNL     1      -2.973 -22.927  11.740  1.00  0.00     0.280 C 
ENDROOT
BRANCH   1   2
HETATM    2  C1  UNL     1      -2.907 -24.230  11.091  1.00  0.00     0.266 C 
HETATM    3  N2  UNL     1      -1.800 -24.709  10.349  1.00  0.00    -0.275 N 
ATOM      4  H2  UNL     1      -0.990 -24.094  10.263  1.00  0.00     0.189 HD
HETATM    5  O1  UNL     1      -3.910 -25.014  11.190  1.00  0.00    -0.269 OA
BRANCH   3   6
HETATM    6  N1  UNL     1      -1.729 -25.944   9.732  1.00  0.00    -0.343 N 
ATOM      7  H12 UNL     1      -1.125 -26.637  10.173  1.00  0.00     0.176 HD
ATOM      8  H11 UNL     1      -2.230 -26.205   8.882  1.00  0.00     0.176 HD
ENDBRANCH   3   6
ENDBRANCH   1   2
BRANCH   1   9
HETATM    9  N3  UNL     1      -3.360 -21.919  10.777  1.00  0.00    -0.066 N 
ATOM     10  H33 UNL     1      -3.095 -20.980  11.076  1.00  0.00     0.275 HD
ATOM     11  H32 UNL     1      -2.801 -21.967   9.926  1.00  0.00     0.275 HD
ATOM     12  H31 UNL     1      -4.359 -21.992  10.585  1.00  0.00     0.275 HD
ENDBRANCH   1   9
BRANCH   1  13
HETATM   13  C3  UNL     1      -3.945 -23.012  12.896  1.00  0.00     0.025 A 
HETATM   14  C4  UNL     1      -4.214 -21.862  13.767  1.00  0.00     0.007 A 
HETATM   15  C5  UNL     1      -5.263 -22.309  12.781  1.00  0.00     0.007 A 
ENDBRANCH   1  13
TORSDOF 4
ENDMDL
MODEL 2
REMARK VINA RESULT: -4.474544903      1.175      1.214
REMARK  4 active torsions:
REMARK  status: ('A' for Active; 'I' for Inactive)
REMARK    1  A    between atoms: N1_1  and  N2_4 
REMARK       I    between atoms: N2_4  and  C1_6 
REMARK    2  A    between atoms: C1_6  and  C2_8 
REMARK    3  A    between atoms: C2_8  and  N3_9 
REMARK    4  A    between atoms: C2_8  and  C3_13 
ROOT
HETATM    1  C2  UNL     1      -3.387 -23.075  12.626  1.00  0.00     0.280 C 
ENDROOT
BRANCH   1   2
HETATM    2  C1  UNL     1      -3.666 -23.828  11.409  1.00  0.00     0.266 C 
HETATM    3  N2  UNL     1      -2.724 -24.631  10.721  1.00  0.00    -0.275 N 
ATOM      4  H2  UNL     1      -1.781 -24.685  11.107  1.00  0.00     0.189 HD
HETATM    5  O1  UNL     1      -4.842 -23.774  10.913  1.00  0.00    -0.269 OA
BRANCH   3   6
HETATM    6  N1  UNL     1      -2.982 -25.348   9.567  1.00  0.00    -0.343 N 
ATOM      7  H12 UNL     1      -3.809 -25.073   9.038  1.00  0.00     0.176 HD
ATOM      8  H11 UNL     1      -2.413 -26.119   9.216  1.00  0.00     0.176 HD
ENDBRANCH   3   6
ENDBRANCH   1   2
BRANCH   1   9
HETATM    9  N3  UNL     1      -2.501 -21.972  12.327  1.00  0.00    -0.066 N 
ATOM     10  H33 UNL     1      -2.208 -21.475  13.169  1.00  0.00     0.275 HD
ATOM     11  H32 UNL     1      -1.583 -22.290  12.017  1.00  0.00     0.275 HD
ATOM     12  H31 UNL     1      -2.941 -21.350  11.649  1.00  0.00     0.275 HD
ENDBRANCH   1   9
BRANCH   1  13
HETATM   13  C3  UNL     1      -4.699 -22.607  13.216  1.00  0.00     0.025 A 
HETATM   14  C4  UNL     1      -4.751 -21.715  14.379  1.00  0.00     0.007 A 
HETATM   15  C5  UNL     1      -5.109 -21.180  13.016  1.00  0.00     0.007 A 
ENDBRANCH   1  13
TORSDOF 4
ENDMDL
MODEL 3
REMARK VINA RESULT: -4.297041186      1.413      1.413
REMARK  4 active torsions:
REMARK  status: ('A' for Active; 'I' for Inactive)
REMARK    1  A    between atoms: N1_1  and  N2_4 
REMARK       I    between atoms: N2_4  and  C1_6 
REMARK    2  A    between atoms: C1_6  and  C2_8 
REMARK    3  A    between atoms: C2_8  and  N3_9 
REMARK    4  A    between atoms: C2_8  and  C3_13 
ROOT
HETATM    1  C2  UNL     1      -3.916 -22.597  11.527  1.00  0.00     0.280 C 
ENDROOT
BRANCH   1   2
HETATM    2  C1  UNL     1      -2.866 -23.554  11.200  1.00  0.00     0.266 C 
HETATM    3  N2  UNL     1      -3.025 -24.666  10.337  1.00  0.00    -0.275 N 
ATOM      4  H2  UNL     1      -3.943 -24.805   9.914  1.00  0.00     0.189 HD
HETATM    5  O1  UNL     1      -1.710 -23.395  11.719  1.00  0.00    -0.269 OA
BRANCH   3   6
HETATM    6  N1  UNL     1      -2.034 -25.577  10.022  1.00  0.00    -0.343 N 
ATOM      7  H12 UNL     1      -1.556 -26.017  10.809  1.00  0.00     0.176 HD
ATOM      8  H11 UNL     1      -1.753 -25.835   9.075  1.00  0.00     0.176 HD
ENDBRANCH   3   6
ENDBRANCH   1   2
BRANCH   1   9
HETATM    9  N3  UNL     1      -5.194 -23.097  11.070  1.00  0.00    -0.066 N 
ATOM     10  H33 UNL     1      -5.110 -23.635  10.207  1.00  0.00     0.275 HD
ATOM     11  H32 UNL     1      -5.553 -23.839  11.671  1.00  0.00     0.275 HD
ATOM     12  H31 UNL     1      -5.854 -22.325  10.977  1.00  0.00     0.275 HD
ENDBRANCH   1   9
BRANCH   1  13
HETATM   13  C3  UNL     1      -3.900 -22.354  13.019  1.00  0.00     0.025 A 
HETATM   14  C4  UNL     1      -4.396 -21.104  13.606  1.00  0.00     0.007 A 
HETATM   15  C5  UNL     1      -5.200 -22.368  13.764  1.00  0.00     0.007 A 
ENDBRANCH   1  13
TORSDOF 4
ENDMDL
MODEL 4
REMARK VINA RESULT: -4.121467061      3.286      4.793
REMARK  4 active torsions:
REMARK  status: ('A' for Active; 'I' for Inactive)
REMARK    1  A    between atoms: N1_1  and  N2_4 
REMARK       I    between atoms: N2_4  and  C1_6 
REMARK    2  A    between atoms: C1_6  and  C2_8 
REMARK    3  A    between atoms: C2_8  and  N3_9 
REMARK    4  A    between atoms: C2_8  and  C3_13 
ROOT
HETATM    1  C2  UNL     1      -4.838 -22.584  13.073  1.00  0.00     0.280 C 
ENDROOT
BRANCH   1   2
HETATM    2  C1  UNL     1      -4.795 -21.337  13.825  1.00  0.00     0.266 C 
HETATM    3  N2  UNL     1      -4.882 -21.240  15.235  1.00  0.00    -0.275 N 
ATOM      4  H2  UNL     1      -4.982 -22.108  15.761  1.00  0.00     0.189 HD
HETATM    5  O1  UNL     1      -4.669 -20.240  13.183  1.00  0.00    -0.269 OA
BRANCH   3   6
HETATM    6  N1  UNL     1      -4.841 -20.060  15.956  1.00  0.00    -0.343 N 
ATOM      7  H12 UNL     1      -4.867 -19.197  15.413  1.00  0.00     0.176 HD
ATOM      8  H11 UNL     1      -4.787 -19.995  16.973  1.00  0.00     0.176 HD
ENDBRANCH   3   6
ENDBRANCH   1   2
BRANCH   1   9
HETATM    9  N3  UNL     1      -5.881 -22.517  12.071  1.00  0.00    -0.066 N 
ATOM     10  H33 UNL     1      -6.367 -23.407  11.962  1.00  0.00     0.275 HD
ATOM     11  H32 UNL     1      -6.673 -21.953  12.379  1.00  0.00     0.275 HD
ATOM     12  H31 UNL     1      -5.491 -22.182  11.190  1.00  0.00     0.275 HD
ENDBRANCH   1   9
BRANCH   1  13
HETATM   13  C3  UNL     1      -3.477 -22.826  12.460  1.00  0.00     0.025 A 
HETATM   14  C4  UNL     1      -3.215 -23.971  11.581  1.00  0.00     0.007 A 
HETATM   15  C5  UNL     1      -3.295 -22.585  10.993  1.00  0.00     0.007 A 
ENDBRANCH   1  13
TORSDOF 4
ENDMDL
MODEL 5
REMARK VINA RESULT: -4.080177715      2.216      4.028
REMARK  4 active torsions:
REMARK  status: ('A' for Active; 'I' for Inactive)
REMARK    1  A    between atoms: N1_1  and  N2_4 
REMARK       I    between atoms: N2_4  and  C1_6 
REMARK    2  A    between atoms: C1_6  and  C2_8 
REMARK    3  A    between atoms: C2_8  and  N3_9 
REMARK    4  A    between atoms: C2_8  and  C3_13 
ROOT
HETATM    1  C2  UNL     1      -4.141 -23.025  11.153  1.00  0.00     0.280 C 
ENDROOT
BRANCH   1   2
HETATM    2  C1  UNL     1      -4.698 -22.603  12.433  1.00  0.00     0.266 C 
HETATM    3  N2  UNL     1      -4.430 -21.364  13.063  1.00  0.00    -0.275 N 
ATOM      4  H2  UNL     1      -3.800 -20.720  12.585  1.00  0.00     0.189 HD
HETATM    5  O1  UNL     1      -5.490 -23.396  13.045  1.00  0.00    -0.269 OA
BRANCH   3   6
HETATM    6  N1  UNL     1      -4.956 -20.957  14.276  1.00  0.00    -0.343 N 
ATOM      7  H12 UNL     1      -5.428 -21.673  14.827  1.00  0.00     0.176 HD
ATOM      8  H11 UNL     1      -4.905 -20.009  14.649  1.00  0.00     0.176 HD
ENDBRANCH   3   6
ENDBRANCH   1   2
BRANCH   1   9
HETATM    9  N3  UNL     1      -3.375 -21.943  10.573  1.00  0.00    -0.066 N 
ATOM     10  H33 UNL     1      -3.746 -21.652   9.668  1.00  0.00     0.275 HD
ATOM     11  H32 UNL     1      -3.508 -21.066  11.076  1.00  0.00     0.275 HD
ATOM     12  H31 UNL     1      -2.392 -22.208  10.517  1.00  0.00     0.275 HD
ENDBRANCH   1   9
BRANCH   1  13
HETATM   13  C3  UNL     1      -3.300 -24.261  11.377  1.00  0.00     0.025 A 
HETATM   14  C4  UNL     1      -2.698 -25.000  10.261  1.00  0.00     0.007 A 
HETATM   15  C5  UNL     1      -1.820 -24.173  11.164  1.00  0.00     0.007 A 
ENDBRANCH   1  13
TORSDOF 4
ENDMDL
