MODEL 1
REMARK VINA RESULT: -6.354822445      0.000      0.000
REMARK  1 active torsions:
REMARK  status: ('A' for Active; 'I' for Inactive)
REMARK       I    between atoms: C1_4  and  N3_6 
REMARK    1  A    between atoms: N3_6  and  C2_8 
ROOT
HETATM    1  N1  UNL     1      -2.055 -23.413  11.025  1.00  0.00    -0.374 N 
ATOM      2  H11 UNL     1      -1.327 -22.699  11.025  1.00  0.00     0.158 HD
ATOM      3  H12 UNL     1      -1.884 -24.378  10.743  1.00  0.00     0.158 HD
HETATM    4  C1  UNL     1      -3.219 -23.018  11.407  1.00  0.00     0.183 C 
HETATM    5  N2  UNL     1      -4.249 -24.026  11.406  1.00  0.00    -0.064 NA
HETATM    6  N3  UNL     1      -3.455 -21.695  11.794  1.00  0.00    -0.343 N 
ATOM      7  H3  UNL     1      -2.796 -20.982  11.478  1.00  0.00     0.164 HD
ENDROOT
BRANCH   6   8
HETATM    8  C2  UNL     1      -4.560 -21.272  12.603  1.00  0.00     0.231 C 
HETATM    9  C3  UNL     1      -4.709 -21.944  13.937  1.00  0.00     0.240 C 
HETATM   10  O1  UNL     1      -6.081 -21.990  13.678  1.00  0.00    -0.281 OA
HETATM   11  N4  UNL     1      -5.824 -21.923  12.337  1.00  0.00    -0.073 NA
ENDBRANCH   6   8
TORSDOF 1
ENDMDL
MODEL 2
REMARK VINA RESULT: -6.240824732      1.011      1.439
REMARK  1 active torsions:
REMARK  status: ('A' for Active; 'I' for Inactive)
REMARK       I    between atoms: C1_4  and  N3_6 
REMARK    1  A    between atoms: N3_6  and  C2_8 
ROOT
HETATM    1  N1  UNL     1      -3.223 -24.807  10.315  1.00  0.00    -0.374 N 
ATOM      2  H11 UNL     1      -4.100 -25.243  10.029  1.00  0.00     0.158 HD
ATOM      3  H12 UNL     1      -2.318 -25.088   9.940  1.00  0.00     0.158 HD
HETATM    4  C1  UNL     1      -3.331 -23.867  11.188  1.00  0.00     0.183 C 
HETATM    5  N2  UNL     1      -2.092 -23.250  11.591  1.00  0.00    -0.064 NA
HETATM    6  N3  UNL     1      -4.572 -23.480  11.701  1.00  0.00    -0.343 N 
ATOM      7  H3  UNL     1      -5.346 -24.142  11.625  1.00  0.00     0.164 HD
ENDROOT
BRANCH   6   8
HETATM    8  C2  UNL     1      -4.832 -22.218  12.329  1.00  0.00     0.231 C 
HETATM    9  C3  UNL     1      -4.411 -22.083  13.763  1.00  0.00     0.240 C 
HETATM   10  O1  UNL     1      -5.620 -21.419  13.980  1.00  0.00    -0.281 OA
HETATM   11  N4  UNL     1      -6.154 -22.050  12.890  1.00  0.00    -0.073 NA
ENDBRANCH   6   8
TORSDOF 1
ENDMDL
MODEL 3
REMARK VINA RESULT: -6.124093983      2.027      3.357
REMARK  1 active torsions:
REMARK  status: ('A' for Active; 'I' for Inactive)
REMARK       I    between atoms: C1_4  and  N3_6 
REMARK    1  A    between atoms: N3_6  and  C2_8 
ROOT
HETATM    1  N1  UNL     1      -4.918 -20.910  14.629  1.00  0.00    -0.374 N 
ATOM      2  H11 UNL     1      -4.064 -20.917  15.186  1.00  0.00     0.158 HD
ATOM      3  H12 UNL     1      -5.667 -20.233  14.774  1.00  0.00     0.158 HD
HETATM    4  C1  UNL     1      -4.995 -21.818  13.720  1.00  0.00     0.183 C 
HETATM    5  N2  UNL     1      -6.202 -21.808  12.932  1.00  0.00    -0.064 NA
HETATM    6  N3  UNL     1      -3.968 -22.745  13.520  1.00  0.00    -0.343 N 
ATOM      7  H3  UNL     1      -3.311 -22.901  14.286  1.00  0.00     0.164 HD
ENDROOT
BRANCH   6   8
HETATM    8  C2  UNL     1      -3.775 -23.493  12.312  1.00  0.00     0.231 C 
HETATM    9  C3  UNL     1      -3.319 -22.720  11.110  1.00  0.00     0.240 C 
HETATM   10  O1  UNL     1      -4.228 -23.477  10.368  1.00  0.00    -0.281 OA
HETATM   11  N4  UNL     1      -4.956 -23.703  11.504  1.00  0.00    -0.073 NA
ENDBRANCH   6   8
TORSDOF 1
ENDMDL
MODEL 4
REMARK VINA RESULT: -5.503701014      2.181      3.673
REMARK  1 active torsions:
REMARK  status: ('A' for Active; 'I' for Inactive)
REMARK       I    between atoms: C1_4  and  N3_6 
REMARK    1  A    between atoms: N3_6  and  C2_8 
ROOT
HETATM    1  N1  UNL     1      -5.060 -21.123  14.764  1.00  0.00    -0.374 N 
ATOM      2  H11 UNL     1      -4.214 -21.071  15.331  1.00  0.00     0.158 HD
ATOM      3  H12 UNL     1      -5.942 -20.697  15.046  1.00  0.00     0.158 HD
HETATM    4  C1  UNL     1      -4.944 -21.767  13.655  1.00  0.00     0.183 C 
HETATM    5  N2  UNL     1      -6.140 -21.841  12.853  1.00  0.00    -0.064 NA
HETATM    6  N3  UNL     1      -3.734 -22.351  13.268  1.00  0.00    -0.343 N 
ATOM      7  H3  UNL     1      -3.041 -22.536  13.994  1.00  0.00     0.164 HD
ENDROOT
BRANCH   6   8
HETATM    8  C2  UNL     1      -3.402 -22.708  11.920  1.00  0.00     0.231 C 
HETATM    9  C3  UNL     1      -3.760 -24.099  11.486  1.00  0.00     0.240 C 
HETATM   10  O1  UNL     1      -2.519 -24.142  10.849  1.00  0.00    -0.281 OA
HETATM   11  N4  UNL     1      -2.053 -23.182  11.705  1.00  0.00    -0.073 NA
ENDBRANCH   6   8
TORSDOF 1
ENDMDL
MODEL 5
REMARK VINA RESULT: -4.907749203      1.076      1.138
REMARK  1 active torsions:
REMARK  status: ('A' for Active; 'I' for Inactive)
REMARK       I    between atoms: C1_4  and  N3_6 
REMARK    1  A    between atoms: N3_6  and  C2_8 
ROOT
HETATM    1  N1  UNL     1      -1.984 -23.470  11.193  1.00  0.00    -0.374 N 
ATOM      2  H11 UNL     1      -1.250 -23.599  11.888  1.00  0.00     0.158 HD
ATOM      3  H12 UNL     1      -1.916 -23.832  10.242  1.00  0.00     0.158 HD
HETATM    4  C1  UNL     1      -3.017 -22.813  11.593  1.00  0.00     0.183 C 
HETATM    5  N2  UNL     1      -4.056 -22.630  10.610  1.00  0.00    -0.064 NA
HETATM    6  N3  UNL     1      -3.111 -22.317  12.896  1.00  0.00    -0.343 N 
ATOM      7  H3  UNL     1      -2.246 -22.201  13.425  1.00  0.00     0.164 HD
ENDROOT
BRANCH   6   8
HETATM    8  C2  UNL     1      -4.342 -21.959  13.539  1.00  0.00     0.231 C 
HETATM    9  C3  UNL     1      -5.554 -22.757  13.160  1.00  0.00     0.240 C 
HETATM   10  O1  UNL     1      -6.255 -21.550  13.147  1.00  0.00    -0.281 OA
HETATM   11  N4  UNL     1      -5.084 -20.879  12.928  1.00  0.00    -0.073 NA
ENDBRANCH   6   8
TORSDOF 1
ENDMDL
