MODEL 1
REMARK VINA RESULT: -8.673665987      0.000      0.000
REMARK  14 active torsions:
REMARK  status: ('A' for Active; 'I' for Inactive)
REMARK    1  A    between atoms: C2_2  and  O1_3 
REMARK    2  A    between atoms: O1_3  and  C3_4 
REMARK    3  A    between atoms: C3_4  and  C4_6 
REMARK    4  A    between atoms: C6_8  and  C7_9 
REMARK    5  A    between atoms: C7_9  and  N1_10 
REMARK    6  A    between atoms: N1_10  and  N2_11 
REMARK       I    between atoms: N2_11  and  C8_13 
REMARK    7  A    between atoms: C8_13  and  C9_15 
REMARK    8  A    between atoms: C9_15  and  C10_16 
REMARK    9  A    between atoms: C9_15  and  N4_20 
REMARK   10  A    between atoms: C10_16  and  C11_17 
REMARK   11  A    between atoms: N4_20  and  N5_22 
REMARK   12  A    between atoms: N5_22  and  C12_24 
REMARK   13  A    between atoms: C12_24  and  C13_26 
REMARK       I    between atoms: C13_26  and  N6_28 
REMARK   14  A    between atoms: N6_28  and  C14_30 
ROOT
HETATM    1  C9  UNL     1       5.446   1.130  40.532  1.00  0.00     0.103 C 
ENDROOT
BRANCH   1   2
HETATM    2  C8  UNL     1       5.032  -0.086  41.307  1.00  0.00     0.294 C 
HETATM    3  N2  UNL     1       5.914  -0.717  42.230  1.00  0.00    -0.198 N 
ATOM      4  H2  UNL     1       6.841  -0.313  42.364  1.00  0.00     0.205 HD
HETATM    5  O3  UNL     1       3.892  -0.580  41.158  1.00  0.00    -0.264 OA
BRANCH   3   6
HETATM    6  N1  UNL     1       5.604  -1.778  42.911  1.00  0.00    -0.335 NA
BRANCH   6   7
HETATM    7  C7  UNL     1       5.282  -2.714  43.575  1.00  0.00     0.223 C 
BRANCH   7   8
HETATM    8  C6  UNL     1       6.022  -3.188  44.798  1.00  0.00     0.027 A 
HETATM    9  C5  UNL     1       6.669  -4.361  44.852  1.00  0.00     0.041 A 
HETATM   10  C4  UNL     1       7.312  -4.683  46.015  1.00  0.00     0.082 A 
HETATM   11  S1  UNL     1       7.001  -3.339  47.010  1.00  0.00    -0.068 SA
HETATM   12  C20 UNL     1       6.058  -2.404  45.918  1.00  0.00     0.100 A 
HETATM   13  N7  UNL     1       5.466  -1.106  46.160  1.00  0.00    -0.093 NA
BRANCH  10  14
HETATM   14  C3  UNL     1       8.085  -5.889  46.335  1.00  0.00     0.300 C 
HETATM   15  O2  UNL     1       9.238  -5.818  46.773  1.00  0.00    -0.259 OA
BRANCH  14  16
HETATM   16  O1  UNL     1       7.498  -7.122  46.138  1.00  0.00    -0.317 OA
BRANCH  16  17
HETATM   17  C2  UNL     1       7.996  -8.005  45.179  1.00  0.00     0.174 C 
HETATM   18  C1  UNL     1       7.921  -7.493  43.764  1.00  0.00     0.034 C 
ENDBRANCH  16  17
ENDBRANCH  14  16
ENDBRANCH  10  14
ENDBRANCH   7   8
ENDBRANCH   6   7
ENDBRANCH   3   6
ENDBRANCH   1   2
BRANCH   1  19
HETATM   19  C10 UNL     1       6.864   1.174  40.115  1.00  0.00     0.164 C 
BRANCH  19  20
HETATM   20  C11 UNL     1       7.136   1.358  38.708  1.00  0.00     0.236 C 
HETATM   21  N3  UNL     1       6.235   2.131  37.898  1.00  0.00    -0.062 NA
HETATM   22  O4  UNL     1       8.170   0.844  38.161  1.00  0.00    -0.277 OA
ENDBRANCH  19  20
ENDBRANCH   1  19
BRANCH   1  23
HETATM   23  N4  UNL     1       4.619   1.990  40.295  1.00  0.00    -0.301 N 
ATOM     24  H4  UNL     1       4.983   2.851  40.702  1.00  0.00     0.186 HD
BRANCH  23  25
HETATM   25  N5  UNL     1       3.454   2.310  39.742  1.00  0.00    -0.308 N 
ATOM     26  H5  UNL     1       2.719   1.613  39.618  1.00  0.00     0.182 HD
BRANCH  25  27
HETATM   27  C12 UNL     1       3.258   3.728  39.308  1.00  0.00     0.286 C 
HETATM   28 CL1  UNL     1       1.922   4.444  40.219  1.00  0.00    -0.091 Cl
BRANCH  27  29
HETATM   29  C13 UNL     1       2.948   3.694  37.853  1.00  0.00     0.257 C 
HETATM   30  O5  UNL     1       2.362   4.745  37.414  1.00  0.00    -0.270 OA
HETATM   31  N6  UNL     1       3.218   2.674  36.952  1.00  0.00    -0.354 N 
ATOM     32  H6  UNL     1       3.681   1.843  37.319  1.00  0.00     0.163 HD
BRANCH  31  33
HETATM   33  C14 UNL     1       2.909   2.681  35.553  1.00  0.00     0.084 C 
HETATM   34  C15 UNL     1       1.512   2.076  35.429  1.00  0.00     0.025 C 
HETATM   35  C16 UNL     1       1.161   1.819  33.982  1.00  0.00     0.002 C 
HETATM   36  C17 UNL     1       2.178   0.987  33.272  1.00  0.00     0.000 C 
HETATM   37  C18 UNL     1       3.514   1.742  33.341  1.00  0.00     0.002 C 
HETATM   38  C19 UNL     1       3.871   1.796  34.823  1.00  0.00     0.025 C 
ENDBRANCH  31  33
ENDBRANCH  27  29
ENDBRANCH  25  27
ENDBRANCH  23  25
ENDBRANCH   1  23
TORSDOF 14
ENDMDL
MODEL 2
REMARK VINA RESULT: -8.619160057      4.574      9.415
REMARK  14 active torsions:
REMARK  status: ('A' for Active; 'I' for Inactive)
REMARK    1  A    between atoms: C2_2  and  O1_3 
REMARK    2  A    between atoms: O1_3  and  C3_4 
REMARK    3  A    between atoms: C3_4  and  C4_6 
REMARK    4  A    between atoms: C6_8  and  C7_9 
REMARK    5  A    between atoms: C7_9  and  N1_10 
REMARK    6  A    between atoms: N1_10  and  N2_11 
REMARK       I    between atoms: N2_11  and  C8_13 
REMARK    7  A    between atoms: C8_13  and  C9_15 
REMARK    8  A    between atoms: C9_15  and  C10_16 
REMARK    9  A    between atoms: C9_15  and  N4_20 
REMARK   10  A    between atoms: C10_16  and  C11_17 
REMARK   11  A    between atoms: N4_20  and  N5_22 
REMARK   12  A    between atoms: N5_22  and  C12_24 
REMARK   13  A    between atoms: C12_24  and  C13_26 
REMARK       I    between atoms: C13_26  and  N6_28 
REMARK   14  A    between atoms: N6_28  and  C14_30 
ROOT
HETATM    1  C9  UNL     1       2.354  -0.020  42.979  1.00  0.00     0.103 C 
ENDROOT
BRANCH   1   2
HETATM    2  C8  UNL     1       1.856   0.770  41.805  1.00  0.00     0.294 C 
HETATM    3  N2  UNL     1       1.842   2.194  41.817  1.00  0.00    -0.198 N 
ATOM      4  H2  UNL     1       2.193   2.672  42.646  1.00  0.00     0.205 HD
HETATM    5  O3  UNL     1       1.435   0.190  40.779  1.00  0.00    -0.264 OA
BRANCH   3   6
HETATM    6  N1  UNL     1       1.407   2.917  40.830  1.00  0.00    -0.335 NA
BRANCH   6   7
HETATM    7  C7  UNL     1       1.010   3.527  39.886  1.00  0.00     0.223 C 
BRANCH   7   8
HETATM    8  C6  UNL     1       1.050   3.027  38.466  1.00  0.00     0.027 A 
HETATM    9  C5  UNL     1       2.018   3.363  37.600  1.00  0.00     0.041 A 
HETATM   10  C4  UNL     1       1.955   2.842  36.338  1.00  0.00     0.082 A 
HETATM   11  S1  UNL     1       0.546   1.890  36.386  1.00  0.00    -0.068 SA
HETATM   12  C20 UNL     1       0.074   2.184  38.014  1.00  0.00     0.100 A 
HETATM   13  N7  UNL     1      -1.081   1.649  38.701  1.00  0.00    -0.093 NA
BRANCH  10  14
HETATM   14  C3  UNL     1       2.874   3.045  35.213  1.00  0.00     0.300 C 
HETATM   15  O2  UNL     1       3.005   4.151  34.679  1.00  0.00    -0.259 OA
BRANCH  14  16
HETATM   16  O1  UNL     1       3.601   1.966  34.751  1.00  0.00    -0.317 OA
BRANCH  16  17
HETATM   17  C2  UNL     1       3.542   1.588  33.409  1.00  0.00     0.174 C 
HETATM   18  C1  UNL     1       2.146   1.375  32.884  1.00  0.00     0.034 C 
ENDBRANCH  16  17
ENDBRANCH  14  16
ENDBRANCH  10  14
ENDBRANCH   7   8
ENDBRANCH   6   7
ENDBRANCH   3   6
ENDBRANCH   1   2
BRANCH   1  19
HETATM   19  C10 UNL     1       1.344  -0.349  44.008  1.00  0.00     0.164 C 
BRANCH  19  20
HETATM   20  C11 UNL     1       0.867  -1.711  44.057  1.00  0.00     0.236 C 
HETATM   21  N3  UNL     1      -0.231  -2.056  44.917  1.00  0.00    -0.062 NA
HETATM   22  O4  UNL     1       1.403  -2.627  43.346  1.00  0.00    -0.277 OA
ENDBRANCH  19  20
ENDBRANCH   1  19
BRANCH   1  23
HETATM   23  N4  UNL     1       3.528  -0.338  43.022  1.00  0.00    -0.301 N 
ATOM     24  H4  UNL     1       4.056   0.534  43.047  1.00  0.00     0.186 HD
BRANCH  23  25
HETATM   25  N5  UNL     1       4.430  -1.313  43.052  1.00  0.00    -0.308 N 
ATOM     26  H5  UNL     1       4.149  -2.293  43.002  1.00  0.00     0.182 HD
BRANCH  25  27
HETATM   27  C12 UNL     1       5.869  -0.924  43.161  1.00  0.00     0.286 C 
HETATM   28 CL1  UNL     1       6.244  -0.513  44.839  1.00  0.00    -0.091 Cl
BRANCH  27  29
HETATM   29  C13 UNL     1       6.065   0.254  42.271  1.00  0.00     0.257 C 
HETATM   30  O5  UNL     1       6.095   1.378  42.885  1.00  0.00    -0.270 OA
HETATM   31  N6  UNL     1       6.212   0.259  40.892  1.00  0.00    -0.354 N 
ATOM     32  H6  UNL     1       6.181  -0.644  40.420  1.00  0.00     0.163 HD
BRANCH  31  33
HETATM   33  C14 UNL     1       6.405   1.415  40.069  1.00  0.00     0.084 C 
HETATM   34  C15 UNL     1       5.018   1.808  39.564  1.00  0.00     0.025 C 
HETATM   35  C16 UNL     1       5.112   2.880  38.503  1.00  0.00     0.002 C 
HETATM   36  C17 UNL     1       6.016   2.507  37.374  1.00  0.00     0.000 C 
HETATM   37  C18 UNL     1       7.411   2.261  37.968  1.00  0.00     0.002 C 
HETATM   38  C19 UNL     1       7.251   1.055  38.888  1.00  0.00     0.025 C 
ENDBRANCH  31  33
ENDBRANCH  27  29
ENDBRANCH  25  27
ENDBRANCH  23  25
ENDBRANCH   1  23
TORSDOF 14
ENDMDL
MODEL 3
REMARK VINA RESULT: -8.389279036      1.917      2.382
REMARK  14 active torsions:
REMARK  status: ('A' for Active; 'I' for Inactive)
REMARK    1  A    between atoms: C2_2  and  O1_3 
REMARK    2  A    between atoms: O1_3  and  C3_4 
REMARK    3  A    between atoms: C3_4  and  C4_6 
REMARK    4  A    between atoms: C6_8  and  C7_9 
REMARK    5  A    between atoms: C7_9  and  N1_10 
REMARK    6  A    between atoms: N1_10  and  N2_11 
REMARK       I    between atoms: N2_11  and  C8_13 
REMARK    7  A    between atoms: C8_13  and  C9_15 
REMARK    8  A    between atoms: C9_15  and  C10_16 
REMARK    9  A    between atoms: C9_15  and  N4_20 
REMARK   10  A    between atoms: C10_16  and  C11_17 
REMARK   11  A    between atoms: N4_20  and  N5_22 
REMARK   12  A    between atoms: N5_22  and  C12_24 
REMARK   13  A    between atoms: C12_24  and  C13_26 
REMARK       I    between atoms: C13_26  and  N6_28 
REMARK   14  A    between atoms: N6_28  and  C14_30 
ROOT
HETATM    1  C9  UNL     1       4.276   1.986  39.699  1.00  0.00     0.103 C 
ENDROOT
BRANCH   1   2
HETATM    2  C8  UNL     1       4.715   1.560  41.069  1.00  0.00     0.294 C 
HETATM    3  N2  UNL     1       6.084   1.608  41.461  1.00  0.00    -0.198 N 
ATOM      4  H2  UNL     1       6.766   1.953  40.786  1.00  0.00     0.205 HD
HETATM    5  O3  UNL     1       3.882   1.148  41.907  1.00  0.00    -0.264 OA
BRANCH   3   6
HETATM    6  N1  UNL     1       6.510   1.236  42.630  1.00  0.00    -0.335 NA
BRANCH   6   7
HETATM    7  C7  UNL     1       6.850   0.855  43.707  1.00  0.00     0.223 C 
BRANCH   7   8
HETATM    8  C6  UNL     1       6.364  -0.413  44.357  1.00  0.00     0.027 A 
HETATM    9  C5  UNL     1       6.457  -1.616  43.772  1.00  0.00     0.041 A 
HETATM   10  C4  UNL     1       5.989  -2.700  44.461  1.00  0.00     0.082 A 
HETATM   11  S1  UNL     1       5.427  -2.017  45.915  1.00  0.00    -0.068 SA
HETATM   12  C20 UNL     1       5.804  -0.367  45.603  1.00  0.00     0.100 A 
HETATM   13  N7  UNL     1       5.572   0.764  46.475  1.00  0.00    -0.093 NA
BRANCH  10  14
HETATM   14  C3  UNL     1       5.971  -4.110  44.056  1.00  0.00     0.300 C 
HETATM   15  O2  UNL     1       4.996  -4.604  43.481  1.00  0.00    -0.259 OA
BRANCH  14  16
HETATM   16  O1  UNL     1       7.077  -4.890  44.331  1.00  0.00    -0.317 OA
BRANCH  16  17
HETATM   17  C2  UNL     1       6.978  -6.281  44.364  1.00  0.00     0.174 C 
HETATM   18  C1  UNL     1       7.584  -6.977  43.173  1.00  0.00     0.034 C 
ENDBRANCH  16  17
ENDBRANCH  14  16
ENDBRANCH  10  14
ENDBRANCH   7   8
ENDBRANCH   6   7
ENDBRANCH   3   6
ENDBRANCH   1   2
BRANCH   1  19
HETATM   19  C10 UNL     1       5.204   1.656  38.596  1.00  0.00     0.164 C 
BRANCH  19  20
HETATM   20  C11 UNL     1       5.865   2.757  37.934  1.00  0.00     0.236 C 
HETATM   21  N3  UNL     1       7.187   2.583  37.399  1.00  0.00    -0.062 NA
HETATM   22  O4  UNL     1       5.296   3.894  37.812  1.00  0.00    -0.277 OA
ENDBRANCH  19  20
ENDBRANCH   1  19
BRANCH   1  23
HETATM   23  N4  UNL     1       3.212   2.561  39.572  1.00  0.00    -0.301 N 
ATOM     24  H4  UNL     1       3.377   3.311  38.900  1.00  0.00     0.186 HD
BRANCH  23  25
HETATM   25  N5  UNL     1       1.932   2.652  39.915  1.00  0.00    -0.308 N 
ATOM     26  H5  UNL     1       1.550   2.093  40.678  1.00  0.00     0.182 HD
BRANCH  25  27
HETATM   27  C12 UNL     1       1.072   3.601  39.144  1.00  0.00     0.286 C 
HETATM   28 CL1  UNL     1      -0.604   3.038  39.174  1.00  0.00    -0.091 Cl
BRANCH  27  29
HETATM   29  C13 UNL     1       1.598   3.624  37.751  1.00  0.00     0.257 C 
HETATM   30  O5  UNL     1       2.205   4.707  37.435  1.00  0.00    -0.270 OA
HETATM   31  N6  UNL     1       1.500   2.627  36.791  1.00  0.00    -0.354 N 
ATOM     32  H6  UNL     1       1.008   1.775  37.059  1.00  0.00     0.163 HD
BRANCH  31  33
HETATM   33  C14 UNL     1       2.025   2.684  35.460  1.00  0.00     0.084 C 
HETATM   34  C15 UNL     1       1.021   1.943  34.580  1.00  0.00     0.025 C 
HETATM   35  C16 UNL     1       1.570   1.736  33.188  1.00  0.00     0.002 C 
HETATM   36  C17 UNL     1       2.902   1.061  33.180  1.00  0.00     0.000 C 
HETATM   37  C18 UNL     1       3.870   1.949  33.977  1.00  0.00     0.002 C 
HETATM   38  C19 UNL     1       3.330   1.952  35.404  1.00  0.00     0.025 C 
ENDBRANCH  31  33
ENDBRANCH  27  29
ENDBRANCH  25  27
ENDBRANCH  23  25
ENDBRANCH   1  23
TORSDOF 14
ENDMDL
MODEL 4
REMARK VINA RESULT: -8.367101779      4.212     11.687
REMARK  14 active torsions:
REMARK  status: ('A' for Active; 'I' for Inactive)
REMARK    1  A    between atoms: C2_2  and  O1_3 
REMARK    2  A    between atoms: O1_3  and  C3_4 
REMARK    3  A    between atoms: C3_4  and  C4_6 
REMARK    4  A    between atoms: C6_8  and  C7_9 
REMARK    5  A    between atoms: C7_9  and  N1_10 
REMARK    6  A    between atoms: N1_10  and  N2_11 
REMARK       I    between atoms: N2_11  and  C8_13 
REMARK    7  A    between atoms: C8_13  and  C9_15 
REMARK    8  A    between atoms: C9_15  and  C10_16 
REMARK    9  A    between atoms: C9_15  and  N4_20 
REMARK   10  A    between atoms: C10_16  and  C11_17 
REMARK   11  A    between atoms: N4_20  and  N5_22 
REMARK   12  A    between atoms: N5_22  and  C12_24 
REMARK   13  A    between atoms: C12_24  and  C13_26 
REMARK       I    between atoms: C13_26  and  N6_28 
REMARK   14  A    between atoms: N6_28  and  C14_30 
ROOT
HETATM    1  C9  UNL     1       5.471  -2.912  43.659  1.00  0.00     0.103 C 
ENDROOT
BRANCH   1   2
HETATM    2  C8  UNL     1       6.006  -1.674  43.004  1.00  0.00     0.294 C 
HETATM    3  N2  UNL     1       5.236  -0.943  42.053  1.00  0.00    -0.198 N 
ATOM      4  H2  UNL     1       4.298  -1.277  41.834  1.00  0.00     0.205 HD
HETATM    5  O3  UNL     1       7.151  -1.250  43.277  1.00  0.00    -0.264 OA
BRANCH   3   6
HETATM    6  N1  UNL     1       5.664   0.125  41.451  1.00  0.00    -0.335 NA
BRANCH   6   7
HETATM    7  C7  UNL     1       6.072   1.130  40.957  1.00  0.00     0.223 C 
BRANCH   7   8
HETATM    8  C6  UNL     1       5.605   1.683  39.636  1.00  0.00     0.027 A 
HETATM    9  C5  UNL     1       4.348   2.096  39.420  1.00  0.00     0.041 A 
HETATM   10  C4  UNL     1       4.041   2.587  38.182  1.00  0.00     0.082 A 
HETATM   11  S1  UNL     1       5.516   2.463  37.343  1.00  0.00    -0.068 SA
HETATM   12  C20 UNL     1       6.484   1.787  38.593  1.00  0.00     0.100 A 
HETATM   13  N7  UNL     1       7.884   1.431  38.521  1.00  0.00    -0.093 NA
BRANCH  10  14
HETATM   14  C3  UNL     1       2.758   3.100  37.688  1.00  0.00     0.300 C 
HETATM   15  O2  UNL     1       2.698   3.864  36.719  1.00  0.00    -0.259 OA
BRANCH  14  16
HETATM   16  O1  UNL     1       1.599   2.710  38.330  1.00  0.00    -0.317 OA
BRANCH  16  17
HETATM   17  C2  UNL     1       0.394   2.618  37.633  1.00  0.00     0.174 C 
HETATM   18  C1  UNL     1      -0.559   1.583  38.172  1.00  0.00     0.034 C 
ENDBRANCH  16  17
ENDBRANCH  14  16
ENDBRANCH  10  14
ENDBRANCH   7   8
ENDBRANCH   6   7
ENDBRANCH   3   6
ENDBRANCH   1   2
BRANCH   1  19
HETATM   19  C10 UNL     1       4.238  -2.736  44.456  1.00  0.00     0.164 C 
BRANCH  19  20
HETATM   20  C11 UNL     1       3.187  -3.711  44.276  1.00  0.00     0.236 C 
HETATM   21  N3  UNL     1       1.922  -3.310  43.724  1.00  0.00    -0.062 NA
HETATM   22  O4  UNL     1       3.357  -4.935  44.598  1.00  0.00    -0.277 OA
ENDBRANCH  19  20
ENDBRANCH   1  19
BRANCH   1  23
HETATM   23  N4  UNL     1       6.062  -3.964  43.506  1.00  0.00    -0.301 N 
ATOM     24  H4  UNL     1       7.040  -3.718  43.348  1.00  0.00     0.186 HD
BRANCH  23  25
HETATM   25  N5  UNL     1       6.006  -5.291  43.452  1.00  0.00    -0.308 N 
ATOM     26  H5  UNL     1       5.176  -5.769  43.102  1.00  0.00     0.182 HD
BRANCH  25  27
HETATM   27  C12 UNL     1       7.201  -6.056  43.923  1.00  0.00     0.286 C 
HETATM   28 CL1  UNL     1       7.758  -7.132  42.636  1.00  0.00    -0.091 Cl
BRANCH  27  29
HETATM   29  C13 UNL     1       6.771  -6.835  45.116  1.00  0.00     0.257 C 
HETATM   30  O5  UNL     1       7.736  -7.335  45.794  1.00  0.00    -0.270 OA
HETATM   31  N6  UNL     1       5.476  -7.070  45.554  1.00  0.00    -0.354 N 
ATOM     32  H6  UNL     1       4.720  -6.669  44.999  1.00  0.00     0.163 HD
BRANCH  31  33
HETATM   33  C14 UNL     1       5.101  -7.823  46.713  1.00  0.00     0.084 C 
HETATM   34  C15 UNL     1       3.770  -8.488  46.370  1.00  0.00     0.025 C 
HETATM   35  C16 UNL     1       3.155  -9.131  47.592  1.00  0.00     0.002 C 
HETATM   36  C17 UNL     1       3.010  -8.185  48.739  1.00  0.00     0.000 C 
HETATM   37  C18 UNL     1       4.416  -7.674  49.090  1.00  0.00     0.002 C 
HETATM   38  C19 UNL     1       4.878  -6.892  47.865  1.00  0.00     0.025 C 
ENDBRANCH  31  33
ENDBRANCH  27  29
ENDBRANCH  25  27
ENDBRANCH  23  25
ENDBRANCH   1  23
TORSDOF 14
ENDMDL
MODEL 5
REMARK VINA RESULT: -8.327660630      4.466      9.169
REMARK  14 active torsions:
REMARK  status: ('A' for Active; 'I' for Inactive)
REMARK    1  A    between atoms: C2_2  and  O1_3 
REMARK    2  A    between atoms: O1_3  and  C3_4 
REMARK    3  A    between atoms: C3_4  and  C4_6 
REMARK    4  A    between atoms: C6_8  and  C7_9 
REMARK    5  A    between atoms: C7_9  and  N1_10 
REMARK    6  A    between atoms: N1_10  and  N2_11 
REMARK       I    between atoms: N2_11  and  C8_13 
REMARK    7  A    between atoms: C8_13  and  C9_15 
REMARK    8  A    between atoms: C9_15  and  C10_16 
REMARK    9  A    between atoms: C9_15  and  N4_20 
REMARK   10  A    between atoms: C10_16  and  C11_17 
REMARK   11  A    between atoms: N4_20  and  N5_22 
REMARK   12  A    between atoms: N5_22  and  C12_24 
REMARK   13  A    between atoms: C12_24  and  C13_26 
REMARK       I    between atoms: C13_26  and  N6_28 
REMARK   14  A    between atoms: N6_28  and  C14_30 
ROOT
HETATM    1  C9  UNL     1       3.366  -0.806  44.422  1.00  0.00     0.103 C 
ENDROOT
BRANCH   1   2
HETATM    2  C8  UNL     1       3.044   0.546  43.857  1.00  0.00     0.294 C 
HETATM    3  N2  UNL     1       2.300   0.690  42.650  1.00  0.00    -0.198 N 
ATOM      4  H2  UNL     1       1.978  -0.154  42.179  1.00  0.00     0.205 HD
HETATM    5  O3  UNL     1       3.425   1.587  44.436  1.00  0.00    -0.264 OA
BRANCH   3   6
HETATM    6  N1  UNL     1       2.011   1.839  42.118  1.00  0.00    -0.335 NA
BRANCH   6   7
HETATM    7  C7  UNL     1       1.686   2.888  41.655  1.00  0.00     0.223 C 
BRANCH   7   8
HETATM    8  C6  UNL     1       1.334   3.111  40.208  1.00  0.00     0.027 A 
HETATM    9  C5  UNL     1       0.652   2.218  39.475  1.00  0.00     0.041 A 
HETATM   10  C4  UNL     1       0.383   2.532  38.173  1.00  0.00     0.082 A 
HETATM   11  S1  UNL     1       1.088   4.071  37.996  1.00  0.00    -0.068 SA
HETATM   12  C20 UNL     1       1.708   4.271  39.588  1.00  0.00     0.100 A 
HETATM   13  N7  UNL     1       2.439   5.406  40.106  1.00  0.00    -0.093 NA
BRANCH  10  14
HETATM   14  C3  UNL     1      -0.337   1.744  37.166  1.00  0.00     0.300 C 
HETATM   15  O2  UNL     1      -0.887   0.677  37.456  1.00  0.00    -0.259 OA
BRANCH  14  16
HETATM   16  O1  UNL     1      -0.393   2.219  35.872  1.00  0.00    -0.317 OA
BRANCH  16  17
HETATM   17  C2  UNL     1       0.406   1.663  34.872  1.00  0.00     0.174 C 
HETATM   18  C1  UNL     1       1.736   2.346  34.688  1.00  0.00     0.034 C 
ENDBRANCH  16  17
ENDBRANCH  14  16
ENDBRANCH  10  14
ENDBRANCH   7   8
ENDBRANCH   6   7
ENDBRANCH   3   6
ENDBRANCH   1   2
BRANCH   1  19
HETATM   19  C10 UNL     1       2.203  -1.639  44.797  1.00  0.00     0.164 C 
BRANCH  19  20
HETATM   20  C11 UNL     1       1.778  -2.646  43.854  1.00  0.00     0.236 C 
HETATM   21  N3  UNL     1       1.591  -4.004  44.288  1.00  0.00    -0.062 NA
HETATM   22  O4  UNL     1       1.561  -2.357  42.628  1.00  0.00    -0.277 OA
ENDBRANCH  19  20
ENDBRANCH   1  19
BRANCH   1  23
HETATM   23  N4  UNL     1       4.531  -1.135  44.539  1.00  0.00    -0.301 N 
ATOM     24  H4  UNL     1       4.811  -0.854  45.479  1.00  0.00     0.186 HD
BRANCH  23  25
HETATM   25  N5  UNL     1       5.603  -1.697  43.991  1.00  0.00    -0.308 N 
ATOM     26  H5  UNL     1       5.721  -2.710  43.982  1.00  0.00     0.182 HD
BRANCH  25  27
HETATM   27  C12 UNL     1       6.630  -0.792  43.389  1.00  0.00     0.286 C 
HETATM   28 CL1  UNL     1       6.770   0.674  44.367  1.00  0.00    -0.091 Cl
BRANCH  27  29
HETATM   29  C13 UNL     1       6.165  -0.469  42.013  1.00  0.00     0.257 C 
HETATM   30  O5  UNL     1       5.257  -1.254  41.565  1.00  0.00    -0.270 OA
HETATM   31  N6  UNL     1       6.599   0.561  41.191  1.00  0.00    -0.354 N 
ATOM     32  H6  UNL     1       7.325   1.174  41.561  1.00  0.00     0.163 HD
BRANCH  31  33
HETATM   33  C14 UNL     1       6.121   0.845  39.871  1.00  0.00     0.084 C 
HETATM   34  C15 UNL     1       7.337   1.319  39.077  1.00  0.00     0.025 C 
HETATM   35  C16 UNL     1       6.925   1.865  37.730  1.00  0.00     0.002 C 
HETATM   36  C17 UNL     1       5.887   2.936  37.826  1.00  0.00     0.000 C 
HETATM   37  C18 UNL     1       4.660   2.322  38.519  1.00  0.00     0.002 C 
HETATM   38  C19 UNL     1       5.130   1.965  39.926  1.00  0.00     0.025 C 
ENDBRANCH  31  33
ENDBRANCH  27  29
ENDBRANCH  25  27
ENDBRANCH  23  25
ENDBRANCH   1  23
TORSDOF 14
ENDMDL
