MODEL 1
REMARK VINA RESULT: -5.105630019      0.000      0.000
REMARK  2 active torsions:
REMARK  status: ('A' for Active; 'I' for Inactive)
REMARK    1  A    between atoms: C4_4  and  O1_5 
REMARK    2  A    between atoms: O1_5  and  C5_6 
ROOT
HETATM    1  O1  UNL     1      13.872  14.517  45.918  1.00  0.00    -0.377 OA
ENDROOT
BRANCH   1   2
HETATM    2  C4  UNL     1      13.307  14.969  44.706  1.00  0.00     0.122 C 
HETATM    3  C3  UNL     1      14.333  14.923  43.604  1.00  0.00     0.032 C 
HETATM    4  C2  UNL     1      13.778  14.245  42.365  1.00  0.00     0.002 C 
HETATM    5  C1  UNL     1      13.273  12.866  42.644  1.00  0.00     0.000 C 
HETATM    6  C9  UNL     1      12.666  12.720  44.019  1.00  0.00     0.002 C 
HETATM    7  C8  UNL     1      12.126  14.058  44.437  1.00  0.00     0.032 C 
ENDBRANCH   1   2
BRANCH   1   8
HETATM    8  C5  UNL     1      14.723  15.478  46.406  1.00  0.00     0.173 C 
HETATM    9  C6  UNL     1      15.614  14.918  47.520  1.00  0.00     0.265 C 
HETATM   10  N1  UNL     1      14.436  15.017  48.380  1.00  0.00    -0.070 N 
HETATM   11  C7  UNL     1      14.085  16.200  47.581  1.00  0.00     0.265 C 
ATOM     12  H12 UNL     1      13.789  14.237  48.499  1.00  0.00     0.277 HD
ATOM     13  H11 UNL     1      14.512  15.058  49.396  1.00  0.00     0.277 HD
ENDBRANCH   1   8
TORSDOF 2
ENDMDL
MODEL 2
REMARK VINA RESULT: -5.035078903      2.663      3.461
REMARK  2 active torsions:
REMARK  status: ('A' for Active; 'I' for Inactive)
REMARK    1  A    between atoms: C4_4  and  O1_5 
REMARK    2  A    between atoms: O1_5  and  C5_6 
ROOT
HETATM    1  O1  UNL     1      11.525  14.996  44.612  1.00  0.00    -0.377 OA
ENDROOT
BRANCH   1   2
HETATM    2  C4  UNL     1      12.494  13.975  44.713  1.00  0.00     0.122 C 
HETATM    3  C3  UNL     1      12.058  12.762  43.932  1.00  0.00     0.032 C 
HETATM    4  C2  UNL     1      13.173  12.255  43.037  1.00  0.00     0.002 C 
HETATM    5  C1  UNL     1      13.679  13.304  42.101  1.00  0.00     0.000 C 
HETATM    6  C9  UNL     1      13.648  14.695  42.690  1.00  0.00     0.002 C 
HETATM    7  C8  UNL     1      13.781  14.574  44.181  1.00  0.00     0.032 C 
ENDBRANCH   1   2
BRANCH   1   8
HETATM    8  C5  UNL     1      11.196  15.434  45.871  1.00  0.00     0.173 C 
HETATM    9  C6  UNL     1      10.243  14.457  46.569  1.00  0.00     0.265 C 
HETATM   10  N1  UNL     1       9.198  15.017  45.713  1.00  0.00    -0.070 N 
HETATM   11  C7  UNL     1       9.937  16.283  45.822  1.00  0.00     0.265 C 
ATOM     12  H12 UNL     1       8.964  14.607  44.809  1.00  0.00     0.277 HD
ATOM     13  H11 UNL     1       8.209  14.949  45.955  1.00  0.00     0.277 HD
ENDBRANCH   1   8
TORSDOF 2
ENDMDL
MODEL 3
REMARK VINA RESULT: -4.970329713      2.130      3.574
REMARK  2 active torsions:
REMARK  status: ('A' for Active; 'I' for Inactive)
REMARK    1  A    between atoms: C4_4  and  O1_5 
REMARK    2  A    between atoms: O1_5  and  C5_6 
ROOT
HETATM    1  O1  UNL     1      12.296  13.915  45.331  1.00  0.00    -0.377 OA
ENDROOT
BRANCH   1   2
HETATM    2  C4  UNL     1      12.862  15.207  45.273  1.00  0.00     0.122 C 
HETATM    3  C3  UNL     1      14.305  15.164  45.704  1.00  0.00     0.032 C 
HETATM    4  C2  UNL     1      15.195  15.898  44.719  1.00  0.00     0.002 C 
HETATM    5  C1  UNL     1      15.067  15.368  43.327  1.00  0.00     0.000 C 
HETATM    6  C9  UNL     1      13.673  14.887  42.997  1.00  0.00     0.002 C 
HETATM    7  C8  UNL     1      12.700  15.664  43.836  1.00  0.00     0.032 C 
ENDBRANCH   1   2
BRANCH   1   8
HETATM    8  C5  UNL     1      10.943  14.003  45.115  1.00  0.00     0.173 C 
HETATM    9  C6  UNL     1      10.211  14.498  46.367  1.00  0.00     0.265 C 
HETATM   10  N1  UNL     1      10.400  13.147  46.894  1.00  0.00    -0.070 N 
HETATM   11  C7  UNL     1      10.262  12.700  45.500  1.00  0.00     0.265 C 
ATOM     12  H12 UNL     1      11.211  12.899  47.461  1.00  0.00     0.277 HD
ATOM     13  H11 UNL     1       9.813  12.773  47.639  1.00  0.00     0.277 HD
ENDBRANCH   1   8
TORSDOF 2
ENDMDL
MODEL 4
REMARK VINA RESULT: -4.848816533      2.358      3.490
REMARK  2 active torsions:
REMARK  status: ('A' for Active; 'I' for Inactive)
REMARK    1  A    between atoms: C4_4  and  O1_5 
REMARK    2  A    between atoms: O1_5  and  C5_6 
ROOT
HETATM    1  O1  UNL     1      13.737  13.379  42.931  1.00  0.00    -0.377 OA
ENDROOT
BRANCH   1   2
HETATM    2  C4  UNL     1      13.733  13.357  41.520  1.00  0.00     0.122 C 
HETATM    3  C3  UNL     1      15.145  13.352  40.994  1.00  0.00     0.032 C 
HETATM    4  C2  UNL     1      15.336  12.277  39.941  1.00  0.00     0.002 C 
HETATM    5  C1  UNL     1      14.977  10.915  40.442  1.00  0.00     0.000 C 
HETATM    6  C9  UNL     1      13.835  10.924  41.430  1.00  0.00     0.002 C 
HETATM    7  C8  UNL     1      12.965  12.110  41.128  1.00  0.00     0.032 C 
ENDBRANCH   1   2
BRANCH   1   8
HETATM    8  C5  UNL     1      13.215  14.573  43.367  1.00  0.00     0.173 C 
HETATM    9  C6  UNL     1      14.108  15.213  44.435  1.00  0.00     0.265 C 
HETATM   10  N1  UNL     1      13.550  14.223  45.356  1.00  0.00    -0.070 N 
HETATM   11  C7  UNL     1      12.314  14.346  44.569  1.00  0.00     0.265 C 
ATOM     12  H12 UNL     1      14.000  13.322  45.514  1.00  0.00     0.277 HD
ATOM     13  H11 UNL     1      13.561  14.362  46.366  1.00  0.00     0.277 HD
ENDBRANCH   1   8
TORSDOF 2
ENDMDL
MODEL 5
REMARK VINA RESULT: -4.807798615      2.372      3.305
REMARK  2 active torsions:
REMARK  status: ('A' for Active; 'I' for Inactive)
REMARK    1  A    between atoms: C4_4  and  O1_5 
REMARK    2  A    between atoms: O1_5  and  C5_6 
ROOT
HETATM    1  O1  UNL     1      11.873  15.280  44.617  1.00  0.00    -0.377 OA
ENDROOT
BRANCH   1   2
HETATM    2  C4  UNL     1      12.752  14.180  44.725  1.00  0.00     0.122 C 
HETATM    3  C3  UNL     1      12.127  12.952  44.116  1.00  0.00     0.032 C 
HETATM    4  C2  UNL     1      13.089  12.256  43.172  1.00  0.00     0.002 C 
HETATM    5  C1  UNL     1      13.585  13.160  42.090  1.00  0.00     0.000 C 
HETATM    6  C9  UNL     1      13.743  14.595  42.537  1.00  0.00     0.002 C 
HETATM    7  C8  UNL     1      14.024  14.597  44.012  1.00  0.00     0.032 C 
ENDBRANCH   1   2
BRANCH   1   8
HETATM    8  C5  UNL     1      10.733  15.020  45.337  1.00  0.00     0.173 C 
HETATM    9  C6  UNL     1       9.853  16.269  45.455  1.00  0.00     0.265 C 
HETATM   10  N1  UNL     1      10.811  16.731  46.458  1.00  0.00    -0.070 N 
HETATM   11  C7  UNL     1      10.964  15.312  46.810  1.00  0.00     0.265 C 
ATOM     12  H12 UNL     1      11.612  17.313  46.211  1.00  0.00     0.277 HD
ATOM     13  H11 UNL     1      10.565  17.435  47.155  1.00  0.00     0.277 HD
ENDBRANCH   1   8
TORSDOF 2
ENDMDL
