MODEL 1
REMARK VINA RESULT: -4.868088150      0.000      0.000
REMARK  1 active torsions:
REMARK  status: ('A' for Active; 'I' for Inactive)
REMARK    1  A    between atoms: O1_2  and  C2_3 
ROOT
HETATM    1  C2  UNL     1      15.158  16.051  43.057  1.00  0.00     0.246 C 
HETATM    2  C3  UNL     1      13.820  16.628  42.814  1.00  0.00     0.122 C 
HETATM    3  N1  UNL     1      12.777  17.093  42.607  1.00  0.00    -0.192 NA
HETATM    4  C4  UNL     1      15.520  16.440  44.486  1.00  0.00     0.309 C 
HETATM    5  N2  UNL     1      14.373  16.145  45.318  1.00  0.00    -0.070 N 
ATOM      6  H21 UNL     1      13.511  16.557  44.962  1.00  0.00     0.277 HD
ATOM      7  H22 UNL     1      14.400  16.634  46.213  1.00  0.00     0.277 HD
HETATM    8  C5  UNL     1      14.287  14.725  45.466  1.00  0.00     0.234 C 
HETATM    9  C6  UNL     1      13.321  14.103  44.506  1.00  0.00     0.047 C 
HETATM   10  C7  UNL     1      13.790  14.072  43.091  1.00  0.00     0.119 C 
HETATM   11  N3  UNL     1      15.076  14.647  42.868  1.00  0.00    -0.378 N 
ATOM     12  H3  UNL     1      15.882  14.086  42.592  1.00  0.00     0.157 HD
ENDROOT
BRANCH   1  13
HETATM   13  O1  UNL     1      16.033  16.703  42.222  1.00  0.00    -0.352 OA
HETATM   14  C1  UNL     1      16.005  16.256  40.916  1.00  0.00     0.206 C 
ENDBRANCH   1  13
TORSDOF 1
ENDMDL
MODEL 2
REMARK VINA RESULT: -4.822614186      3.311      4.400
REMARK  1 active torsions:
REMARK  status: ('A' for Active; 'I' for Inactive)
REMARK    1  A    between atoms: O1_2  and  C2_3 
ROOT
HETATM    1  C2  UNL     1      11.801  16.350  45.067  1.00  0.00     0.246 C 
HETATM    2  C3  UNL     1      12.410  15.007  45.158  1.00  0.00     0.122 C 
HETATM    3  N1  UNL     1      12.895  13.955  45.210  1.00  0.00    -0.192 NA
HETATM    4  C4  UNL     1      10.301  16.134  45.231  1.00  0.00     0.309 C 
HETATM    5  N2  UNL     1      10.113  15.261  46.370  1.00  0.00    -0.070 N 
ATOM      6  H21 UNL     1      10.669  14.408  46.310  1.00  0.00     0.277 HD
ATOM      7  H22 UNL     1       9.192  14.822  46.382  1.00  0.00     0.277 HD
HETATM    8  C5  UNL     1      10.382  16.014  47.556  1.00  0.00     0.234 C 
HETATM    9  C6  UNL     1      11.776  15.811  48.063  1.00  0.00     0.047 C 
HETATM   10  C7  UNL     1      12.834  16.460  47.237  1.00  0.00     0.119 C 
HETATM   11  N3  UNL     1      12.360  17.161  46.089  1.00  0.00    -0.378 N 
ATOM     12  H3  UNL     1      12.418  18.176  46.009  1.00  0.00     0.157 HD
ENDROOT
BRANCH   1  13
HETATM   13  O1  UNL     1      12.010  16.799  43.785  1.00  0.00    -0.352 OA
HETATM   14  C1  UNL     1      13.160  17.549  43.631  1.00  0.00     0.206 C 
ENDBRANCH   1  13
TORSDOF 1
ENDMDL
MODEL 3
REMARK VINA RESULT: -4.744400260      1.740      2.698
REMARK  1 active torsions:
REMARK  status: ('A' for Active; 'I' for Inactive)
REMARK    1  A    between atoms: O1_2  and  C2_3 
ROOT
HETATM    1  C2  UNL     1      14.060  14.842  43.198  1.00  0.00     0.246 C 
HETATM    2  C3  UNL     1      15.036  15.407  44.153  1.00  0.00     0.122 C 
HETATM    3  N1  UNL     1      15.817  15.844  44.890  1.00  0.00    -0.192 NA
HETATM    4  C4  UNL     1      13.273  13.799  43.983  1.00  0.00     0.309 C 
HETATM    5  N2  UNL     1      12.884  14.405  45.238  1.00  0.00    -0.070 N 
ATOM      6  H21 UNL     1      13.671  14.820  45.737  1.00  0.00     0.277 HD
ATOM      7  H22 UNL     1      12.622  13.717  45.944  1.00  0.00     0.277 HD
HETATM    8  C5  UNL     1      11.842  15.347  44.971  1.00  0.00     0.234 C 
HETATM    9  C6  UNL     1      12.351  16.750  44.844  1.00  0.00     0.047 C 
HETATM   10  C7  UNL     1      13.112  17.019  43.590  1.00  0.00     0.119 C 
HETATM   11  N3  UNL     1      13.248  15.901  42.715  1.00  0.00    -0.378 N 
ATOM     12  H3  UNL     1      12.793  15.866  41.803  1.00  0.00     0.157 HD
ENDROOT
BRANCH   1  13
HETATM   13  O1  UNL     1      14.781  14.172  42.238  1.00  0.00    -0.352 OA
HETATM   14  C1  UNL     1      15.626  14.980  41.503  1.00  0.00     0.206 C 
ENDBRANCH   1  13
TORSDOF 1
ENDMDL
MODEL 4
REMARK VINA RESULT: -4.704750383      1.936      3.188
REMARK  1 active torsions:
REMARK  status: ('A' for Active; 'I' for Inactive)
REMARK    1  A    between atoms: O1_2  and  C2_3 
ROOT
HETATM    1  C2  UNL     1      14.556  15.541  44.579  1.00  0.00     0.246 C 
HETATM    2  C3  UNL     1      14.867  15.181  45.978  1.00  0.00     0.122 C 
HETATM    3  N1  UNL     1      15.131  14.899  47.071  1.00  0.00    -0.192 NA
HETATM    4  C4  UNL     1      13.660  14.424  44.056  1.00  0.00     0.309 C 
HETATM    5  N2  UNL     1      12.637  14.188  45.053  1.00  0.00    -0.070 N 
ATOM      6  H21 UNL     1      13.023  14.034  45.985  1.00  0.00     0.277 HD
ATOM      7  H22 UNL     1      12.181  13.282  44.943  1.00  0.00     0.277 HD
HETATM    8  C5  UNL     1      11.716  15.281  45.010  1.00  0.00     0.234 C 
HETATM    9  C6  UNL     1      12.006  16.321  46.047  1.00  0.00     0.047 C 
HETATM   10  C7  UNL     1      13.218  17.145  45.774  1.00  0.00     0.119 C 
HETATM   11  N3  UNL     1      13.919  16.809  44.578  1.00  0.00    -0.378 N 
ATOM     12  H3  UNL     1      13.960  17.438  43.776  1.00  0.00     0.157 HD
ENDROOT
BRANCH   1  13
HETATM   13  O1  UNL     1      15.737  15.478  43.878  1.00  0.00    -0.352 OA
HETATM   14  C1  UNL     1      15.596  15.045  42.574  1.00  0.00     0.206 C 
ENDBRANCH   1  13
TORSDOF 1
ENDMDL
MODEL 5
REMARK VINA RESULT: -4.623638277      1.381      2.049
REMARK  1 active torsions:
REMARK  status: ('A' for Active; 'I' for Inactive)
REMARK    1  A    between atoms: O1_2  and  C2_3 
ROOT
HETATM    1  C2  UNL     1      14.915  15.883  44.104  1.00  0.00     0.246 C 
HETATM    2  C3  UNL     1      13.760  16.563  43.480  1.00  0.00     0.122 C 
HETATM    3  N1  UNL     1      12.865  17.114  42.991  1.00  0.00    -0.192 NA
HETATM    4  C4  UNL     1      14.388  15.290  45.406  1.00  0.00     0.309 C 
HETATM    5  N2  UNL     1      13.147  14.610  45.100  1.00  0.00    -0.070 N 
ATOM      6  H21 UNL     1      12.487  15.202  44.595  1.00  0.00     0.277 HD
ATOM      7  H22 UNL     1      12.575  14.443  45.928  1.00  0.00     0.277 HD
HETATM    8  C5  UNL     1      13.462  13.408  44.393  1.00  0.00     0.234 C 
HETATM    9  C6  UNL     1      13.346  13.564  42.908  1.00  0.00     0.047 C 
HETATM   10  C7  UNL     1      14.425  14.384  42.287  1.00  0.00     0.119 C 
HETATM   11  N3  UNL     1      15.393  14.900  43.199  1.00  0.00    -0.378 N 
ATOM     12  H3  UNL     1      16.362  14.584  43.201  1.00  0.00     0.157 HD
ENDROOT
BRANCH   1  13
HETATM   13  O1  UNL     1      15.822  16.861  44.439  1.00  0.00    -0.352 OA
HETATM   14  C1  UNL     1      16.093  16.938  45.791  1.00  0.00     0.206 C 
ENDBRANCH   1  13
TORSDOF 1
ENDMDL
