MODEL 1
REMARK VINA RESULT: -5.687603169      0.000      0.000
REMARK  5 active torsions:
REMARK  status: ('A' for Active; 'I' for Inactive)
REMARK    1  A    between atoms: C3_3  and  C4_4 
REMARK    2  A    between atoms: C4_4  and  C5_5 
REMARK    3  A    between atoms: C5_5  and  N1_6 
REMARK    4  A    between atoms: C9_13  and  N2_14 
REMARK    5  A    between atoms: N2_14  and  N3_15 
ROOT
HETATM    1  C1  UNL     1      12.621   9.944  42.773  1.00  0.00     0.012 C 
HETATM    2  C2  UNL     1      14.015  10.472  42.803  1.00  0.00     0.007 C 
HETATM    3  C3  UNL     1      14.102  11.790  42.006  1.00  0.00    -0.008 C 
HETATM    4  C6  UNL     1      14.029  11.466  40.562  1.00  0.00     0.005 C 
HETATM    5  C7  UNL     1      14.987  10.386  40.093  1.00  0.00     0.002 C 
HETATM    6  C8  UNL     1      14.756   9.106  40.855  1.00  0.00     0.023 C 
HETATM    7  C9  UNL     1      14.991   9.460  42.323  1.00  0.00     0.102 C 
ENDROOT
BRANCH   3   8
HETATM    8  C4  UNL     1      12.979  12.659  42.436  1.00  0.00     0.032 C 
BRANCH   8   9
HETATM    9  C5  UNL     1      13.247  13.789  43.342  1.00  0.00     0.230 C 
BRANCH   9  10
HETATM   10  N1  UNL     1      13.163  13.566  44.745  1.00  0.00    -0.079 N 
ATOM     11  H13 UNL     1      13.420  14.423  45.234  1.00  0.00     0.274 HD
ATOM     12  H12 UNL     1      12.181  13.477  45.009  1.00  0.00     0.274 HD
ATOM     13  H11 UNL     1      13.686  12.787  45.144  1.00  0.00     0.274 HD
ENDBRANCH   9  10
ENDBRANCH   8   9
ENDBRANCH   3   8
BRANCH   7  14
HETATM   14  N2  UNL     1      14.955   8.296  43.148  1.00  0.00    -0.143 NA
BRANCH  14  15
HETATM   15  N3  UNL     1      16.180   8.058  43.734  1.00  0.00    -0.348 N 
ATOM     16  H32 UNL     1      16.370   8.215  44.724  1.00  0.00     0.172 HD
ATOM     17  H31 UNL     1      16.856   7.708  43.055  1.00  0.00     0.172 HD
ENDBRANCH  14  15
ENDBRANCH   7  14
TORSDOF 5
ENDMDL
MODEL 2
REMARK VINA RESULT: -5.580475883      4.621      5.761
REMARK  5 active torsions:
REMARK  status: ('A' for Active; 'I' for Inactive)
REMARK    1  A    between atoms: C3_3  and  C4_4 
REMARK    2  A    between atoms: C4_4  and  C5_5 
REMARK    3  A    between atoms: C5_5  and  N1_6 
REMARK    4  A    between atoms: C9_13  and  N2_14 
REMARK    5  A    between atoms: N2_14  and  N3_15 
ROOT
HETATM    1  C1  UNL     1      15.327  15.881  44.116  1.00  0.00     0.012 C 
HETATM    2  C2  UNL     1      14.387  15.989  42.964  1.00  0.00     0.007 C 
HETATM    3  C3  UNL     1      13.271  14.932  43.085  1.00  0.00    -0.008 C 
HETATM    4  C6  UNL     1      13.850  13.606  42.763  1.00  0.00     0.005 C 
HETATM    5  C7  UNL     1      14.634  13.543  41.465  1.00  0.00     0.002 C 
HETATM    6  C8  UNL     1      15.767  14.537  41.482  1.00  0.00     0.023 C 
HETATM    7  C9  UNL     1      15.105  15.902  41.666  1.00  0.00     0.102 C 
ENDROOT
BRANCH   3   8
HETATM    8  C4  UNL     1      12.741  14.982  44.470  1.00  0.00     0.032 C 
BRANCH   8   9
HETATM    9  C5  UNL     1      11.633  15.899  44.786  1.00  0.00     0.230 C 
BRANCH   9  10
HETATM   10  N1  UNL     1      10.483  15.372  45.439  1.00  0.00    -0.079 N 
ATOM     11  H13 UNL     1       9.723  16.048  45.371  1.00  0.00     0.274 HD
ATOM     12  H12 UNL     1      10.110  14.601  44.884  1.00  0.00     0.274 HD
ATOM     13  H11 UNL     1      10.573  15.070  46.410  1.00  0.00     0.274 HD
ENDBRANCH   9  10
ENDBRANCH   8   9
ENDBRANCH   3   8
BRANCH   7  14
HETATM   14  N2  UNL     1      16.056  16.959  41.546  1.00  0.00    -0.143 NA
BRANCH  14  15
HETATM   15  N3  UNL     1      15.459  18.127  41.119  1.00  0.00    -0.348 N 
ATOM     16  H32 UNL     1      14.925  18.742  41.732  1.00  0.00     0.172 HD
ATOM     17  H31 UNL     1      15.622  18.287  40.125  1.00  0.00     0.172 HD
ENDBRANCH  14  15
ENDBRANCH   7  14
TORSDOF 5
ENDMDL
MODEL 3
REMARK VINA RESULT: -5.563287633      4.868      6.468
REMARK  5 active torsions:
REMARK  status: ('A' for Active; 'I' for Inactive)
REMARK    1  A    between atoms: C3_3  and  C4_4 
REMARK    2  A    between atoms: C4_4  and  C5_5 
REMARK    3  A    between atoms: C5_5  and  N1_6 
REMARK    4  A    between atoms: C9_13  and  N2_14 
REMARK    5  A    between atoms: N2_14  and  N3_15 
ROOT
HETATM    1  C1  UNL     1      14.941  17.282  44.104  1.00  0.00     0.012 C 
HETATM    2  C2  UNL     1      14.126  17.049  42.877  1.00  0.00     0.007 C 
HETATM    3  C3  UNL     1      12.973  16.071  43.181  1.00  0.00    -0.008 C 
HETATM    4  C6  UNL     1      13.541  14.710  43.320  1.00  0.00     0.005 C 
HETATM    5  C7  UNL     1      14.451  14.272  42.187  1.00  0.00     0.002 C 
HETATM    6  C8  UNL     1      15.606  15.229  42.034  1.00  0.00     0.023 C 
HETATM    7  C9  UNL     1      14.969  16.587  41.744  1.00  0.00     0.102 C 
ENDROOT
BRANCH   3   8
HETATM    8  C4  UNL     1      12.307  16.523  44.428  1.00  0.00     0.032 C 
BRANCH   8   9
HETATM    9  C5  UNL     1      11.460  15.579  45.177  1.00  0.00     0.230 C 
BRANCH   9  10
HETATM   10  N1  UNL     1      11.872  15.188  46.482  1.00  0.00    -0.079 N 
ATOM     11  H13 UNL     1      11.046  15.040  47.061  1.00  0.00     0.274 HD
ATOM     12  H12 UNL     1      12.255  14.243  46.441  1.00  0.00     0.274 HD
ATOM     13  H11 UNL     1      12.526  15.790  46.984  1.00  0.00     0.274 HD
ENDBRANCH   9  10
ENDBRANCH   8   9
ENDBRANCH   3   8
BRANCH   7  14
HETATM   14  N2  UNL     1      15.959  17.565  41.423  1.00  0.00    -0.143 NA
BRANCH  14  15
HETATM   15  N3  UNL     1      15.400  18.659  40.797  1.00  0.00    -0.348 N 
ATOM     16  H32 UNL     1      15.395  19.596  41.200  1.00  0.00     0.172 HD
ATOM     17  H31 UNL     1      15.002  18.407  39.892  1.00  0.00     0.172 HD
ENDBRANCH  14  15
ENDBRANCH   7  14
TORSDOF 5
ENDMDL
MODEL 4
REMARK VINA RESULT: -5.327676305      2.073      2.566
REMARK  5 active torsions:
REMARK  status: ('A' for Active; 'I' for Inactive)
REMARK    1  A    between atoms: C3_3  and  C4_4 
REMARK    2  A    between atoms: C4_4  and  C5_5 
REMARK    3  A    between atoms: C5_5  and  N1_6 
REMARK    4  A    between atoms: C9_13  and  N2_14 
REMARK    5  A    between atoms: N2_14  and  N3_15 
ROOT
HETATM    1  C1  UNL     1      12.464  11.961  41.284  1.00  0.00     0.012 C 
HETATM    2  C2  UNL     1      13.791  11.714  41.917  1.00  0.00     0.007 C 
HETATM    3  C3  UNL     1      14.269  12.975  42.664  1.00  0.00    -0.008 C 
HETATM    4  C6  UNL     1      14.698  13.977  41.659  1.00  0.00     0.005 C 
HETATM    5  C7  UNL     1      15.668  13.465  40.611  1.00  0.00     0.002 C 
HETATM    6  C8  UNL     1      15.072  12.300  39.862  1.00  0.00     0.023 C 
HETATM    7  C9  UNL     1      14.788  11.238  40.923  1.00  0.00     0.102 C 
ENDROOT
BRANCH   3   8
HETATM    8  C4  UNL     1      13.142  13.470  43.493  1.00  0.00     0.032 C 
BRANCH   8   9
HETATM    9  C5  UNL     1      13.426  14.311  44.669  1.00  0.00     0.230 C 
BRANCH   9  10
HETATM   10  N1  UNL     1      12.361  14.596  45.570  1.00  0.00    -0.079 N 
ATOM     11  H13 UNL     1      11.485  14.270  45.163  1.00  0.00     0.274 HD
ATOM     12  H12 UNL     1      12.440  13.984  46.382  1.00  0.00     0.274 HD
ATOM     13  H11 UNL     1      12.241  15.558  45.889  1.00  0.00     0.274 HD
ENDBRANCH   9  10
ENDBRANCH   8   9
ENDBRANCH   3   8
BRANCH   7  14
HETATM   14  N2  UNL     1      14.360  10.014  40.328  1.00  0.00    -0.143 NA
BRANCH  14  15
HETATM   15  N3  UNL     1      15.434   9.240  39.943  1.00  0.00    -0.348 N 
ATOM     16  H32 UNL     1      15.926   9.361  39.057  1.00  0.00     0.172 HD
ATOM     17  H31 UNL     1      15.665   8.543  40.652  1.00  0.00     0.172 HD
ENDBRANCH  14  15
ENDBRANCH   7  14
TORSDOF 5
ENDMDL
MODEL 5
REMARK VINA RESULT: -5.280322922      4.499      6.617
REMARK  5 active torsions:
REMARK  status: ('A' for Active; 'I' for Inactive)
REMARK    1  A    between atoms: C3_3  and  C4_4 
REMARK    2  A    between atoms: C4_4  and  C5_5 
REMARK    3  A    between atoms: C5_5  and  N1_6 
REMARK    4  A    between atoms: C9_13  and  N2_14 
REMARK    5  A    between atoms: N2_14  and  N3_15 
ROOT
HETATM    1  C1  UNL     1      13.821  14.528  45.085  1.00  0.00     0.012 C 
HETATM    2  C2  UNL     1      12.815  14.922  44.057  1.00  0.00     0.007 C 
HETATM    3  C3  UNL     1      13.525  15.427  42.784  1.00  0.00    -0.008 C 
HETATM    4  C6  UNL     1      14.081  16.772  43.063  1.00  0.00     0.005 C 
HETATM    5  C7  UNL     1      13.102  17.761  43.669  1.00  0.00     0.002 C 
HETATM    6  C8  UNL     1      12.541  17.228  44.963  1.00  0.00     0.023 C 
HETATM    7  C9  UNL     1      11.850  15.916  44.594  1.00  0.00     0.102 C 
ENDROOT
BRANCH   3   8
HETATM    8  C4  UNL     1      14.586  14.451  42.435  1.00  0.00     0.032 C 
BRANCH   8   9
HETATM    9  C5  UNL     1      15.701  14.875  41.570  1.00  0.00     0.230 C 
BRANCH   9  10
HETATM   10  N1  UNL     1      16.069  14.037  40.480  1.00  0.00    -0.079 N 
ATOM     11  H13 UNL     1      16.620  14.579  39.816  1.00  0.00     0.274 HD
ATOM     12  H12 UNL     1      16.760  13.358  40.800  1.00  0.00     0.274 HD
ATOM     13  H11 UNL     1      15.330  13.546  39.975  1.00  0.00     0.274 HD
ENDBRANCH   9  10
ENDBRANCH   8   9
ENDBRANCH   3   8
BRANCH   7  14
HETATM   14  N2  UNL     1      11.138  15.375  45.706  1.00  0.00    -0.143 NA
BRANCH  14  15
HETATM   15  N3  UNL     1       9.781  15.330  45.461  1.00  0.00    -0.348 N 
ATOM     16  H32 UNL     1       9.365  14.803  44.694  1.00  0.00     0.172 HD
ATOM     17  H31 UNL     1       9.262  15.887  46.141  1.00  0.00     0.172 HD
ENDBRANCH  14  15
ENDBRANCH   7  14
TORSDOF 5
ENDMDL
