MODEL 1
REMARK VINA RESULT: -9.099665080      0.000      0.000
REMARK  8 active torsions:
REMARK  status: ('A' for Active; 'I' for Inactive)
REMARK    1  A    between atoms: O1_1  and  C1_3 
REMARK    2  A    between atoms: C1_3  and  N1_4 
REMARK    3  A    between atoms: C1_3  and  C4_14 
REMARK    4  A    between atoms: N1_4  and  C2_6 
REMARK    5  A    between atoms: C6_16  and  C7_17 
REMARK       I    between atoms: C7_17  and  N5_19 
REMARK    6  A    between atoms: N5_19  and  N6_21 
REMARK    7  A    between atoms: C8_23  and  C9_24 
REMARK    8  A    between atoms: C12_27  and  N7_28 
ROOT
HETATM    1  C4  UNL     1     112.688  91.760  28.712  1.00  0.00     0.108 A 
HETATM    2  C5  UNL     1     112.040  92.209  27.543  1.00  0.00     0.081 A 
HETATM    3  C6  UNL     1     112.544  93.446  27.222  1.00  0.00     0.170 A 
HETATM    4  O6  UNL     1     113.436  93.729  28.131  1.00  0.00    -0.232 OA
HETATM    5  N8  UNL     1     113.521  92.769  28.984  1.00  0.00    -0.256 N 
ATOM      6  H8  UNL     1     114.155  92.777  29.783  1.00  0.00     0.195 HD
ENDROOT
BRANCH   3   7
HETATM    7  C7  UNL     1     112.146  94.282  26.068  1.00  0.00     0.295 C 
HETATM    8  O2  UNL     1     113.019  94.906  25.431  1.00  0.00    -0.264 OA
HETATM    9  N5  UNL     1     110.795  94.389  25.671  1.00  0.00    -0.264 N 
ATOM     10  H5  UNL     1     110.083  93.877  26.192  1.00  0.00     0.190 HD
BRANCH   9  11
HETATM   11  N6  UNL     1     110.409  95.173  24.588  1.00  0.00    -0.306 N 
HETATM   12  C8  UNL     1     110.069  94.696  23.448  1.00  0.00     0.144 C 
ATOM     13  H6  UNL     1     110.396  96.186  24.708  1.00  0.00     0.186 HD
BRANCH  12  14
HETATM   14  C9  UNL     1     109.686  95.622  22.393  1.00  0.00     0.095 A 
HETATM   15  C10 UNL     1     108.463  95.704  21.746  1.00  0.00     0.043 A 
HETATM   16  C11 UNL     1     108.528  96.717  20.816  1.00  0.00     0.065 A 
HETATM   17  C12 UNL     1     109.804  97.225  20.928  1.00  0.00     0.215 A 
HETATM   18  O5  UNL     1     110.435  96.552  21.860  1.00  0.00    -0.287 OA
BRANCH  17  19
HETATM   19  N7  UNL     1     110.312  98.309  20.137  1.00  0.00    -0.090 N 
HETATM   20  O3  UNL     1     109.568  99.259  19.842  1.00  0.00    -0.530 OA
HETATM   21  O4  UNL     1     111.619  98.297  19.710  1.00  0.00    -0.530 OA
ENDBRANCH  17  19
ENDBRANCH  12  14
ENDBRANCH   9  11
ENDBRANCH   3   7
BRANCH   1  22
HETATM   22  C1  UNL     1     112.454  90.504  29.389  1.00  0.00     0.171 C 
BRANCH  22  23
HETATM   23  O1  UNL     1     111.777  90.624  30.497  1.00  0.00    -0.344 OA
ATOM     24  H1  UNL     1     111.924  91.436  30.968  1.00  0.00     0.219 HD
ENDBRANCH  22  23
BRANCH  22  25
HETATM   25  N1  UNL     1     112.820  89.211  29.070  1.00  0.00    -0.319 N 
ATOM     26  H1  UNL     1     113.426  88.748  29.746  1.00  0.00     0.169 HD
BRANCH  25  27
HETATM   27  C2  UNL     1     112.473  88.440  27.936  1.00  0.00     0.140 A 
HETATM   28  C3  UNL     1     111.768  88.982  26.839  1.00  0.00     0.158 A 
HETATM   29  N2  UNL     1     111.610  87.983  25.955  1.00  0.00    -0.294 N 
HETATM   30  N3  UNL     1     112.153  86.874  26.405  1.00  0.00    -0.241 N 
ATOM     31  H2  UNL     1     111.135  88.073  25.057  1.00  0.00     0.187 HD
HETATM   32  N4  UNL     1     112.654  87.181  27.580  1.00  0.00    -0.270 N 
ATOM     33  H3  UNL     1     112.179  85.967  25.940  1.00  0.00     0.208 HD
ATOM     34  H4  UNL     1     113.142  86.504  28.167  1.00  0.00     0.190 HD
ENDBRANCH  25  27
ENDBRANCH  22  25
ENDBRANCH   1  22
TORSDOF 8
ENDMDL
MODEL 2
REMARK VINA RESULT: -9.069833494      2.119      3.722
REMARK  8 active torsions:
REMARK  status: ('A' for Active; 'I' for Inactive)
REMARK    1  A    between atoms: O1_1  and  C1_3 
REMARK    2  A    between atoms: C1_3  and  N1_4 
REMARK    3  A    between atoms: C1_3  and  C4_14 
REMARK    4  A    between atoms: N1_4  and  C2_6 
REMARK    5  A    between atoms: C6_16  and  C7_17 
REMARK       I    between atoms: C7_17  and  N5_19 
REMARK    6  A    between atoms: N5_19  and  N6_21 
REMARK    7  A    between atoms: C8_23  and  C9_24 
REMARK    8  A    between atoms: C12_27  and  N7_28 
ROOT
HETATM    1  C4  UNL     1     112.082  89.911  27.937  1.00  0.00     0.108 A 
HETATM    2  C5  UNL     1     111.755  91.063  27.192  1.00  0.00     0.081 A 
HETATM    3  C6  UNL     1     111.392  90.665  25.928  1.00  0.00     0.170 A 
HETATM    4  O6  UNL     1     111.490  89.365  25.907  1.00  0.00    -0.232 OA
HETATM    5  N8  UNL     1     111.885  88.930  27.053  1.00  0.00    -0.256 N 
ATOM      6  H8  UNL     1     112.032  87.943  27.262  1.00  0.00     0.195 HD
ENDROOT
BRANCH   3   7
HETATM    7  C7  UNL     1     110.972  91.550  24.818  1.00  0.00     0.295 C 
HETATM    8  O2  UNL     1     111.129  91.171  23.639  1.00  0.00    -0.264 OA
HETATM    9  N5  UNL     1     110.396  92.815  25.066  1.00  0.00    -0.264 N 
ATOM     10  H5  UNL     1     110.268  93.121  26.030  1.00  0.00     0.190 HD
BRANCH   9  11
HETATM   11  N6  UNL     1     109.999  93.655  24.029  1.00  0.00    -0.306 N 
HETATM   12  C8  UNL     1     110.400  94.865  23.900  1.00  0.00     0.144 C 
ATOM     13  H6  UNL     1     109.351  93.286  23.333  1.00  0.00     0.186 HD
BRANCH  12  14
HETATM   14  C9  UNL     1     109.910  95.643  22.772  1.00  0.00     0.095 A 
HETATM   15  C10 UNL     1     108.667  95.556  22.165  1.00  0.00     0.043 A 
HETATM   16  C11 UNL     1     108.618  96.469  21.137  1.00  0.00     0.065 A 
HETATM   17  C12 UNL     1     109.848  97.090  21.150  1.00  0.00     0.215 A 
HETATM   18  O5  UNL     1     110.561  96.571  22.120  1.00  0.00    -0.287 OA
BRANCH  17  19
HETATM   19  N7  UNL     1     110.239  98.125  20.236  1.00  0.00    -0.090 N 
HETATM   20  O3  UNL     1     109.418  98.995  19.902  1.00  0.00    -0.530 OA
HETATM   21  O4  UNL     1     111.519  98.153  19.734  1.00  0.00    -0.530 OA
ENDBRANCH  17  19
ENDBRANCH  12  14
ENDBRANCH   9  11
ENDBRANCH   3   7
BRANCH   1  22
HETATM   22  C1  UNL     1     112.516  89.882  29.316  1.00  0.00     0.171 C 
BRANCH  22  23
HETATM   23  O1  UNL     1     113.252  88.847  29.613  1.00  0.00    -0.344 OA
ATOM     24  H1  UNL     1     113.444  88.272  28.882  1.00  0.00     0.219 HD
ENDBRANCH  22  23
BRANCH  22  25
HETATM   25  N1  UNL     1     112.288  90.752  30.365  1.00  0.00    -0.319 N 
ATOM     26  H1  UNL     1     111.379  90.662  30.818  1.00  0.00     0.169 HD
BRANCH  25  27
HETATM   27  C2  UNL     1     113.138  91.749  30.898  1.00  0.00     0.140 A 
HETATM   28  C3  UNL     1     113.229  92.003  32.284  1.00  0.00     0.158 A 
HETATM   29  N2  UNL     1     114.118  93.000  32.431  1.00  0.00    -0.294 N 
HETATM   30  N3  UNL     1     114.583  93.385  31.264  1.00  0.00    -0.241 N 
ATOM     31  H2  UNL     1     114.394  93.403  33.327  1.00  0.00     0.187 HD
HETATM   32  N4  UNL     1     113.982  92.623  30.378  1.00  0.00    -0.270 N 
ATOM     33  H3  UNL     1     115.267  94.120  31.084  1.00  0.00     0.208 HD
ATOM     34  H4  UNL     1     114.152  92.700  29.376  1.00  0.00     0.190 HD
ENDBRANCH  25  27
ENDBRANCH  22  25
ENDBRANCH   1  22
TORSDOF 8
ENDMDL
MODEL 3
REMARK VINA RESULT: -9.006433308      2.159      3.640
REMARK  8 active torsions:
REMARK  status: ('A' for Active; 'I' for Inactive)
REMARK    1  A    between atoms: O1_1  and  C1_3 
REMARK    2  A    between atoms: C1_3  and  N1_4 
REMARK    3  A    between atoms: C1_3  and  C4_14 
REMARK    4  A    between atoms: N1_4  and  C2_6 
REMARK    5  A    between atoms: C6_16  and  C7_17 
REMARK       I    between atoms: C7_17  and  N5_19 
REMARK    6  A    between atoms: N5_19  and  N6_21 
REMARK    7  A    between atoms: C8_23  and  C9_24 
REMARK    8  A    between atoms: C12_27  and  N7_28 
ROOT
HETATM    1  C4  UNL     1     111.907  89.734  27.462  1.00  0.00     0.108 A 
HETATM    2  C5  UNL     1     111.488  90.928  26.839  1.00  0.00     0.081 A 
HETATM    3  C6  UNL     1     111.179  90.642  25.531  1.00  0.00     0.170 A 
HETATM    4  O6  UNL     1     111.395  89.366  25.370  1.00  0.00    -0.232 OA
HETATM    5  N8  UNL     1     111.811  88.843  26.470  1.00  0.00    -0.256 N 
ATOM      6  H8  UNL     1     112.044  87.855  26.574  1.00  0.00     0.195 HD
ENDROOT
BRANCH   3   7
HETATM    7  C7  UNL     1     110.696  91.604  24.515  1.00  0.00     0.295 C 
HETATM    8  O2  UNL     1     109.659  91.347  23.871  1.00  0.00    -0.264 OA
HETATM    9  N5  UNL     1     111.387  92.808  24.259  1.00  0.00    -0.264 N 
ATOM     10  H5  UNL     1     112.235  93.016  24.787  1.00  0.00     0.190 HD
BRANCH   9  11
HETATM   11  N6  UNL     1     110.943  93.720  23.305  1.00  0.00    -0.306 N 
HETATM   12  C8  UNL     1     110.277  94.778  23.586  1.00  0.00     0.144 C 
ATOM     13  H6  UNL     1     111.160  93.534  22.325  1.00  0.00     0.186 HD
BRANCH  12  14
HETATM   14  C9  UNL     1     109.868  95.651  22.497  1.00  0.00     0.095 A 
HETATM   15  C10 UNL     1     108.648  95.663  21.838  1.00  0.00     0.043 A 
HETATM   16  C11 UNL     1     108.682  96.644  20.874  1.00  0.00     0.065 A 
HETATM   17  C12 UNL     1     109.936  97.206  20.977  1.00  0.00     0.215 A 
HETATM   18  O5  UNL     1     110.584  96.591  21.936  1.00  0.00    -0.287 OA
BRANCH  17  19
HETATM   19  N7  UNL     1     110.409  98.281  20.152  1.00  0.00    -0.090 N 
HETATM   20  O3  UNL     1     111.585  98.279  19.753  1.00  0.00    -0.530 OA
HETATM   21  O4  UNL     1     109.563  99.307  19.805  1.00  0.00    -0.530 OA
ENDBRANCH  17  19
ENDBRANCH  12  14
ENDBRANCH   9  11
ENDBRANCH   3   7
BRANCH   1  22
HETATM   22  C1  UNL     1     112.323  89.590  28.839  1.00  0.00     0.171 C 
BRANCH  22  23
HETATM   23  O1  UNL     1     113.030  88.518  29.064  1.00  0.00    -0.344 OA
ATOM     24  H1  UNL     1     112.653  87.713  28.730  1.00  0.00     0.219 HD
ENDBRANCH  22  23
BRANCH  22  25
HETATM   25  N1  UNL     1     112.102  90.383  29.948  1.00  0.00    -0.319 N 
ATOM     26  H1  UNL     1     111.208  90.239  30.418  1.00  0.00     0.169 HD
BRANCH  25  27
HETATM   27  C2  UNL     1     112.941  91.366  30.523  1.00  0.00     0.140 A 
HETATM   28  C3  UNL     1     113.453  92.452  29.780  1.00  0.00     0.158 A 
HETATM   29  N2  UNL     1     114.200  93.177  30.629  1.00  0.00    -0.294 N 
HETATM   30  N3  UNL     1     114.196  92.639  31.828  1.00  0.00    -0.241 N 
ATOM     31  H2  UNL     1     114.701  94.029  30.378  1.00  0.00     0.187 HD
HETATM   32  N4  UNL     1     113.440  91.568  31.730  1.00  0.00    -0.270 N 
ATOM     33  H3  UNL     1     114.677  92.980  32.660  1.00  0.00     0.208 HD
ATOM     34  H4  UNL     1     113.256  90.946  32.517  1.00  0.00     0.190 HD
ENDBRANCH  25  27
ENDBRANCH  22  25
ENDBRANCH   1  22
TORSDOF 8
ENDMDL
MODEL 4
REMARK VINA RESULT: -8.927604849      1.130      1.258
REMARK  8 active torsions:
REMARK  status: ('A' for Active; 'I' for Inactive)
REMARK    1  A    between atoms: O1_1  and  C1_3 
REMARK    2  A    between atoms: C1_3  and  N1_4 
REMARK    3  A    between atoms: C1_3  and  C4_14 
REMARK    4  A    between atoms: N1_4  and  C2_6 
REMARK    5  A    between atoms: C6_16  and  C7_17 
REMARK       I    between atoms: C7_17  and  N5_19 
REMARK    6  A    between atoms: N5_19  and  N6_21 
REMARK    7  A    between atoms: C8_23  and  C9_24 
REMARK    8  A    between atoms: C12_27  and  N7_28 
ROOT
HETATM    1  C4  UNL     1     112.622  91.343  28.425  1.00  0.00     0.108 A 
HETATM    2  C5  UNL     1     111.857  91.445  27.244  1.00  0.00     0.081 A 
HETATM    3  C6  UNL     1     111.906  92.749  26.815  1.00  0.00     0.170 A 
HETATM    4  O6  UNL     1     112.648  93.394  27.673  1.00  0.00    -0.232 OA
HETATM    5  N8  UNL     1     113.058  92.594  28.594  1.00  0.00    -0.256 N 
ATOM      6  H8  UNL     1     113.652  92.885  29.371  1.00  0.00     0.195 HD
ENDROOT
BRANCH   3   7
HETATM    7  C7  UNL     1     111.244  93.301  25.612  1.00  0.00     0.295 C 
HETATM    8  O2  UNL     1     110.872  92.527  24.706  1.00  0.00    -0.264 OA
HETATM    9  N5  UNL     1     111.023  94.689  25.468  1.00  0.00    -0.264 N 
ATOM     10  H5  UNL     1     111.326  95.319  26.210  1.00  0.00     0.190 HD
BRANCH   9  11
HETATM   11  N6  UNL     1     110.402  95.219  24.340  1.00  0.00    -0.306 N 
HETATM   12  C8  UNL     1     111.015  95.897  23.443  1.00  0.00     0.144 C 
ATOM     13  H6  UNL     1     109.401  95.057  24.222  1.00  0.00     0.186 HD
BRANCH  12  14
HETATM   14  C9  UNL     1     110.252  96.399  22.310  1.00  0.00     0.095 A 
HETATM   15  C10 UNL     1     109.035  95.930  21.838  1.00  0.00     0.043 A 
HETATM   16  C11 UNL     1     108.668  96.687  20.750  1.00  0.00     0.065 A 
HETATM   17  C12 UNL     1     109.684  97.604  20.590  1.00  0.00     0.215 A 
HETATM   18  O5  UNL     1     110.579  97.392  21.524  1.00  0.00    -0.287 OA
BRANCH  17  19
HETATM   19  N7  UNL     1     109.715  98.604  19.561  1.00  0.00    -0.090 N 
HETATM   20  O3  UNL     1     109.901  98.267  18.380  1.00  0.00    -0.530 OA
HETATM   21  O4  UNL     1     109.538  99.929  19.882  1.00  0.00    -0.530 OA
ENDBRANCH  17  19
ENDBRANCH  12  14
ENDBRANCH   9  11
ENDBRANCH   3   7
BRANCH   1  22
HETATM   22  C1  UNL     1     112.833  90.143  29.203  1.00  0.00     0.171 C 
BRANCH  22  23
HETATM   23  O1  UNL     1     113.614  90.316  30.233  1.00  0.00    -0.344 OA
ATOM     24  H1  UNL     1     114.034  91.167  30.276  1.00  0.00     0.219 HD
ENDBRANCH  22  23
BRANCH  22  25
HETATM   25  N1  UNL     1     112.357  88.856  29.046  1.00  0.00    -0.319 N 
ATOM     26  H1  UNL     1     111.782  88.505  29.811  1.00  0.00     0.169 HD
BRANCH  25  27
HETATM   27  C2  UNL     1     112.556  87.956  27.973  1.00  0.00     0.140 A 
HETATM   28  C3  UNL     1     111.726  87.944  26.831  1.00  0.00     0.158 A 
HETATM   29  N2  UNL     1     112.196  86.977  26.026  1.00  0.00    -0.294 N 
HETATM   30  N3  UNL     1     113.241  86.390  26.566  1.00  0.00    -0.241 N 
ATOM     31  H2  UNL     1     111.797  86.731  25.120  1.00  0.00     0.187 HD
HETATM   32  N4  UNL     1     113.427  86.995  27.718  1.00  0.00    -0.270 N 
ATOM     33  H3  UNL     1     113.792  85.627  26.174  1.00  0.00     0.208 HD
ATOM     34  H4  UNL     1     114.178  86.743  28.360  1.00  0.00     0.190 HD
ENDBRANCH  25  27
ENDBRANCH  22  25
ENDBRANCH   1  22
TORSDOF 8
ENDMDL
MODEL 5
REMARK VINA RESULT: -8.898171272      2.466      3.768
REMARK  8 active torsions:
REMARK  status: ('A' for Active; 'I' for Inactive)
REMARK    1  A    between atoms: O1_1  and  C1_3 
REMARK    2  A    between atoms: C1_3  and  N1_4 
REMARK    3  A    between atoms: C1_3  and  C4_14 
REMARK    4  A    between atoms: N1_4  and  C2_6 
REMARK    5  A    between atoms: C6_16  and  C7_17 
REMARK       I    between atoms: C7_17  and  N5_19 
REMARK    6  A    between atoms: N5_19  and  N6_21 
REMARK    7  A    between atoms: C8_23  and  C9_24 
REMARK    8  A    between atoms: C12_27  and  N7_28 
ROOT
HETATM    1  C4  UNL     1     112.045  89.227  27.444  1.00  0.00     0.108 A 
HETATM    2  C5  UNL     1     111.488  90.454  27.029  1.00  0.00     0.081 A 
HETATM    3  C6  UNL     1     111.005  90.295  25.753  1.00  0.00     0.170 A 
HETATM    4  O6  UNL     1     111.250  89.059  25.416  1.00  0.00    -0.232 OA
HETATM    5  N8  UNL     1     111.845  88.446  26.379  1.00  0.00    -0.256 N 
ATOM      6  H8  UNL     1     112.133  87.468  26.334  1.00  0.00     0.195 HD
ENDROOT
BRANCH   3   7
HETATM    7  C7  UNL     1     110.338  91.331  24.933  1.00  0.00     0.295 C 
HETATM    8  O2  UNL     1     109.140  91.186  24.617  1.00  0.00    -0.264 OA
HETATM    9  N5  UNL     1     111.031  92.483  24.501  1.00  0.00    -0.264 N 
ATOM     10  H5  UNL     1     112.010  92.599  24.762  1.00  0.00     0.190 HD
BRANCH   9  11
HETATM   11  N6  UNL     1     110.414  93.463  23.728  1.00  0.00    -0.306 N 
HETATM   12  C8  UNL     1     110.467  93.499  22.448  1.00  0.00     0.144 C 
ATOM     13  H6  UNL     1     109.890  94.194  24.209  1.00  0.00     0.186 HD
BRANCH  12  14
HETATM   14  C9  UNL     1     109.780  94.578  21.755  1.00  0.00     0.095 A 
HETATM   15  C10 UNL     1     108.737  95.357  22.231  1.00  0.00     0.043 A 
HETATM   16  C11 UNL     1     108.384  96.258  21.254  1.00  0.00     0.065 A 
HETATM   17  C12 UNL     1     109.233  95.997  20.200  1.00  0.00     0.215 A 
HETATM   18  O5  UNL     1     110.024  95.010  20.545  1.00  0.00    -0.287 OA
BRANCH  17  19
HETATM   19  N7  UNL     1     109.217  96.710  18.955  1.00  0.00    -0.090 N 
HETATM   20  O3  UNL     1     109.796  97.806  18.865  1.00  0.00    -0.530 OA
HETATM   21  O4  UNL     1     108.565  96.182  17.866  1.00  0.00    -0.530 OA
ENDBRANCH  17  19
ENDBRANCH  12  14
ENDBRANCH   9  11
ENDBRANCH   3   7
BRANCH   1  22
HETATM   22  C1  UNL     1     112.662  88.959  28.724  1.00  0.00     0.171 C 
BRANCH  22  23
HETATM   23  O1  UNL     1     113.582  88.036  28.679  1.00  0.00    -0.344 OA
ATOM     24  H1  UNL     1     114.416  88.320  28.324  1.00  0.00     0.219 HD
ENDBRANCH  22  23
BRANCH  22  25
HETATM   25  N1  UNL     1     112.449  89.506  29.974  1.00  0.00    -0.319 N 
ATOM     26  H1  UNL     1     111.791  89.000  30.567  1.00  0.00     0.169 HD
BRANCH  25  27
HETATM   27  C2  UNL     1     113.014  90.669  30.548  1.00  0.00     0.140 A 
HETATM   28  C3  UNL     1     113.294  91.826  29.790  1.00  0.00     0.158 A 
HETATM   29  N2  UNL     1     113.817  92.723  30.642  1.00  0.00    -0.294 N 
HETATM   30  N3  UNL     1     113.886  92.226  31.856  1.00  0.00    -0.241 N 
ATOM     31  H2  UNL     1     114.120  93.663  30.382  1.00  0.00     0.187 HD
HETATM   32  N4  UNL     1     113.402  91.007  31.764  1.00  0.00    -0.270 N 
ATOM     33  H3  UNL     1     114.240  92.688  32.694  1.00  0.00     0.208 HD
ATOM     34  H4  UNL     1     113.332  90.378  32.564  1.00  0.00     0.190 HD
ENDBRANCH  25  27
ENDBRANCH  22  25
ENDBRANCH   1  22
TORSDOF 8
ENDMDL
