MODEL 1
REMARK VINA RESULT: -8.540937121      0.000      0.000
REMARK  8 active torsions:
REMARK  status: ('A' for Active; 'I' for Inactive)
REMARK    1  A    between atoms: C4_7  and  N3_8 
REMARK    2  A    between atoms: N3_8  and  N4_10 
REMARK    3  A    between atoms: N4_10  and  C5_12 
REMARK    4  A    between atoms: C5_12  and  C6_17 
REMARK    5  A    between atoms: N5_13  and  O1_15 
REMARK       I    between atoms: C6_17  and  N6_19 
REMARK    6  A    between atoms: N6_19  and  N7_21 
REMARK    7  A    between atoms: C7_23  and  C8_24 
REMARK    8  A    between atoms: C12_29  and  N8_30 
ROOT
HETATM    1  N1  UNL     1     111.435  88.081  25.912  1.00  0.00    -0.191 NA
HETATM    2  C1  UNL     1     111.428  89.245  25.877  1.00  0.00     0.101 C 
HETATM    3  C2  UNL     1     111.402  90.685  25.848  1.00  0.00     0.062 A 
HETATM    4  C3  UNL     1     110.980  91.373  24.716  1.00  0.00     0.112 A 
HETATM    5  N2  UNL     1     110.972  92.719  24.735  1.00  0.00    -0.348 N 
ATOM      6  H2  UNL     1     110.661  93.221  23.903  1.00  0.00     0.167 HD
HETATM    7  C4  UNL     1     111.359  93.424  25.808  1.00  0.00     0.153 A 
HETATM    8  C12 UNL     1     111.778  92.742  26.931  1.00  0.00     0.149 A 
HETATM    9  C13 UNL     1     111.812  91.350  26.983  1.00  0.00     0.064 A 
ENDROOT
BRANCH   8  10
HETATM   10  N8  UNL     1     112.186  93.517  28.057  1.00  0.00    -0.112 N 
HETATM   11  O4  UNL     1     113.390  93.791  28.155  1.00  0.00    -0.532 OA
HETATM   12  O5  UNL     1     111.249  93.935  28.987  1.00  0.00    -0.532 OA
ENDBRANCH   8  10
BRANCH   7  13
HETATM   13  N3  UNL     1     111.325  94.854  25.759  1.00  0.00    -0.282 N 
ATOM     14  H3  UNL     1     110.426  95.320  25.631  1.00  0.00     0.188 HD
BRANCH  13  15
HETATM   15  N4  UNL     1     112.472  95.631  25.881  1.00  0.00    -0.278 N 
ATOM     16  H4  UNL     1     112.539  96.388  26.562  1.00  0.00     0.189 HD
BRANCH  15  17
HETATM   17  C5  UNL     1     113.581  95.303  24.977  1.00  0.00     0.210 C 
HETATM   18  N5  UNL     1     114.629  94.922  25.570  1.00  0.00    -0.247 N 
ATOM     19  H5  UNL     1     114.587  94.886  26.588  1.00  0.00     0.196 HD
BRANCH  18  20
HETATM   20  O1  UNL     1     115.779  94.563  25.009  1.00  0.00    -0.288 OA
ATOM     21  H1  UNL     1     116.599  94.384  25.453  1.00  0.00     0.244 HD
ENDBRANCH  18  20
BRANCH  17  22
HETATM   22  C6  UNL     1     113.365  95.447  23.557  1.00  0.00     0.307 C 
HETATM   23  O2  UNL     1     113.462  96.646  23.100  1.00  0.00    -0.262 OA
HETATM   24  N6  UNL     1     113.068  94.387  22.687  1.00  0.00    -0.264 N 
ATOM     25  H6  UNL     1     112.992  93.434  23.043  1.00  0.00     0.190 HD
BRANCH  24  26
HETATM   26  N7  UNL     1     112.883  94.642  21.354  1.00  0.00    -0.306 N 
HETATM   27  C7  UNL     1     111.848  94.946  20.755  1.00  0.00     0.144 C 
ATOM     28  H7  UNL     1     113.719  94.571  20.775  1.00  0.00     0.186 HD
BRANCH  27  29
HETATM   29  C8  UNL     1     110.532  95.113  21.326  1.00  0.00     0.091 A 
HETATM   30  C9  UNL     1     109.552  96.012  20.976  1.00  0.00     0.040 A 
HETATM   31  C10 UNL     1     108.458  95.783  21.819  1.00  0.00     0.027 A 
HETATM   32  C11 UNL     1     108.825  94.766  22.634  1.00  0.00     0.142 A 
HETATM   33  O3  UNL     1     110.030  94.383  22.343  1.00  0.00    -0.321 OA
ENDBRANCH  27  29
ENDBRANCH  24  26
ENDBRANCH  17  22
ENDBRANCH  15  17
ENDBRANCH  13  15
ENDBRANCH   7  13
TORSDOF 8
ENDMDL
MODEL 2
REMARK VINA RESULT: -8.469286215      1.392      1.741
REMARK  8 active torsions:
REMARK  status: ('A' for Active; 'I' for Inactive)
REMARK    1  A    between atoms: C4_7  and  N3_8 
REMARK    2  A    between atoms: N3_8  and  N4_10 
REMARK    3  A    between atoms: N4_10  and  C5_12 
REMARK    4  A    between atoms: C5_12  and  C6_17 
REMARK    5  A    between atoms: N5_13  and  O1_15 
REMARK       I    between atoms: C6_17  and  N6_19 
REMARK    6  A    between atoms: N6_19  and  N7_21 
REMARK    7  A    between atoms: C7_23  and  C8_24 
REMARK    8  A    between atoms: C12_29  and  N8_30 
ROOT
HETATM    1  N1  UNL     1     111.488  88.138  25.793  1.00  0.00    -0.191 NA
HETATM    2  C1  UNL     1     111.483  89.278  26.033  1.00  0.00     0.101 C 
HETATM    3  C2  UNL     1     111.463  90.683  26.346  1.00  0.00     0.062 A 
HETATM    4  C3  UNL     1     110.850  91.599  25.500  1.00  0.00     0.112 A 
HETATM    5  N2  UNL     1     110.855  92.904  25.834  1.00  0.00    -0.348 N 
ATOM      6  H2  UNL     1     110.403  93.573  25.211  1.00  0.00     0.167 HD
HETATM    7  C4  UNL     1     111.434  93.354  26.956  1.00  0.00     0.153 A 
HETATM    8  C12 UNL     1     112.043  92.446  27.796  1.00  0.00     0.149 A 
HETATM    9  C13 UNL     1     112.076  91.082  27.515  1.00  0.00     0.064 A 
ENDROOT
BRANCH   8  10
HETATM   10  N8  UNL     1     112.653  92.953  28.982  1.00  0.00    -0.112 N 
HETATM   11  O4  UNL     1     113.729  93.555  28.858  1.00  0.00    -0.532 OA
HETATM   12  O5  UNL     1     112.041  92.766  30.211  1.00  0.00    -0.532 OA
ENDBRANCH   8  10
BRANCH   7  13
HETATM   13  N3  UNL     1     111.402  94.754  27.250  1.00  0.00    -0.282 N 
ATOM     14  H3  UNL     1     110.531  95.167  27.585  1.00  0.00     0.188 HD
BRANCH  13  15
HETATM   15  N4  UNL     1     112.516  95.573  27.096  1.00  0.00    -0.278 N 
ATOM     16  H4  UNL     1     112.791  96.248  27.810  1.00  0.00     0.189 HD
BRANCH  15  17
HETATM   17  C5  UNL     1     113.274  95.414  25.849  1.00  0.00     0.210 C 
HETATM   18  N5  UNL     1     114.427  94.924  26.011  1.00  0.00    -0.247 N 
ATOM     19  H5  UNL     1     114.695  94.699  26.969  1.00  0.00     0.196 HD
BRANCH  18  20
HETATM   20  O1  UNL     1     115.328  94.670  25.067  1.00  0.00    -0.288 OA
ATOM     21  H1  UNL     1     116.061  95.218  24.815  1.00  0.00     0.244 HD
ENDBRANCH  18  20
BRANCH  17  22
HETATM   22  C6  UNL     1     112.646  95.820  24.615  1.00  0.00     0.307 C 
HETATM   23  O2  UNL     1     113.437  96.310  23.725  1.00  0.00    -0.262 OA
HETATM   24  N6  UNL     1     111.273  95.712  24.348  1.00  0.00    -0.264 N 
ATOM     25  H6  UNL     1     110.642  95.324  25.049  1.00  0.00     0.190 HD
BRANCH  24  26
HETATM   26  N7  UNL     1     110.787  96.132  23.138  1.00  0.00    -0.306 N 
HETATM   27  C7  UNL     1     110.102  95.517  22.317  1.00  0.00     0.144 C 
ATOM     28  H7  UNL     1     111.026  97.089  22.880  1.00  0.00     0.186 HD
BRANCH  27  29
HETATM   29  C8  UNL     1     109.626  94.158  22.428  1.00  0.00     0.091 A 
HETATM   30  C9  UNL     1     108.531  93.685  23.112  1.00  0.00     0.040 A 
HETATM   31  C10 UNL     1     108.487  92.299  22.918  1.00  0.00     0.027 A 
HETATM   32  C11 UNL     1     109.549  92.001  22.133  1.00  0.00     0.142 A 
HETATM   33  O3  UNL     1     110.206  93.085  21.853  1.00  0.00    -0.321 OA
ENDBRANCH  27  29
ENDBRANCH  24  26
ENDBRANCH  17  22
ENDBRANCH  15  17
ENDBRANCH  13  15
ENDBRANCH   7  13
TORSDOF 8
ENDMDL
MODEL 3
REMARK VINA RESULT: -8.421939354      1.517      2.384
REMARK  8 active torsions:
REMARK  status: ('A' for Active; 'I' for Inactive)
REMARK    1  A    between atoms: C4_7  and  N3_8 
REMARK    2  A    between atoms: N3_8  and  N4_10 
REMARK    3  A    between atoms: N4_10  and  C5_12 
REMARK    4  A    between atoms: C5_12  and  C6_17 
REMARK    5  A    between atoms: N5_13  and  O1_15 
REMARK       I    between atoms: C6_17  and  N6_19 
REMARK    6  A    between atoms: N6_19  and  N7_21 
REMARK    7  A    between atoms: C7_23  and  C8_24 
REMARK    8  A    between atoms: C12_29  and  N8_30 
ROOT
HETATM    1  N1  UNL     1     112.532  87.747  28.241  1.00  0.00    -0.191 NA
HETATM    2  C1  UNL     1     112.252  88.796  27.819  1.00  0.00     0.101 C 
HETATM    3  C2  UNL     1     111.922  90.091  27.282  1.00  0.00     0.062 A 
HETATM    4  C3  UNL     1     112.183  91.254  27.998  1.00  0.00     0.112 A 
HETATM    5  N2  UNL     1     111.857  92.443  27.456  1.00  0.00    -0.348 N 
ATOM      6  H2  UNL     1     112.051  93.294  27.984  1.00  0.00     0.167 HD
HETATM    7  C4  UNL     1     111.286  92.548  26.248  1.00  0.00     0.153 A 
HETATM    8  C12 UNL     1     111.025  91.395  25.537  1.00  0.00     0.149 A 
HETATM    9  C13 UNL     1     111.336  90.131  26.035  1.00  0.00     0.064 A 
ENDROOT
BRANCH   8  10
HETATM   10  N8  UNL     1     110.416  91.536  24.255  1.00  0.00    -0.112 N 
HETATM   11  O4  UNL     1     109.178  91.566  24.212  1.00  0.00    -0.532 OA
HETATM   12  O5  UNL     1     111.203  91.635  23.120  1.00  0.00    -0.532 OA
ENDBRANCH   8  10
BRANCH   7  13
HETATM   13  N3  UNL     1     110.966  93.844  25.731  1.00  0.00    -0.282 N 
ATOM     14  H3  UNL     1     110.109  93.959  25.189  1.00  0.00     0.188 HD
BRANCH  13  15
HETATM   15  N4  UNL     1     111.781  94.951  25.942  1.00  0.00    -0.278 N 
ATOM     16  H4  UNL     1     111.497  95.721  26.548  1.00  0.00     0.189 HD
BRANCH  15  17
HETATM   17  C5  UNL     1     113.072  94.953  25.243  1.00  0.00     0.210 C 
HETATM   18  N5  UNL     1     114.070  94.864  26.012  1.00  0.00    -0.247 N 
ATOM     19  H5  UNL     1     113.870  94.804  27.011  1.00  0.00     0.196 HD
BRANCH  18  20
HETATM   20  O1  UNL     1     115.351  94.842  25.661  1.00  0.00    -0.288 OA
ATOM     21  H1  UNL     1     116.044  95.400  25.993  1.00  0.00     0.244 HD
ENDBRANCH  18  20
BRANCH  17  22
HETATM   22  C6  UNL     1     113.066  95.052  23.803  1.00  0.00     0.307 C 
HETATM   23  O2  UNL     1     113.458  96.180  23.324  1.00  0.00    -0.262 OA
HETATM   24  N6  UNL     1     112.671  94.021  22.936  1.00  0.00    -0.264 N 
ATOM     25  H6  UNL     1     112.360  93.125  23.311  1.00  0.00     0.190 HD
BRANCH  24  26
HETATM   26  N7  UNL     1     112.705  94.230  21.583  1.00  0.00    -0.306 N 
HETATM   27  C7  UNL     1     111.822  94.661  20.838  1.00  0.00     0.144 C 
ATOM     28  H7  UNL     1     113.587  93.994  21.128  1.00  0.00     0.186 HD
BRANCH  27  29
HETATM   29  C8  UNL     1     110.489  95.068  21.216  1.00  0.00     0.091 A 
HETATM   30  C9  UNL     1     109.696  96.041  20.655  1.00  0.00     0.040 A 
HETATM   31  C10 UNL     1     108.493  96.060  21.370  1.00  0.00     0.027 A 
HETATM   32  C11 UNL     1     108.613  95.106  22.323  1.00  0.00     0.142 A 
HETATM   33  O3  UNL     1     109.775  94.535  22.228  1.00  0.00    -0.321 OA
ENDBRANCH  27  29
ENDBRANCH  24  26
ENDBRANCH  17  22
ENDBRANCH  15  17
ENDBRANCH  13  15
ENDBRANCH   7  13
TORSDOF 8
ENDMDL
MODEL 4
REMARK VINA RESULT: -8.363352865      2.227      6.560
REMARK  8 active torsions:
REMARK  status: ('A' for Active; 'I' for Inactive)
REMARK    1  A    between atoms: C4_7  and  N3_8 
REMARK    2  A    between atoms: N3_8  and  N4_10 
REMARK    3  A    between atoms: N4_10  and  C5_12 
REMARK    4  A    between atoms: C5_12  and  C6_17 
REMARK    5  A    between atoms: N5_13  and  O1_15 
REMARK       I    between atoms: C6_17  and  N6_19 
REMARK    6  A    between atoms: N6_19  and  N7_21 
REMARK    7  A    between atoms: C7_23  and  C8_24 
REMARK    8  A    between atoms: C12_29  and  N8_30 
ROOT
HETATM    1  N1  UNL     1     107.960  96.311  21.493  1.00  0.00    -0.191 NA
HETATM    2  C1  UNL     1     108.747  95.865  22.228  1.00  0.00     0.101 C 
HETATM    3  C2  UNL     1     109.720  95.296  23.123  1.00  0.00     0.062 A 
HETATM    4  C3  UNL     1     109.373  94.913  24.413  1.00  0.00     0.112 A 
HETATM    5  N2  UNL     1     110.317  94.385  25.215  1.00  0.00    -0.348 N 
ATOM      6  H2  UNL     1     110.057  94.104  26.161  1.00  0.00     0.167 HD
HETATM    7  C4  UNL     1     111.585  94.216  24.816  1.00  0.00     0.153 A 
HETATM    8  C12 UNL     1     111.931  94.596  23.536  1.00  0.00     0.149 A 
HETATM    9  C13 UNL     1     111.007  95.148  22.651  1.00  0.00     0.064 A 
ENDROOT
BRANCH   8  10
HETATM   10  N8  UNL     1     113.288  94.406  23.137  1.00  0.00    -0.112 N 
HETATM   11  O4  UNL     1     114.160  95.007  23.780  1.00  0.00    -0.532 OA
HETATM   12  O5  UNL     1     113.587  93.574  22.071  1.00  0.00    -0.532 OA
ENDBRANCH   8  10
BRANCH   7  13
HETATM   13  N3  UNL     1     112.538  93.647  25.720  1.00  0.00    -0.282 N 
ATOM     14  H3  UNL     1     112.691  92.638  25.702  1.00  0.00     0.188 HD
BRANCH  13  15
HETATM   15  N4  UNL     1     113.262  94.420  26.622  1.00  0.00    -0.278 N 
ATOM     16  H4  UNL     1     114.171  94.816  26.382  1.00  0.00     0.189 HD
BRANCH  15  17
HETATM   17  C5  UNL     1     112.646  94.634  27.937  1.00  0.00     0.210 C 
HETATM   18  N5  UNL     1     112.260  95.820  28.134  1.00  0.00    -0.247 N 
ATOM     19  H5  UNL     1     112.416  96.481  27.373  1.00  0.00     0.196 HD
BRANCH  18  20
HETATM   20  O1  UNL     1     111.672  96.299  29.226  1.00  0.00    -0.288 OA
ATOM     21  H1  UNL     1     110.928  95.927  29.684  1.00  0.00     0.244 HD
ENDBRANCH  18  20
BRANCH  17  22
HETATM   22  C6  UNL     1     112.552  93.508  28.835  1.00  0.00     0.307 C 
HETATM   23  O2  UNL     1     111.476  93.448  29.539  1.00  0.00    -0.262 OA
HETATM   24  N6  UNL     1     113.535  92.515  28.972  1.00  0.00    -0.264 N 
ATOM     25  H6  UNL     1     114.389  92.557  28.416  1.00  0.00     0.190 HD
BRANCH  24  26
HETATM   26  N7  UNL     1     113.337  91.490  29.859  1.00  0.00    -0.306 N 
HETATM   27  C7  UNL     1     112.871  90.366  29.660  1.00  0.00     0.144 C 
ATOM     28  H7  UNL     1     113.616  91.685  30.820  1.00  0.00     0.186 HD
BRANCH  27  29
HETATM   29  C8  UNL     1     112.401  89.831  28.403  1.00  0.00     0.091 A 
HETATM   30  C9  UNL     1     112.338  88.518  27.998  1.00  0.00     0.040 A 
HETATM   31  C10 UNL     1     111.811  88.509  26.701  1.00  0.00     0.027 A 
HETATM   32  C11 UNL     1     111.583  89.805  26.384  1.00  0.00     0.142 A 
HETATM   33  O3  UNL     1     111.929  90.567  27.376  1.00  0.00    -0.321 OA
ENDBRANCH  27  29
ENDBRANCH  24  26
ENDBRANCH  17  22
ENDBRANCH  15  17
ENDBRANCH  13  15
ENDBRANCH   7  13
TORSDOF 8
ENDMDL
MODEL 5
REMARK VINA RESULT: -8.341898770      2.250      6.289
REMARK  8 active torsions:
REMARK  status: ('A' for Active; 'I' for Inactive)
REMARK    1  A    between atoms: C4_7  and  N3_8 
REMARK    2  A    between atoms: N3_8  and  N4_10 
REMARK    3  A    between atoms: N4_10  and  C5_12 
REMARK    4  A    between atoms: C5_12  and  C6_17 
REMARK    5  A    between atoms: N5_13  and  O1_15 
REMARK       I    between atoms: C6_17  and  N6_19 
REMARK    6  A    between atoms: N6_19  and  N7_21 
REMARK    7  A    between atoms: C7_23  and  C8_24 
REMARK    8  A    between atoms: C12_29  and  N8_30 
ROOT
HETATM    1  N1  UNL     1     109.822  91.242  20.938  1.00  0.00    -0.191 NA
HETATM    2  C1  UNL     1     110.277  91.916  21.772  1.00  0.00     0.101 C 
HETATM    3  C2  UNL     1     110.859  92.748  22.794  1.00  0.00     0.062 A 
HETATM    4  C3  UNL     1     111.077  92.263  24.078  1.00  0.00     0.112 A 
HETATM    5  N2  UNL     1     111.624  93.077  25.000  1.00  0.00    -0.348 N 
ATOM      6  H2  UNL     1     111.784  92.717  25.942  1.00  0.00     0.167 HD
HETATM    7  C4  UNL     1     111.966  94.344  24.726  1.00  0.00     0.153 A 
HETATM    8  C12 UNL     1     111.750  94.827  23.452  1.00  0.00     0.149 A 
HETATM    9  C13 UNL     1     111.189  94.041  22.448  1.00  0.00     0.064 A 
ENDROOT
BRANCH   8  10
HETATM   10  N8  UNL     1     112.122  96.178  23.189  1.00  0.00    -0.112 N 
HETATM   11  O4  UNL     1     111.208  97.004  23.046  1.00  0.00    -0.532 OA
HETATM   12  O5  UNL     1     113.460  96.526  23.104  1.00  0.00    -0.532 OA
ENDBRANCH   8  10
BRANCH   7  13
HETATM   13  N3  UNL     1     112.544  95.155  25.754  1.00  0.00    -0.282 N 
ATOM     14  H3  UNL     1     112.467  96.170  25.682  1.00  0.00     0.188 HD
BRANCH  13  15
HETATM   15  N4  UNL     1     113.208  94.610  26.848  1.00  0.00    -0.278 N 
ATOM     16  H4  UNL     1     114.094  94.114  26.748  1.00  0.00     0.189 HD
BRANCH  15  17
HETATM   17  C5  UNL     1     112.563  94.785  28.155  1.00  0.00     0.210 C 
HETATM   18  N5  UNL     1     112.071  95.935  28.332  1.00  0.00    -0.247 N 
ATOM     19  H5  UNL     1     112.175  96.598  27.564  1.00  0.00     0.196 HD
BRANCH  18  20
HETATM   20  O1  UNL     1     111.433  96.374  29.412  1.00  0.00    -0.288 OA
ATOM     21  H1  UNL     1     110.502  96.540  29.498  1.00  0.00     0.244 HD
ENDBRANCH  18  20
BRANCH  17  22
HETATM   22  C6  UNL     1     112.561  93.667  29.068  1.00  0.00     0.307 C 
HETATM   23  O2  UNL     1     111.591  93.645  29.915  1.00  0.00    -0.262 OA
HETATM   24  N6  UNL     1     113.522  92.645  29.076  1.00  0.00    -0.264 N 
ATOM     25  H6  UNL     1     114.291  92.657  28.407  1.00  0.00     0.190 HD
BRANCH  24  26
HETATM   26  N7  UNL     1     113.419  91.631  29.991  1.00  0.00    -0.306 N 
HETATM   27  C7  UNL     1     113.012  90.478  29.834  1.00  0.00     0.144 C 
ATOM     28  H7  UNL     1     113.722  91.864  30.937  1.00  0.00     0.186 HD
BRANCH  27  29
HETATM   29  C8  UNL     1     112.526  89.888  28.608  1.00  0.00     0.091 A 
HETATM   30  C9  UNL     1     112.504  88.562  28.243  1.00  0.00     0.040 A 
HETATM   31  C10 UNL     1     111.939  88.494  26.964  1.00  0.00     0.027 A 
HETATM   32  C11 UNL     1     111.648  89.770  26.618  1.00  0.00     0.142 A 
HETATM   33  O3  UNL     1     111.993  90.574  27.577  1.00  0.00    -0.321 OA
ENDBRANCH  27  29
ENDBRANCH  24  26
ENDBRANCH  17  22
ENDBRANCH  15  17
ENDBRANCH  13  15
ENDBRANCH   7  13
TORSDOF 8
ENDMDL
