MODEL 1
REMARK VINA RESULT: -7.611421680      0.000      0.000
REMARK  11 active torsions:
REMARK  status: ('A' for Active; 'I' for Inactive)
REMARK    1  A    between atoms: C1_4  and  C2_6 
REMARK    2  A    between atoms: C5_9  and  S1_10 
REMARK    3  A    between atoms: S1_10  and  C6_12 
REMARK    4  A    between atoms: C6_12  and  C7_13 
REMARK    5  A    between atoms: C11_17  and  O2_18 
REMARK    6  A    between atoms: O2_18  and  C12_19 
REMARK    7  A    between atoms: C12_19  and  C13_20 
REMARK    8  A    between atoms: C13_20  and  N3_21 
REMARK    9  A    between atoms: N3_21  and  C14_24 
REMARK   10  A    between atoms: C14_24  and  C15_25 
REMARK   11  A    between atoms: C15_25  and  C16_26 
ROOT
HETATM    1  C7  UNL     1      -0.061  22.068  67.449  1.00  0.00    -0.044 A 
HETATM    2  C8  UNL     1      -1.424  21.986  67.648  1.00  0.00     0.008 A 
HETATM    3  C9  UNL     1      -2.132  21.054  66.928  1.00  0.00     0.003 A 
HETATM    4  C10 UNL     1      -1.482  20.222  66.027  1.00  0.00     0.037 A 
HETATM    5  C11 UNL     1      -0.123  20.284  65.812  1.00  0.00     0.069 A 
HETATM    6  C17 UNL     1       0.577  21.250  66.564  1.00  0.00     0.044 A 
ENDROOT
BRANCH   1   7
HETATM    7  C6  UNL     1       0.749  23.065  68.206  1.00  0.00     0.152 C 
BRANCH   7   8
HETATM    8  S1  UNL     1       2.430  22.540  68.127  1.00  0.00     0.054 S 
HETATM    9  O1  UNL     1       3.485  23.756  67.705  1.00  0.00    -0.252 OA
BRANCH   8  10
HETATM   10  C5  UNL     1       2.927  21.643  69.525  1.00  0.00     0.031 A 
HETATM   11  C4  UNL     1       3.171  20.299  69.430  1.00  0.00     0.022 A 
HETATM   12  C3  UNL     1       3.563  19.602  70.546  1.00  0.00     0.016 A 
HETATM   13  C2  UNL     1       3.724  20.209  71.772  1.00  0.00     0.005 A 
HETATM   14  C19 UNL     1       3.469  21.575  71.837  1.00  0.00     0.016 A 
HETATM   15  C18 UNL     1       3.078  22.285  70.739  1.00  0.00     0.022 A 
BRANCH  13  16
HETATM   16  C1  UNL     1       4.144  19.469  72.969  1.00  0.00     0.120 C 
HETATM   17  N1  UNL     1       5.154  18.688  72.987  1.00  0.00    -0.387 N 
ATOM     18  H12 UNL     1       5.446  18.174  73.818  1.00  0.00     0.157 HD
ATOM     19  H11 UNL     1       5.703  18.563  72.137  1.00  0.00     0.157 HD
HETATM   20  N2  UNL     1       3.374  19.643  74.161  1.00  0.00    -0.082 NA
ENDBRANCH  13  16
ENDBRANCH   8  10
ENDBRANCH   7   8
ENDBRANCH   1   7
BRANCH   5  21
HETATM   21  O2  UNL     1       0.583  19.490  64.941  1.00  0.00    -0.349 OA
BRANCH  21  22
HETATM   22  C12 UNL     1       1.046  18.203  65.016  1.00  0.00     0.203 C 
BRANCH  22  23
HETATM   23  C13 UNL     1       2.469  18.063  64.566  1.00  0.00     0.258 C 
BRANCH  23  24
HETATM   24  N3  UNL     1       3.380  18.849  65.366  1.00  0.00    -0.073 N 
ATOM     25  H32 UNL     1       4.184  19.171  64.826  1.00  0.00     0.277 HD
ATOM     26  H31 UNL     1       2.989  19.759  65.607  1.00  0.00     0.277 HD
BRANCH  24  27
HETATM   27  C14 UNL     1       3.775  18.103  66.532  1.00  0.00     0.241 C 
BRANCH  27  28
HETATM   28  C15 UNL     1       5.139  18.474  66.995  1.00  0.00     0.127 C 
BRANCH  28  29
HETATM   29  C16 UNL     1       5.648  19.647  66.189  1.00  0.00     0.232 C 
HETATM   30  N4  UNL     1       5.398  20.935  66.738  1.00  0.00    -0.062 NA
HETATM   31  O3  UNL     1       6.251  19.491  65.106  1.00  0.00    -0.277 OA
ENDBRANCH  28  29
ENDBRANCH  27  28
ENDBRANCH  24  27
ENDBRANCH  23  24
ENDBRANCH  22  23
ENDBRANCH  21  22
ENDBRANCH   5  21
TORSDOF 11
ENDMDL
MODEL 2
REMARK VINA RESULT: -7.554129709      1.307      1.498
REMARK  11 active torsions:
REMARK  status: ('A' for Active; 'I' for Inactive)
REMARK    1  A    between atoms: C1_4  and  C2_6 
REMARK    2  A    between atoms: C5_9  and  S1_10 
REMARK    3  A    between atoms: S1_10  and  C6_12 
REMARK    4  A    between atoms: C6_12  and  C7_13 
REMARK    5  A    between atoms: C11_17  and  O2_18 
REMARK    6  A    between atoms: O2_18  and  C12_19 
REMARK    7  A    between atoms: C12_19  and  C13_20 
REMARK    8  A    between atoms: C13_20  and  N3_21 
REMARK    9  A    between atoms: N3_21  and  C14_24 
REMARK   10  A    between atoms: C14_24  and  C15_25 
REMARK   11  A    between atoms: C15_25  and  C16_26 
ROOT
HETATM    1  C7  UNL     1      -0.166  22.116  67.044  1.00  0.00    -0.044 A 
HETATM    2  C8  UNL     1      -1.486  21.918  67.396  1.00  0.00     0.008 A 
HETATM    3  C9  UNL     1      -2.139  20.823  66.886  1.00  0.00     0.003 A 
HETATM    4  C10 UNL     1      -1.479  19.945  66.038  1.00  0.00     0.037 A 
HETATM    5  C11 UNL     1      -0.164  20.119  65.672  1.00  0.00     0.069 A 
HETATM    6  C17 UNL     1       0.482  21.252  66.210  1.00  0.00     0.044 A 
ENDROOT
BRANCH   1   7
HETATM    7  C6  UNL     1       0.584  23.291  67.571  1.00  0.00     0.152 C 
BRANCH   7   8
HETATM    8  S1  UNL     1       2.129  22.695  68.177  1.00  0.00     0.054 S 
HETATM    9  O1  UNL     1       3.392  23.746  67.920  1.00  0.00    -0.252 OA
BRANCH   8  10
HETATM   10  C5  UNL     1       2.036  22.106  69.806  1.00  0.00     0.031 A 
HETATM   11  C4  UNL     1       2.890  21.124  70.232  1.00  0.00     0.022 A 
HETATM   12  C3  UNL     1       2.804  20.667  71.523  1.00  0.00     0.016 A 
HETATM   13  C2  UNL     1       1.884  21.165  72.420  1.00  0.00     0.005 A 
HETATM   14  C19 UNL     1       1.031  22.163  71.957  1.00  0.00     0.016 A 
HETATM   15  C18 UNL     1       1.100  22.629  70.677  1.00  0.00     0.022 A 
BRANCH  13  16
HETATM   16  C1  UNL     1       1.789  20.681  73.802  1.00  0.00     0.120 C 
HETATM   17  N1  UNL     1       2.810  20.399  74.515  1.00  0.00    -0.387 N 
ATOM     18  H12 UNL     1       2.743  20.063  75.476  1.00  0.00     0.157 HD
ATOM     19  H11 UNL     1       3.742  20.511  74.116  1.00  0.00     0.157 HD
HETATM   20  N2  UNL     1       0.482  20.524  74.362  1.00  0.00    -0.082 NA
ENDBRANCH  13  16
ENDBRANCH   8  10
ENDBRANCH   7   8
ENDBRANCH   1   7
BRANCH   5  21
HETATM   21  O2  UNL     1       0.549  19.288  64.843  1.00  0.00    -0.349 OA
BRANCH  21  22
HETATM   22  C12 UNL     1       1.013  18.006  64.979  1.00  0.00     0.203 C 
BRANCH  22  23
HETATM   23  C13 UNL     1       2.463  17.864  64.625  1.00  0.00     0.258 C 
BRANCH  23  24
HETATM   24  N3  UNL     1       3.298  18.800  65.340  1.00  0.00    -0.073 N 
ATOM     25  H32 UNL     1       4.162  19.005  64.836  1.00  0.00     0.277 HD
ATOM     26  H31 UNL     1       2.903  19.740  65.344  1.00  0.00     0.277 HD
BRANCH  24  27
HETATM   27  C14 UNL     1       3.552  18.314  66.670  1.00  0.00     0.241 C 
BRANCH  27  28
HETATM   28  C15 UNL     1       4.927  18.641  67.131  1.00  0.00     0.127 C 
BRANCH  28  29
HETATM   29  C16 UNL     1       5.422  19.877  66.417  1.00  0.00     0.232 C 
HETATM   30  N4  UNL     1       6.262  19.653  65.293  1.00  0.00    -0.062 NA
HETATM   31  O3  UNL     1       5.110  21.027  66.795  1.00  0.00    -0.277 OA
ENDBRANCH  28  29
ENDBRANCH  27  28
ENDBRANCH  24  27
ENDBRANCH  23  24
ENDBRANCH  22  23
ENDBRANCH  21  22
ENDBRANCH   5  21
TORSDOF 11
ENDMDL
MODEL 3
REMARK VINA RESULT: -7.514114878      0.476      1.161
REMARK  11 active torsions:
REMARK  status: ('A' for Active; 'I' for Inactive)
REMARK    1  A    between atoms: C1_4  and  C2_6 
REMARK    2  A    between atoms: C5_9  and  S1_10 
REMARK    3  A    between atoms: S1_10  and  C6_12 
REMARK    4  A    between atoms: C6_12  and  C7_13 
REMARK    5  A    between atoms: C11_17  and  O2_18 
REMARK    6  A    between atoms: O2_18  and  C12_19 
REMARK    7  A    between atoms: C12_19  and  C13_20 
REMARK    8  A    between atoms: C13_20  and  N3_21 
REMARK    9  A    between atoms: N3_21  and  C14_24 
REMARK   10  A    between atoms: C14_24  and  C15_25 
REMARK   11  A    between atoms: C15_25  and  C16_26 
ROOT
HETATM    1  C7  UNL     1      -0.091  22.078  67.332  1.00  0.00    -0.044 A 
HETATM    2  C8  UNL     1      -1.445  21.968  67.574  1.00  0.00     0.008 A 
HETATM    3  C9  UNL     1      -2.147  20.987  66.916  1.00  0.00     0.003 A 
HETATM    4  C10 UNL     1      -1.500  20.134  66.033  1.00  0.00     0.037 A 
HETATM    5  C11 UNL     1      -0.150  20.223  65.775  1.00  0.00     0.069 A 
HETATM    6  C17 UNL     1       0.544  21.239  66.463  1.00  0.00     0.044 A 
ENDROOT
BRANCH   1   7
HETATM    7  C6  UNL     1       0.712  23.127  68.021  1.00  0.00     0.152 C 
BRANCH   7   8
HETATM    8  S1  UNL     1       2.359  22.513  68.168  1.00  0.00     0.054 S 
HETATM    9  O1  UNL     1       3.521  23.616  67.721  1.00  0.00    -0.252 OA
BRANCH   8  10
HETATM   10  C5  UNL     1       2.667  21.762  69.700  1.00  0.00     0.031 A 
HETATM   11  C4  UNL     1       2.168  22.314  70.850  1.00  0.00     0.022 A 
HETATM   12  C3  UNL     1       2.421  21.709  72.056  1.00  0.00     0.016 A 
HETATM   13  C2  UNL     1       3.165  20.553  72.157  1.00  0.00     0.005 A 
HETATM   14  C19 UNL     1       3.658  20.016  70.971  1.00  0.00     0.016 A 
HETATM   15  C18 UNL     1       3.418  20.604  69.763  1.00  0.00     0.022 A 
BRANCH  13  16
HETATM   16  C1  UNL     1       3.438  19.901  73.443  1.00  0.00     0.120 C 
HETATM   17  N1  UNL     1       2.857  20.233  74.531  1.00  0.00    -0.387 N 
ATOM     18  H12 UNL     1       3.047  19.780  75.424  1.00  0.00     0.157 HD
ATOM     19  H11 UNL     1       2.169  20.985  74.518  1.00  0.00     0.157 HD
HETATM   20  N2  UNL     1       4.403  18.846  73.461  1.00  0.00    -0.082 NA
ENDBRANCH  13  16
ENDBRANCH   8  10
ENDBRANCH   7   8
ENDBRANCH   1   7
BRANCH   5  21
HETATM   21  O2  UNL     1       0.552  19.410  64.918  1.00  0.00    -0.349 OA
BRANCH  21  22
HETATM   22  C12 UNL     1       0.977  18.111  65.000  1.00  0.00     0.203 C 
BRANCH  22  23
HETATM   23  C13 UNL     1       2.423  17.941  64.643  1.00  0.00     0.258 C 
BRANCH  23  24
HETATM   24  N3  UNL     1       3.276  18.876  65.338  1.00  0.00    -0.073 N 
ATOM     25  H32 UNL     1       4.119  19.095  64.806  1.00  0.00     0.277 HD
ATOM     26  H31 UNL     1       2.873  19.812  65.369  1.00  0.00     0.277 HD
BRANCH  24  27
HETATM   27  C14 UNL     1       3.583  18.375  66.652  1.00  0.00     0.241 C 
BRANCH  27  28
HETATM   28  C15 UNL     1       5.029  18.501  66.974  1.00  0.00     0.127 C 
BRANCH  28  29
HETATM   29  C16 UNL     1       5.620  19.664  66.211  1.00  0.00     0.232 C 
HETATM   30  N4  UNL     1       5.411  20.951  66.778  1.00  0.00    -0.062 NA
HETATM   31  O3  UNL     1       6.254  19.501  65.146  1.00  0.00    -0.277 OA
ENDBRANCH  28  29
ENDBRANCH  27  28
ENDBRANCH  24  27
ENDBRANCH  23  24
ENDBRANCH  22  23
ENDBRANCH  21  22
ENDBRANCH   5  21
TORSDOF 11
ENDMDL
MODEL 4
REMARK VINA RESULT: -7.400404741      3.355      5.333
REMARK  11 active torsions:
REMARK  status: ('A' for Active; 'I' for Inactive)
REMARK    1  A    between atoms: C1_4  and  C2_6 
REMARK    2  A    between atoms: C5_9  and  S1_10 
REMARK    3  A    between atoms: S1_10  and  C6_12 
REMARK    4  A    between atoms: C6_12  and  C7_13 
REMARK    5  A    between atoms: C11_17  and  O2_18 
REMARK    6  A    between atoms: O2_18  and  C12_19 
REMARK    7  A    between atoms: C12_19  and  C13_20 
REMARK    8  A    between atoms: C13_20  and  N3_21 
REMARK    9  A    between atoms: N3_21  and  C14_24 
REMARK   10  A    between atoms: C14_24  and  C15_25 
REMARK   11  A    between atoms: C15_25  and  C16_26 
ROOT
HETATM    1  C7  UNL     1       3.004  22.123  69.228  1.00  0.00    -0.044 A 
HETATM    2  C8  UNL     1       2.085  22.373  70.228  1.00  0.00     0.008 A 
HETATM    3  C9  UNL     1       0.770  22.550  69.874  1.00  0.00     0.003 A 
HETATM    4  C10 UNL     1       0.386  22.477  68.542  1.00  0.00     0.037 A 
HETATM    5  C11 UNL     1       1.282  22.228  67.527  1.00  0.00     0.069 A 
HETATM    6  C17 UNL     1       2.626  22.051  67.920  1.00  0.00     0.044 A 
ENDROOT
BRANCH   1   7
HETATM    7  C6  UNL     1       4.442  21.925  69.563  1.00  0.00     0.152 C 
BRANCH   7   8
HETATM    8  S1  UNL     1       4.849  20.258  69.159  1.00  0.00     0.054 S 
HETATM    9  O1  UNL     1       3.518  19.299  68.881  1.00  0.00    -0.252 OA
BRANCH   8  10
HETATM   10  C5  UNL     1       6.063  20.136  67.927  1.00  0.00     0.031 A 
HETATM   11  C4  UNL     1       5.815  20.610  66.667  1.00  0.00     0.022 A 
HETATM   12  C3  UNL     1       6.785  20.506  65.702  1.00  0.00     0.016 A 
HETATM   13  C2  UNL     1       8.015  19.937  65.954  1.00  0.00     0.005 A 
HETATM   14  C19 UNL     1       8.237  19.465  67.244  1.00  0.00     0.016 A 
HETATM   15  C18 UNL     1       7.285  19.559  68.217  1.00  0.00     0.022 A 
BRANCH  13  16
HETATM   16  C1  UNL     1       9.057  19.824  64.927  1.00  0.00     0.120 C 
HETATM   17  N1  UNL     1       8.868  19.250  63.802  1.00  0.00    -0.387 N 
ATOM     18  H12 UNL     1       9.592  19.171  63.088  1.00  0.00     0.157 HD
ATOM     19  H11 UNL     1       7.954  18.847  63.595  1.00  0.00     0.157 HD
HETATM   20  N2  UNL     1      10.339  20.388  65.216  1.00  0.00    -0.082 NA
ENDBRANCH  13  16
ENDBRANCH   8  10
ENDBRANCH   7   8
ENDBRANCH   1   7
BRANCH   5  21
HETATM   21  O2  UNL     1       0.970  22.138  66.192  1.00  0.00    -0.349 OA
BRANCH  21  22
HETATM   22  C12 UNL     1      -0.146  21.715  65.521  1.00  0.00     0.203 C 
BRANCH  22  23
HETATM   23  C13 UNL     1      -0.332  20.227  65.566  1.00  0.00     0.258 C 
BRANCH  23  24
HETATM   24  N3  UNL     1       0.896  19.511  65.311  1.00  0.00    -0.073 N 
ATOM     25  H32 UNL     1       0.967  19.206  64.340  1.00  0.00     0.277 HD
ATOM     26  H31 UNL     1       1.709  20.125  65.333  1.00  0.00     0.277 HD
BRANCH  24  27
HETATM   27  C14 UNL     1       1.022  18.413  66.233  1.00  0.00     0.241 C 
BRANCH  27  28
HETATM   28  C15 UNL     1       1.662  17.227  65.604  1.00  0.00     0.127 C 
BRANCH  28  29
HETATM   29  C16 UNL     1       2.669  17.681  64.572  1.00  0.00     0.232 C 
HETATM   30  N4  UNL     1       2.357  17.372  63.219  1.00  0.00    -0.062 NA
HETATM   31  O3  UNL     1       3.712  18.292  64.891  1.00  0.00    -0.277 OA
ENDBRANCH  28  29
ENDBRANCH  27  28
ENDBRANCH  24  27
ENDBRANCH  23  24
ENDBRANCH  22  23
ENDBRANCH  21  22
ENDBRANCH   5  21
TORSDOF 11
ENDMDL
MODEL 5
REMARK VINA RESULT: -7.293303000      3.198      5.882
REMARK  11 active torsions:
REMARK  status: ('A' for Active; 'I' for Inactive)
REMARK    1  A    between atoms: C1_4  and  C2_6 
REMARK    2  A    between atoms: C5_9  and  S1_10 
REMARK    3  A    between atoms: S1_10  and  C6_12 
REMARK    4  A    between atoms: C6_12  and  C7_13 
REMARK    5  A    between atoms: C11_17  and  O2_18 
REMARK    6  A    between atoms: O2_18  and  C12_19 
REMARK    7  A    between atoms: C12_19  and  C13_20 
REMARK    8  A    between atoms: C13_20  and  N3_21 
REMARK    9  A    between atoms: N3_21  and  C14_24 
REMARK   10  A    between atoms: C14_24  and  C15_25 
REMARK   11  A    between atoms: C15_25  and  C16_26 
ROOT
HETATM    1  C7  UNL     1       2.849  18.589  67.065  1.00  0.00    -0.044 A 
HETATM    2  C8  UNL     1       3.522  17.787  66.166  1.00  0.00     0.008 A 
HETATM    3  C9  UNL     1       2.938  17.542  64.947  1.00  0.00     0.003 A 
HETATM    4  C10 UNL     1       1.703  18.094  64.638  1.00  0.00     0.037 A 
HETATM    5  C11 UNL     1       1.012  18.899  65.516  1.00  0.00     0.069 A 
HETATM    6  C17 UNL     1       1.635  19.131  66.760  1.00  0.00     0.044 A 
ENDROOT
BRANCH   1   7
HETATM    7  C6  UNL     1       3.442  18.881  68.401  1.00  0.00     0.152 C 
BRANCH   7   8
HETATM    8  S1  UNL     1       4.334  20.395  68.257  1.00  0.00     0.054 S 
HETATM    9  O1  UNL     1       4.441  21.240  69.686  1.00  0.00    -0.252 OA
BRANCH   8  10
HETATM   10  C5  UNL     1       5.854  20.211  67.444  1.00  0.00     0.031 A 
HETATM   11  C4  UNL     1       6.922  19.654  68.097  1.00  0.00     0.022 A 
HETATM   12  C3  UNL     1       8.118  19.516  67.440  1.00  0.00     0.016 A 
HETATM   13  C2  UNL     1       8.292  19.918  66.134  1.00  0.00     0.005 A 
HETATM   14  C19 UNL     1       7.189  20.480  65.497  1.00  0.00     0.016 A 
HETATM   15  C18 UNL     1       5.991  20.627  66.133  1.00  0.00     0.022 A 
BRANCH  13  16
HETATM   16  C1  UNL     1       9.569  19.771  65.426  1.00  0.00     0.120 C 
HETATM   17  N1  UNL     1       9.833  18.784  64.660  1.00  0.00    -0.387 N 
ATOM     18  H12 UNL     1      10.721  18.683  64.169  1.00  0.00     0.157 HD
ATOM     19  H11 UNL     1       9.131  18.057  64.526  1.00  0.00     0.157 HD
HETATM   20  N2  UNL     1      10.554  20.791  65.615  1.00  0.00    -0.082 NA
ENDBRANCH  13  16
ENDBRANCH   8  10
ENDBRANCH   7   8
ENDBRANCH   1   7
BRANCH   5  21
HETATM   21  O2  UNL     1      -0.209  19.480  65.273  1.00  0.00    -0.349 OA
BRANCH  21  22
HETATM   22  C12 UNL     1      -1.399  19.471  65.950  1.00  0.00     0.203 C 
BRANCH  22  23
HETATM   23  C13 UNL     1      -1.965  20.843  66.163  1.00  0.00     0.258 C 
BRANCH  23  24
HETATM   24  N3  UNL     1      -1.556  21.419  67.423  1.00  0.00    -0.073 N 
ATOM     25  H32 UNL     1      -2.338  21.520  68.070  1.00  0.00     0.277 HD
ATOM     26  H31 UNL     1      -0.990  20.772  67.973  1.00  0.00     0.277 HD
BRANCH  24  27
HETATM   27  C14 UNL     1      -0.880  22.668  67.194  1.00  0.00     0.241 C 
BRANCH  27  28
HETATM   28  C15 UNL     1       0.549  22.471  66.830  1.00  0.00     0.127 C 
BRANCH  28  29
HETATM   29  C16 UNL     1       1.429  22.867  67.993  1.00  0.00     0.232 C 
HETATM   30  N4  UNL     1       0.960  22.496  69.283  1.00  0.00    -0.062 NA
HETATM   31  O3  UNL     1       2.504  23.482  67.827  1.00  0.00    -0.277 OA
ENDBRANCH  28  29
ENDBRANCH  27  28
ENDBRANCH  24  27
ENDBRANCH  23  24
ENDBRANCH  22  23
ENDBRANCH  21  22
ENDBRANCH   5  21
TORSDOF 11
ENDMDL
