MODEL 1
REMARK VINA RESULT: -7.607667149      0.000      0.000
REMARK  13 active torsions:
REMARK  status: ('A' for Active; 'I' for Inactive)
REMARK       I    between atoms: C1_4  and  N3_6 
REMARK    1  A    between atoms: N3_6  and  C2_8 
REMARK    2  A    between atoms: C2_8  and  C3_9 
REMARK    3  A    between atoms: C3_9  and  C4_10 
REMARK    4  A    between atoms: C4_10  and  O2_12 
REMARK    5  A    between atoms: O2_12  and  C5_13 
REMARK    6  A    between atoms: C5_13  and  C6_14 
REMARK    7  A    between atoms: C6_14  and  C7_15 
REMARK    8  A    between atoms: C10_18  and  O3_19 
REMARK    9  A    between atoms: O3_19  and  C11_20 
REMARK   10  A    between atoms: C11_20  and  C12_21 
REMARK   11  A    between atoms: C12_21  and  C13_22 
REMARK   12  A    between atoms: C16_25  and  C17_26 
REMARK   13  A    between atoms: C17_26  and  N4_27 
ROOT
HETATM    1  C7  UNL     1      -0.742  21.873  66.789  1.00  0.00    -0.056 A 
HETATM    2  C8  UNL     1      -1.243  22.085  68.057  1.00  0.00     0.010 A 
HETATM    3  C9  UNL     1      -0.450  22.531  69.097  1.00  0.00     0.037 A 
HETATM    4  C10 UNL     1       0.891  22.785  68.903  1.00  0.00     0.068 A 
HETATM    5  C20 UNL     1       1.393  22.574  67.637  1.00  0.00     0.037 A 
HETATM    6  C21 UNL     1       0.601  22.127  66.598  1.00  0.00     0.010 A 
ENDROOT
BRANCH   1   7
HETATM    7  C6  UNL     1      -1.603  21.388  65.661  1.00  0.00     0.065 C 
BRANCH   7   8
HETATM    8  C5  UNL     1      -1.800  19.890  65.756  1.00  0.00     0.183 C 
BRANCH   8   9
HETATM    9  O2  UNL     1      -0.685  19.164  65.360  1.00  0.00    -0.321 OA
BRANCH   9  10
HETATM   10  C4  UNL     1      -0.008  18.269  66.135  1.00  0.00     0.260 C 
HETATM   11  O1  UNL     1      -0.595  17.285  66.640  1.00  0.00    -0.265 OA
BRANCH  10  12
HETATM   12  C3  UNL     1       1.461  18.450  66.396  1.00  0.00     0.130 C 
BRANCH  12  13
HETATM   13  C2  UNL     1       2.209  17.236  65.839  1.00  0.00     0.132 C 
BRANCH  13  14
HETATM   14  N3  UNL     1       1.458  16.621  64.768  1.00  0.00    -0.364 N 
HETATM   15  C1  UNL     1       2.162  16.219  63.614  1.00  0.00     0.181 C 
HETATM   16  N1  UNL     1       2.405  14.978  63.408  1.00  0.00    -0.374 N 
HETATM   17  N2  UNL     1       2.598  17.185  62.688  1.00  0.00    -0.064 NA
ATOM     18  H12 UNL     1       2.914  14.687  62.574  1.00  0.00     0.158 HD
ATOM     19  H11 UNL     1       2.089  14.277  64.079  1.00  0.00     0.158 HD
ATOM     20  H3  UNL     1       0.451  16.483  64.845  1.00  0.00     0.162 HD
ENDBRANCH  13  14
ENDBRANCH  12  13
ENDBRANCH  10  12
ENDBRANCH   9  10
ENDBRANCH   8   9
ENDBRANCH   7   8
ENDBRANCH   1   7
BRANCH   4  21
HETATM   21  O3  UNL     1       1.720  23.235  69.925  1.00  0.00    -0.351 OA
BRANCH  21  22
HETATM   22  C11 UNL     1       1.888  22.540  71.120  1.00  0.00     0.180 C 
BRANCH  22  23
HETATM   23  C12 UNL     1       3.389  22.286  71.298  1.00  0.00     0.065 C 
BRANCH  23  24
HETATM   24  C13 UNL     1       3.882  21.378  70.243  1.00  0.00    -0.056 A 
HETATM   25  C14 UNL     1       3.327  20.115  70.165  1.00  0.00     0.007 A 
HETATM   26  C15 UNL     1       3.779  19.244  69.178  1.00  0.00     0.009 A 
HETATM   27  C16 UNL     1       4.761  19.604  68.276  1.00  0.00    -0.033 A 
HETATM   28  C18 UNL     1       5.294  20.872  68.380  1.00  0.00     0.009 A 
HETATM   29  C19 UNL     1       4.868  21.753  69.345  1.00  0.00     0.007 A 
BRANCH  27  30
HETATM   30  C17 UNL     1       5.236  18.655  67.218  1.00  0.00     0.268 C 
BRANCH  30  31
HETATM   31  N4  UNL     1       5.354  19.331  65.959  1.00  0.00    -0.075 N 
ATOM     32  H43 UNL     1       4.959  18.783  65.195  1.00  0.00     0.274 HD
ATOM     33  H42 UNL     1       4.734  20.139  65.902  1.00  0.00     0.274 HD
ATOM     34  H41 UNL     1       6.327  19.585  65.783  1.00  0.00     0.274 HD
ENDBRANCH  30  31
ENDBRANCH  27  30
ENDBRANCH  23  24
ENDBRANCH  22  23
ENDBRANCH  21  22
ENDBRANCH   4  21
TORSDOF 13
ENDMDL
MODEL 2
REMARK VINA RESULT: -7.344183094      1.504      2.225
REMARK  13 active torsions:
REMARK  status: ('A' for Active; 'I' for Inactive)
REMARK       I    between atoms: C1_4  and  N3_6 
REMARK    1  A    between atoms: N3_6  and  C2_8 
REMARK    2  A    between atoms: C2_8  and  C3_9 
REMARK    3  A    between atoms: C3_9  and  C4_10 
REMARK    4  A    between atoms: C4_10  and  O2_12 
REMARK    5  A    between atoms: O2_12  and  C5_13 
REMARK    6  A    between atoms: C5_13  and  C6_14 
REMARK    7  A    between atoms: C6_14  and  C7_15 
REMARK    8  A    between atoms: C10_18  and  O3_19 
REMARK    9  A    between atoms: O3_19  and  C11_20 
REMARK   10  A    between atoms: C11_20  and  C12_21 
REMARK   11  A    between atoms: C12_21  and  C13_22 
REMARK   12  A    between atoms: C16_25  and  C17_26 
REMARK   13  A    between atoms: C17_26  and  N4_27 
ROOT
HETATM    1  C7  UNL     1      -0.026  22.262  67.508  1.00  0.00    -0.056 A 
HETATM    2  C8  UNL     1       0.080  22.186  68.882  1.00  0.00     0.010 A 
HETATM    3  C9  UNL     1       1.300  22.171  69.528  1.00  0.00     0.037 A 
HETATM    4  C10 UNL     1       2.478  22.234  68.813  1.00  0.00     0.068 A 
HETATM    5  C20 UNL     1       2.375  22.310  67.441  1.00  0.00     0.037 A 
HETATM    6  C21 UNL     1       1.154  22.324  66.795  1.00  0.00     0.010 A 
ENDROOT
BRANCH   1   7
HETATM    7  C6  UNL     1      -1.351  22.277  66.808  1.00  0.00     0.065 C 
BRANCH   7   8
HETATM    8  C5  UNL     1      -1.834  20.863  66.565  1.00  0.00     0.183 C 
BRANCH   8   9
HETATM    9  O2  UNL     1      -0.969  20.116  65.777  1.00  0.00    -0.321 OA
BRANCH   9  10
HETATM   10  C4  UNL     1      -0.392  18.934  66.138  1.00  0.00     0.260 C 
HETATM   11  O1  UNL     1      -1.092  17.931  66.401  1.00  0.00    -0.265 OA
BRANCH  10  12
HETATM   12  C3  UNL     1       1.104  18.817  66.225  1.00  0.00     0.130 C 
BRANCH  12  13
HETATM   13  C2  UNL     1       1.518  17.440  65.699  1.00  0.00     0.132 C 
BRANCH  13  14
HETATM   14  N3  UNL     1       0.944  17.199  64.395  1.00  0.00    -0.364 N 
HETATM   15  C1  UNL     1       1.696  16.446  63.470  1.00  0.00     0.181 C 
HETATM   16  N1  UNL     1       1.379  15.230  63.220  1.00  0.00    -0.374 N 
HETATM   17  N2  UNL     1       2.798  17.034  62.822  1.00  0.00    -0.064 NA
ATOM     18  H12 UNL     1       1.924  14.685  62.552  1.00  0.00     0.158 HD
ATOM     19  H11 UNL     1       0.581  14.803  63.690  1.00  0.00     0.158 HD
ATOM     20  H3  UNL     1       0.022  17.562  64.151  1.00  0.00     0.162 HD
ENDBRANCH  13  14
ENDBRANCH  12  13
ENDBRANCH  10  12
ENDBRANCH   9  10
ENDBRANCH   8   9
ENDBRANCH   7   8
ENDBRANCH   1   7
BRANCH   4  21
HETATM   21  O3  UNL     1       3.725  22.222  69.428  1.00  0.00    -0.351 OA
BRANCH  21  22
HETATM   22  C11 UNL     1       4.241  21.095  70.063  1.00  0.00     0.180 C 
BRANCH  22  23
HETATM   23  C12 UNL     1       3.997  19.895  69.140  1.00  0.00     0.065 C 
BRANCH  23  24
HETATM   24  C13 UNL     1       5.019  19.854  68.076  1.00  0.00    -0.056 A 
HETATM   25  C14 UNL     1       6.320  20.177  68.413  1.00  0.00     0.007 A 
HETATM   26  C15 UNL     1       7.298  20.144  67.424  1.00  0.00     0.009 A 
HETATM   27  C16 UNL     1       7.008  19.800  66.117  1.00  0.00    -0.033 A 
HETATM   28  C18 UNL     1       5.700  19.483  65.812  1.00  0.00     0.009 A 
HETATM   29  C19 UNL     1       4.714  19.507  66.769  1.00  0.00     0.007 A 
BRANCH  27  30
HETATM   30  C17 UNL     1       8.073  19.769  65.063  1.00  0.00     0.268 C 
BRANCH  30  31
HETATM   31  N4  UNL     1       8.007  20.953  64.256  1.00  0.00    -0.075 N 
ATOM     32  H43 UNL     1       8.933  21.342  64.075  1.00  0.00     0.274 HD
ATOM     33  H42 UNL     1       7.741  20.744  63.294  1.00  0.00     0.274 HD
ATOM     34  H41 UNL     1       7.383  21.638  64.683  1.00  0.00     0.274 HD
ENDBRANCH  30  31
ENDBRANCH  27  30
ENDBRANCH  23  24
ENDBRANCH  22  23
ENDBRANCH  21  22
ENDBRANCH   4  21
TORSDOF 13
ENDMDL
MODEL 3
REMARK VINA RESULT: -7.326052380      2.625      6.147
REMARK  13 active torsions:
REMARK  status: ('A' for Active; 'I' for Inactive)
REMARK       I    between atoms: C1_4  and  N3_6 
REMARK    1  A    between atoms: N3_6  and  C2_8 
REMARK    2  A    between atoms: C2_8  and  C3_9 
REMARK    3  A    between atoms: C3_9  and  C4_10 
REMARK    4  A    between atoms: C4_10  and  O2_12 
REMARK    5  A    between atoms: O2_12  and  C5_13 
REMARK    6  A    between atoms: C5_13  and  C6_14 
REMARK    7  A    between atoms: C6_14  and  C7_15 
REMARK    8  A    between atoms: C10_18  and  O3_19 
REMARK    9  A    between atoms: O3_19  and  C11_20 
REMARK   10  A    between atoms: C11_20  and  C12_21 
REMARK   11  A    between atoms: C12_21  and  C13_22 
REMARK   12  A    between atoms: C16_25  and  C17_26 
REMARK   13  A    between atoms: C17_26  and  N4_27 
ROOT
HETATM    1  C7  UNL     1       3.278  22.543  69.375  1.00  0.00    -0.056 A 
HETATM    2  C8  UNL     1       2.913  22.511  68.045  1.00  0.00     0.010 A 
HETATM    3  C9  UNL     1       1.593  22.443  67.645  1.00  0.00     0.037 A 
HETATM    4  C10 UNL     1       0.574  22.407  68.573  1.00  0.00     0.068 A 
HETATM    5  C20 UNL     1       0.936  22.440  69.903  1.00  0.00     0.037 A 
HETATM    6  C21 UNL     1       2.257  22.506  70.303  1.00  0.00     0.010 A 
ENDROOT
BRANCH   1   7
HETATM    7  C6  UNL     1       4.711  22.615  69.809  1.00  0.00     0.065 C 
BRANCH   7   8
HETATM    8  C5  UNL     1       5.408  21.298  69.544  1.00  0.00     0.183 C 
BRANCH   8   9
HETATM    9  O2  UNL     1       6.350  21.369  68.528  1.00  0.00    -0.321 OA
BRANCH   9  10
HETATM   10  C4  UNL     1       7.006  20.306  67.981  1.00  0.00     0.260 C 
HETATM   11  O1  UNL     1       8.219  20.109  68.220  1.00  0.00    -0.265 OA
BRANCH  10  12
HETATM   12  C3  UNL     1       6.278  19.348  67.080  1.00  0.00     0.130 C 
BRANCH  12  13
HETATM   13  C2  UNL     1       6.609  19.698  65.627  1.00  0.00     0.132 C 
BRANCH  13  14
HETATM   14  N3  UNL     1       7.057  21.067  65.520  1.00  0.00    -0.364 N 
HETATM   15  C1  UNL     1       8.132  21.346  64.650  1.00  0.00     0.181 C 
HETATM   16  N1  UNL     1       7.916  21.914  63.523  1.00  0.00    -0.374 N 
HETATM   17  N2  UNL     1       9.443  20.997  65.024  1.00  0.00    -0.064 NA
ATOM     18  H12 UNL     1       8.693  22.115  62.893  1.00  0.00     0.158 HD
ATOM     19  H11 UNL     1       6.966  22.166  63.251  1.00  0.00     0.158 HD
ATOM     20  H3  UNL     1       6.610  21.809  66.058  1.00  0.00     0.162 HD
ENDBRANCH  13  14
ENDBRANCH  12  13
ENDBRANCH  10  12
ENDBRANCH   9  10
ENDBRANCH   8   9
ENDBRANCH   7   8
ENDBRANCH   1   7
BRANCH   4  21
HETATM   21  O3  UNL     1      -0.765  22.340  68.208  1.00  0.00    -0.351 OA
BRANCH  21  22
HETATM   22  C11 UNL     1      -1.199  22.529  66.898  1.00  0.00     0.180 C 
BRANCH  22  23
HETATM   23  C12 UNL     1      -1.956  21.264  66.476  1.00  0.00     0.065 C 
BRANCH  23  24
HETATM   24  C13 UNL     1      -1.004  20.196  66.116  1.00  0.00    -0.056 A 
HETATM   25  C14 UNL     1      -1.288  18.908  66.526  1.00  0.00     0.007 A 
HETATM   26  C15 UNL     1      -0.401  17.887  66.196  1.00  0.00     0.009 A 
HETATM   27  C16 UNL     1       0.751  18.123  65.472  1.00  0.00    -0.033 A 
HETATM   28  C18 UNL     1       1.007  19.420  65.077  1.00  0.00     0.009 A 
HETATM   29  C19 UNL     1       0.149  20.448  65.388  1.00  0.00     0.007 A 
BRANCH  27  30
HETATM   30  C17 UNL     1       1.696  17.013  65.124  1.00  0.00     0.268 C 
BRANCH  30  31
HETATM   31  N4  UNL     1       1.323  16.415  63.875  1.00  0.00    -0.075 N 
ATOM     32  H43 UNL     1       1.533  15.417  63.854  1.00  0.00     0.274 HD
ATOM     33  H42 UNL     1       0.310  16.358  63.768  1.00  0.00     0.274 HD
ATOM     34  H41 UNL     1       1.761  16.913  63.100  1.00  0.00     0.274 HD
ENDBRANCH  30  31
ENDBRANCH  27  30
ENDBRANCH  23  24
ENDBRANCH  22  23
ENDBRANCH  21  22
ENDBRANCH   4  21
TORSDOF 13
ENDMDL
MODEL 4
REMARK VINA RESULT: -7.184455635      4.125      5.034
REMARK  13 active torsions:
REMARK  status: ('A' for Active; 'I' for Inactive)
REMARK       I    between atoms: C1_4  and  N3_6 
REMARK    1  A    between atoms: N3_6  and  C2_8 
REMARK    2  A    between atoms: C2_8  and  C3_9 
REMARK    3  A    between atoms: C3_9  and  C4_10 
REMARK    4  A    between atoms: C4_10  and  O2_12 
REMARK    5  A    between atoms: O2_12  and  C5_13 
REMARK    6  A    between atoms: C5_13  and  C6_14 
REMARK    7  A    between atoms: C6_14  and  C7_15 
REMARK    8  A    between atoms: C10_18  and  O3_19 
REMARK    9  A    between atoms: O3_19  and  C11_20 
REMARK   10  A    between atoms: C11_20  and  C12_21 
REMARK   11  A    between atoms: C12_21  and  C13_22 
REMARK   12  A    between atoms: C16_25  and  C17_26 
REMARK   13  A    between atoms: C17_26  and  N4_27 
ROOT
HETATM    1  C7  UNL     1       1.004  21.952  67.572  1.00  0.00    -0.056 A 
HETATM    2  C8  UNL     1       2.211  21.315  67.368  1.00  0.00     0.010 A 
HETATM    3  C9  UNL     1       3.392  21.781  67.911  1.00  0.00     0.037 A 
HETATM    4  C10 UNL     1       3.410  22.918  68.691  1.00  0.00     0.068 A 
HETATM    5  C20 UNL     1       2.205  23.557  68.896  1.00  0.00     0.037 A 
HETATM    6  C21 UNL     1       1.024  23.091  68.352  1.00  0.00     0.010 A 
ENDROOT
BRANCH   1   7
HETATM    7  C6  UNL     1      -0.277  21.446  66.981  1.00  0.00     0.065 C 
BRANCH   7   8
HETATM    8  C5  UNL     1      -0.155  21.335  65.477  1.00  0.00     0.183 C 
BRANCH   8   9
HETATM    9  O2  UNL     1       0.085  20.039  65.039  1.00  0.00    -0.321 OA
BRANCH   9  10
HETATM   10  C4  UNL     1      -0.358  18.904  65.651  1.00  0.00     0.260 C 
HETATM   11  O1  UNL     1      -1.545  18.525  65.521  1.00  0.00    -0.265 OA
BRANCH  10  12
HETATM   12  C3  UNL     1       0.577  18.083  66.494  1.00  0.00     0.130 C 
BRANCH  12  13
HETATM   13  C2  UNL     1       1.583  17.388  65.572  1.00  0.00     0.132 C 
BRANCH  13  14
HETATM   14  N3  UNL     1       0.999  17.139  64.275  1.00  0.00    -0.364 N 
HETATM   15  C1  UNL     1       1.727  16.346  63.363  1.00  0.00     0.181 C 
HETATM   16  N1  UNL     1       1.374  15.136  63.137  1.00  0.00    -0.374 N 
HETATM   17  N2  UNL     1       2.844  16.889  62.701  1.00  0.00    -0.064 NA
ATOM     18  H12 UNL     1       1.901  14.563  62.478  1.00  0.00     0.158 HD
ATOM     19  H11 UNL     1       0.564  14.741  63.617  1.00  0.00     0.158 HD
ATOM     20  H3  UNL     1       0.088  17.523  64.026  1.00  0.00     0.162 HD
ENDBRANCH  13  14
ENDBRANCH  12  13
ENDBRANCH  10  12
ENDBRANCH   9  10
ENDBRANCH   8   9
ENDBRANCH   7   8
ENDBRANCH   1   7
BRANCH   4  21
HETATM   21  O3  UNL     1       4.578  23.417  69.255  1.00  0.00    -0.351 OA
BRANCH  21  22
HETATM   22  C11 UNL     1       4.578  24.300  70.332  1.00  0.00     0.180 C 
BRANCH  22  23
HETATM   23  C12 UNL     1       6.027  24.747  70.562  1.00  0.00     0.065 C 
BRANCH  23  24
HETATM   24  C13 UNL     1       6.251  26.078  69.965  1.00  0.00    -0.056 A 
HETATM   25  C14 UNL     1       7.553  26.531  69.862  1.00  0.00     0.007 A 
HETATM   26  C15 UNL     1       7.785  27.784  69.302  1.00  0.00     0.009 A 
HETATM   27  C16 UNL     1       6.756  28.586  68.847  1.00  0.00    -0.033 A 
HETATM   28  C18 UNL     1       5.468  28.105  68.965  1.00  0.00     0.009 A 
HETATM   29  C19 UNL     1       5.209  26.871  69.513  1.00  0.00     0.007 A 
BRANCH  27  30
HETATM   30  C17 UNL     1       7.022  29.933  68.247  1.00  0.00     0.268 C 
BRANCH  30  31
HETATM   31  N4  UNL     1       5.972  30.847  68.591  1.00  0.00    -0.075 N 
ATOM     32  H43 UNL     1       5.158  30.736  67.986  1.00  0.00     0.274 HD
ATOM     33  H42 UNL     1       5.533  30.606  69.480  1.00  0.00     0.274 HD
ATOM     34  H41 UNL     1       6.322  31.805  68.588  1.00  0.00     0.274 HD
ENDBRANCH  30  31
ENDBRANCH  27  30
ENDBRANCH  23  24
ENDBRANCH  22  23
ENDBRANCH  21  22
ENDBRANCH   4  21
TORSDOF 13
ENDMDL
MODEL 5
REMARK VINA RESULT: -7.167432735      3.734      6.178
REMARK  13 active torsions:
REMARK  status: ('A' for Active; 'I' for Inactive)
REMARK       I    between atoms: C1_4  and  N3_6 
REMARK    1  A    between atoms: N3_6  and  C2_8 
REMARK    2  A    between atoms: C2_8  and  C3_9 
REMARK    3  A    between atoms: C3_9  and  C4_10 
REMARK    4  A    between atoms: C4_10  and  O2_12 
REMARK    5  A    between atoms: O2_12  and  C5_13 
REMARK    6  A    between atoms: C5_13  and  C6_14 
REMARK    7  A    between atoms: C6_14  and  C7_15 
REMARK    8  A    between atoms: C10_18  and  O3_19 
REMARK    9  A    between atoms: O3_19  and  C11_20 
REMARK   10  A    between atoms: C11_20  and  C12_21 
REMARK   11  A    between atoms: C12_21  and  C13_22 
REMARK   12  A    between atoms: C16_25  and  C17_26 
REMARK   13  A    between atoms: C17_26  and  N4_27 
ROOT
HETATM    1  C7  UNL     1       1.095  18.181  66.105  1.00  0.00    -0.056 A 
HETATM    2  C8  UNL     1       1.850  17.518  65.159  1.00  0.00     0.010 A 
HETATM    3  C9  UNL     1       3.186  17.800  64.952  1.00  0.00     0.037 A 
HETATM    4  C10 UNL     1       3.827  18.768  65.697  1.00  0.00     0.068 A 
HETATM    5  C20 UNL     1       3.075  19.431  66.643  1.00  0.00     0.037 A 
HETATM    6  C21 UNL     1       1.738  19.150  66.849  1.00  0.00     0.010 A 
ENDROOT
BRANCH   1   7
HETATM    7  C6  UNL     1      -0.355  17.875  66.328  1.00  0.00     0.065 C 
BRANCH   7   8
HETATM    8  C5  UNL     1      -1.219  18.977  65.754  1.00  0.00     0.183 C 
BRANCH   8   9
HETATM    9  O2  UNL     1      -1.667  19.878  66.710  1.00  0.00    -0.321 OA
BRANCH   9  10
HETATM   10  C4  UNL     1      -1.816  21.221  66.523  1.00  0.00     0.260 C 
HETATM   11  O1  UNL     1      -2.375  21.668  65.496  1.00  0.00    -0.265 OA
BRANCH  10  12
HETATM   12  C3  UNL     1      -1.311  22.190  67.554  1.00  0.00     0.130 C 
BRANCH  12  13
HETATM   13  C2  UNL     1       0.141  22.546  67.221  1.00  0.00     0.132 C 
BRANCH  13  14
HETATM   14  N3  UNL     1       0.981  22.407  68.387  1.00  0.00    -0.364 N 
HETATM   15  C1  UNL     1       2.142  23.206  68.465  1.00  0.00     0.181 C 
HETATM   16  N1  UNL     1       2.174  24.219  69.248  1.00  0.00    -0.374 N 
HETATM   17  N2  UNL     1       3.264  22.886  67.679  1.00  0.00    -0.064 NA
ATOM     18  H12 UNL     1       3.013  24.797  69.303  1.00  0.00     0.158 HD
ATOM     19  H11 UNL     1       1.361  24.451  69.818  1.00  0.00     0.158 HD
ATOM     20  H3  UNL     1       0.743  21.753  69.132  1.00  0.00     0.162 HD
ENDBRANCH  13  14
ENDBRANCH  12  13
ENDBRANCH  10  12
ENDBRANCH   9  10
ENDBRANCH   8   9
ENDBRANCH   7   8
ENDBRANCH   1   7
BRANCH   4  21
HETATM   21  O3  UNL     1       5.170  19.078  65.518  1.00  0.00    -0.351 OA
BRANCH  21  22
HETATM   22  C11 UNL     1       5.803  20.110  66.206  1.00  0.00     0.180 C 
BRANCH  22  23
HETATM   23  C12 UNL     1       6.977  20.587  65.343  1.00  0.00     0.065 C 
BRANCH  23  24
HETATM   24  C13 UNL     1       8.175  19.768  65.615  1.00  0.00    -0.056 A 
HETATM   25  C14 UNL     1       8.971  19.410  64.543  1.00  0.00     0.007 A 
HETATM   26  C15 UNL     1      10.105  18.637  64.779  1.00  0.00     0.009 A 
HETATM   27  C16 UNL     1      10.456  18.218  66.048  1.00  0.00    -0.033 A 
HETATM   28  C18 UNL     1       9.640  18.592  67.095  1.00  0.00     0.009 A 
HETATM   29  C19 UNL     1       8.515  19.355  66.893  1.00  0.00     0.007 A 
BRANCH  27  30
HETATM   30  C17 UNL     1      11.680  17.386  66.284  1.00  0.00     0.268 C 
BRANCH  30  31
HETATM   31  N4  UNL     1      11.316  16.109  66.826  1.00  0.00    -0.075 N 
ATOM     32  H43 UNL     1      10.368  15.840  66.561  1.00  0.00     0.274 HD
ATOM     33  H42 UNL     1      11.821  15.346  66.375  1.00  0.00     0.274 HD
ATOM     34  H41 UNL     1      11.444  16.104  67.838  1.00  0.00     0.274 HD
ENDBRANCH  30  31
ENDBRANCH  27  30
ENDBRANCH  23  24
ENDBRANCH  22  23
ENDBRANCH  21  22
ENDBRANCH   4  21
TORSDOF 13
ENDMDL
