MODEL 1
REMARK VINA RESULT: -9.545272236      0.000      0.000
REMARK  12 active torsions:
REMARK  status: ('A' for Active; 'I' for Inactive)
REMARK    1  A    between atoms: C2_2  and  C3_3 
REMARK    2  A    between atoms: C3_3  and  C4_4 
REMARK    3  A    between atoms: C5_6  and  N1_7 
REMARK    4  A    between atoms: N1_7  and  N2_9 
REMARK    5  A    between atoms: C6_11  and  C7_12 
REMARK    6  A    between atoms: C9_14  and  N3_15 
REMARK    7  A    between atoms: C10_18  and  O3_19 
REMARK    8  A    between atoms: O3_19  and  C11_20 
REMARK    9  A    between atoms: N5_26  and  C12_27 
REMARK   10  A    between atoms: C12_27  and  C13_28 
REMARK   11  A    between atoms: C12_27  and  C15_30 
REMARK   12  A    between atoms: C17_33  and  O4_34 
ROOT
HETATM    1  N1  UNL     1      15.518  15.835  26.915  1.00  0.00    -0.280 N 
ATOM      2  H1  UNL     1      14.508  15.886  26.785  1.00  0.00     0.189 HD
ENDROOT
BRANCH   1   3
HETATM    3  C5  UNL     1      16.045  14.738  27.403  1.00  0.00     0.168 A 
HETATM    4  S1  UNL     1      17.686  14.304  27.300  1.00  0.00    -0.053 SA
HETATM    5  C4  UNL     1      17.592  12.816  28.131  1.00  0.00     0.037 A 
HETATM    6  C17 UNL     1      16.264  12.742  28.445  1.00  0.00     0.158 A 
HETATM    7  N5  UNL     1      15.475  13.730  28.071  1.00  0.00    -0.300 N 
BRANCH   5   8
HETATM    8  C3  UNL     1      18.698  11.850  28.428  1.00  0.00     0.050 C 
BRANCH   8   9
HETATM    9  C2  UNL     1      18.810  11.518  29.875  1.00  0.00     0.001 C 
HETATM   10  C1  UNL     1      18.713   9.996  29.991  1.00  0.00     0.005 C 
ENDBRANCH   8   9
ENDBRANCH   5   8
BRANCH   6  11
HETATM   11  O4  UNL     1      15.840  11.581  29.165  1.00  0.00    -0.345 OA
ATOM     12  H4  UNL     1      15.037  11.661  29.666  1.00  0.00     0.219 HD
ENDBRANCH   6  11
BRANCH   7  13
HETATM   13  C12 UNL     1      14.018  13.820  28.322  1.00  0.00     0.112 C 
BRANCH  13  14
HETATM   14  C13 UNL     1      13.655  14.714  29.455  1.00  0.00     0.023 C 
HETATM   15  C14 UNL     1      12.808  15.901  29.013  1.00  0.00     0.007 C 
ENDBRANCH  13  14
BRANCH  13  16
HETATM   16  C15 UNL     1      13.413  12.468  28.536  1.00  0.00     0.101 C 
HETATM   17  C16 UNL     1      12.224  12.467  29.442  1.00  0.00     0.029 C 
HETATM   18 CL2  UNL     1      12.884  11.872  26.944  1.00  0.00    -0.123 Cl
ENDBRANCH  13  16
ENDBRANCH   7  13
ENDBRANCH   1   3
BRANCH   1  19
HETATM   19  N2  UNL     1      16.297  16.923  26.571  1.00  0.00    -0.308 N 
HETATM   20  C6  UNL     1      16.131  17.582  25.487  1.00  0.00     0.136 C 
ATOM     21  H2  UNL     1      17.038  17.214  27.209  1.00  0.00     0.186 HD
BRANCH  20  22
HETATM   22  C7  UNL     1      16.973  18.722  25.162  1.00  0.00     0.053 A 
HETATM   23  C8  UNL     1      18.129  19.115  25.833  1.00  0.00     0.071 A 
HETATM   24  C9  UNL     1      18.609  20.241  25.197  1.00  0.00     0.156 A 
HETATM   25  C10 UNL     1      17.774  20.538  24.162  1.00  0.00     0.183 A 
HETATM   26  N4  UNL     1      16.807  19.617  24.164  1.00  0.00    -0.334 N 
ATOM     27  H4  UNL     1      16.038  19.592  23.494  1.00  0.00     0.168 HD
BRANCH  24  28
HETATM   28  N3  UNL     1      19.772  20.955  25.574  1.00  0.00    -0.111 N 
HETATM   29  O1  UNL     1      20.594  20.411  26.316  1.00  0.00    -0.532 OA
HETATM   30  O2  UNL     1      19.980  22.219  25.127  1.00  0.00    -0.532 OA
ENDBRANCH  24  28
BRANCH  25  31
HETATM   31  O3  UNL     1      17.829  21.566  23.235  1.00  0.00    -0.251 OA
BRANCH  31  32
HETATM   32  C11 UNL     1      17.056  22.741  23.346  1.00  0.00     0.448 C 
HETATM   33  F1  UNL     1      15.715  22.556  23.203  1.00  0.00    -0.159 F 
HETATM   34  F2  UNL     1      17.336  23.402  24.548  1.00  0.00    -0.159 F 
HETATM   35 CL1  UNL     1      17.588  23.833  22.041  1.00  0.00    -0.014 Cl
ENDBRANCH  31  32
ENDBRANCH  25  31
ENDBRANCH  20  22
ENDBRANCH   1  19
TORSDOF 12
ENDMDL
MODEL 2
REMARK VINA RESULT: -9.266742932      1.051      1.492
REMARK  12 active torsions:
REMARK  status: ('A' for Active; 'I' for Inactive)
REMARK    1  A    between atoms: C2_2  and  C3_3 
REMARK    2  A    between atoms: C3_3  and  C4_4 
REMARK    3  A    between atoms: C5_6  and  N1_7 
REMARK    4  A    between atoms: N1_7  and  N2_9 
REMARK    5  A    between atoms: C6_11  and  C7_12 
REMARK    6  A    between atoms: C9_14  and  N3_15 
REMARK    7  A    between atoms: C10_18  and  O3_19 
REMARK    8  A    between atoms: O3_19  and  C11_20 
REMARK    9  A    between atoms: N5_26  and  C12_27 
REMARK   10  A    between atoms: C12_27  and  C13_28 
REMARK   11  A    between atoms: C12_27  and  C15_30 
REMARK   12  A    between atoms: C17_33  and  O4_34 
ROOT
HETATM    1  N1  UNL     1      15.382  15.792  27.012  1.00  0.00    -0.280 N 
ATOM      2  H1  UNL     1      14.367  15.823  26.918  1.00  0.00     0.189 HD
ENDROOT
BRANCH   1   3
HETATM    3  C5  UNL     1      15.949  14.699  27.464  1.00  0.00     0.168 A 
HETATM    4  S1  UNL     1      17.609  14.343  27.374  1.00  0.00    -0.053 SA
HETATM    5  C4  UNL     1      17.568  12.817  28.140  1.00  0.00     0.037 A 
HETATM    6  C17 UNL     1      16.239  12.672  28.425  1.00  0.00     0.158 A 
HETATM    7  N5  UNL     1      15.413  13.639  28.077  1.00  0.00    -0.300 N 
BRANCH   5   8
HETATM    8  C3  UNL     1      18.711  11.889  28.416  1.00  0.00     0.050 C 
BRANCH   8   9
HETATM    9  C2  UNL     1      18.861  11.563  29.862  1.00  0.00     0.001 C 
HETATM   10  C1  UNL     1      18.728  10.045  29.991  1.00  0.00     0.005 C 
ENDBRANCH   8   9
ENDBRANCH   5   8
BRANCH   6  11
HETATM   11  O4  UNL     1      15.856  11.464  29.087  1.00  0.00    -0.345 OA
ATOM     12  H4  UNL     1      15.124  11.523  29.690  1.00  0.00     0.219 HD
ENDBRANCH   6  11
BRANCH   7  13
HETATM   13  C12 UNL     1      13.949  13.654  28.304  1.00  0.00     0.112 C 
BRANCH  13  14
HETATM   14  C13 UNL     1      13.156  13.136  27.158  1.00  0.00     0.023 C 
HETATM   15  C14 UNL     1      12.828  11.654  27.298  1.00  0.00     0.007 C 
ENDBRANCH  13  14
BRANCH  13  16
HETATM   16  C15 UNL     1      13.465  15.022  28.672  1.00  0.00     0.101 C 
HETATM   17  C16 UNL     1      12.002  15.232  28.449  1.00  0.00     0.029 C 
HETATM   18 CL2  UNL     1      13.786  15.243  30.409  1.00  0.00    -0.123 Cl
ENDBRANCH  13  16
ENDBRANCH   7  13
ENDBRANCH   1   3
BRANCH   1  19
HETATM   19  N2  UNL     1      16.125  16.903  26.661  1.00  0.00    -0.308 N 
HETATM   20  C6  UNL     1      16.138  17.383  25.476  1.00  0.00     0.136 C 
ATOM     21  H2  UNL     1      16.689  17.359  27.378  1.00  0.00     0.186 HD
BRANCH  20  22
HETATM   22  C7  UNL     1      16.934  18.554  25.146  1.00  0.00     0.053 A 
HETATM   23  C8  UNL     1      18.078  18.991  25.811  1.00  0.00     0.071 A 
HETATM   24  C9  UNL     1      18.512  20.135  25.173  1.00  0.00     0.156 A 
HETATM   25  C10 UNL     1      17.660  20.399  24.142  1.00  0.00     0.183 A 
HETATM   26  N4  UNL     1      16.729  19.442  24.149  1.00  0.00    -0.334 N 
ATOM     27  H4  UNL     1      15.958  19.388  23.484  1.00  0.00     0.168 HD
BRANCH  24  28
HETATM   28  N3  UNL     1      19.649  20.892  25.544  1.00  0.00    -0.111 N 
HETATM   29  O1  UNL     1      20.485  20.387  26.297  1.00  0.00    -0.532 OA
HETATM   30  O2  UNL     1      19.817  22.156  25.079  1.00  0.00    -0.532 OA
ENDBRANCH  24  28
BRANCH  25  31
HETATM   31  O3  UNL     1      17.672  21.429  23.215  1.00  0.00    -0.251 OA
BRANCH  31  32
HETATM   32  C11 UNL     1      16.932  22.620  23.383  1.00  0.00     0.448 C 
HETATM   33  F1  UNL     1      15.596  22.497  23.153  1.00  0.00    -0.159 F 
HETATM   34  F2  UNL     1      17.166  23.170  24.649  1.00  0.00    -0.159 F 
HETATM   35 CL1  UNL     1      17.573  23.793  22.203  1.00  0.00    -0.014 Cl
ENDBRANCH  31  32
ENDBRANCH  25  31
ENDBRANCH  20  22
ENDBRANCH   1  19
TORSDOF 12
ENDMDL
MODEL 3
REMARK VINA RESULT: -7.819480319      4.267      6.883
REMARK  12 active torsions:
REMARK  status: ('A' for Active; 'I' for Inactive)
REMARK    1  A    between atoms: C2_2  and  C3_3 
REMARK    2  A    between atoms: C3_3  and  C4_4 
REMARK    3  A    between atoms: C5_6  and  N1_7 
REMARK    4  A    between atoms: N1_7  and  N2_9 
REMARK    5  A    between atoms: C6_11  and  C7_12 
REMARK    6  A    between atoms: C9_14  and  N3_15 
REMARK    7  A    between atoms: C10_18  and  O3_19 
REMARK    8  A    between atoms: O3_19  and  C11_20 
REMARK    9  A    between atoms: N5_26  and  C12_27 
REMARK   10  A    between atoms: C12_27  and  C13_28 
REMARK   11  A    between atoms: C12_27  and  C15_30 
REMARK   12  A    between atoms: C17_33  and  O4_34 
ROOT
HETATM    1  N1  UNL     1      10.795  13.449  29.531  1.00  0.00    -0.280 N 
ATOM      2  H1  UNL     1      10.039  14.119  29.394  1.00  0.00     0.189 HD
ENDROOT
BRANCH   1   3
HETATM    3  C5  UNL     1      10.522  12.271  30.036  1.00  0.00     0.168 A 
HETATM    4  S1  UNL     1       9.076  11.850  30.826  1.00  0.00    -0.053 SA
HETATM    5  C4  UNL     1       9.460  10.224  31.178  1.00  0.00     0.037 A 
HETATM    6  C17 UNL     1      10.715  10.102  30.650  1.00  0.00     0.158 A 
HETATM    7  N5  UNL     1      11.255  11.154  30.065  1.00  0.00    -0.300 N 
BRANCH   5   8
HETATM    8  C3  UNL     1       8.620   9.207  31.887  1.00  0.00     0.050 C 
BRANCH   8   9
HETATM    9  C2  UNL     1       7.882   9.769  33.052  1.00  0.00     0.001 C 
HETATM   10  C1  UNL     1       6.447   9.246  32.963  1.00  0.00     0.005 C 
ENDBRANCH   8   9
ENDBRANCH   5   8
BRANCH   6  11
HETATM   11  O4  UNL     1      11.342   8.823  30.780  1.00  0.00    -0.345 OA
ATOM     12  H4  UNL     1      12.011   8.611  30.140  1.00  0.00     0.219 HD
ENDBRANCH   6  11
BRANCH   7  13
HETATM   13  C12 UNL     1      12.598  11.206  29.442  1.00  0.00     0.112 C 
BRANCH  13  14
HETATM   14  C13 UNL     1      12.684  10.501  28.135  1.00  0.00     0.023 C 
HETATM   15  C14 UNL     1      13.451  11.302  27.090  1.00  0.00     0.007 C 
ENDBRANCH  13  14
BRANCH  13  16
HETATM   16  C15 UNL     1      13.652  10.682  30.366  1.00  0.00     0.101 C 
HETATM   17  C16 UNL     1      14.246   9.378  29.938  1.00  0.00     0.029 C 
HETATM   18 CL2  UNL     1      14.962  11.888  30.406  1.00  0.00    -0.123 Cl
ENDBRANCH  13  16
ENDBRANCH   7  13
ENDBRANCH   1   3
BRANCH   1  19
HETATM   19  N2  UNL     1      12.083  13.806  29.179  1.00  0.00    -0.308 N 
HETATM   20  C6  UNL     1      12.344  14.603  28.213  1.00  0.00     0.136 C 
ATOM     21  H2  UNL     1      12.861  13.417  29.713  1.00  0.00     0.186 HD
BRANCH  20  22
HETATM   22  C7  UNL     1      13.713  14.953  27.874  1.00  0.00     0.053 A 
HETATM   23  C8  UNL     1      14.831  14.128  27.984  1.00  0.00     0.071 A 
HETATM   24  C9  UNL     1      15.923  14.857  27.560  1.00  0.00     0.156 A 
HETATM   25  C10 UNL     1      15.494  16.099  27.198  1.00  0.00     0.183 A 
HETATM   26  N4  UNL     1      14.174  16.130  27.395  1.00  0.00    -0.334 N 
ATOM     27  H4  UNL     1      13.585  16.941  27.208  1.00  0.00     0.168 HD
BRANCH  24  28
HETATM   28  N3  UNL     1      17.254  14.377  27.519  1.00  0.00    -0.111 N 
HETATM   29  O1  UNL     1      18.176  15.182  27.369  1.00  0.00    -0.532 OA
HETATM   30  O2  UNL     1      17.512  13.050  27.644  1.00  0.00    -0.532 OA
ENDBRANCH  24  28
BRANCH  25  31
HETATM   31  O3  UNL     1      16.206  17.183  26.710  1.00  0.00    -0.251 OA
BRANCH  31  32
HETATM   32  C11 UNL     1      16.458  17.378  25.334  1.00  0.00     0.448 C 
HETATM   33  F1  UNL     1      16.391  16.248  24.578  1.00  0.00    -0.159 F 
HETATM   34  F2  UNL     1      15.615  18.369  24.816  1.00  0.00    -0.159 F 
HETATM   35 CL1  UNL     1      18.117  18.014  25.201  1.00  0.00    -0.014 Cl
ENDBRANCH  31  32
ENDBRANCH  25  31
ENDBRANCH  20  22
ENDBRANCH   1  19
TORSDOF 12
ENDMDL
MODEL 4
REMARK VINA RESULT: -7.744065077      1.769      2.370
REMARK  12 active torsions:
REMARK  status: ('A' for Active; 'I' for Inactive)
REMARK    1  A    between atoms: C2_2  and  C3_3 
REMARK    2  A    between atoms: C3_3  and  C4_4 
REMARK    3  A    between atoms: C5_6  and  N1_7 
REMARK    4  A    between atoms: N1_7  and  N2_9 
REMARK    5  A    between atoms: C6_11  and  C7_12 
REMARK    6  A    between atoms: C9_14  and  N3_15 
REMARK    7  A    between atoms: C10_18  and  O3_19 
REMARK    8  A    between atoms: O3_19  and  C11_20 
REMARK    9  A    between atoms: N5_26  and  C12_27 
REMARK   10  A    between atoms: C12_27  and  C13_28 
REMARK   11  A    between atoms: C12_27  and  C15_30 
REMARK   12  A    between atoms: C17_33  and  O4_34 
ROOT
HETATM    1  N1  UNL     1      15.209  15.301  26.722  1.00  0.00    -0.280 N 
ATOM      2  H1  UNL     1      14.266  15.114  26.384  1.00  0.00     0.189 HD
ENDROOT
BRANCH   1   3
HETATM    3  C5  UNL     1      15.866  14.352  27.343  1.00  0.00     0.168 A 
HETATM    4  S1  UNL     1      17.548  14.112  27.275  1.00  0.00    -0.053 SA
HETATM    5  C4  UNL     1      17.637  12.747  28.297  1.00  0.00     0.037 A 
HETATM    6  C17 UNL     1      16.327  12.555  28.638  1.00  0.00     0.158 A 
HETATM    7  N5  UNL     1      15.423  13.380  28.147  1.00  0.00    -0.300 N 
BRANCH   5   8
HETATM    8  C3  UNL     1      18.852  11.971  28.703  1.00  0.00     0.050 C 
BRANCH   8   9
HETATM    9  C2  UNL     1      18.748  11.399  30.074  1.00  0.00     0.001 C 
HETATM   10  C1  UNL     1      18.821   9.878  29.928  1.00  0.00     0.005 C 
ENDBRANCH   8   9
ENDBRANCH   5   8
BRANCH   6  11
HETATM   11  O4  UNL     1      16.047  11.457  29.511  1.00  0.00    -0.345 OA
ATOM     12  H4  UNL     1      15.152  11.374  29.816  1.00  0.00     0.219 HD
ENDBRANCH   6  11
BRANCH   7  13
HETATM   13  C12 UNL     1      13.965  13.325  28.406  1.00  0.00     0.112 C 
BRANCH  13  14
HETATM   14  C13 UNL     1      13.534  14.104  29.597  1.00  0.00     0.023 C 
HETATM   15  C14 UNL     1      13.021  15.492  29.232  1.00  0.00     0.007 C 
ENDBRANCH  13  14
BRANCH  13  16
HETATM   16  C15 UNL     1      13.483  11.913  28.528  1.00  0.00     0.101 C 
HETATM   17  C16 UNL     1      12.078  11.788  29.025  1.00  0.00     0.029 C 
HETATM   18 CL2  UNL     1      13.549  11.193  26.901  1.00  0.00    -0.123 Cl
ENDBRANCH  13  16
ENDBRANCH   7  13
ENDBRANCH   1   3
BRANCH   1  19
HETATM   19  N2  UNL     1      15.764  16.550  26.514  1.00  0.00    -0.308 N 
HETATM   20  C6  UNL     1      15.906  17.062  25.350  1.00  0.00     0.136 C 
ATOM     21  H2  UNL     1      16.074  17.087  27.324  1.00  0.00     0.186 HD
BRANCH  20  22
HETATM   22  C7  UNL     1      16.495  18.379  25.173  1.00  0.00     0.053 A 
HETATM   23  C8  UNL     1      16.205  19.285  24.155  1.00  0.00     0.071 A 
HETATM   24  C9  UNL     1      16.987  20.403  24.366  1.00  0.00     0.156 A 
HETATM   25  C10 UNL     1      17.739  20.195  25.483  1.00  0.00     0.183 A 
HETATM   26  N4  UNL     1      17.426  18.981  25.945  1.00  0.00    -0.334 N 
ATOM     27  H4  UNL     1      17.840  18.560  26.776  1.00  0.00     0.168 HD
BRANCH  24  28
HETATM   28  N3  UNL     1      16.993  21.556  23.546  1.00  0.00    -0.111 N 
HETATM   29  O1  UNL     1      15.998  22.285  23.529  1.00  0.00    -0.532 OA
HETATM   30  O2  UNL     1      18.078  21.857  22.788  1.00  0.00    -0.532 OA
ENDBRANCH  24  28
BRANCH  25  31
HETATM   31  O3  UNL     1      18.669  21.016  26.099  1.00  0.00    -0.251 OA
BRANCH  31  32
HETATM   32  C11 UNL     1      19.980  21.194  25.607  1.00  0.00     0.448 C 
HETATM   33  F1  UNL     1      20.220  22.416  25.059  1.00  0.00    -0.159 F 
HETATM   34  F2  UNL     1      20.922  20.905  26.602  1.00  0.00    -0.159 F 
HETATM   35 CL1  UNL     1      20.218  19.977  24.326  1.00  0.00    -0.014 Cl
ENDBRANCH  31  32
ENDBRANCH  25  31
ENDBRANCH  20  22
ENDBRANCH   1  19
TORSDOF 12
ENDMDL
MODEL 5
REMARK VINA RESULT: -7.701394671      5.632     10.191
REMARK  12 active torsions:
REMARK  status: ('A' for Active; 'I' for Inactive)
REMARK    1  A    between atoms: C2_2  and  C3_3 
REMARK    2  A    between atoms: C3_3  and  C4_4 
REMARK    3  A    between atoms: C5_6  and  N1_7 
REMARK    4  A    between atoms: N1_7  and  N2_9 
REMARK    5  A    between atoms: C6_11  and  C7_12 
REMARK    6  A    between atoms: C9_14  and  N3_15 
REMARK    7  A    between atoms: C10_18  and  O3_19 
REMARK    8  A    between atoms: O3_19  and  C11_20 
REMARK    9  A    between atoms: N5_26  and  C12_27 
REMARK   10  A    between atoms: C12_27  and  C13_28 
REMARK   11  A    between atoms: C12_27  and  C15_30 
REMARK   12  A    between atoms: C17_33  and  O4_34 
ROOT
HETATM    1  N1  UNL     1      17.184  13.283  28.038  1.00  0.00    -0.280 N 
ATOM      2  H1  UNL     1      18.187  13.195  28.200  1.00  0.00     0.189 HD
ENDROOT
BRANCH   1   3
HETATM    3  C5  UNL     1      16.734  14.313  27.362  1.00  0.00     0.168 A 
HETATM    4  S1  UNL     1      17.685  15.374  26.435  1.00  0.00    -0.053 SA
HETATM    5  C4  UNL     1      16.435  16.402  25.890  1.00  0.00     0.037 A 
HETATM    6  C17 UNL     1      15.330  15.848  26.472  1.00  0.00     0.158 A 
HETATM    7  N5  UNL     1      15.487  14.777  27.226  1.00  0.00    -0.300 N 
BRANCH   5   8
HETATM    8  C3  UNL     1      16.545  17.601  25.000  1.00  0.00     0.050 C 
BRANCH   8   9
HETATM    9  C2  UNL     1      17.912  18.193  24.984  1.00  0.00     0.001 C 
HETATM   10  C1  UNL     1      18.481  17.959  23.584  1.00  0.00     0.005 C 
ENDBRANCH   8   9
ENDBRANCH   5   8
BRANCH   6  11
HETATM   11  O4  UNL     1      14.079  16.489  26.209  1.00  0.00    -0.345 OA
ATOM     12  H4  UNL     1      14.115  17.311  25.733  1.00  0.00     0.219 HD
ENDBRANCH   6  11
BRANCH   7  13
HETATM   13  C12 UNL     1      14.410  14.047  27.933  1.00  0.00     0.112 C 
BRANCH  13  14
HETATM   14  C13 UNL     1      13.317  13.572  27.041  1.00  0.00     0.023 C 
HETATM   15  C14 UNL     1      12.948  12.116  27.296  1.00  0.00     0.007 C 
ENDBRANCH  13  14
BRANCH  13  16
HETATM   16  C15 UNL     1      13.831  14.865  29.045  1.00  0.00     0.101 C 
HETATM   17  C16 UNL     1      12.462  15.396  28.764  1.00  0.00     0.029 C 
HETATM   18 CL2  UNL     1      13.720  13.807  30.472  1.00  0.00    -0.123 Cl
ENDBRANCH  13  16
ENDBRANCH   7  13
ENDBRANCH   1   3
BRANCH   1  19
HETATM   19  N2  UNL     1      16.333  12.314  28.535  1.00  0.00    -0.308 N 
HETATM   20  C6  UNL     1      16.741  11.323  29.233  1.00  0.00     0.136 C 
ATOM     21  H2  UNL     1      15.335  12.392  28.337  1.00  0.00     0.186 HD
BRANCH  20  22
HETATM   22  C7  UNL     1      15.814  10.324  29.738  1.00  0.00     0.053 A 
HETATM   23  C8  UNL     1      16.093   8.980  29.974  1.00  0.00     0.071 A 
HETATM   24  C9  UNL     1      14.935   8.397  30.446  1.00  0.00     0.156 A 
HETATM   25  C10 UNL     1      13.966   9.353  30.500  1.00  0.00     0.183 A 
HETATM   26  N4  UNL     1      14.516  10.492  30.073  1.00  0.00    -0.334 N 
ATOM     27  H4  UNL     1      14.018  11.380  30.007  1.00  0.00     0.168 HD
BRANCH  24  28
HETATM   28  N3  UNL     1      14.798   7.034  30.803  1.00  0.00    -0.111 N 
HETATM   29  O1  UNL     1      14.530   6.745  31.971  1.00  0.00    -0.532 OA
HETATM   30  O2  UNL     1      14.960   6.058  29.873  1.00  0.00    -0.532 OA
ENDBRANCH  24  28
BRANCH  25  31
HETATM   31  O3  UNL     1      12.644   9.263  30.904  1.00  0.00    -0.251 OA
BRANCH  31  32
HETATM   32  C11 UNL     1      11.591   9.922  30.234  1.00  0.00     0.448 C 
HETATM   33  F1  UNL     1      11.546  11.268  30.428  1.00  0.00    -0.159 F 
HETATM   34  F2  UNL     1      11.615   9.623  28.866  1.00  0.00    -0.159 F 
HETATM   35 CL1  UNL     1      10.071   9.239  30.867  1.00  0.00    -0.014 Cl
ENDBRANCH  31  32
ENDBRANCH  25  31
ENDBRANCH  20  22
ENDBRANCH   1  19
TORSDOF 12
ENDMDL
