MODEL 1
REMARK VINA RESULT: -5.118785863      0.000      0.000
REMARK  2 active torsions:
REMARK  status: ('A' for Active; 'I' for Inactive)
REMARK    1  A    between atoms: C1_4  and  C2_5 
REMARK       I    between atoms: C2_5  and  N2_7 
REMARK    2  A    between atoms: N2_7  and  C3_9 
ROOT
HETATM    1  C2  UNL     1      29.482  32.029   7.946  1.00  0.00     0.256 C 
HETATM    2  O1  UNL     1      28.243  31.869   7.941  1.00  0.00    -0.267 OA
HETATM    3  N2  UNL     1      30.323  30.919   8.143  1.00  0.00    -0.352 N 
ATOM      4  H2  UNL     1      31.331  31.074   8.144  1.00  0.00     0.163 HD
ENDROOT
BRANCH   1   5
HETATM    5  C1  UNL     1      30.061  33.344   7.752  1.00  0.00     0.155 C 
HETATM    6  N1  UNL     1      31.294  33.527   7.421  1.00  0.00    -0.404 N 
ATOM      7  H12 UNL     1      31.874  32.698   7.295  1.00  0.00     0.155 HD
ATOM      8  H11 UNL     1      31.701  34.452   7.285  1.00  0.00     0.155 HD
ENDBRANCH   1   5
BRANCH   3   9
HETATM    9  C3  UNL     1      29.841  29.568   8.345  1.00  0.00     0.084 A 
HETATM   10  C4  UNL     1      30.739  28.411   8.362  1.00  0.00     0.027 A 
HETATM   11  C5  UNL     1      30.242  28.984   9.686  1.00  0.00     0.027 A 
ENDBRANCH   3   9
TORSDOF 2
ENDMDL
MODEL 2
REMARK VINA RESULT: -5.033508461      1.595      1.595
REMARK  2 active torsions:
REMARK  status: ('A' for Active; 'I' for Inactive)
REMARK    1  A    between atoms: C1_4  and  C2_5 
REMARK       I    between atoms: C2_5  and  N2_7 
REMARK    2  A    between atoms: N2_7  and  C3_9 
ROOT
HETATM    1  C2  UNL     1      29.237  31.420   9.363  1.00  0.00     0.256 C 
HETATM    2  O1  UNL     1      28.273  30.968  10.017  1.00  0.00    -0.267 OA
HETATM    3  N2  UNL     1      30.097  30.530   8.693  1.00  0.00    -0.352 N 
ATOM      4  H2  UNL     1      30.877  30.922   8.166  1.00  0.00     0.163 HD
ENDROOT
BRANCH   1   5
HETATM    5  C1  UNL     1      29.478  32.847   9.288  1.00  0.00     0.155 C 
HETATM    6  N1  UNL     1      30.257  33.471  10.105  1.00  0.00    -0.404 N 
ATOM      7  H12 UNL     1      30.716  32.921  10.831  1.00  0.00     0.155 HD
ATOM      8  H11 UNL     1      30.426  34.476  10.052  1.00  0.00     0.155 HD
ENDBRANCH   1   5
BRANCH   3   9
HETATM    9  C3  UNL     1      29.939  29.090   8.708  1.00  0.00     0.084 A 
HETATM   10  C4  UNL     1      31.030  28.180   8.355  1.00  0.00     0.027 A 
HETATM   11  C5  UNL     1      30.707  28.416   9.828  1.00  0.00     0.027 A 
ENDBRANCH   3   9
TORSDOF 2
ENDMDL
MODEL 3
REMARK VINA RESULT: -4.955624022      1.006      1.108
REMARK  2 active torsions:
REMARK  status: ('A' for Active; 'I' for Inactive)
REMARK    1  A    between atoms: C1_4  and  C2_5 
REMARK       I    between atoms: C2_5  and  N2_7 
REMARK    2  A    between atoms: N2_7  and  C3_9 
ROOT
HETATM    1  C2  UNL     1      30.007  33.033   7.833  1.00  0.00     0.256 C 
HETATM    2  O1  UNL     1      28.784  33.225   8.007  1.00  0.00    -0.267 OA
HETATM    3  N2  UNL     1      30.517  31.723   7.897  1.00  0.00    -0.352 N 
ATOM      4  H2  UNL     1      31.518  31.591   7.752  1.00  0.00     0.163 HD
ENDROOT
BRANCH   1   5
HETATM    5  C1  UNL     1      30.902  34.141   7.567  1.00  0.00     0.155 C 
HETATM    6  N1  UNL     1      32.175  34.078   7.759  1.00  0.00    -0.404 N 
ATOM      7  H12 UNL     1      32.554  33.200   8.114  1.00  0.00     0.155 HD
ATOM      8  H11 UNL     1      32.805  34.858   7.572  1.00  0.00     0.155 HD
ENDBRANCH   1   5
BRANCH   3   9
HETATM    9  C3  UNL     1      29.705  30.553   8.156  1.00  0.00     0.084 A 
HETATM   10  C4  UNL     1      30.284  29.217   8.314  1.00  0.00     0.027 A 
HETATM   11  C5  UNL     1      29.880  30.002   9.558  1.00  0.00     0.027 A 
ENDBRANCH   3   9
TORSDOF 2
ENDMDL
MODEL 4
REMARK VINA RESULT: -4.902417013      1.454      1.675
REMARK  2 active torsions:
REMARK  status: ('A' for Active; 'I' for Inactive)
REMARK    1  A    between atoms: C1_4  and  C2_5 
REMARK       I    between atoms: C2_5  and  N2_7 
REMARK    2  A    between atoms: N2_7  and  C3_9 
ROOT
HETATM    1  C2  UNL     1      29.699  31.654   8.699  1.00  0.00     0.256 C 
HETATM    2  O1  UNL     1      29.820  31.489   9.933  1.00  0.00    -0.267 OA
HETATM    3  N2  UNL     1      29.237  30.592   7.902  1.00  0.00    -0.352 N 
ATOM      4  H2  UNL     1      29.147  30.749   6.898  1.00  0.00     0.163 HD
ENDROOT
BRANCH   1   5
HETATM    5  C1  UNL     1      30.031  32.924   8.085  1.00  0.00     0.155 C 
HETATM    6  N1  UNL     1      31.123  33.123   7.429  1.00  0.00    -0.404 N 
ATOM      7  H12 UNL     1      31.772  32.340   7.349  1.00  0.00     0.155 HD
ATOM      8  H11 UNL     1      31.356  34.017   6.997  1.00  0.00     0.155 HD
ENDBRANCH   1   5
BRANCH   3   9
HETATM    9  C3  UNL     1      28.880  29.287   8.422  1.00  0.00     0.084 A 
HETATM   10  C4  UNL     1      28.111  28.317   7.640  1.00  0.00     0.027 A 
HETATM   11  C5  UNL     1      29.625  28.151   7.748  1.00  0.00     0.027 A 
ENDBRANCH   3   9
TORSDOF 2
ENDMDL
MODEL 5
REMARK VINA RESULT: -4.781423075      1.356      1.399
REMARK  2 active torsions:
REMARK  status: ('A' for Active; 'I' for Inactive)
REMARK    1  A    between atoms: C1_4  and  C2_5 
REMARK       I    between atoms: C2_5  and  N2_7 
REMARK    2  A    between atoms: N2_7  and  C3_9 
ROOT
HETATM    1  C2  UNL     1      29.536  31.945   8.459  1.00  0.00     0.256 C 
HETATM    2  O1  UNL     1      29.152  31.669   7.302  1.00  0.00    -0.267 OA
HETATM    3  N2  UNL     1      29.946  30.908   9.317  1.00  0.00    -0.352 N 
ATOM      4  H2  UNL     1      30.255  31.156  10.257  1.00  0.00     0.163 HD
ENDROOT
BRANCH   1   5
HETATM    5  C1  UNL     1      29.563  33.317   8.924  1.00  0.00     0.155 C 
HETATM    6  N1  UNL     1      30.278  33.705   9.925  1.00  0.00    -0.404 N 
ATOM      7  H12 UNL     1      30.844  33.002  10.399  1.00  0.00     0.155 HD
ATOM      8  H11 UNL     1      30.296  34.671  10.252  1.00  0.00     0.155 HD
ENDBRANCH   1   5
BRANCH   3   9
HETATM    9  C3  UNL     1      29.956  29.508   8.945  1.00  0.00     0.084 A 
HETATM   10  C4  UNL     1      30.657  28.493   9.734  1.00  0.00     0.027 A 
HETATM   11  C5  UNL     1      29.145  28.634   9.882  1.00  0.00     0.027 A 
ENDBRANCH   3   9
TORSDOF 2
ENDMDL
