MODEL 1
REMARK VINA RESULT: -5.956594622      0.000      0.000
REMARK  0 active torsions:
REMARK  status: ('A' for Active; 'I' for Inactive)
ROOT
HETATM    1  C1  UNL     1      31.487  16.705  10.020  1.00  0.00     0.038 A 
HETATM    2  C2  UNL     1      30.860  15.629   9.528  1.00  0.00     0.121 A 
HETATM    3  N1  UNL     1      31.759  14.526   9.498  1.00  0.00    -0.236 N 
HETATM    4  C3  UNL     1      31.529  13.317   9.091  1.00  0.00     0.221 A 
HETATM    5  N2  UNL     1      32.416  12.207   9.056  1.00  0.00    -0.320 N 
ATOM      6  H2  UNL     1      33.389  12.235   9.363  1.00  0.00     0.169 HD
HETATM    7  C4  UNL     1      31.828  11.163   8.586  1.00  0.00     0.200 A 
HETATM    8  N3  UNL     1      30.483  11.482   8.259  1.00  0.00    -0.293 N 
ATOM      9  H3  UNL     1      29.785  10.849   7.867  1.00  0.00     0.187 HD
HETATM   10  N4  UNL     1      30.300  12.830   8.578  1.00  0.00    -0.269 N 
ATOM     11  H4  UNL     1      29.440  13.366   8.462  1.00  0.00     0.190 HD
HETATM   12  N5  UNL     1      32.962  15.025  10.007  1.00  0.00    -0.303 N 
ATOM     13  H5  UNL     1      33.816  14.477  10.118  1.00  0.00     0.186 HD
HETATM   14  C5  UNL     1      32.846  16.272  10.318  1.00  0.00     0.109 A 
ENDROOT
TORSDOF 0
ENDMDL
MODEL 2
REMARK VINA RESULT: -5.877064299      1.021      4.377
REMARK  0 active torsions:
REMARK  status: ('A' for Active; 'I' for Inactive)
ROOT
HETATM    1  C1  UNL     1      31.641  10.824   9.075  1.00  0.00     0.038 A 
HETATM    2  C2  UNL     1      32.259  11.908   9.563  1.00  0.00     0.121 A 
HETATM    3  N1  UNL     1      31.473  13.064   9.302  1.00  0.00    -0.236 N 
HETATM    4  C3  UNL     1      31.730  14.295   9.616  1.00  0.00     0.221 A 
HETATM    5  N2  UNL     1      30.953  15.458   9.362  1.00  0.00    -0.320 N 
ATOM      6  H2  UNL     1      30.056  15.459   8.877  1.00  0.00     0.169 HD
HETATM    7  C4  UNL     1      31.534  16.509   9.826  1.00  0.00     0.200 A 
HETATM    8  N3  UNL     1      32.764  16.142  10.437  1.00  0.00    -0.293 N 
ATOM      9  H3  UNL     1      33.431  16.769  10.886  1.00  0.00     0.187 HD
HETATM   10  N4  UNL     1      32.881  14.756  10.304  1.00  0.00    -0.269 N 
ATOM     11  H4  UNL     1      33.653  14.181  10.639  1.00  0.00     0.190 HD
HETATM   12  N5  UNL     1      30.344  12.589   8.625  1.00  0.00    -0.303 N 
ATOM     13  H5  UNL     1      29.578  13.176   8.294  1.00  0.00     0.186 HD
HETATM   14  C5  UNL     1      30.404  11.309   8.475  1.00  0.00     0.109 A 
ENDROOT
TORSDOF 0
ENDMDL
MODEL 3
REMARK VINA RESULT: -5.768823628      1.455      1.735
REMARK  0 active torsions:
REMARK  status: ('A' for Active; 'I' for Inactive)
ROOT
HETATM    1  C1  UNL     1      33.038  17.254   9.532  1.00  0.00     0.038 A 
HETATM    2  C2  UNL     1      32.429  16.230  10.147  1.00  0.00     0.121 A 
HETATM    3  N1  UNL     1      32.423  15.095   9.289  1.00  0.00    -0.236 N 
HETATM    4  C3  UNL     1      31.930  13.919   9.522  1.00  0.00     0.221 A 
HETATM    5  N2  UNL     1      31.917  12.777   8.676  1.00  0.00    -0.320 N 
ATOM      6  H2  UNL     1      32.315  12.749   7.737  1.00  0.00     0.169 HD
HETATM    7  C4  UNL     1      31.336  11.784   9.253  1.00  0.00     0.200 A 
HETATM    8  N3  UNL     1      30.903  12.174  10.549  1.00  0.00    -0.293 N 
ATOM      9  H3  UNL     1      30.412  11.591  11.228  1.00  0.00     0.187 HD
HETATM   10  N4  UNL     1      31.277  13.510  10.713  1.00  0.00    -0.269 N 
ATOM     11  H4  UNL     1      31.111  14.086  11.538  1.00  0.00     0.190 HD
HETATM   12  N5  UNL     1      33.071  15.517   8.124  1.00  0.00    -0.303 N 
ATOM     13  H5  UNL     1      33.231  14.930   7.305  1.00  0.00     0.186 HD
HETATM   14  C5  UNL     1      33.438  16.750   8.224  1.00  0.00     0.109 A 
ENDROOT
TORSDOF 0
ENDMDL
MODEL 4
REMARK VINA RESULT: -5.712233401      1.282      1.504
REMARK  0 active torsions:
REMARK  status: ('A' for Active; 'I' for Inactive)
ROOT
HETATM    1  C1  UNL     1      33.178  16.807   9.033  1.00  0.00     0.038 A 
HETATM    2  C2  UNL     1      33.032  15.575   8.528  1.00  0.00     0.121 A 
HETATM    3  N1  UNL     1      32.340  14.755   9.463  1.00  0.00    -0.236 N 
HETATM    4  C3  UNL     1      32.009  13.508   9.342  1.00  0.00     0.221 A 
HETATM    5  N2  UNL     1      31.319  12.678  10.267  1.00  0.00    -0.320 N 
ATOM      6  H2  UNL     1      30.987  12.984  11.182  1.00  0.00     0.169 HD
HETATM    7  C4  UNL     1      31.170  11.489   9.795  1.00  0.00     0.200 A 
HETATM    8  N3  UNL     1      31.752  11.414   8.501  1.00  0.00    -0.293 N 
ATOM      9  H3  UNL     1      31.783  10.595   7.894  1.00  0.00     0.187 HD
HETATM   10  N4  UNL     1      32.275  12.680   8.222  1.00  0.00    -0.269 N 
ATOM     11  H4  UNL     1      32.761  12.957   7.369  1.00  0.00     0.190 HD
HETATM   12  N5  UNL     1      32.087  15.588  10.557  1.00  0.00    -0.303 N 
ATOM     13  H5  UNL     1      31.600  15.298  11.405  1.00  0.00     0.186 HD
HETATM   14  C5  UNL     1      32.552  16.774  10.349  1.00  0.00     0.109 A 
ENDROOT
TORSDOF 0
ENDMDL
MODEL 5
REMARK VINA RESULT: -5.646992541      1.006      1.591
REMARK  0 active torsions:
REMARK  status: ('A' for Active; 'I' for Inactive)
ROOT
HETATM    1  C1  UNL     1      32.695  16.604   9.742  1.00  0.00     0.038 A 
HETATM    2  C2  UNL     1      32.903  15.449   9.095  1.00  0.00     0.121 A 
HETATM    3  N1  UNL     1      31.793  14.583   9.295  1.00  0.00    -0.236 N 
HETATM    4  C3  UNL     1      31.619  13.384   8.833  1.00  0.00     0.221 A 
HETATM    5  N2  UNL     1      30.516  12.509   9.024  1.00  0.00    -0.320 N 
ATOM      6  H2  UNL     1      29.689  12.734   9.577  1.00  0.00     0.169 HD
HETATM    7  C4  UNL     1      30.702  11.394   8.407  1.00  0.00     0.200 A 
HETATM    8  N3  UNL     1      31.957  11.422   7.742  1.00  0.00    -0.293 N 
ATOM      9  H3  UNL     1      32.363  10.676   7.177  1.00  0.00     0.187 HD
HETATM   10  N4  UNL     1      32.527  12.669   8.011  1.00  0.00    -0.269 N 
ATOM     11  H4  UNL     1      33.431  13.004   7.677  1.00  0.00     0.190 HD
HETATM   12  N5  UNL     1      30.911  15.305  10.106  1.00  0.00    -0.303 N 
ATOM     13  H5  UNL     1      30.009  14.958  10.433  1.00  0.00     0.186 HD
HETATM   14  C5  UNL     1      31.393  16.469  10.385  1.00  0.00     0.109 A 
ENDROOT
TORSDOF 0
ENDMDL
