MODEL 1
REMARK VINA RESULT: -5.729516234      0.000      0.000
REMARK  0 active torsions:
REMARK  status: ('A' for Active; 'I' for Inactive)
ROOT
HETATM    1  C1  UNL     1      30.767  16.642  10.272  1.00  0.00     0.066 C 
HETATM    2  C2  UNL     1      31.093  15.397   9.993  1.00  0.00     0.129 A 
HETATM    3  N1  UNL     1      31.406  14.700   8.869  1.00  0.00    -0.249 N 
ATOM      4  H1  UNL     1      31.488  14.925   7.878  1.00  0.00     0.191 HD
HETATM    5  N2  UNL     1      31.561  13.610   9.599  1.00  0.00    -0.017 N 
HETATM    6  C3  UNL     1      31.881  12.378   9.345  1.00  0.00     0.718 A 
HETATM    7  N3  UNL     1      32.163  11.875   8.124  1.00  0.00    -0.197 N 
ATOM      8  H3  UNL     1      32.157  12.406   7.253  1.00  0.00     0.183 HD
HETATM    9  C4  UNL     1      32.453  10.561   8.234  1.00  0.00     0.123 A 
HETATM   10  C5  UNL     1      32.353  10.221   9.558  1.00  0.00     0.123 A 
HETATM   11  N4  UNL     1      32.004  11.352  10.197  1.00  0.00    -0.197 N 
ATOM     12  H4  UNL     1      31.852  11.419  11.203  1.00  0.00     0.183 HD
HETATM   13  N5  UNL     1      31.259  14.267  10.705  1.00  0.00    -0.249 N 
ATOM     14  H5  UNL     1      31.183  14.019  11.692  1.00  0.00     0.191 HD
ENDROOT
TORSDOF 0
ENDMDL
MODEL 2
REMARK VINA RESULT: -5.724981882      0.047      1.419
REMARK  0 active torsions:
REMARK  status: ('A' for Active; 'I' for Inactive)
ROOT
HETATM    1  C1  UNL     1      30.751  16.627  10.268  1.00  0.00     0.066 C 
HETATM    2  C2  UNL     1      31.086  15.385   9.987  1.00  0.00     0.129 A 
HETATM    3  N1  UNL     1      31.260  14.238  10.695  1.00  0.00    -0.249 N 
ATOM      4  H1  UNL     1      31.183  13.977  11.679  1.00  0.00     0.191 HD
HETATM    5  N2  UNL     1      31.569  13.605   9.579  1.00  0.00    -0.017 N 
HETATM    6  C3  UNL     1      31.901  12.386   9.281  1.00  0.00     0.718 A 
HETATM    7  N3  UNL     1      32.020  11.367  10.159  1.00  0.00    -0.197 N 
ATOM      8  H3  UNL     1      31.861  11.435  11.164  1.00  0.00     0.183 HD
HETATM    9  C4  UNL     1      32.380  10.245   9.501  1.00  0.00     0.123 A 
HETATM   10  C5  UNL     1      32.494  10.559   8.172  1.00  0.00     0.123 A 
HETATM   11  N4  UNL     1      32.195  11.867   8.082  1.00  0.00    -0.197 N 
ATOM     12  H4  UNL     1      32.193  12.397   7.210  1.00  0.00     0.183 HD
HETATM   13  N5  UNL     1      31.407  14.708   8.868  1.00  0.00    -0.249 N 
ATOM     14  H5  UNL     1      31.490  14.947   7.880  1.00  0.00     0.191 HD
ENDROOT
TORSDOF 0
ENDMDL
MODEL 3
REMARK VINA RESULT: -5.683317250      1.411      1.420
REMARK  0 active torsions:
REMARK  status: ('A' for Active; 'I' for Inactive)
ROOT
HETATM    1  C1  UNL     1      32.723  16.924  10.204  1.00  0.00     0.066 C 
HETATM    2  C2  UNL     1      32.299  15.703   9.953  1.00  0.00     0.129 A 
HETATM    3  N1  UNL     1      31.322  15.149   9.188  1.00  0.00    -0.249 N 
ATOM      4  H1  UNL     1      30.603  15.509   8.560  1.00  0.00     0.191 HD
HETATM    5  N2  UNL     1      31.694  13.950   9.597  1.00  0.00    -0.017 N 
HETATM    6  C3  UNL     1      31.291  12.738   9.363  1.00  0.00     0.718 A 
HETATM    7  N3  UNL     1      30.274  12.393   8.545  1.00  0.00    -0.197 N 
ATOM      8  H3  UNL     1      29.699  13.046   8.013  1.00  0.00     0.183 HD
HETATM    9  C4  UNL     1      30.134  11.050   8.541  1.00  0.00     0.123 A 
HETATM   10  C5  UNL     1      31.087  10.529   9.378  1.00  0.00     0.123 A 
HETATM   11  N4  UNL     1      31.767  11.587   9.855  1.00  0.00    -0.197 N 
ATOM     12  H4  UNL     1      32.547  11.521  10.509  1.00  0.00     0.183 HD
HETATM   13  N5  UNL     1      32.650  14.465  10.349  1.00  0.00    -0.249 N 
ATOM     14  H5  UNL     1      33.362  14.083  10.973  1.00  0.00     0.191 HD
ENDROOT
TORSDOF 0
ENDMDL
MODEL 4
REMARK VINA RESULT: -5.671613908      1.420      1.820
REMARK  0 active torsions:
REMARK  status: ('A' for Active; 'I' for Inactive)
ROOT
HETATM    1  C1  UNL     1      32.725  16.950  10.189  1.00  0.00     0.066 C 
HETATM    2  C2  UNL     1      32.305  15.725   9.946  1.00  0.00     0.129 A 
HETATM    3  N1  UNL     1      32.656  14.477  10.352  1.00  0.00    -0.249 N 
ATOM      4  H1  UNL     1      33.363  14.092  10.979  1.00  0.00     0.191 HD
HETATM    5  N2  UNL     1      31.700  13.971   9.595  1.00  0.00    -0.017 N 
HETATM    6  C3  UNL     1      31.271  12.772   9.342  1.00  0.00     0.718 A 
HETATM    7  N3  UNL     1      31.772  11.632   9.865  1.00  0.00    -0.197 N 
ATOM      8  H3  UNL     1      32.551  11.579  10.523  1.00  0.00     0.183 HD
HETATM    9  C4  UNL     1      31.085  10.575   9.384  1.00  0.00     0.123 A 
HETATM   10  C5  UNL     1      30.123  11.055   8.533  1.00  0.00     0.123 A 
HETATM   11  N4  UNL     1      30.271  12.392   8.537  1.00  0.00    -0.197 N 
ATOM     12  H4  UNL     1      29.694  13.035   7.995  1.00  0.00     0.183 HD
HETATM   13  N5  UNL     1      31.341  15.175   9.185  1.00  0.00    -0.249 N 
ATOM     14  H5  UNL     1      30.627  15.537   8.553  1.00  0.00     0.191 HD
ENDROOT
TORSDOF 0
ENDMDL
MODEL 5
REMARK VINA RESULT: -5.414878042      1.575      1.575
REMARK  0 active torsions:
REMARK  status: ('A' for Active; 'I' for Inactive)
ROOT
HETATM    1  C1  UNL     1      33.373  17.012   8.938  1.00  0.00     0.066 C 
HETATM    2  C2  UNL     1      32.917  15.780   9.030  1.00  0.00     0.129 A 
HETATM    3  N1  UNL     1      32.774  14.729   8.180  1.00  0.00    -0.249 N 
ATOM      4  H1  UNL     1      32.976  14.562   7.194  1.00  0.00     0.191 HD
HETATM    5  N2  UNL     1      32.263  14.013   9.166  1.00  0.00    -0.017 N 
HETATM    6  C3  UNL     1      31.809  12.802   9.277  1.00  0.00     0.718 A 
HETATM    7  N3  UNL     1      31.753  11.890   8.283  1.00  0.00    -0.197 N 
ATOM      8  H3  UNL     1      32.062  12.046   7.323  1.00  0.00     0.183 HD
HETATM    9  C4  UNL     1      31.227  10.740   8.755  1.00  0.00     0.123 A 
HETATM   10  C5  UNL     1      30.940  10.927  10.082  1.00  0.00     0.123 A 
HETATM   11  N4  UNL     1      31.309  12.191  10.358  1.00  0.00    -0.197 N 
ATOM     12  H4  UNL     1      31.219  12.628  11.275  1.00  0.00     0.183 HD
HETATM   13  N5  UNL     1      32.392  15.022  10.010  1.00  0.00    -0.249 N 
ATOM     14  H5  UNL     1      32.181  15.166  10.998  1.00  0.00     0.191 HD
ENDROOT
TORSDOF 0
ENDMDL
