MODEL 1
REMARK VINA RESULT: -6.524292402      0.000      0.000
REMARK  7 active torsions:
REMARK  status: ('A' for Active; 'I' for Inactive)
REMARK    1  A    between atoms: C2_3  and  O1_4 
REMARK    2  A    between atoms: C5_8  and  O2_9 
REMARK    3  A    between atoms: C6_11  and  C7_12 
REMARK    4  A    between atoms: C7_12  and  O3_13 
REMARK    5  A    between atoms: N2_15  and  C8_16 
REMARK    6  A    between atoms: C8_16  and  C9_17 
REMARK    7  A    between atoms: C14_23  and  N3_24 
ROOT
HETATM    1  C1  UNL     1      31.971 -10.113  -1.864  1.00  0.00     0.160 C 
HETATM    2  N1  UNL     1      32.238  -9.340  -3.056  1.00  0.00    -0.312 N 
HETATM    3  C2  UNL     1      32.937  -8.206  -3.159  1.00  0.00     0.151 A 
HETATM    4  C3  UNL     1      32.936  -7.822  -4.485  1.00  0.00     0.013 A 
HETATM    5  C4  UNL     1      32.242  -8.711  -5.233  1.00  0.00     0.029 A 
HETATM    6  C5  UNL     1      31.806  -9.664  -4.295  1.00  0.00     0.153 A 
HETATM    7  C6  UNL     1      32.062  -8.613  -6.716  1.00  0.00     0.151 C 
HETATM    8  N2  UNL     1      32.641  -7.424  -7.234  1.00  0.00    -0.332 N 
HETATM    9  C14 UNL     1      32.654  -6.287  -6.402  1.00  0.00     0.191 C 
HETATM   10  C20 UNL     1      33.507  -6.619  -5.143  1.00  0.00     0.128 C 
ENDROOT
BRANCH   8  11
HETATM   11  C8  UNL     1      32.857  -7.276  -8.591  1.00  0.00     0.078 C 
BRANCH  11  12
HETATM   12  C9  UNL     1      31.732  -7.091  -9.543  1.00  0.00     0.094 C 
HETATM   13  C10 UNL     1      31.863  -5.971 -10.522  1.00  0.00     0.018 C 
HETATM   14  C11 UNL     1      32.721  -6.504 -11.672  1.00  0.00     0.008 C 
HETATM   15  C12 UNL     1      32.811  -7.986 -11.476  1.00  0.00     0.079 C 
HETATM   16  C13 UNL     1      31.746  -8.264 -10.487  1.00  0.00     0.136 C 
HETATM   17  O4  UNL     1      31.027  -9.232 -10.437  1.00  0.00    -0.297 OA
ENDBRANCH  11  12
ENDBRANCH   8  11
BRANCH   7  18
HETATM   18  C7  UNL     1      32.705  -9.856  -7.289  1.00  0.00     0.194 C 
BRANCH  18  19
HETATM   19  O3  UNL     1      31.872 -10.731  -7.942  1.00  0.00    -0.398 OA
ATOM     20  H3  UNL     1      31.623 -10.497  -8.828  1.00  0.00     0.209 HD
ENDBRANCH  18  19
ENDBRANCH   7  18
BRANCH   9  21
HETATM   21  N3  UNL     1      31.490  -5.536  -6.136  1.00  0.00    -0.029 N 
HETATM   22  C15 UNL     1      31.445  -4.916  -4.792  1.00  0.00     0.281 C 
HETATM   23  C16 UNL     1      31.396  -4.307  -6.967  1.00  0.00     0.245 C 
HETATM   24  C17 UNL     1      29.998  -3.810  -6.877  1.00  0.00     0.030 C 
HETATM   25  C18 UNL     1      29.211  -5.053  -6.656  1.00  0.00     0.030 C 
HETATM   26  C19 UNL     1      30.208  -6.144  -6.250  1.00  0.00     0.245 C 
ENDBRANCH   9  21
BRANCH   6  27
HETATM   27  O2  UNL     1      31.050 -10.779  -4.516  1.00  0.00    -0.345 OA
ATOM     28  H2  UNL     1      30.126 -10.715  -4.729  1.00  0.00     0.219 HD
ENDBRANCH   6  27
BRANCH   3  29
HETATM   29  O1  UNL     1      33.568  -7.508  -2.144  1.00  0.00    -0.345 OA
ATOM     30  H1  UNL     1      33.778  -6.582  -2.122  1.00  0.00     0.219 HD
ENDBRANCH   3  29
TORSDOF 7
ENDMDL
MODEL 2
REMARK VINA RESULT: -6.415157456      1.701      2.171
REMARK  7 active torsions:
REMARK  status: ('A' for Active; 'I' for Inactive)
REMARK    1  A    between atoms: C2_3  and  O1_4 
REMARK    2  A    between atoms: C5_8  and  O2_9 
REMARK    3  A    between atoms: C6_11  and  C7_12 
REMARK    4  A    between atoms: C7_12  and  O3_13 
REMARK    5  A    between atoms: N2_15  and  C8_16 
REMARK    6  A    between atoms: C8_16  and  C9_17 
REMARK    7  A    between atoms: C14_23  and  N3_24 
ROOT
HETATM    1  C1  UNL     1      31.351  -9.420  -1.469  1.00  0.00     0.160 C 
HETATM    2  N1  UNL     1      31.627  -9.209  -2.873  1.00  0.00    -0.312 N 
HETATM    3  C2  UNL     1      32.817  -9.072  -3.465  1.00  0.00     0.151 A 
HETATM    4  C3  UNL     1      32.606  -8.893  -4.817  1.00  0.00     0.013 A 
HETATM    5  C4  UNL     1      31.281  -8.920  -5.094  1.00  0.00     0.029 A 
HETATM    6  C5  UNL     1      30.683  -9.119  -3.837  1.00  0.00     0.153 A 
HETATM    7  C6  UNL     1      30.700  -8.781  -6.467  1.00  0.00     0.151 C 
HETATM    8  N2  UNL     1      31.707  -8.533  -7.436  1.00  0.00    -0.332 N 
HETATM    9  C14 UNL     1      32.847  -7.813  -7.027  1.00  0.00     0.191 C 
HETATM   10  C20 UNL     1      33.566  -8.637  -5.920  1.00  0.00     0.128 C 
ENDROOT
BRANCH   8  11
HETATM   11  C8  UNL     1      31.438  -8.671  -8.785  1.00  0.00     0.078 C 
BRANCH  11  12
HETATM   12  C9  UNL     1      32.374  -8.166  -9.822  1.00  0.00     0.094 C 
HETATM   13  C10 UNL     1      32.747  -9.122 -10.907  1.00  0.00     0.018 C 
HETATM   14  C11 UNL     1      31.614  -9.067 -11.935  1.00  0.00     0.008 C 
HETATM   15  C12 UNL     1      30.776  -7.881 -11.572  1.00  0.00     0.079 C 
HETATM   16  C13 UNL     1      31.636  -7.132 -10.629  1.00  0.00     0.136 C 
HETATM   17  O4  UNL     1      31.733  -5.934 -10.518  1.00  0.00    -0.297 OA
ENDBRANCH  11  12
ENDBRANCH   8  11
BRANCH   7  18
HETATM   18  C7  UNL     1      29.960 -10.072  -6.730  1.00  0.00     0.194 C 
BRANCH  18  19
HETATM   19  O3  UNL     1      28.642  -9.960  -7.095  1.00  0.00    -0.398 OA
ATOM     20  H3  UNL     1      28.393 -10.368  -7.916  1.00  0.00     0.209 HD
ENDBRANCH  18  19
ENDBRANCH   7  18
BRANCH   9  21
HETATM   21  N3  UNL     1      32.813  -6.423  -6.791  1.00  0.00    -0.029 N 
HETATM   22  C15 UNL     1      33.336  -6.005  -5.469  1.00  0.00     0.281 C 
HETATM   23  C16 UNL     1      33.749  -5.669  -7.665  1.00  0.00     0.245 C 
HETATM   24  C17 UNL     1      33.369  -4.233  -7.596  1.00  0.00     0.030 C 
HETATM   25  C18 UNL     1      31.906  -4.283  -7.333  1.00  0.00     0.030 C 
HETATM   26  C19 UNL     1      31.584  -5.713  -6.885  1.00  0.00     0.245 C 
ENDBRANCH   9  21
BRANCH   6  27
HETATM   27  O2  UNL     1      29.353  -9.211  -3.541  1.00  0.00    -0.345 OA
ATOM     28  H2  UNL     1      28.706  -9.371  -4.218  1.00  0.00     0.219 HD
ENDBRANCH   6  27
BRANCH   3  29
HETATM   29  O1  UNL     1      34.065  -9.101  -2.866  1.00  0.00    -0.345 OA
ATOM     30  H1  UNL     1      34.640  -9.851  -2.761  1.00  0.00     0.219 HD
ENDBRANCH   3  29
TORSDOF 7
ENDMDL
MODEL 3
REMARK VINA RESULT: -6.384529306      1.186      1.393
REMARK  7 active torsions:
REMARK  status: ('A' for Active; 'I' for Inactive)
REMARK    1  A    between atoms: C2_3  and  O1_4 
REMARK    2  A    between atoms: C5_8  and  O2_9 
REMARK    3  A    between atoms: C6_11  and  C7_12 
REMARK    4  A    between atoms: C7_12  and  O3_13 
REMARK    5  A    between atoms: N2_15  and  C8_16 
REMARK    6  A    between atoms: C8_16  and  C9_17 
REMARK    7  A    between atoms: C14_23  and  N3_24 
ROOT
HETATM    1  C1  UNL     1      33.367  -9.680  -1.894  1.00  0.00     0.160 C 
HETATM    2  N1  UNL     1      33.158  -9.089  -3.196  1.00  0.00    -0.312 N 
HETATM    3  C2  UNL     1      33.678  -7.956  -3.677  1.00  0.00     0.151 A 
HETATM    4  C3  UNL     1      33.208  -7.781  -4.963  1.00  0.00     0.013 A 
HETATM    5  C4  UNL     1      32.391  -8.803  -5.309  1.00  0.00     0.029 A 
HETATM    6  C5  UNL     1      32.375  -9.618  -4.164  1.00  0.00     0.153 A 
HETATM    7  C6  UNL     1      31.727  -8.942  -6.644  1.00  0.00     0.151 C 
HETATM    8  N2  UNL     1      31.993  -7.823  -7.478  1.00  0.00    -0.332 N 
HETATM    9  C14 UNL     1      32.175  -6.572  -6.856  1.00  0.00     0.191 C 
HETATM   10  C20 UNL     1      33.420  -6.671  -5.927  1.00  0.00     0.128 C 
ENDROOT
BRANCH   8  11
HETATM   11  C8  UNL     1      31.738  -7.877  -8.835  1.00  0.00     0.078 C 
BRANCH  11  12
HETATM   12  C9  UNL     1      32.687  -7.314  -9.829  1.00  0.00     0.094 C 
HETATM   13  C10 UNL     1      33.096  -8.216 -10.947  1.00  0.00     0.018 C 
HETATM   14  C11 UNL     1      31.983  -8.132 -11.995  1.00  0.00     0.008 C 
HETATM   15  C12 UNL     1      31.119  -6.975 -11.598  1.00  0.00     0.079 C 
HETATM   16  C13 UNL     1      31.949  -6.256 -10.606  1.00  0.00     0.136 C 
HETATM   17  O4  UNL     1      32.026  -5.063 -10.441  1.00  0.00    -0.297 OA
ENDBRANCH  11  12
ENDBRANCH   8  11
BRANCH   7  18
HETATM   18  C7  UNL     1      32.256 -10.229  -7.233  1.00  0.00     0.194 C 
BRANCH  18  19
HETATM   19  O3  UNL     1      31.440 -11.329  -7.134  1.00  0.00    -0.398 OA
ATOM     20  H3  UNL     1      30.622 -11.294  -7.616  1.00  0.00     0.209 HD
ENDBRANCH  18  19
ENDBRANCH   7  18
BRANCH   9  21
HETATM   21  N3  UNL     1      31.099  -5.838  -6.313  1.00  0.00    -0.029 N 
HETATM   22  C15 UNL     1      31.402  -5.139  -5.043  1.00  0.00     0.281 C 
HETATM   23  C16 UNL     1      30.725  -4.666  -7.146  1.00  0.00     0.245 C 
HETATM   24  C17 UNL     1      29.387  -4.203  -6.694  1.00  0.00     0.030 C 
HETATM   25  C18 UNL     1      28.747  -5.450  -6.199  1.00  0.00     0.030 C 
HETATM   26  C19 UNL     1      29.864  -6.487  -6.032  1.00  0.00     0.245 C 
ENDBRANCH   9  21
BRANCH   6  27
HETATM   27  O2  UNL     1      31.692 -10.784  -3.968  1.00  0.00    -0.345 OA
ATOM     28  H2  UNL     1      30.814 -10.906  -4.310  1.00  0.00     0.219 HD
ENDBRANCH   6  27
BRANCH   3  29
HETATM   29  O1  UNL     1      34.541  -7.085  -3.035  1.00  0.00    -0.345 OA
ATOM     30  H1  UNL     1      35.487  -7.044  -3.114  1.00  0.00     0.219 HD
ENDBRANCH   3  29
TORSDOF 7
ENDMDL
MODEL 4
REMARK VINA RESULT: -6.375581866      2.683      6.374
REMARK  7 active torsions:
REMARK  status: ('A' for Active; 'I' for Inactive)
REMARK    1  A    between atoms: C2_3  and  O1_4 
REMARK    2  A    between atoms: C5_8  and  O2_9 
REMARK    3  A    between atoms: C6_11  and  C7_12 
REMARK    4  A    between atoms: C7_12  and  O3_13 
REMARK    5  A    between atoms: N2_15  and  C8_16 
REMARK    6  A    between atoms: C8_16  and  C9_17 
REMARK    7  A    between atoms: C14_23  and  N3_24 
ROOT
HETATM    1  C1  UNL     1      33.551  -9.572  -9.476  1.00  0.00     0.160 C 
HETATM    2  N1  UNL     1      32.891  -9.136  -8.267  1.00  0.00    -0.312 N 
HETATM    3  C2  UNL     1      33.049  -7.979  -7.616  1.00  0.00     0.151 A 
HETATM    4  C3  UNL     1      32.216  -7.989  -6.515  1.00  0.00     0.013 A 
HETATM    5  C4  UNL     1      31.521  -9.149  -6.462  1.00  0.00     0.029 A 
HETATM    6  C5  UNL     1      31.973  -9.860  -7.587  1.00  0.00     0.153 A 
HETATM    7  C6  UNL     1      30.509  -9.481  -5.409  1.00  0.00     0.151 C 
HETATM    8  N2  UNL     1      30.428  -8.462  -4.423  1.00  0.00    -0.332 N 
HETATM    9  C14 UNL     1      31.601  -7.736  -4.135  1.00  0.00     0.191 C 
HETATM   10  C20 UNL     1      32.038  -6.991  -5.430  1.00  0.00     0.128 C 
ENDROOT
BRANCH   8  11
HETATM   11  C8  UNL     1      29.365  -8.416  -3.540  1.00  0.00     0.078 C 
BRANCH  11  12
HETATM   12  C9  UNL     1      29.205  -7.302  -2.572  1.00  0.00     0.094 C 
HETATM   13  C10 UNL     1      27.847  -6.688  -2.478  1.00  0.00     0.018 C 
HETATM   14  C11 UNL     1      27.033  -7.588  -1.544  1.00  0.00     0.008 C 
HETATM   15  C12 UNL     1      28.014  -8.516  -0.896  1.00  0.00     0.079 C 
HETATM   16  C13 UNL     1      29.321  -7.888  -1.189  1.00  0.00     0.136 C 
HETATM   17  O4  UNL     1      30.293  -7.850  -0.475  1.00  0.00    -0.297 OA
ENDBRANCH  11  12
ENDBRANCH   8  11
BRANCH   7  18
HETATM   18  C7  UNL     1      29.201  -9.668  -6.144  1.00  0.00     0.194 C 
BRANCH  18  19
HETATM   19  O3  UNL     1      28.892 -10.949  -6.528  1.00  0.00    -0.398 OA
ATOM     20  H3  UNL     1      28.754 -11.090  -7.457  1.00  0.00     0.209 HD
ENDBRANCH  18  19
ENDBRANCH   7  18
BRANCH   9  21
HETATM   21  N3  UNL     1      32.665  -8.290  -3.393  1.00  0.00    -0.029 N 
HETATM   22  C15 UNL     1      33.959  -8.347  -4.111  1.00  0.00     0.281 C 
HETATM   23  C16 UNL     1      33.068  -7.439  -2.244  1.00  0.00     0.245 C 
HETATM   24  C17 UNL     1      33.912  -8.269  -1.344  1.00  0.00     0.030 C 
HETATM   25  C18 UNL     1      33.390  -9.644  -1.566  1.00  0.00     0.030 C 
HETATM   26  C19 UNL     1      32.547  -9.598  -2.846  1.00  0.00     0.245 C 
ENDBRANCH   9  21
BRANCH   6  27
HETATM   27  O2  UNL     1      31.601 -11.105  -8.002  1.00  0.00    -0.345 OA
ATOM     28  H2  UNL     1      30.700 -11.302  -8.231  1.00  0.00     0.219 HD
ENDBRANCH   6  27
BRANCH   3  29
HETATM   29  O1  UNL     1      33.886  -6.929  -7.954  1.00  0.00    -0.345 OA
ATOM     30  H1  UNL     1      33.885  -6.049  -7.595  1.00  0.00     0.219 HD
ENDBRANCH   3  29
TORSDOF 7
ENDMDL
MODEL 5
REMARK VINA RESULT: -6.138440316      3.034      4.897
REMARK  7 active torsions:
REMARK  status: ('A' for Active; 'I' for Inactive)
REMARK    1  A    between atoms: C2_3  and  O1_4 
REMARK    2  A    between atoms: C5_8  and  O2_9 
REMARK    3  A    between atoms: C6_11  and  C7_12 
REMARK    4  A    between atoms: C7_12  and  O3_13 
REMARK    5  A    between atoms: N2_15  and  C8_16 
REMARK    6  A    between atoms: C8_16  and  C9_17 
REMARK    7  A    between atoms: C14_23  and  N3_24 
ROOT
HETATM    1  C1  UNL     1      36.266  -5.067  -2.575  1.00  0.00     0.160 C 
HETATM    2  N1  UNL     1      35.133  -5.874  -2.967  1.00  0.00    -0.312 N 
HETATM    3  C2  UNL     1      33.908  -5.461  -3.308  1.00  0.00     0.151 A 
HETATM    4  C3  UNL     1      33.149  -6.573  -3.611  1.00  0.00     0.013 A 
HETATM    5  C4  UNL     1      33.887  -7.700  -3.469  1.00  0.00     0.029 A 
HETATM    6  C5  UNL     1      35.143  -7.224  -3.056  1.00  0.00     0.153 A 
HETATM    7  C6  UNL     1      33.381  -9.083  -3.741  1.00  0.00     0.151 C 
HETATM    8  N2  UNL     1      32.004  -9.076  -4.086  1.00  0.00    -0.332 N 
HETATM    9  C14 UNL     1      31.191  -8.078  -3.513  1.00  0.00     0.191 C 
HETATM   10  C20 UNL     1      31.718  -6.693  -3.989  1.00  0.00     0.128 C 
ENDROOT
BRANCH   8  11
HETATM   11  C8  UNL     1      31.414 -10.186  -4.662  1.00  0.00     0.078 C 
BRANCH  11  12
HETATM   12  C9  UNL     1      30.585 -10.078  -5.889  1.00  0.00     0.094 C 
HETATM   13  C10 UNL     1      30.957  -9.002  -6.855  1.00  0.00     0.018 C 
HETATM   14  C11 UNL     1      32.101  -9.565  -7.704  1.00  0.00     0.008 C 
HETATM   15  C12 UNL     1      32.157 -11.032  -7.411  1.00  0.00     0.079 C 
HETATM   16  C13 UNL     1      30.869 -11.294  -6.731  1.00  0.00     0.136 C 
HETATM   17  O4  UNL     1      30.178 -12.278  -6.823  1.00  0.00    -0.297 OA
ENDBRANCH  11  12
ENDBRANCH   8  11
BRANCH   7  18
HETATM   18  C7  UNL     1      34.245  -9.622  -4.857  1.00  0.00     0.194 C 
BRANCH  18  19
HETATM   19  O3  UNL     1      35.516 -10.012  -4.514  1.00  0.00    -0.398 OA
ATOM     20  H3  UNL     1      35.828 -10.824  -4.897  1.00  0.00     0.209 HD
ENDBRANCH  18  19
ENDBRANCH   7  18
BRANCH   9  21
HETATM   21  N3  UNL     1      30.792  -8.117  -2.160  1.00  0.00    -0.029 N 
HETATM   22  C15 UNL     1      30.779  -6.802  -1.479  1.00  0.00     0.281 C 
HETATM   23  C16 UNL     1      29.362  -8.486  -1.993  1.00  0.00     0.245 C 
HETATM   24  C17 UNL     1      29.158  -8.852  -0.567  1.00  0.00     0.030 C 
HETATM   25  C18 UNL     1      30.486  -9.382  -0.160  1.00  0.00     0.030 C 
HETATM   26  C19 UNL     1      31.487  -8.947  -1.236  1.00  0.00     0.245 C 
ENDBRANCH   9  21
BRANCH   6  27
HETATM   27  O2  UNL     1      36.262  -7.947  -2.758  1.00  0.00    -0.345 OA
ATOM     28  H2  UNL     1      36.273  -8.568  -2.039  1.00  0.00     0.219 HD
ENDBRANCH   6  27
BRANCH   3  29
HETATM   29  O1  UNL     1      33.443  -4.158  -3.364  1.00  0.00    -0.345 OA
ATOM     30  H1  UNL     1      33.068  -3.709  -4.112  1.00  0.00     0.219 HD
ENDBRANCH   3  29
TORSDOF 7
ENDMDL
