MODEL 1
REMARK VINA RESULT: -7.117970850      0.000      0.000
REMARK  6 active torsions:
REMARK  status: ('A' for Active; 'I' for Inactive)
REMARK    1  A    between atoms: C2_2  and  C3_3 
REMARK    2  A    between atoms: C3_3  and  C4_4 
REMARK    3  A    between atoms: C4_4  and  C6_6 
REMARK    4  A    between atoms: C8_8  and  O1_9 
REMARK    5  A    between atoms: C15_17  and  O2_18 
REMARK    6  A    between atoms: C19_24  and  O4_25 
ROOT
HETATM    1  C6  UNL     1       1.461   0.045  30.525  1.00  0.00    -0.064 C 
HETATM    2  C7  UNL     1       1.274  -0.086  32.039  1.00  0.00     0.067 C 
HETATM    3  C8  UNL     1       2.505  -0.263  32.816  1.00  0.00     0.122 C 
HETATM    4  C9  UNL     1       3.249   1.059  32.582  1.00  0.00     0.039 C 
HETATM    5  C10 UNL     1       3.621   1.214  31.133  1.00  0.00     0.016 C 
HETATM    6  C11 UNL     1       4.216   2.585  31.085  1.00  0.00    -0.009 C 
HETATM    7  C12 UNL     1       3.405   3.644  31.796  1.00  0.00     0.021 C 
HETATM    8  C13 UNL     1       5.512   2.497  31.878  1.00  0.00     0.017 C 
HETATM    9  C14 UNL     1       6.669   3.235  31.337  1.00  0.00     0.037 C 
HETATM   10  C15 UNL     1       6.320   4.486  30.550  1.00  0.00     0.141 C 
HETATM   11  C16 UNL     1       5.438   3.968  29.464  1.00  0.00     0.016 C 
HETATM   12  C17 UNL     1       4.496   3.109  29.744  1.00  0.00    -0.002 C 
HETATM   13  C18 UNL     1       3.614   2.595  28.708  1.00  0.00     0.185 C 
HETATM   14  O3  UNL     1       3.938   2.679  27.517  1.00  0.00    -0.290 OA
HETATM   15  C19 UNL     1       2.333   1.985  29.227  1.00  0.00     0.207 C 
HETATM   16  C21 UNL     1       2.659   0.771  30.096  1.00  0.00     0.018 C 
HETATM   17  C22 UNL     1       3.484  -0.037  29.051  1.00  0.00     0.023 C 
ENDROOT
BRANCH   1  18
HETATM   18  C4  UNL     1       0.996  -1.240  29.978  1.00  0.00    -0.080 C 
HETATM   19  C5  UNL     1       0.652  -2.362  30.876  1.00  0.00     0.043 C 
BRANCH  18  20
HETATM   20  C3  UNL     1       0.113  -1.250  28.768  1.00  0.00     0.033 C 
BRANCH  20  21
HETATM   21  C2  UNL     1      -1.323  -0.860  29.176  1.00  0.00    -0.000 C 
HETATM   22  C1  UNL     1      -2.198  -1.427  28.038  1.00  0.00     0.005 C 
ENDBRANCH  20  21
ENDBRANCH  18  20
ENDBRANCH   1  18
BRANCH   3  23
HETATM   23  O1  UNL     1       2.175  -0.281  34.167  1.00  0.00    -0.395 OA
ATOM     24  H1  UNL     1       1.748  -1.107  34.363  1.00  0.00     0.210 HD
ENDBRANCH   3  23
BRANCH  15  25
HETATM   25  O4  UNL     1       1.668   1.681  28.051  1.00  0.00    -0.382 OA
HETATM   26  C20 UNL     1       0.443   2.332  27.968  1.00  0.00     0.202 C 
ENDBRANCH  15  25
BRANCH  10  27
HETATM   27  O2  UNL     1       7.507   4.941  29.983  1.00  0.00    -0.392 OA
ATOM     28  H2  UNL     1       7.267   5.405  29.189  1.00  0.00     0.210 HD
ENDBRANCH  10  27
TORSDOF 6
ENDMDL
MODEL 2
REMARK VINA RESULT: -6.912170778      2.676      6.068
REMARK  6 active torsions:
REMARK  status: ('A' for Active; 'I' for Inactive)
REMARK    1  A    between atoms: C2_2  and  C3_3 
REMARK    2  A    between atoms: C3_3  and  C4_4 
REMARK    3  A    between atoms: C4_4  and  C6_6 
REMARK    4  A    between atoms: C8_8  and  O1_9 
REMARK    5  A    between atoms: C15_17  and  O2_18 
REMARK    6  A    between atoms: C19_24  and  O4_25 
ROOT
HETATM    1  C6  UNL     1       1.849   1.657  26.014  1.00  0.00    -0.064 C 
HETATM    2  C7  UNL     1       3.368   1.542  25.862  1.00  0.00     0.067 C 
HETATM    3  C8  UNL     1       4.152   1.866  27.058  1.00  0.00     0.122 C 
HETATM    4  C9  UNL     1       3.729   0.771  28.048  1.00  0.00     0.039 C 
HETATM    5  C10 UNL     1       2.270   0.893  28.390  1.00  0.00     0.016 C 
HETATM    6  C11 UNL     1       2.027  -0.305  29.251  1.00  0.00    -0.009 C 
HETATM    7  C12 UNL     1       2.591  -1.595  28.702  1.00  0.00     0.021 C 
HETATM    8  C13 UNL     1       2.813  -0.055  30.530  1.00  0.00     0.017 C 
HETATM    9  C14 UNL     1       2.164  -0.457  31.793  1.00  0.00     0.037 C 
HETATM   10  C15 UNL     1       1.215  -1.636  31.679  1.00  0.00     0.141 C 
HETATM   11  C16 UNL     1       0.218  -1.173  30.669  1.00  0.00     0.016 C 
HETATM   12  C17 UNL     1       0.623  -0.574  29.582  1.00  0.00    -0.002 C 
HETATM   13  C18 UNL     1      -0.323  -0.121  28.575  1.00  0.00     0.185 C 
HETATM   14  O3  UNL     1      -1.517   0.025  28.865  1.00  0.00    -0.290 OA
HETATM   15  C19 UNL     1       0.287   0.133  27.217  1.00  0.00     0.207 C 
HETATM   16  C21 UNL     1       1.313   1.261  27.320  1.00  0.00     0.018 C 
HETATM   17  C22 UNL     1       0.383   2.356  27.921  1.00  0.00     0.023 C 
ENDROOT
BRANCH   1  18
HETATM   18  C4  UNL     1       1.490   2.879  25.276  1.00  0.00    -0.080 C 
HETATM   19  C5  UNL     1       2.450   3.995  25.152  1.00  0.00     0.043 C 
BRANCH  18  20
HETATM   20  C3  UNL     1       0.650   2.773  24.040  1.00  0.00     0.033 C 
BRANCH  20  21
HETATM   21  C2  UNL     1       1.566   2.700  22.801  1.00  0.00    -0.000 C 
HETATM   22  C1  UNL     1       1.538   1.208  22.407  1.00  0.00     0.005 C 
ENDBRANCH  20  21
ENDBRANCH  18  20
ENDBRANCH   1  18
BRANCH   3  23
HETATM   23  O1  UNL     1       5.495   1.633  26.782  1.00  0.00    -0.395 OA
ATOM     24  H1  UNL     1       6.016   2.015  27.479  1.00  0.00     0.210 HD
ENDBRANCH   3  23
BRANCH  15  25
HETATM   25  O4  UNL     1      -0.830   0.447  26.460  1.00  0.00    -0.382 OA
HETATM   26  C20 UNL     1      -1.024  -0.462  25.427  1.00  0.00     0.202 C 
ENDBRANCH  15  25
BRANCH  10  27
HETATM   27  O2  UNL     1       0.579  -1.754  32.912  1.00  0.00    -0.392 OA
ATOM     28  H2  UNL     1       0.525  -2.683  33.100  1.00  0.00     0.210 HD
ENDBRANCH  10  27
TORSDOF 6
ENDMDL
MODEL 3
REMARK VINA RESULT: -6.902366493      1.280      1.771
REMARK  6 active torsions:
REMARK  status: ('A' for Active; 'I' for Inactive)
REMARK    1  A    between atoms: C2_2  and  C3_3 
REMARK    2  A    between atoms: C3_3  and  C4_4 
REMARK    3  A    between atoms: C4_4  and  C6_6 
REMARK    4  A    between atoms: C8_8  and  O1_9 
REMARK    5  A    between atoms: C15_17  and  O2_18 
REMARK    6  A    between atoms: C19_24  and  O4_25 
ROOT
HETATM    1  C6  UNL     1       0.050  -0.454  29.611  1.00  0.00    -0.064 C 
HETATM    2  C7  UNL     1      -0.305  -0.893  31.035  1.00  0.00     0.067 C 
HETATM    3  C8  UNL     1       0.809  -1.412  31.834  1.00  0.00     0.122 C 
HETATM    4  C9  UNL     1       1.728  -0.188  31.971  1.00  0.00     0.039 C 
HETATM    5  C10 UNL     1       2.262   0.232  30.631  1.00  0.00     0.016 C 
HETATM    6  C11 UNL     1       3.020   1.482  30.949  1.00  0.00    -0.009 C 
HETATM    7  C12 UNL     1       2.275   2.458  31.829  1.00  0.00     0.021 C 
HETATM    8  C13 UNL     1       4.208   1.036  31.789  1.00  0.00     0.017 C 
HETATM    9  C14 UNL     1       5.495   1.706  31.521  1.00  0.00     0.037 C 
HETATM   10  C15 UNL     1       5.382   3.138  31.029  1.00  0.00     0.141 C 
HETATM   11  C16 UNL     1       4.559   3.006  29.790  1.00  0.00     0.016 C 
HETATM   12  C17 UNL     1       3.497   2.247  29.792  1.00  0.00    -0.002 C 
HETATM   13  C18 UNL     1       2.669   2.108  28.604  1.00  0.00     0.185 C 
HETATM   14  O3  UNL     1       3.122   2.410  27.493  1.00  0.00    -0.290 OA
HETATM   15  C19 UNL     1       1.278   1.584  28.873  1.00  0.00     0.207 C 
HETATM   16  C21 UNL     1       1.365   0.173  29.452  1.00  0.00     0.018 C 
HETATM   17  C22 UNL     1       2.189  -0.489  28.308  1.00  0.00     0.023 C 
ENDROOT
BRANCH   1  18
HETATM   18  C4  UNL     1      -0.508  -1.506  28.745  1.00  0.00    -0.080 C 
HETATM   19  C5  UNL     1      -1.125  -2.715  29.329  1.00  0.00     0.043 C 
BRANCH  18  20
HETATM   20  C3  UNL     1      -1.208  -1.122  27.477  1.00  0.00     0.033 C 
BRANCH  20  21
HETATM   21  C2  UNL     1      -2.672  -1.607  27.532  1.00  0.00    -0.000 C 
HETATM   22  C1  UNL     1      -3.242  -1.218  26.151  1.00  0.00     0.005 C 
ENDBRANCH  20  21
ENDBRANCH  18  20
ENDBRANCH   1  18
BRANCH   3  23
HETATM   23  O1  UNL     1       0.344  -1.684  33.116  1.00  0.00    -0.395 OA
ATOM     24  H1  UNL     1       1.012  -2.171  33.583  1.00  0.00     0.210 HD
ENDBRANCH   3  23
BRANCH  15  25
HETATM   25  O4  UNL     1       0.705   1.648  27.613  1.00  0.00    -0.382 OA
HETATM   26  C20 UNL     1      -0.348   2.554  27.572  1.00  0.00     0.202 C 
ENDBRANCH  15  25
BRANCH  10  27
HETATM   27  O2  UNL     1       6.667   3.536  30.670  1.00  0.00    -0.392 OA
ATOM     28  H2  UNL     1       6.728   4.462  30.873  1.00  0.00     0.210 HD
ENDBRANCH  10  27
TORSDOF 6
ENDMDL
MODEL 4
REMARK VINA RESULT: -6.758063223      3.406      5.802
REMARK  6 active torsions:
REMARK  status: ('A' for Active; 'I' for Inactive)
REMARK    1  A    between atoms: C2_2  and  C3_3 
REMARK    2  A    between atoms: C3_3  and  C4_4 
REMARK    3  A    between atoms: C4_4  and  C6_6 
REMARK    4  A    between atoms: C8_8  and  O1_9 
REMARK    5  A    between atoms: C15_17  and  O2_18 
REMARK    6  A    between atoms: C19_24  and  O4_25 
ROOT
HETATM    1  C6  UNL     1      -0.713  -0.522  26.857  1.00  0.00    -0.064 C 
HETATM    2  C7  UNL     1      -1.130  -1.035  25.476  1.00  0.00     0.067 C 
HETATM    3  C8  UNL     1      -1.341  -0.004  24.455  1.00  0.00     0.122 C 
HETATM    4  C9  UNL     1       0.060   0.603  24.290  1.00  0.00     0.039 C 
HETATM    5  C10 UNL     1       0.504   1.277  25.558  1.00  0.00     0.016 C 
HETATM    6  C11 UNL     1       1.907   1.690  25.244  1.00  0.00    -0.009 C 
HETATM    7  C12 UNL     1       2.748   0.612  24.602  1.00  0.00     0.021 C 
HETATM    8  C13 UNL     1       1.785   2.769  24.178  1.00  0.00     0.017 C 
HETATM    9  C14 UNL     1       2.703   3.919  24.294  1.00  0.00     0.037 C 
HETATM   10  C15 UNL     1       4.042   3.607  24.939  1.00  0.00     0.141 C 
HETATM   11  C16 UNL     1       3.657   3.070  26.277  1.00  0.00     0.016 C 
HETATM   12  C17 UNL     1       2.685   2.204  26.376  1.00  0.00    -0.002 C 
HETATM   13  C18 UNL     1       2.295   1.655  27.665  1.00  0.00     0.185 C 
HETATM   14  O3  UNL     1       2.619   2.232  28.710  1.00  0.00    -0.290 OA
HETATM   15  C19 UNL     1       1.496   0.376  27.581  1.00  0.00     0.207 C 
HETATM   16  C21 UNL     1       0.177   0.642  26.857  1.00  0.00     0.018 C 
HETATM   17  C22 UNL     1      -0.357   1.780  27.777  1.00  0.00     0.023 C 
ENDROOT
BRANCH   1  18
HETATM   18  C4  UNL     1      -1.912  -0.684  27.695  1.00  0.00    -0.080 C 
HETATM   19  C5  UNL     1      -3.129  -1.323  27.153  1.00  0.00     0.043 C 
BRANCH  18  20
HETATM   20  C3  UNL     1      -1.758  -1.005  29.150  1.00  0.00     0.033 C 
BRANCH  20  21
HETATM   21  C2  UNL     1      -1.810  -2.534  29.348  1.00  0.00    -0.000 C 
HETATM   22  C1  UNL     1      -1.013  -2.766  30.650  1.00  0.00     0.005 C 
ENDBRANCH  20  21
ENDBRANCH  18  20
ENDBRANCH   1  18
BRANCH   3  23
HETATM   23  O1  UNL     1      -1.629  -0.631  23.248  1.00  0.00    -0.395 OA
ATOM     24  H1  UNL     1      -1.133  -0.204  22.560  1.00  0.00     0.210 HD
ENDBRANCH   3  23
BRANCH  15  25
HETATM   25  O4  UNL     1       1.355   0.043  28.918  1.00  0.00    -0.382 OA
HETATM   26  C20 UNL     1       1.982  -1.160  29.218  1.00  0.00     0.202 C 
ENDBRANCH  15  25
BRANCH  10  27
HETATM   27  O2  UNL     1       4.690   4.826  25.116  1.00  0.00    -0.392 OA
ATOM     28  H2  UNL     1       4.262   5.255  25.847  1.00  0.00     0.210 HD
ENDBRANCH  10  27
TORSDOF 6
ENDMDL
MODEL 5
REMARK VINA RESULT: -6.635336618      2.574      6.285
REMARK  6 active torsions:
REMARK  status: ('A' for Active; 'I' for Inactive)
REMARK    1  A    between atoms: C2_2  and  C3_3 
REMARK    2  A    between atoms: C3_3  and  C4_4 
REMARK    3  A    between atoms: C4_4  and  C6_6 
REMARK    4  A    between atoms: C8_8  and  O1_9 
REMARK    5  A    between atoms: C15_17  and  O2_18 
REMARK    6  A    between atoms: C19_24  and  O4_25 
ROOT
HETATM    1  C6  UNL     1       1.857   0.999  29.959  1.00  0.00    -0.064 C 
HETATM    2  C7  UNL     1       2.564   2.329  29.681  1.00  0.00     0.067 C 
HETATM    3  C8  UNL     1       3.292   2.406  28.410  1.00  0.00     0.122 C 
HETATM    4  C9  UNL     1       2.171   2.281  27.368  1.00  0.00     0.039 C 
HETATM    5  C10 UNL     1       1.509   0.934  27.453  1.00  0.00     0.016 C 
HETATM    6  C11 UNL     1       0.392   1.047  26.465  1.00  0.00    -0.009 C 
HETATM    7  C12 UNL     1      -0.417   2.318  26.577  1.00  0.00     0.021 C 
HETATM    8  C13 UNL     1       1.061   1.135  25.101  1.00  0.00     0.017 C 
HETATM    9  C14 UNL     1       0.416   0.396  23.999  1.00  0.00     0.037 C 
HETATM   10  C15 UNL     1      -1.091   0.252  24.121  1.00  0.00     0.141 C 
HETATM   11  C16 UNL     1      -1.260  -0.447  25.429  1.00  0.00     0.016 C 
HETATM   12  C17 UNL     1      -0.572  -0.059  26.468  1.00  0.00    -0.002 C 
HETATM   13  C18 UNL     1      -0.723  -0.714  27.758  1.00  0.00     0.185 C 
HETATM   14  O3  UNL     1      -1.226  -1.842  27.827  1.00  0.00    -0.290 OA
HETATM   15  C19 UNL     1      -0.226   0.099  28.930  1.00  0.00     0.207 C 
HETATM   16  C21 UNL     1       1.278   0.334  28.789  1.00  0.00     0.018 C 
HETATM   17  C22 UNL     1       1.728  -1.153  28.684  1.00  0.00     0.023 C 
ENDROOT
BRANCH   1  18
HETATM   18  C4  UNL     1       2.677   0.350  30.995  1.00  0.00    -0.080 C 
HETATM   19  C5  UNL     1       4.126   0.621  31.089  1.00  0.00     0.043 C 
BRANCH  18  20
HETATM   20  C3  UNL     1       2.098   0.122  32.358  1.00  0.00     0.033 C 
BRANCH  20  21
HETATM   21  C2  UNL     1       2.366  -1.333  32.793  1.00  0.00    -0.000 C 
HETATM   22  C1  UNL     1       1.142  -2.109  32.261  1.00  0.00     0.005 C 
ENDBRANCH  20  21
ENDBRANCH  18  20
ENDBRANCH   1  18
BRANCH   3  23
HETATM   23  O1  UNL     1       3.800   3.693  28.271  1.00  0.00    -0.395 OA
ATOM     24  H1  UNL     1       4.346   3.719  27.494  1.00  0.00     0.210 HD
ENDBRANCH   3  23
BRANCH  15  25
HETATM   25  O4  UNL     1      -0.578  -0.706  30.001  1.00  0.00    -0.382 OA
HETATM   26  C20 UNL     1      -1.945  -0.671  30.244  1.00  0.00     0.202 C 
ENDBRANCH  15  25
BRANCH  10  27
HETATM   27  O2  UNL     1      -1.490  -0.608  23.101  1.00  0.00    -0.392 OA
ATOM     28  H2  UNL     1      -1.973  -0.079  22.476  1.00  0.00     0.210 HD
ENDBRANCH  10  27
TORSDOF 6
ENDMDL
