MODEL 1
REMARK VINA RESULT: -6.910732002      0.000      0.000
REMARK  3 active torsions:
REMARK  status: ('A' for Active; 'I' for Inactive)
REMARK    1  A    between atoms: C6_9  and  C7_10 
REMARK    2  A    between atoms: C7_10  and  O2_12 
REMARK    3  A    between atoms: O2_12  and  C8_13 
ROOT
HETATM    1  C1  UNL     1      21.098   9.631  23.953  1.00  0.00     0.159 C 
HETATM    2  N1  UNL     1      21.640   8.423  23.225  1.00  0.00    -0.322 N 
HETATM    3  C2  UNL     1      22.041   8.433  21.986  1.00  0.00     0.118 A 
HETATM    4  C3  UNL     1      22.698   7.395  21.473  1.00  0.00     0.032 A 
HETATM    5  S1  UNL     1      22.718   6.352  22.861  1.00  0.00    -0.061 SA
HETATM    6  C4  UNL     1      21.886   7.357  23.960  1.00  0.00     0.146 A 
HETATM    7  S2  UNL     1      21.500   7.006  25.511  1.00  0.00    -0.052 SA
HETATM    8  C5  UNL     1      23.139   7.627  20.062  1.00  0.00     0.085 C 
HETATM    9  C6  UNL     1      22.989   9.165  19.954  1.00  0.00     0.188 C 
HETATM   10  N2  UNL     1      21.860   9.296  20.808  1.00  0.00    -0.361 N 
ATOM     11  H2  UNL     1      21.052   9.894  20.633  1.00  0.00     0.162 HD
ENDROOT
BRANCH   9  12
HETATM   12  C7  UNL     1      22.631   9.466  18.528  1.00  0.00     0.282 C 
HETATM   13  O1  UNL     1      22.103  10.552  18.258  1.00  0.00    -0.263 OA
BRANCH  12  14
HETATM   14  O2  UNL     1      22.909   8.523  17.550  1.00  0.00    -0.310 OA
BRANCH  14  15
HETATM   15  C8  UNL     1      23.877   8.761  16.579  1.00  0.00     0.060 C 
HETATM   16  C9  UNL     1      25.082   9.445  17.204  1.00  0.00     0.045 C 
HETATM   17  C10 UNL     1      24.388   7.393  16.045  1.00  0.00     0.045 C 
HETATM   18  C11 UNL     1      23.335   9.475  15.377  1.00  0.00     0.045 C 
ENDBRANCH  14  15
ENDBRANCH  12  14
ENDBRANCH   9  12
TORSDOF 3
ENDMDL
MODEL 2
REMARK VINA RESULT: -6.785207928      0.045      1.028
REMARK  3 active torsions:
REMARK  status: ('A' for Active; 'I' for Inactive)
REMARK    1  A    between atoms: C6_9  and  C7_10 
REMARK    2  A    between atoms: C7_10  and  O2_12 
REMARK    3  A    between atoms: O2_12  and  C8_13 
ROOT
HETATM    1  C1  UNL     1      21.108   9.635  23.939  1.00  0.00     0.159 C 
HETATM    2  N1  UNL     1      21.648   8.425  23.213  1.00  0.00    -0.322 N 
HETATM    3  C2  UNL     1      22.044   8.431  21.972  1.00  0.00     0.118 A 
HETATM    4  C3  UNL     1      22.699   7.391  21.460  1.00  0.00     0.032 A 
HETATM    5  S1  UNL     1      22.726   6.353  22.852  1.00  0.00    -0.061 SA
HETATM    6  C4  UNL     1      21.897   7.361  23.951  1.00  0.00     0.146 A 
HETATM    7  S2  UNL     1      21.517   7.016  25.504  1.00  0.00    -0.052 SA
HETATM    8  C5  UNL     1      23.134   7.618  20.046  1.00  0.00     0.085 C 
HETATM    9  C6  UNL     1      22.983   9.156  19.934  1.00  0.00     0.188 C 
HETATM   10  N2  UNL     1      21.858   9.289  20.792  1.00  0.00    -0.361 N 
ATOM     11  H2  UNL     1      21.049   9.886  20.617  1.00  0.00     0.162 HD
ENDROOT
BRANCH   9  12
HETATM   12  C7  UNL     1      22.619   9.451  18.508  1.00  0.00     0.282 C 
HETATM   13  O1  UNL     1      22.099  10.540  18.235  1.00  0.00    -0.263 OA
BRANCH  12  14
HETATM   14  O2  UNL     1      22.885   8.501  17.534  1.00  0.00    -0.310 OA
BRANCH  14  15
HETATM   15  C8  UNL     1      23.908   8.689  16.609  1.00  0.00     0.060 C 
HETATM   16  C9  UNL     1      24.375   7.346  16.071  1.00  0.00     0.045 C 
HETATM   17  C10 UNL     1      23.335   9.465  15.391  1.00  0.00     0.045 C 
HETATM   18  C11 UNL     1      25.020   9.546  17.135  1.00  0.00     0.045 C 
ENDBRANCH  14  15
ENDBRANCH  12  14
ENDBRANCH   9  12
TORSDOF 3
ENDMDL
MODEL 3
REMARK VINA RESULT: -6.732159742      0.126      1.045
REMARK  3 active torsions:
REMARK  status: ('A' for Active; 'I' for Inactive)
REMARK    1  A    between atoms: C6_9  and  C7_10 
REMARK    2  A    between atoms: C7_10  and  O2_12 
REMARK    3  A    between atoms: O2_12  and  C8_13 
ROOT
HETATM    1  C1  UNL     1      21.010   9.525  23.822  1.00  0.00     0.159 C 
HETATM    2  N1  UNL     1      21.629   8.347  23.105  1.00  0.00    -0.322 N 
HETATM    3  C2  UNL     1      22.052   8.379  21.875  1.00  0.00     0.118 A 
HETATM    4  C3  UNL     1      22.771   7.376  21.374  1.00  0.00     0.032 A 
HETATM    5  S1  UNL     1      22.820   6.336  22.764  1.00  0.00    -0.061 SA
HETATM    6  C4  UNL     1      21.915   7.295  23.846  1.00  0.00     0.146 A 
HETATM    7  S2  UNL     1      21.519   6.924  25.390  1.00  0.00    -0.052 SA
HETATM    8  C5  UNL     1      23.226   7.631  19.972  1.00  0.00     0.085 C 
HETATM    9  C6  UNL     1      22.998   9.159  19.860  1.00  0.00     0.188 C 
HETATM   10  N2  UNL     1      21.849   9.231  20.693  1.00  0.00    -0.361 N 
ATOM     11  H2  UNL     1      21.014   9.786  20.501  1.00  0.00     0.162 HD
ENDROOT
BRANCH   9  12
HETATM   12  C7  UNL     1      22.652   9.441  18.427  1.00  0.00     0.282 C 
HETATM   13  O1  UNL     1      22.166  10.540  18.132  1.00  0.00    -0.263 OA
BRANCH  12  14
HETATM   14  O2  UNL     1      22.895   8.466  17.471  1.00  0.00    -0.310 OA
BRANCH  14  15
HETATM   15  C8  UNL     1      23.867   8.650  16.492  1.00  0.00     0.060 C 
HETATM   16  C9  UNL     1      23.323   9.528  15.377  1.00  0.00     0.045 C 
HETATM   17  C10 UNL     1      25.055   9.434  17.117  1.00  0.00     0.045 C 
HETATM   18  C11 UNL     1      24.459   7.360  16.008  1.00  0.00     0.045 C 
ENDBRANCH  14  15
ENDBRANCH  12  14
ENDBRANCH   9  12
TORSDOF 3
ENDMDL
MODEL 4
REMARK VINA RESULT: -6.657987794      5.122      6.548
REMARK  3 active torsions:
REMARK  status: ('A' for Active; 'I' for Inactive)
REMARK    1  A    between atoms: C6_9  and  C7_10 
REMARK    2  A    between atoms: C7_10  and  O2_12 
REMARK    3  A    between atoms: O2_12  and  C8_13 
ROOT
HETATM    1  C1  UNL     1      24.304   1.718  19.102  1.00  0.00     0.159 C 
HETATM    2  N1  UNL     1      25.516   2.186  18.331  1.00  0.00    -0.322 N 
HETATM    3  C2  UNL     1      25.620   3.357  17.771  1.00  0.00     0.118 A 
HETATM    4  C3  UNL     1      26.787   3.782  17.289  1.00  0.00     0.032 A 
HETATM    5  S1  UNL     1      27.772   2.401  17.662  1.00  0.00    -0.061 SA
HETATM    6  C4  UNL     1      26.587   1.421  18.401  1.00  0.00     0.146 A 
HETATM    7  S2  UNL     1      26.795  -0.088  18.998  1.00  0.00    -0.052 SA
HETATM    8  C5  UNL     1      26.720   5.178  16.754  1.00  0.00     0.085 C 
HETATM    9  C6  UNL     1      25.394   5.673  17.381  1.00  0.00     0.188 C 
HETATM   10  N2  UNL     1      24.705   4.429  17.350  1.00  0.00    -0.361 N 
ATOM     11  H2  UNL     1      23.730   4.300  17.078  1.00  0.00     0.162 HD
ENDROOT
BRANCH   9  12
HETATM   12  C7  UNL     1      24.796   6.652  16.414  1.00  0.00     0.282 C 
HETATM   13  O1  UNL     1      25.227   6.687  15.254  1.00  0.00    -0.263 OA
BRANCH  12  14
HETATM   14  O2  UNL     1      23.772   7.483  16.841  1.00  0.00    -0.310 OA
BRANCH  14  15
HETATM   15  C8  UNL     1      23.896   8.867  16.771  1.00  0.00     0.060 C 
HETATM   16  C9  UNL     1      23.435   9.361  15.409  1.00  0.00     0.045 C 
HETATM   17  C10 UNL     1      22.928   9.502  17.809  1.00  0.00     0.045 C 
HETATM   18  C11 UNL     1      25.261   9.352  17.157  1.00  0.00     0.045 C 
ENDBRANCH  14  15
ENDBRANCH  12  14
ENDBRANCH   9  12
TORSDOF 3
ENDMDL
MODEL 5
REMARK VINA RESULT: -6.454905229      3.816      4.858
REMARK  3 active torsions:
REMARK  status: ('A' for Active; 'I' for Inactive)
REMARK    1  A    between atoms: C6_9  and  C7_10 
REMARK    2  A    between atoms: C7_10  and  O2_12 
REMARK    3  A    between atoms: O2_12  and  C8_13 
ROOT
HETATM    1  C1  UNL     1      24.419   5.058  21.781  1.00  0.00     0.159 C 
HETATM    2  N1  UNL     1      24.880   4.221  20.610  1.00  0.00    -0.322 N 
HETATM    3  C2  UNL     1      25.018   4.673  19.397  1.00  0.00     0.118 A 
HETATM    4  C3  UNL     1      25.622   3.944  18.461  1.00  0.00     0.032 A 
HETATM    5  S1  UNL     1      25.994   2.528  19.396  1.00  0.00    -0.061 SA
HETATM    6  C4  UNL     1      25.339   3.019  20.893  1.00  0.00     0.146 A 
HETATM    7  S2  UNL     1      25.302   2.150  22.279  1.00  0.00    -0.052 SA
HETATM    8  C5  UNL     1      25.750   4.664  17.156  1.00  0.00     0.085 C 
HETATM    9  C6  UNL     1      25.480   6.124  17.595  1.00  0.00     0.188 C 
HETATM   10  N2  UNL     1      24.544   5.832  18.625  1.00  0.00    -0.361 N 
ATOM     11  H2  UNL     1      23.679   6.345  18.800  1.00  0.00     0.162 HD
ENDROOT
BRANCH   9  12
HETATM   12  C7  UNL     1      24.820   6.810  16.436  1.00  0.00     0.282 C 
HETATM   13  O1  UNL     1      25.275   6.638  15.298  1.00  0.00    -0.263 OA
BRANCH  12  14
HETATM   14  O2  UNL     1      23.712   7.611  16.668  1.00  0.00    -0.310 OA
BRANCH  14  15
HETATM   15  C8  UNL     1      23.770   8.988  16.480  1.00  0.00     0.060 C 
HETATM   16  C9  UNL     1      23.436   9.331  15.038  1.00  0.00     0.045 C 
HETATM   17  C10 UNL     1      22.664   9.652  17.348  1.00  0.00     0.045 C 
HETATM   18  C11 UNL     1      25.059   9.588  16.958  1.00  0.00     0.045 C 
ENDBRANCH  14  15
ENDBRANCH  12  14
ENDBRANCH   9  12
TORSDOF 3
ENDMDL
