MODEL 1
REMARK VINA RESULT: -8.047332526      0.000      0.000
REMARK  12 active torsions:
REMARK  status: ('A' for Active; 'I' for Inactive)
REMARK    1  A    between atoms: C2_2  and  C3_3 
REMARK    2  A    between atoms: C3_3  and  C6_6 
REMARK    3  A    between atoms: C8_11  and  C9_12 
REMARK    4  A    between atoms: C9_12  and  C10_13 
REMARK    5  A    between atoms: C14_20  and  C15_21 
REMARK    6  A    between atoms: C15_21  and  C16_22 
REMARK    7  A    between atoms: C16_22  and  C17_23 
REMARK    8  A    between atoms: C20_29  and  C21_30 
REMARK    9  A    between atoms: C21_30  and  C23_32 
REMARK   10  A    between atoms: C26_38  and  C27_39 
REMARK   11  A    between atoms: C27_39  and  C28_40 
REMARK   12  A    between atoms: C32_47  and  C33_48 
ROOT
HETATM    1  C6  UNL     1      -9.507   1.490   6.057  1.00  0.00     0.198 C 
HETATM    2  N1  UNL     1      -9.982   1.440   7.421  1.00  0.00    -0.337 N 
ATOM      3  H1  UNL     1     -10.875   1.909   7.569  1.00  0.00     0.164 HD
HETATM    4  C7  UNL     1      -9.442   0.867   8.574  1.00  0.00     0.242 C 
HETATM    5  O1  UNL     1      -9.124   1.679   9.520  1.00  0.00    -0.271 OA
HETATM    6  C8  UNL     1      -9.178  -0.536   8.880  1.00  0.00     0.177 C 
HETATM    7  N2  UNL     1      -8.141  -0.753   9.865  1.00  0.00    -0.346 N 
ATOM      8  H2  UNL     1      -8.142  -1.707  10.225  1.00  0.00     0.163 HD
HETATM    9  C13 UNL     1      -7.164   0.010  10.426  1.00  0.00     0.241 C 
HETATM   10  O2  UNL     1      -7.274   0.355  11.663  1.00  0.00    -0.271 OA
HETATM   11  C14 UNL     1      -5.880   0.565   9.824  1.00  0.00     0.176 C 
HETATM   12  N3  UNL     1      -5.618   1.848  10.413  1.00  0.00    -0.346 N 
ATOM     13  H3  UNL     1      -6.470   2.310  10.730  1.00  0.00     0.163 HD
HETATM   14  C19 UNL     1      -4.485   2.609  10.652  1.00  0.00     0.241 C 
HETATM   15  O3  UNL     1      -4.198   2.777  11.901  1.00  0.00    -0.271 OA
HETATM   16  C20 UNL     1      -3.532   3.280   9.756  1.00  0.00     0.180 C 
HETATM   17  N4  UNL     1      -3.160   2.580   8.566  1.00  0.00    -0.346 N 
ATOM     18  H4  UNL     1      -2.483   1.826   8.685  1.00  0.00     0.163 HD
HETATM   19  C25 UNL     1      -3.609   2.797   7.251  1.00  0.00     0.241 C 
HETATM   20  O4  UNL     1      -3.703   1.715   6.552  1.00  0.00    -0.271 OA
HETATM   21  C26 UNL     1      -3.965   4.057   6.626  1.00  0.00     0.177 C 
HETATM   22  N5  UNL     1      -5.282   4.546   7.073  1.00  0.00    -0.347 N 
ATOM     23  H5  UNL     1      -5.299   5.362   7.686  1.00  0.00     0.163 HD
HETATM   24  C31 UNL     1      -6.506   3.979   6.722  1.00  0.00     0.238 C 
HETATM   25  O5  UNL     1      -7.382   3.813   7.609  1.00  0.00    -0.272 OA
HETATM   26  C32 UNL     1      -6.892   3.530   5.335  1.00  0.00     0.238 C 
HETATM   27  C35 UNL     1      -7.153   2.100   5.254  1.00  0.00     0.239 C 
HETATM   28  O7  UNL     1      -6.355   1.450   4.466  1.00  0.00    -0.272 OA
HETATM   29  N6  UNL     1      -8.107   1.293   5.874  1.00  0.00    -0.338 N 
ATOM     30  H6  UNL     1      -7.744   0.420   6.258  1.00  0.00     0.164 HD
ENDROOT
BRANCH   1  31
HETATM   31  C3  UNL     1     -10.354   0.708   5.105  1.00  0.00     0.008 C 
HETATM   32  C4  UNL     1      -9.703  -0.672   4.831  1.00  0.00     0.023 C 
HETATM   33  C5  UNL     1     -10.613   1.301   3.775  1.00  0.00     0.023 C 
BRANCH  31  34
HETATM   34  C2  UNL     1     -11.668   0.376   5.712  1.00  0.00    -0.024 C 
HETATM   35  C1  UNL     1     -12.423  -0.653   5.306  1.00  0.00     0.008 C 
ENDBRANCH  31  34
ENDBRANCH   1  31
BRANCH   6  36
HETATM   36  C9  UNL     1     -10.383  -1.361   9.258  1.00  0.00     0.038 C 
BRANCH  36  37
HETATM   37  C10 UNL     1     -10.932  -2.284   8.246  1.00  0.00    -0.020 C 
HETATM   38  C11 UNL     1     -11.859  -3.241   9.053  1.00  0.00     0.009 C 
HETATM   39  C12 UNL     1      -9.960  -3.205   7.564  1.00  0.00     0.009 C 
ENDBRANCH  36  37
ENDBRANCH   6  36
BRANCH  26  40
HETATM   40  C33 UNL     1      -7.914   4.451   4.846  1.00  0.00     0.145 C 
HETATM   41  C34 UNL     1      -7.813   5.933   4.923  1.00  0.00     0.092 C 
HETATM   42  O6  UNL     1      -8.948   4.040   4.329  1.00  0.00    -0.297 OA
ENDBRANCH  26  40
BRANCH  11  43
HETATM   43  C15 UNL     1      -4.784  -0.446  10.010  1.00  0.00     0.035 C 
BRANCH  43  44
HETATM   44  C16 UNL     1      -4.267  -1.026   8.727  1.00  0.00     0.002 C 
BRANCH  44  45
HETATM   45  C17 UNL     1      -5.263  -0.860   7.587  1.00  0.00    -0.004 C 
HETATM   46  C18 UNL     1      -6.034  -2.151   7.364  1.00  0.00     0.005 C 
ENDBRANCH  44  45
ENDBRANCH  43  44
ENDBRANCH  11  43
BRANCH  21  47
HETATM   47  C27 UNL     1      -2.989   5.171   6.654  1.00  0.00     0.038 C 
BRANCH  47  48
HETATM   48  C28 UNL     1      -3.505   6.560   6.699  1.00  0.00    -0.020 C 
HETATM   49  C29 UNL     1      -3.875   7.191   5.410  1.00  0.00     0.009 C 
HETATM   50  C30 UNL     1      -2.610   7.468   7.544  1.00  0.00     0.009 C 
ENDBRANCH  47  48
ENDBRANCH  21  47
BRANCH  16  51
HETATM   51  C21 UNL     1      -2.277   3.755  10.432  1.00  0.00     0.013 C 
HETATM   52  C22 UNL     1      -1.262   2.663  10.689  1.00  0.00     0.012 C 
BRANCH  51  53
HETATM   53  C23 UNL     1      -1.729   5.063  10.032  1.00  0.00     0.002 C 
HETATM   54  C24 UNL     1      -0.386   5.126   9.416  1.00  0.00     0.005 C 
ENDBRANCH  51  53
ENDBRANCH  16  51
TORSDOF 12
ENDMDL
MODEL 2
REMARK VINA RESULT: -7.991052219      1.870      7.751
REMARK  12 active torsions:
REMARK  status: ('A' for Active; 'I' for Inactive)
REMARK    1  A    between atoms: C2_2  and  C3_3 
REMARK    2  A    between atoms: C3_3  and  C6_6 
REMARK    3  A    between atoms: C8_11  and  C9_12 
REMARK    4  A    between atoms: C9_12  and  C10_13 
REMARK    5  A    between atoms: C14_20  and  C15_21 
REMARK    6  A    between atoms: C15_21  and  C16_22 
REMARK    7  A    between atoms: C16_22  and  C17_23 
REMARK    8  A    between atoms: C20_29  and  C21_30 
REMARK    9  A    between atoms: C21_30  and  C23_32 
REMARK   10  A    between atoms: C26_38  and  C27_39 
REMARK   11  A    between atoms: C27_39  and  C28_40 
REMARK   12  A    between atoms: C32_47  and  C33_48 
ROOT
HETATM    1  C6  UNL     1      -5.028   5.722   5.742  1.00  0.00     0.198 C 
HETATM    2  N1  UNL     1      -3.834   4.909   5.742  1.00  0.00    -0.337 N 
ATOM      3  H1  UNL     1      -3.172   5.140   5.000  1.00  0.00     0.164 HD
HETATM    4  C7  UNL     1      -3.418   3.864   6.569  1.00  0.00     0.242 C 
HETATM    5  O1  UNL     1      -3.282   2.713   6.011  1.00  0.00    -0.271 OA
HETATM    6  C8  UNL     1      -3.108   3.874   7.996  1.00  0.00     0.177 C 
HETATM    7  N2  UNL     1      -3.257   2.595   8.654  1.00  0.00    -0.346 N 
ATOM      8  H2  UNL     1      -2.815   2.578   9.573  1.00  0.00     0.163 HD
HETATM    9  C13 UNL     1      -3.844   1.408   8.342  1.00  0.00     0.241 C 
HETATM   10  O2  UNL     1      -3.098   0.388   8.091  1.00  0.00    -0.271 OA
HETATM   11  C14 UNL     1      -5.317   1.038   8.228  1.00  0.00     0.176 C 
HETATM   12  N3  UNL     1      -5.464   0.068   7.179  1.00  0.00    -0.346 N 
ATOM     13  H3  UNL     1      -4.730   0.145   6.475  1.00  0.00     0.163 HD
HETATM   14  C19 UNL     1      -6.364  -0.947   6.896  1.00  0.00     0.241 C 
HETATM   15  O3  UNL     1      -5.871  -2.140   6.952  1.00  0.00    -0.271 OA
HETATM   16  C20 UNL     1      -7.787  -0.937   6.530  1.00  0.00     0.180 C 
HETATM   17  N4  UNL     1      -8.624   0.004   7.208  1.00  0.00    -0.346 N 
ATOM     18  H4  UNL     1      -8.892  -0.243   8.160  1.00  0.00     0.163 HD
HETATM   19  C25 UNL     1      -9.122   1.228   6.728  1.00  0.00     0.241 C 
HETATM   20  O4  UNL     1      -9.217   2.139   7.640  1.00  0.00    -0.271 OA
HETATM   21  C26 UNL     1      -9.521   1.561   5.374  1.00  0.00     0.177 C 
HETATM   22  N5  UNL     1      -8.360   1.778   4.490  1.00  0.00    -0.347 N 
ATOM     23  H5  UNL     1      -8.170   1.071   3.780  1.00  0.00     0.163 HD
HETATM   24  C31 UNL     1      -7.503   2.876   4.552  1.00  0.00     0.238 C 
HETATM   25  O5  UNL     1      -6.263   2.691   4.475  1.00  0.00    -0.272 OA
HETATM   26  C32 UNL     1      -7.938   4.312   4.709  1.00  0.00     0.238 C 
HETATM   27  C35 UNL     1      -7.452   4.919   5.939  1.00  0.00     0.239 C 
HETATM   28  O7  UNL     1      -8.384   5.299   6.758  1.00  0.00    -0.272 OA
HETATM   29  N6  UNL     1      -6.162   5.169   6.407  1.00  0.00    -0.338 N 
ATOM     30  H6  UNL     1      -6.003   4.914   7.382  1.00  0.00     0.164 HD
ENDROOT
BRANCH   1  31
HETATM   31  C3  UNL     1      -4.770   7.154   6.084  1.00  0.00     0.008 C 
HETATM   32  C4  UNL     1      -4.602   7.309   7.618  1.00  0.00     0.023 C 
HETATM   33  C5  UNL     1      -5.795   8.146   5.690  1.00  0.00     0.023 C 
BRANCH  31  34
HETATM   34  C2  UNL     1      -3.470   7.608   5.528  1.00  0.00    -0.024 C 
HETATM   35  C1  UNL     1      -3.086   8.891   5.518  1.00  0.00     0.008 C 
ENDBRANCH  31  34
ENDBRANCH   1  31
BRANCH   6  36
HETATM   36  C9  UNL     1      -1.767   4.456   8.369  1.00  0.00     0.038 C 
BRANCH  36  37
HETATM   37  C10 UNL     1      -1.477   4.660   9.801  1.00  0.00    -0.020 C 
HETATM   38  C11 UNL     1      -0.720   6.020   9.857  1.00  0.00     0.009 C 
HETATM   39  C12 UNL     1      -0.532   3.688  10.450  1.00  0.00     0.009 C 
ENDBRANCH  36  37
ENDBRANCH   6  36
BRANCH  26  40
HETATM   40  C33 UNL     1      -7.667   4.991   3.445  1.00  0.00     0.145 C 
HETATM   41  C34 UNL     1      -8.151   4.521   2.120  1.00  0.00     0.092 C 
HETATM   42  O6  UNL     1      -7.001   6.021   3.405  1.00  0.00    -0.297 OA
ENDBRANCH  26  40
BRANCH  11  43
HETATM   43  C15 UNL     1      -5.806   0.585   9.574  1.00  0.00     0.035 C 
BRANCH  43  44
HETATM   44  C16 UNL     1      -5.697   1.630  10.645  1.00  0.00     0.002 C 
BRANCH  44  45
HETATM   45  C17 UNL     1      -6.278   1.149  11.968  1.00  0.00    -0.004 C 
HETATM   46  C18 UNL     1      -6.989  -0.182  11.783  1.00  0.00     0.005 C 
ENDBRANCH  44  45
ENDBRANCH  43  44
ENDBRANCH  11  43
BRANCH  21  47
HETATM   47  C27 UNL     1     -10.510   0.700   4.687  1.00  0.00     0.038 C 
BRANCH  47  48
HETATM   48  C28 UNL     1     -10.661   0.832   3.218  1.00  0.00    -0.020 C 
HETATM   49  C29 UNL     1     -11.411   2.005   2.712  1.00  0.00     0.009 C 
HETATM   50  C30 UNL     1     -11.142  -0.473   2.581  1.00  0.00     0.009 C 
ENDBRANCH  47  48
ENDBRANCH  21  47
BRANCH  16  51
HETATM   51  C21 UNL     1      -8.451  -2.284   6.594  1.00  0.00     0.013 C 
HETATM   52  C22 UNL     1      -9.288  -2.501   7.835  1.00  0.00     0.012 C 
BRANCH  51  53
HETATM   53  C23 UNL     1      -8.991  -2.850   5.345  1.00  0.00     0.002 C 
HETATM   54  C24 UNL     1     -10.448  -3.068   5.221  1.00  0.00     0.005 C 
ENDBRANCH  51  53
ENDBRANCH  16  51
TORSDOF 12
ENDMDL
MODEL 3
REMARK VINA RESULT: -7.829154213      0.859      1.265
REMARK  12 active torsions:
REMARK  status: ('A' for Active; 'I' for Inactive)
REMARK    1  A    between atoms: C2_2  and  C3_3 
REMARK    2  A    between atoms: C3_3  and  C6_6 
REMARK    3  A    between atoms: C8_11  and  C9_12 
REMARK    4  A    between atoms: C9_12  and  C10_13 
REMARK    5  A    between atoms: C14_20  and  C15_21 
REMARK    6  A    between atoms: C15_21  and  C16_22 
REMARK    7  A    between atoms: C16_22  and  C17_23 
REMARK    8  A    between atoms: C20_29  and  C21_30 
REMARK    9  A    between atoms: C21_30  and  C23_32 
REMARK   10  A    between atoms: C26_38  and  C27_39 
REMARK   11  A    between atoms: C27_39  and  C28_40 
REMARK   12  A    between atoms: C32_47  and  C33_48 
ROOT
HETATM    1  C6  UNL     1      -9.571   2.231   5.495  1.00  0.00     0.198 C 
HETATM    2  N1  UNL     1     -10.121   2.076   6.823  1.00  0.00    -0.337 N 
ATOM      3  H1  UNL     1     -10.979   2.604   6.983  1.00  0.00     0.164 HD
HETATM    4  C7  UNL     1      -9.693   1.337   7.927  1.00  0.00     0.242 C 
HETATM    5  O1  UNL     1      -9.361   2.011   8.971  1.00  0.00    -0.271 OA
HETATM    6  C8  UNL     1      -9.562  -0.109   8.086  1.00  0.00     0.177 C 
HETATM    7  N2  UNL     1      -8.601  -0.520   9.085  1.00  0.00    -0.346 N 
ATOM      8  H2  UNL     1      -8.700  -1.504   9.336  1.00  0.00     0.163 HD
HETATM    9  C13 UNL     1      -7.596   0.089   9.771  1.00  0.00     0.241 C 
HETATM   10  O2  UNL     1      -7.743   0.308  11.032  1.00  0.00    -0.271 OA
HETATM   11  C14 UNL     1      -6.240   0.590   9.292  1.00  0.00     0.176 C 
HETATM   12  N3  UNL     1      -5.905   1.775  10.031  1.00  0.00    -0.346 N 
ATOM     13  H3  UNL     1      -6.732   2.273  10.361  1.00  0.00     0.163 HD
HETATM   14  C19 UNL     1      -4.727   2.403  10.404  1.00  0.00     0.241 C 
HETATM   15  O3  UNL     1      -4.495   2.410  11.675  1.00  0.00    -0.271 OA
HETATM   16  C20 UNL     1      -3.676   3.080   9.632  1.00  0.00     0.180 C 
HETATM   17  N4  UNL     1      -3.300   2.482   8.388  1.00  0.00    -0.346 N 
ATOM     18  H4  UNL     1      -2.694   1.664   8.453  1.00  0.00     0.163 HD
HETATM   19  C25 UNL     1      -3.658   2.879   7.088  1.00  0.00     0.241 C 
HETATM   20  O4  UNL     1      -3.803   1.890   6.269  1.00  0.00    -0.271 OA
HETATM   21  C26 UNL     1      -3.875   4.225   6.592  1.00  0.00     0.177 C 
HETATM   22  N5  UNL     1      -5.169   4.777   7.033  1.00  0.00    -0.347 N 
ATOM     23  H5  UNL     1      -5.152   5.520   7.731  1.00  0.00     0.163 HD
HETATM   24  C31 UNL     1      -6.416   4.360   6.567  1.00  0.00     0.238 C 
HETATM   25  O5  UNL     1      -7.348   4.177   7.389  1.00  0.00    -0.272 OA
HETATM   26  C32 UNL     1      -6.762   4.099   5.122  1.00  0.00     0.238 C 
HETATM   27  C35 UNL     1      -7.135   2.715   4.871  1.00  0.00     0.239 C 
HETATM   28  O7  UNL     1      -6.352   2.085   4.050  1.00  0.00    -0.272 OA
HETATM   29  N6  UNL     1      -8.184   1.932   5.353  1.00  0.00    -0.338 N 
ATOM     30  H6  UNL     1      -7.916   0.995   5.653  1.00  0.00     0.164 HD
ENDROOT
BRANCH   1  31
HETATM   31  C3  UNL     1     -10.428   1.633   4.426  1.00  0.00     0.008 C 
HETATM   32  C4  UNL     1     -10.444   2.561   3.183  1.00  0.00     0.023 C 
HETATM   33  C5  UNL     1     -11.847   1.376   4.752  1.00  0.00     0.023 C 
BRANCH  31  34
HETATM   34  C2  UNL     1      -9.845   0.363   3.925  1.00  0.00    -0.024 C 
HETATM   35  C1  UNL     1     -10.166  -0.837   4.424  1.00  0.00     0.008 C 
ENDBRANCH  31  34
ENDBRANCH   1  31
BRANCH   6  36
HETATM   36  C9  UNL     1     -10.849  -0.860   8.315  1.00  0.00     0.038 C 
BRANCH  36  37
HETATM   37  C10 UNL     1     -11.282  -1.078   9.709  1.00  0.00    -0.020 C 
HETATM   38  C11 UNL     1     -12.071  -2.421   9.667  1.00  0.00     0.009 C 
HETATM   39  C12 UNL     1     -12.264  -0.095  10.279  1.00  0.00     0.009 C 
ENDBRANCH  36  37
ENDBRANCH   6  36
BRANCH  26  40
HETATM   40  C33 UNL     1      -7.677   5.154   4.695  1.00  0.00     0.145 C 
HETATM   41  C34 UNL     1      -7.460   6.603   4.944  1.00  0.00     0.092 C 
HETATM   42  O6  UNL     1      -8.710   4.893   4.087  1.00  0.00    -0.297 OA
ENDBRANCH  26  40
BRANCH  11  43
HETATM   43  C15 UNL     1      -5.243  -0.526   9.412  1.00  0.00     0.035 C 
BRANCH  43  44
HETATM   44  C16 UNL     1      -4.738  -1.036   8.094  1.00  0.00     0.002 C 
BRANCH  44  45
HETATM   45  C17 UNL     1      -5.745  -1.957   7.419  1.00  0.00    -0.004 C 
HETATM   46  C18 UNL     1      -6.315  -1.299   6.173  1.00  0.00     0.005 C 
ENDBRANCH  44  45
ENDBRANCH  43  44
ENDBRANCH  11  43
BRANCH  21  47
HETATM   47  C27 UNL     1      -2.814   5.239   6.788  1.00  0.00     0.038 C 
BRANCH  47  48
HETATM   48  C28 UNL     1      -3.203   6.669   6.832  1.00  0.00    -0.020 C 
HETATM   49  C29 UNL     1      -3.434   7.353   5.537  1.00  0.00     0.009 C 
HETATM   50  C30 UNL     1      -2.284   7.477   7.750  1.00  0.00     0.009 C 
ENDBRANCH  47  48
ENDBRANCH  21  47
BRANCH  16  51
HETATM   51  C21 UNL     1      -2.424   3.368  10.411  1.00  0.00     0.013 C 
HETATM   52  C22 UNL     1      -1.508   2.174  10.571  1.00  0.00     0.012 C 
BRANCH  51  53
HETATM   53  C23 UNL     1      -1.760   4.667  10.200  1.00  0.00     0.002 C 
HETATM   54  C24 UNL     1      -0.357   4.694   9.734  1.00  0.00     0.005 C 
ENDBRANCH  51  53
ENDBRANCH  16  51
TORSDOF 12
ENDMDL
MODEL 4
REMARK VINA RESULT: -7.764574680      2.145      7.581
REMARK  12 active torsions:
REMARK  status: ('A' for Active; 'I' for Inactive)
REMARK    1  A    between atoms: C2_2  and  C3_3 
REMARK    2  A    between atoms: C3_3  and  C6_6 
REMARK    3  A    between atoms: C8_11  and  C9_12 
REMARK    4  A    between atoms: C9_12  and  C10_13 
REMARK    5  A    between atoms: C14_20  and  C15_21 
REMARK    6  A    between atoms: C15_21  and  C16_22 
REMARK    7  A    between atoms: C16_22  and  C17_23 
REMARK    8  A    between atoms: C20_29  and  C21_30 
REMARK    9  A    between atoms: C21_30  and  C23_32 
REMARK   10  A    between atoms: C26_38  and  C27_39 
REMARK   11  A    between atoms: C27_39  and  C28_40 
REMARK   12  A    between atoms: C32_47  and  C33_48 
ROOT
HETATM    1  C6  UNL     1      -3.937   3.882   7.910  1.00  0.00     0.198 C 
HETATM    2  N1  UNL     1      -3.672   2.466   8.028  1.00  0.00    -0.337 N 
ATOM      3  H1  UNL     1      -2.704   2.206   7.842  1.00  0.00     0.164 HD
HETATM    4  C7  UNL     1      -4.499   1.388   8.349  1.00  0.00     0.242 C 
HETATM    5  O1  UNL     1      -4.668   0.504   7.430  1.00  0.00    -0.271 OA
HETATM    6  C8  UNL     1      -5.215   1.102   9.589  1.00  0.00     0.177 C 
HETATM    7  N2  UNL     1      -6.382   0.262   9.431  1.00  0.00    -0.346 N 
ATOM      8  H2  UNL     1      -6.717  -0.108  10.321  1.00  0.00     0.163 HD
HETATM    9  C13 UNL     1      -7.141  -0.153   8.381  1.00  0.00     0.241 C 
HETATM   10  O2  UNL     1      -7.084  -1.389   8.018  1.00  0.00    -0.271 OA
HETATM   11  C14 UNL     1      -8.109   0.622   7.498  1.00  0.00     0.176 C 
HETATM   12  N3  UNL     1      -8.037   0.091   6.166  1.00  0.00    -0.346 N 
ATOM     13  H3  UNL     1      -7.130  -0.331   5.966  1.00  0.00     0.163 HD
HETATM   14  C19 UNL     1      -8.904   0.016   5.087  1.00  0.00     0.241 C 
HETATM   15  O3  UNL     1      -9.277  -1.180   4.774  1.00  0.00    -0.271 OA
HETATM   16  C20 UNL     1      -9.488   1.041   4.210  1.00  0.00     0.180 C 
HETATM   17  N4  UNL     1      -9.906   2.261   4.828  1.00  0.00    -0.346 N 
ATOM     18  H4  UNL     1     -10.790   2.223   5.335  1.00  0.00     0.163 HD
HETATM   19  C25 UNL     1      -9.254   3.506   4.826  1.00  0.00     0.241 C 
HETATM   20  O4  UNL     1      -9.409   4.171   5.922  1.00  0.00    -0.271 OA
HETATM   21  C26 UNL     1      -8.455   4.095   3.767  1.00  0.00     0.177 C 
HETATM   22  N5  UNL     1      -7.117   3.481   3.674  1.00  0.00    -0.347 N 
ATOM     23  H5  UNL     1      -6.928   2.883   2.870  1.00  0.00     0.163 HD
HETATM   24  C31 UNL     1      -6.092   3.658   4.602  1.00  0.00     0.238 C 
HETATM   25  O5  UNL     1      -5.425   2.660   4.976  1.00  0.00    -0.272 OA
HETATM   26  C32 UNL     1      -5.693   4.975   5.219  1.00  0.00     0.238 C 
HETATM   27  C35 UNL     1      -5.874   5.001   6.663  1.00  0.00     0.239 C 
HETATM   28  O7  UNL     1      -6.729   5.880   7.085  1.00  0.00    -0.272 OA
HETATM   29  N6  UNL     1      -5.296   4.248   7.686  1.00  0.00    -0.338 N 
ATOM     30  H6  UNL     1      -5.953   3.905   8.387  1.00  0.00     0.164 HD
ENDROOT
BRANCH   1  31
HETATM   31  C3  UNL     1      -3.258   4.701   8.961  1.00  0.00     0.008 C 
HETATM   32  C4  UNL     1      -3.607   4.149  10.368  1.00  0.00     0.023 C 
HETATM   33  C5  UNL     1      -3.571   6.146   9.009  1.00  0.00     0.023 C 
BRANCH  31  34
HETATM   34  C2  UNL     1      -1.783   4.564   8.872  1.00  0.00    -0.024 C 
HETATM   35  C1  UNL     1      -0.992   4.441   9.947  1.00  0.00     0.008 C 
ENDBRANCH  31  34
ENDBRANCH   1  31
BRANCH   6  36
HETATM   36  C9  UNL     1      -4.376   0.555  10.717  1.00  0.00     0.038 C 
BRANCH  36  37
HETATM   37  C10 UNL     1      -3.067  -0.037  10.380  1.00  0.00    -0.020 C 
HETATM   38  C11 UNL     1      -2.992  -1.335  11.237  1.00  0.00     0.009 C 
HETATM   39  C12 UNL     1      -1.845   0.739  10.783  1.00  0.00     0.009 C 
ENDBRANCH  36  37
ENDBRANCH   6  36
BRANCH  26  40
HETATM   40  C33 UNL     1      -4.387   5.334   4.676  1.00  0.00     0.145 C 
HETATM   41  C34 UNL     1      -3.412   6.227   5.357  1.00  0.00     0.092 C 
HETATM   42  O6  UNL     1      -4.009   4.906   3.590  1.00  0.00    -0.297 OA
ENDBRANCH  26  40
BRANCH  11  43
HETATM   43  C15 UNL     1      -9.475   0.572   8.120  1.00  0.00     0.035 C 
BRANCH  43  44
HETATM   44  C16 UNL     1     -10.023   1.916   8.498  1.00  0.00     0.002 C 
BRANCH  44  45
HETATM   45  C17 UNL     1     -11.472   2.082   8.062  1.00  0.00    -0.004 C 
HETATM   46  C18 UNL     1     -12.005   0.781   7.484  1.00  0.00     0.005 C 
ENDBRANCH  44  45
ENDBRANCH  43  44
ENDBRANCH  11  43
BRANCH  21  47
HETATM   47  C27 UNL     1      -9.039   4.213   2.412  1.00  0.00     0.038 C 
BRANCH  47  48
HETATM   48  C28 UNL     1     -10.450   4.651   2.287  1.00  0.00    -0.020 C 
HETATM   49  C29 UNL     1     -11.234   4.110   1.152  1.00  0.00     0.009 C 
HETATM   50  C30 UNL     1     -10.581   6.171   2.399  1.00  0.00     0.009 C 
ENDBRANCH  47  48
ENDBRANCH  21  47
BRANCH  16  51
HETATM   51  C21 UNL     1     -10.611   0.545   3.343  1.00  0.00     0.013 C 
HETATM   52  C22 UNL     1     -11.985   0.980   3.805  1.00  0.00     0.012 C 
BRANCH  51  53
HETATM   53  C23 UNL     1     -10.400   0.518   1.885  1.00  0.00     0.002 C 
HETATM   54  C24 UNL     1     -11.522   0.140   0.999  1.00  0.00     0.005 C 
ENDBRANCH  51  53
ENDBRANCH  16  51
TORSDOF 12
ENDMDL
MODEL 5
REMARK VINA RESULT: -7.688918585      2.400      6.567
REMARK  12 active torsions:
REMARK  status: ('A' for Active; 'I' for Inactive)
REMARK    1  A    between atoms: C2_2  and  C3_3 
REMARK    2  A    between atoms: C3_3  and  C6_6 
REMARK    3  A    between atoms: C8_11  and  C9_12 
REMARK    4  A    between atoms: C9_12  and  C10_13 
REMARK    5  A    between atoms: C14_20  and  C15_21 
REMARK    6  A    between atoms: C15_21  and  C16_22 
REMARK    7  A    between atoms: C16_22  and  C17_23 
REMARK    8  A    between atoms: C20_29  and  C21_30 
REMARK    9  A    between atoms: C21_30  and  C23_32 
REMARK   10  A    between atoms: C26_38  and  C27_39 
REMARK   11  A    between atoms: C27_39  and  C28_40 
REMARK   12  A    between atoms: C32_47  and  C33_48 
ROOT
HETATM    1  C6  UNL     1     -10.571  -0.008   3.886  1.00  0.00     0.198 C 
HETATM    2  N1  UNL     1      -9.618   0.461   2.905  1.00  0.00    -0.337 N 
ATOM      3  H1  UNL     1      -9.555  -0.126   2.073  1.00  0.00     0.164 HD
HETATM    4  C7  UNL     1      -8.769   1.568   2.887  1.00  0.00     0.242 C 
HETATM    5  O1  UNL     1      -7.507   1.319   2.874  1.00  0.00    -0.271 OA
HETATM    6  C8  UNL     1      -9.095   2.991   2.881  1.00  0.00     0.177 C 
HETATM    7  N2  UNL     1      -8.061   3.849   3.416  1.00  0.00    -0.346 N 
ATOM      8  H2  UNL     1      -8.214   4.831   3.185  1.00  0.00     0.163 HD
HETATM    9  C13 UNL     1      -6.933   3.661   4.153  1.00  0.00     0.241 C 
HETATM   10  O2  UNL     1      -5.784   3.826   3.592  1.00  0.00    -0.271 OA
HETATM   11  C14 UNL     1      -6.765   3.268   5.614  1.00  0.00     0.176 C 
HETATM   12  N3  UNL     1      -5.593   2.447   5.735  1.00  0.00    -0.346 N 
ATOM     13  H3  UNL     1      -5.381   1.947   4.872  1.00  0.00     0.163 HD
HETATM   14  C19 UNL     1      -4.682   2.172   6.743  1.00  0.00     0.241 C 
HETATM   15  O3  UNL     1      -3.484   2.601   6.522  1.00  0.00    -0.271 OA
HETATM   16  C20 UNL     1      -4.807   1.472   8.029  1.00  0.00     0.180 C 
HETATM   17  N4  UNL     1      -6.002   1.705   8.780  1.00  0.00    -0.346 N 
ATOM     18  H4  UNL     1      -6.046   2.592   9.283  1.00  0.00     0.163 HD
HETATM   19  C25 UNL     1      -7.123   0.868   8.913  1.00  0.00     0.241 C 
HETATM   20  O4  UNL     1      -8.239   1.513   9.008  1.00  0.00    -0.271 OA
HETATM   21  C26 UNL     1      -7.157  -0.582   8.950  1.00  0.00     0.177 C 
HETATM   22  N5  UNL     1      -6.970  -1.176   7.613  1.00  0.00    -0.347 N 
ATOM     23  H5  UNL     1      -6.086  -1.649   7.427  1.00  0.00     0.163 HD
HETATM   24  C31 UNL     1      -7.910  -1.139   6.584  1.00  0.00     0.238 C 
HETATM   25  O5  UNL     1      -7.532  -0.866   5.417  1.00  0.00    -0.272 OA
HETATM   26  C32 UNL     1      -9.387  -1.404   6.744  1.00  0.00     0.238 C 
HETATM   27  C35 UNL     1     -10.208  -0.250   6.409  1.00  0.00     0.239 C 
HETATM   28  O7  UNL     1     -10.915   0.212   7.394  1.00  0.00    -0.272 OA
HETATM   29  N6  UNL     1     -10.376   0.458   5.219  1.00  0.00    -0.338 N 
ATOM     30  H6  UNL     1     -10.358   1.473   5.319  1.00  0.00     0.164 HD
ENDROOT
BRANCH   1  31
HETATM   31  C3  UNL     1     -11.990   0.074   3.421  1.00  0.00     0.008 C 
HETATM   32  C4  UNL     1     -12.555   1.491   3.699  1.00  0.00     0.023 C 
HETATM   33  C5  UNL     1     -12.960  -0.869   4.018  1.00  0.00     0.023 C 
BRANCH  31  34
HETATM   34  C2  UNL     1     -12.075  -0.069   1.946  1.00  0.00    -0.024 C 
HETATM   35  C1  UNL     1     -13.187   0.197   1.247  1.00  0.00     0.008 C 
ENDBRANCH  31  34
ENDBRANCH   1  31
BRANCH   6  36
HETATM   36  C9  UNL     1      -9.550   3.552   1.556  1.00  0.00     0.038 C 
BRANCH  36  37
HETATM   37  C10 UNL     1     -10.904   3.202   1.087  1.00  0.00    -0.020 C 
HETATM   38  C11 UNL     1     -10.678   2.543  -0.306  1.00  0.00     0.009 C 
HETATM   39  C12 UNL     1     -11.842   4.342   0.804  1.00  0.00     0.009 C 
ENDBRANCH  36  37
ENDBRANCH   6  36
BRANCH  26  40
HETATM   40  C33 UNL     1      -9.675  -2.676   6.088  1.00  0.00     0.145 C 
HETATM   41  C34 UNL     1      -9.565  -4.004   6.748  1.00  0.00     0.092 C 
HETATM   42  O6  UNL     1     -10.036  -2.721   4.916  1.00  0.00    -0.297 OA
ENDBRANCH  26  40
BRANCH  11  43
HETATM   43  C15 UNL     1      -6.745   4.516   6.451  1.00  0.00     0.035 C 
BRANCH  43  44
HETATM   44  C16 UNL     1      -5.589   5.426   6.158  1.00  0.00     0.002 C 
BRANCH  44  45
HETATM   45  C17 UNL     1      -4.835   5.810   7.424  1.00  0.00    -0.004 C 
HETATM   46  C18 UNL     1      -3.366   6.051   7.115  1.00  0.00     0.005 C 
ENDBRANCH  44  45
ENDBRANCH  43  44
ENDBRANCH  11  43
BRANCH  21  47
HETATM   47  C27 UNL     1      -6.304  -1.292   9.929  1.00  0.00     0.038 C 
BRANCH  47  48
HETATM   48  C28 UNL     1      -6.790  -1.425  11.323  1.00  0.00    -0.020 C 
HETATM   49  C29 UNL     1      -6.873  -0.190  12.137  1.00  0.00     0.009 C 
HETATM   50  C30 UNL     1      -6.072  -2.553  12.067  1.00  0.00     0.009 C 
ENDBRANCH  47  48
ENDBRANCH  21  47
BRANCH  16  51
HETATM   51  C21 UNL     1      -3.633   1.655   8.949  1.00  0.00     0.013 C 
HETATM   52  C22 UNL     1      -3.776   2.815   9.911  1.00  0.00     0.012 C 
BRANCH  51  53
HETATM   53  C23 UNL     1      -2.980   0.449   9.487  1.00  0.00     0.002 C 
HETATM   54  C24 UNL     1      -3.029   0.188  10.941  1.00  0.00     0.005 C 
ENDBRANCH  51  53
ENDBRANCH  16  51
TORSDOF 12
ENDMDL
