MODEL 1
REMARK VINA RESULT: -6.255247393      0.000      0.000
REMARK  5 active torsions:
REMARK  status: ('A' for Active; 'I' for Inactive)
REMARK    1  A    between atoms: C2_2  and  N1_4 
REMARK    2  A    between atoms: N1_4  and  C4_6 
REMARK    3  A    between atoms: C4_6  and  N2_8 
REMARK    4  A    between atoms: N2_8  and  C5_10 
REMARK    5  A    between atoms: C11_18  and  N4_19 
ROOT
HETATM    1  C5  UNL     1      11.576   7.842 -35.721  1.00  0.00     0.062 A 
HETATM    2  C6  UNL     1      12.449   6.787 -35.604  1.00  0.00     0.056 A 
HETATM    3  C7  UNL     1      13.758   6.965 -35.181  1.00  0.00     0.068 A 
HETATM    4  C8  UNL     1      14.636   5.832 -35.072  1.00  0.00     0.101 C 
HETATM    5  N3  UNL     1      15.327   4.916 -34.972  1.00  0.00    -0.191 NA
HETATM    6  C9  UNL     1      14.262   8.200 -34.858  1.00  0.00     0.057 A 
HETATM    7 CL1  UNL     1      15.920   8.404 -34.327  1.00  0.00    -0.083 Cl
HETATM    8  C10 UNL     1      13.394   9.260 -34.974  1.00  0.00     0.057 A 
HETATM    9  C11 UNL     1      12.092   9.110 -35.388  1.00  0.00     0.059 A 
ENDROOT
BRANCH   1  10
HETATM   10  N2  UNL     1      10.264   7.777 -36.202  1.00  0.00    -0.331 N 
ATOM     11  H2  UNL     1      10.178   8.017 -37.189  1.00  0.00     0.168 HD
BRANCH  10  12
HETATM   12  C4  UNL     1       9.057   7.453 -35.605  1.00  0.00     0.172 C 
HETATM   13  S1  UNL     1       7.869   8.659 -35.740  1.00  0.00    -0.041 SA
BRANCH  12  14
HETATM   14  N1  UNL     1       8.675   6.289 -34.917  1.00  0.00    -0.363 N 
ATOM     15  H1  UNL     1       9.266   5.914 -34.175  1.00  0.00     0.162 HD
BRANCH  14  16
HETATM   16  C2  UNL     1       7.404   5.610 -35.278  1.00  0.00     0.075 C 
HETATM   17  C1  UNL     1       7.672   4.251 -35.879  1.00  0.00     0.032 C 
HETATM   18  C3  UNL     1       6.485   5.529 -34.084  1.00  0.00     0.032 C 
ENDBRANCH  14  16
ENDBRANCH  12  14
ENDBRANCH  10  12
ENDBRANCH   1  10
BRANCH   9  19
HETATM   19  N4  UNL     1      11.285  10.249 -35.446  1.00  0.00    -0.375 N 
HETATM   20  C12 UNL     1      11.086  10.928 -36.704  1.00  0.00     0.149 C 
HETATM   21  C13 UNL     1      10.670  12.376 -36.540  1.00  0.00     0.187 C 
HETATM   22  O1  UNL     1      11.010  12.925 -35.333  1.00  0.00    -0.388 OA
HETATM   23  C14 UNL     1      10.553  12.263 -34.228  1.00  0.00     0.187 C 
HETATM   24  C15 UNL     1      10.633  10.777 -34.280  1.00  0.00     0.149 C 
ENDBRANCH   9  19
TORSDOF 5
ENDMDL
MODEL 2
REMARK VINA RESULT: -6.202236274      0.732      1.248
REMARK  5 active torsions:
REMARK  status: ('A' for Active; 'I' for Inactive)
REMARK    1  A    between atoms: C2_2  and  N1_4 
REMARK    2  A    between atoms: N1_4  and  C4_6 
REMARK    3  A    between atoms: C4_6  and  N2_8 
REMARK    4  A    between atoms: N2_8  and  C5_10 
REMARK    5  A    between atoms: C11_18  and  N4_19 
ROOT
HETATM    1  C5  UNL     1      11.385   8.030 -35.750  1.00  0.00     0.062 A 
HETATM    2  C6  UNL     1      12.236   6.954 -35.660  1.00  0.00     0.056 A 
HETATM    3  C7  UNL     1      13.542   7.092 -35.213  1.00  0.00     0.068 A 
HETATM    4  C8  UNL     1      14.397   5.939 -35.134  1.00  0.00     0.101 C 
HETATM    5  N3  UNL     1      15.069   5.007 -35.059  1.00  0.00    -0.191 NA
HETATM    6  C9  UNL     1      14.063   8.305 -34.837  1.00  0.00     0.057 A 
HETATM    7 CL1  UNL     1      15.718   8.457 -34.276  1.00  0.00    -0.083 Cl
HETATM    8  C10 UNL     1      13.217   9.384 -34.925  1.00  0.00     0.057 A 
HETATM    9  C11 UNL     1      11.919   9.275 -35.362  1.00  0.00     0.059 A 
ENDROOT
BRANCH   1  10
HETATM   10  N2  UNL     1      10.078   8.008 -36.251  1.00  0.00    -0.331 N 
ATOM     11  H2  UNL     1       9.976   8.487 -37.145  1.00  0.00     0.168 HD
BRANCH  10  12
HETATM   12  C4  UNL     1       8.895   7.467 -35.775  1.00  0.00     0.172 C 
HETATM   13  S1  UNL     1       7.517   8.397 -36.123  1.00  0.00    -0.041 SA
BRANCH  12  14
HETATM   14  N1  UNL     1       8.671   6.279 -35.059  1.00  0.00    -0.363 N 
ATOM     15  H1  UNL     1       9.353   5.957 -34.372  1.00  0.00     0.162 HD
BRANCH  14  16
HETATM   16  C2  UNL     1       7.432   5.497 -35.311  1.00  0.00     0.075 C 
HETATM   17  C1  UNL     1       7.764   4.110 -35.805  1.00  0.00     0.032 C 
HETATM   18  C3  UNL     1       6.562   5.467 -34.078  1.00  0.00     0.032 C 
ENDBRANCH  14  16
ENDBRANCH  12  14
ENDBRANCH  10  12
ENDBRANCH   1  10
BRANCH   9  19
HETATM   19  N4  UNL     1      11.134  10.431 -35.389  1.00  0.00    -0.375 N 
HETATM   20  C12 UNL     1      10.332  10.783 -34.242  1.00  0.00     0.149 C 
HETATM   21  C13 UNL     1       9.173  11.698 -34.584  1.00  0.00     0.187 C 
HETATM   22  O1  UNL     1       8.788  11.650 -35.897  1.00  0.00    -0.388 OA
HETATM   23  C14 UNL     1       9.769  11.906 -36.814  1.00  0.00     0.187 C 
HETATM   24  C15 UNL     1      11.098  11.298 -36.534  1.00  0.00     0.149 C 
ENDBRANCH   9  19
TORSDOF 5
ENDMDL
MODEL 3
REMARK VINA RESULT: -6.025010375      3.976      6.430
REMARK  5 active torsions:
REMARK  status: ('A' for Active; 'I' for Inactive)
REMARK    1  A    between atoms: C2_2  and  N1_4 
REMARK    2  A    between atoms: N1_4  and  C4_6 
REMARK    3  A    between atoms: C4_6  and  N2_8 
REMARK    4  A    between atoms: N2_8  and  C5_10 
REMARK    5  A    between atoms: C11_18  and  N4_19 
ROOT
HETATM    1  C5  UNL     1      16.015   8.471 -34.806  1.00  0.00     0.062 A 
HETATM    2  C6  UNL     1      17.263   8.884 -35.208  1.00  0.00     0.056 A 
HETATM    3  C7  UNL     1      17.440   9.701 -36.314  1.00  0.00     0.068 A 
HETATM    4  C8  UNL     1      18.764  10.109 -36.698  1.00  0.00     0.101 C 
HETATM    5  N3  UNL     1      19.827  10.444 -36.988  1.00  0.00    -0.191 NA
HETATM    6  C9  UNL     1      16.387  10.144 -37.075  1.00  0.00     0.057 A 
HETATM    7 CL1  UNL     1      16.633  11.176 -38.471  1.00  0.00    -0.083 Cl
HETATM    8  C10 UNL     1      15.136   9.734 -36.678  1.00  0.00     0.057 A 
HETATM    9  C11 UNL     1      14.933   8.927 -35.585  1.00  0.00     0.059 A 
ENDROOT
BRANCH   1  10
HETATM   10  N2  UNL     1      15.737   7.595 -33.751  1.00  0.00    -0.331 N 
ATOM     11  H2  UNL     1      15.256   8.039 -32.968  1.00  0.00     0.168 HD
BRANCH  10  12
HETATM   12  C4  UNL     1      15.982   6.246 -33.555  1.00  0.00     0.172 C 
HETATM   13  S1  UNL     1      15.716   5.286 -34.931  1.00  0.00    -0.041 SA
BRANCH  12  14
HETATM   14  N1  UNL     1      16.413   5.565 -32.405  1.00  0.00    -0.363 N 
ATOM     15  H1  UNL     1      15.960   5.735 -31.507  1.00  0.00     0.162 HD
BRANCH  14  16
HETATM   16  C2  UNL     1      17.535   4.596 -32.507  1.00  0.00     0.075 C 
HETATM   17  C1  UNL     1      18.800   5.173 -31.917  1.00  0.00     0.032 C 
HETATM   18  C3  UNL     1      17.162   3.281 -31.868  1.00  0.00     0.032 C 
ENDBRANCH  14  16
ENDBRANCH  12  14
ENDBRANCH  10  12
ENDBRANCH   1  10
BRANCH   9  19
HETATM   19  N4  UNL     1      13.619   8.590 -35.252  1.00  0.00    -0.375 N 
HETATM   20  C12 UNL     1      13.062   7.335 -35.697  1.00  0.00     0.149 C 
HETATM   21  C13 UNL     1      11.546   7.338 -35.740  1.00  0.00     0.187 C 
HETATM   22  O1  UNL     1      10.989   8.585 -35.831  1.00  0.00    -0.388 OA
HETATM   23  C14 UNL     1      11.352   9.471 -34.856  1.00  0.00     0.187 C 
HETATM   24  C15 UNL     1      12.788   9.459 -34.465  1.00  0.00     0.149 C 
ENDBRANCH   9  19
TORSDOF 5
ENDMDL
MODEL 4
REMARK VINA RESULT: -5.753394115      2.583      5.270
REMARK  5 active torsions:
REMARK  status: ('A' for Active; 'I' for Inactive)
REMARK    1  A    between atoms: C2_2  and  N1_4 
REMARK    2  A    between atoms: N1_4  and  C4_6 
REMARK    3  A    between atoms: C4_6  and  N2_8 
REMARK    4  A    between atoms: N2_8  and  C5_10 
REMARK    5  A    between atoms: C11_18  and  N4_19 
ROOT
HETATM    1  C5  UNL     1      11.299   9.855 -35.096  1.00  0.00     0.062 A 
HETATM    2  C6  UNL     1      12.636   9.733 -34.797  1.00  0.00     0.056 A 
HETATM    3  C7  UNL     1      13.299   8.519 -34.899  1.00  0.00     0.068 A 
HETATM    4  C8  UNL     1      14.698   8.438 -34.578  1.00  0.00     0.101 C 
HETATM    5  N3  UNL     1      15.822   8.387 -34.334  1.00  0.00    -0.191 NA
HETATM    6  C9  UNL     1      12.665   7.369 -35.300  1.00  0.00     0.057 A 
HETATM    7 CL1  UNL     1      13.522   5.844 -35.421  1.00  0.00    -0.083 Cl
HETATM    8  C10 UNL     1      11.329   7.484 -35.599  1.00  0.00     0.057 A 
HETATM    9  C11 UNL     1      10.649   8.675 -35.509  1.00  0.00     0.059 A 
ENDROOT
BRANCH   1  10
HETATM   10  N2  UNL     1      10.527  11.014 -34.960  1.00  0.00    -0.331 N 
ATOM     11  H2  UNL     1      10.241  11.420 -35.851  1.00  0.00     0.168 HD
BRANCH  10  12
HETATM   12  C4  UNL     1      10.071  11.719 -33.859  1.00  0.00     0.172 C 
HETATM   13  S1  UNL     1       8.415  11.515 -33.541  1.00  0.00    -0.041 SA
BRANCH  12  14
HETATM   14  N1  UNL     1      10.766  12.565 -32.979  1.00  0.00    -0.363 N 
ATOM     15  H1  UNL     1      11.011  12.242 -32.043  1.00  0.00     0.162 HD
BRANCH  14  16
HETATM   16  C2  UNL     1      11.141  13.933 -33.423  1.00  0.00     0.075 C 
HETATM   17  C1  UNL     1      12.141  13.876 -34.553  1.00  0.00     0.032 C 
HETATM   18  C3  UNL     1       9.912  14.727 -33.793  1.00  0.00     0.032 C 
ENDBRANCH  14  16
ENDBRANCH  12  14
ENDBRANCH  10  12
ENDBRANCH   1  10
BRANCH   9  19
HETATM   19  N4  UNL     1       9.297   8.689 -35.862  1.00  0.00    -0.375 N 
HETATM   20  C12 UNL     1       8.317   8.095 -34.985  1.00  0.00     0.149 C 
HETATM   21  C13 UNL     1       7.037   7.706 -35.699  1.00  0.00     0.187 C 
HETATM   22  O1  UNL     1       7.180   7.522 -37.047  1.00  0.00    -0.388 OA
HETATM   23  C14 UNL     1       7.704   8.577 -37.740  1.00  0.00     0.187 C 
HETATM   24  C15 UNL     1       8.838   9.287 -37.085  1.00  0.00     0.149 C 
ENDBRANCH   9  19
TORSDOF 5
ENDMDL
MODEL 5
REMARK VINA RESULT: -5.590369610      2.493      5.016
REMARK  5 active torsions:
REMARK  status: ('A' for Active; 'I' for Inactive)
REMARK    1  A    between atoms: C2_2  and  N1_4 
REMARK    2  A    between atoms: N1_4  and  C4_6 
REMARK    3  A    between atoms: C4_6  and  N2_8 
REMARK    4  A    between atoms: N2_8  and  C5_10 
REMARK    5  A    between atoms: C11_18  and  N4_19 
ROOT
HETATM    1  C5  UNL     1      11.067   9.733 -35.085  1.00  0.00     0.062 A 
HETATM    2  C6  UNL     1      12.395   9.668 -34.734  1.00  0.00     0.056 A 
HETATM    3  C7  UNL     1      13.128   8.498 -34.864  1.00  0.00     0.068 A 
HETATM    4  C8  UNL     1      14.514   8.476 -34.484  1.00  0.00     0.101 C 
HETATM    5  N3  UNL     1      15.629   8.473 -34.192  1.00  0.00    -0.191 NA
HETATM    6  C9  UNL     1      12.577   7.338 -35.346  1.00  0.00     0.057 A 
HETATM    7 CL1  UNL     1      13.522   5.869 -35.502  1.00  0.00    -0.083 Cl
HETATM    8  C10 UNL     1      11.250   7.396 -35.699  1.00  0.00     0.057 A 
HETATM    9  C11 UNL     1      10.502   8.542 -35.583  1.00  0.00     0.059 A 
ENDROOT
BRANCH   1  10
HETATM   10  N2  UNL     1      10.226  10.840 -34.929  1.00  0.00    -0.331 N 
ATOM     11  H2  UNL     1       9.764  11.127 -35.792  1.00  0.00     0.168 HD
BRANCH  10  12
HETATM   12  C4  UNL     1       9.893  11.625 -33.838  1.00  0.00     0.172 C 
HETATM   13  S1  UNL     1       8.243  11.598 -33.440  1.00  0.00    -0.041 SA
BRANCH  12  14
HETATM   14  N1  UNL     1      10.709  12.427 -33.022  1.00  0.00    -0.363 N 
ATOM     15  H1  UNL     1      10.950  12.123 -32.079  1.00  0.00     0.162 HD
BRANCH  14  16
HETATM   16  C2  UNL     1      11.216  13.722 -33.545  1.00  0.00     0.075 C 
HETATM   17  C1  UNL     1      12.183  13.501 -34.683  1.00  0.00     0.032 C 
HETATM   18  C3  UNL     1      10.071  14.622 -33.940  1.00  0.00     0.032 C 
ENDBRANCH  14  16
ENDBRANCH  12  14
ENDBRANCH  10  12
ENDBRANCH   1  10
BRANCH   9  19
HETATM   19  N4  UNL     1       9.167   8.502 -35.995  1.00  0.00    -0.375 N 
HETATM   20  C12 UNL     1       8.806   8.962 -37.314  1.00  0.00     0.149 C 
HETATM   21  C13 UNL     1       7.348   9.361 -37.428  1.00  0.00     0.187 C 
HETATM   22  O1  UNL     1       6.759   9.682 -36.235  1.00  0.00    -0.388 OA
HETATM   23  C14 UNL     1       6.824   8.724 -35.262  1.00  0.00     0.187 C 
HETATM   24  C15 UNL     1       8.123   8.006 -35.141  1.00  0.00     0.149 C 
ENDBRANCH   9  19
TORSDOF 5
ENDMDL
