MODEL 1
REMARK VINA RESULT: -9.598184611      0.000      0.000
REMARK  11 active torsions:
REMARK  status: ('A' for Active; 'I' for Inactive)
REMARK    1  A    between atoms: C2_2  and  C3_3 
REMARK    2  A    between atoms: C3_3  and  C4_4 
REMARK    3  A    between atoms: C4_4  and  N1_5 
REMARK    4  A    between atoms: C6_8  and  C7_9 
REMARK    5  A    between atoms: C7_9  and  C8_11 
REMARK    6  A    between atoms: C8_11  and  O3_12 
REMARK    7  A    between atoms: O3_12  and  C9_13 
REMARK    8  A    between atoms: C9_13  and  C10_15 
REMARK    9  A    between atoms: C10_15  and  N2_16 
REMARK       I    between atoms: N2_16  and  C11_18 
REMARK   10  A    between atoms: C11_18  and  C12_20 
REMARK   11  A    between atoms: C18_27  and  C19_28 
ROOT
HETATM    1  N1  UNL     1       5.944 -12.353  10.198  1.00  0.00    -0.265 N 
HETATM    2  C5  UNL     1       6.955 -13.217  10.461  1.00  0.00     0.267 A 
HETATM    3  O1  UNL     1       7.087 -13.719  11.608  1.00  0.00    -0.267 OA
HETATM    4  C6  UNL     1       7.873 -13.583   9.501  1.00  0.00     0.108 A 
HETATM    5  C18 UNL     1       7.751 -13.054   8.257  1.00  0.00     0.068 A 
HETATM    6  N3  UNL     1       6.737 -12.182   7.978  1.00  0.00    -0.302 N 
HETATM    7  C25 UNL     1       6.648 -11.650   6.638  1.00  0.00     0.161 C 
HETATM    8  C26 UNL     1       5.882 -11.869   8.948  1.00  0.00     0.331 A 
HETATM    9  O6  UNL     1       4.947 -11.067   8.698  1.00  0.00    -0.246 OA
ENDROOT
BRANCH   4  10
HETATM   10  C7  UNL     1       8.950 -14.489   9.841  1.00  0.00     0.191 C 
HETATM   11  O2  UNL     1       8.668 -15.728   9.646  1.00  0.00    -0.290 OA
BRANCH  10  12
HETATM   12  C8  UNL     1      10.273 -14.093  10.363  1.00  0.00     0.263 C 
BRANCH  12  13
HETATM   13  O3  UNL     1      10.180 -13.772  11.716  1.00  0.00    -0.312 OA
BRANCH  13  14
HETATM   14  C9  UNL     1      10.475 -14.623  12.762  1.00  0.00     0.277 C 
HETATM   15  O4  UNL     1       9.849 -15.724  12.833  1.00  0.00    -0.263 OA
BRANCH  14  16
HETATM   16  C10 UNL     1      11.506 -14.243  13.775  1.00  0.00     0.233 C 
BRANCH  16  17
HETATM   17  N2  UNL     1      11.146 -14.714  15.083  1.00  0.00    -0.348 N 
HETATM   18  C11 UNL     1      10.721 -13.900  16.142  1.00  0.00     0.252 C 
HETATM   19  O5  UNL     1      10.642 -12.644  15.936  1.00  0.00    -0.268 OA
ATOM     20  H2  UNL     1      11.204 -15.718  15.254  1.00  0.00     0.163 HD
BRANCH  18  21
HETATM   21  C12 UNL     1      10.366 -14.386  17.462  1.00  0.00     0.032 A 
HETATM   22  C13 UNL     1      10.278 -13.551  18.547  1.00  0.00     0.018 A 
HETATM   23  C14 UNL     1       9.944 -13.992  19.800  1.00  0.00     0.025 A 
HETATM   24  C15 UNL     1       9.684 -15.320  19.988  1.00  0.00     0.034 A 
HETATM   25 CL1  UNL     1       9.254 -15.925  21.571  1.00  0.00    -0.084 Cl
HETATM   26  C16 UNL     1       9.760 -16.202  18.917  1.00  0.00     0.025 A 
HETATM   27  C17 UNL     1      10.106 -15.715  17.652  1.00  0.00     0.018 A 
ENDBRANCH  18  21
ENDBRANCH  16  17
ENDBRANCH  14  16
ENDBRANCH  13  14
ENDBRANCH  12  13
ENDBRANCH  10  12
ENDBRANCH   4  10
BRANCH   5  28
HETATM   28  C19 UNL     1       8.685 -13.398   7.208  1.00  0.00    -0.008 A 
HETATM   29  C20 UNL     1       8.435 -14.494   6.411  1.00  0.00     0.014 A 
HETATM   30  C21 UNL     1       9.260 -14.908   5.392  1.00  0.00     0.001 A 
HETATM   31  C22 UNL     1      10.413 -14.184   5.146  1.00  0.00     0.000 A 
HETATM   32  C23 UNL     1      10.669 -13.082   5.944  1.00  0.00     0.001 A 
HETATM   33  C24 UNL     1       9.837 -12.679   6.959  1.00  0.00     0.014 A 
ENDBRANCH   5  28
BRANCH   1  34
HETATM   34  C4  UNL     1       5.042 -12.030  11.246  1.00  0.00     0.137 C 
BRANCH  34  35
HETATM   35  C3  UNL     1       5.495 -10.925  12.155  1.00  0.00     0.020 C 
BRANCH  35  36
HETATM   36  C2  UNL     1       4.288 -10.008  12.362  1.00  0.00    -0.003 C 
HETATM   37  C1  UNL     1       4.746  -8.681  12.938  1.00  0.00     0.005 C 
ENDBRANCH  35  36
ENDBRANCH  34  35
ENDBRANCH   1  34
TORSDOF 11
ENDMDL
MODEL 2
REMARK VINA RESULT: -9.501521351      0.892      1.003
REMARK  11 active torsions:
REMARK  status: ('A' for Active; 'I' for Inactive)
REMARK    1  A    between atoms: C2_2  and  C3_3 
REMARK    2  A    between atoms: C3_3  and  C4_4 
REMARK    3  A    between atoms: C4_4  and  N1_5 
REMARK    4  A    between atoms: C6_8  and  C7_9 
REMARK    5  A    between atoms: C7_9  and  C8_11 
REMARK    6  A    between atoms: C8_11  and  O3_12 
REMARK    7  A    between atoms: O3_12  and  C9_13 
REMARK    8  A    between atoms: C9_13  and  C10_15 
REMARK    9  A    between atoms: C10_15  and  N2_16 
REMARK       I    between atoms: N2_16  and  C11_18 
REMARK   10  A    between atoms: C11_18  and  C12_20 
REMARK   11  A    between atoms: C18_27  and  C19_28 
ROOT
HETATM    1  N1  UNL     1       5.380 -12.186  10.418  1.00  0.00    -0.265 N 
HETATM    2  C5  UNL     1       6.613 -12.648  10.744  1.00  0.00     0.267 A 
HETATM    3  O1  UNL     1       6.930 -12.833  11.948  1.00  0.00    -0.267 OA
HETATM    4  C6  UNL     1       7.563 -12.932   9.788  1.00  0.00     0.108 A 
HETATM    5  C18 UNL     1       7.244 -12.740   8.483  1.00  0.00     0.068 A 
HETATM    6  N3  UNL     1       6.006 -12.276   8.141  1.00  0.00    -0.302 N 
HETATM    7  C25 UNL     1       5.713 -12.090   6.738  1.00  0.00     0.161 C 
HETATM    8  C26 UNL     1       5.132 -12.019   9.110  1.00  0.00     0.331 A 
HETATM    9  O6  UNL     1       3.990 -11.591   8.803  1.00  0.00    -0.246 OA
ENDROOT
BRANCH   4  10
HETATM   10  C7  UNL     1       8.874 -13.398  10.190  1.00  0.00     0.191 C 
HETATM   11  O2  UNL     1       9.750 -12.463  10.291  1.00  0.00    -0.290 OA
BRANCH  10  12
HETATM   12  C8  UNL     1       9.237 -14.800  10.476  1.00  0.00     0.263 C 
BRANCH  12  13
HETATM   13  O3  UNL     1      10.194 -14.853  11.488  1.00  0.00    -0.312 OA
BRANCH  13  14
HETATM   14  C9  UNL     1       9.933 -15.075  12.825  1.00  0.00     0.277 C 
HETATM   15  O4  UNL     1       9.587 -16.242  13.181  1.00  0.00    -0.263 OA
BRANCH  14  16
HETATM   16  C10 UNL     1      10.059 -13.960  13.812  1.00  0.00     0.233 C 
BRANCH  16  17
HETATM   17  N2  UNL     1       9.814 -14.423  15.150  1.00  0.00    -0.348 N 
HETATM   18  C11 UNL     1      10.479 -13.962  16.294  1.00  0.00     0.252 C 
HETATM   19  O5  UNL     1      11.368 -13.059  16.146  1.00  0.00    -0.268 OA
ATOM     20  H2  UNL     1       9.103 -15.142  15.276  1.00  0.00     0.163 HD
BRANCH  18  21
HETATM   21  C12 UNL     1      10.230 -14.441  17.640  1.00  0.00     0.032 A 
HETATM   22  C13 UNL     1      10.206 -13.598  18.722  1.00  0.00     0.018 A 
HETATM   23  C14 UNL     1       9.971 -14.033  19.999  1.00  0.00     0.025 A 
HETATM   24  C15 UNL     1       9.749 -15.363  20.216  1.00  0.00     0.034 A 
HETATM   25 CL1  UNL     1       9.446 -15.961  21.831  1.00  0.00    -0.084 Cl
HETATM   26  C16 UNL     1       9.764 -16.254  19.150  1.00  0.00     0.025 A 
HETATM   27  C17 UNL     1      10.008 -15.773  17.859  1.00  0.00     0.018 A 
ENDBRANCH  18  21
ENDBRANCH  16  17
ENDBRANCH  14  16
ENDBRANCH  13  14
ENDBRANCH  12  13
ENDBRANCH  10  12
ENDBRANCH   4  10
BRANCH   5  28
HETATM   28  C19 UNL     1       8.199 -13.019   7.434  1.00  0.00    -0.008 A 
HETATM   29  C20 UNL     1       8.292 -14.295   6.924  1.00  0.00     0.014 A 
HETATM   30  C21 UNL     1       9.168 -14.665   5.931  1.00  0.00     0.001 A 
HETATM   31  C22 UNL     1      10.012 -13.701   5.409  1.00  0.00     0.000 A 
HETATM   32  C23 UNL     1       9.924 -12.417   5.918  1.00  0.00     0.001 A 
HETATM   33  C24 UNL     1       9.044 -12.061   6.910  1.00  0.00     0.014 A 
ENDBRANCH   5  28
BRANCH   1  34
HETATM   34  C4  UNL     1       4.461 -11.918  11.467  1.00  0.00     0.137 C 
BRANCH  34  35
HETATM   35  C3  UNL     1       4.266 -10.464  11.782  1.00  0.00     0.020 C 
BRANCH  35  36
HETATM   36  C2  UNL     1       5.134 -10.163  13.006  1.00  0.00    -0.003 C 
HETATM   37  C1  UNL     1       5.168  -8.667  13.255  1.00  0.00     0.005 C 
ENDBRANCH  35  36
ENDBRANCH  34  35
ENDBRANCH   1  34
TORSDOF 11
ENDMDL
MODEL 3
REMARK VINA RESULT: -9.350545425      0.940      1.363
REMARK  11 active torsions:
REMARK  status: ('A' for Active; 'I' for Inactive)
REMARK    1  A    between atoms: C2_2  and  C3_3 
REMARK    2  A    between atoms: C3_3  and  C4_4 
REMARK    3  A    between atoms: C4_4  and  N1_5 
REMARK    4  A    between atoms: C6_8  and  C7_9 
REMARK    5  A    between atoms: C7_9  and  C8_11 
REMARK    6  A    between atoms: C8_11  and  O3_12 
REMARK    7  A    between atoms: O3_12  and  C9_13 
REMARK    8  A    between atoms: C9_13  and  C10_15 
REMARK    9  A    between atoms: C10_15  and  N2_16 
REMARK       I    between atoms: N2_16  and  C11_18 
REMARK   10  A    between atoms: C11_18  and  C12_20 
REMARK   11  A    between atoms: C18_27  and  C19_28 
ROOT
HETATM    1  N1  UNL     1       5.885 -12.270  10.558  1.00  0.00    -0.265 N 
HETATM    2  C5  UNL     1       7.007 -12.991  10.805  1.00  0.00     0.267 A 
HETATM    3  O1  UNL     1       7.295 -13.347  11.977  1.00  0.00    -0.267 OA
HETATM    4  C6  UNL     1       7.872 -13.363   9.799  1.00  0.00     0.108 A 
HETATM    5  C18 UNL     1       7.582 -12.990   8.527  1.00  0.00     0.068 A 
HETATM    6  N3  UNL     1       6.455 -12.264   8.265  1.00  0.00    -0.302 N 
HETATM    7  C25 UNL     1       6.189 -11.894   6.894  1.00  0.00     0.161 C 
HETATM    8  C26 UNL     1       5.659 -11.935   9.279  1.00  0.00     0.331 A 
HETATM    9  O6  UNL     1       4.621 -11.266   9.045  1.00  0.00    -0.246 OA
ENDROOT
BRANCH   4  10
HETATM   10  C7  UNL     1       9.071 -14.110  10.119  1.00  0.00     0.191 C 
HETATM   11  O2  UNL     1       8.927 -15.384  10.033  1.00  0.00    -0.290 OA
BRANCH  10  12
HETATM   12  C8  UNL     1      10.369 -13.526  10.511  1.00  0.00     0.263 C 
BRANCH  12  13
HETATM   13  O3  UNL     1      10.953 -14.285  11.523  1.00  0.00    -0.312 OA
BRANCH  13  14
HETATM   14  C9  UNL     1      10.675 -14.172  12.870  1.00  0.00     0.277 C 
HETATM   15  O4  UNL     1      11.091 -13.141  13.482  1.00  0.00    -0.263 OA
BRANCH  14  16
HETATM   16  C10 UNL     1       9.905 -15.242  13.574  1.00  0.00     0.233 C 
BRANCH  16  17
HETATM   17  N2  UNL     1       9.740 -14.931  14.966  1.00  0.00    -0.348 N 
HETATM   18  C11 UNL     1      10.368 -15.608  16.021  1.00  0.00     0.252 C 
HETATM   19  O5  UNL     1      11.150 -16.573  15.730  1.00  0.00    -0.268 OA
ATOM     20  H2  UNL     1       9.119 -14.159  15.206  1.00  0.00     0.163 HD
BRANCH  18  21
HETATM   21  C12 UNL     1      10.190 -15.290  17.424  1.00  0.00     0.032 A 
HETATM   22  C13 UNL     1      10.238 -14.001  17.892  1.00  0.00     0.018 A 
HETATM   23  C14 UNL     1      10.070 -13.682  19.213  1.00  0.00     0.025 A 
HETATM   24  C15 UNL     1       9.845 -14.685  20.114  1.00  0.00     0.034 A 
HETATM   25 CL1  UNL     1       9.626 -14.322  21.810  1.00  0.00    -0.084 Cl
HETATM   26  C16 UNL     1       9.788 -16.005  19.685  1.00  0.00     0.025 A 
HETATM   27  C17 UNL     1       9.964 -16.292  18.327  1.00  0.00     0.018 A 
ENDBRANCH  18  21
ENDBRANCH  16  17
ENDBRANCH  14  16
ENDBRANCH  13  14
ENDBRANCH  12  13
ENDBRANCH  10  12
ENDBRANCH   4  10
BRANCH   5  28
HETATM   28  C19 UNL     1       8.452 -13.349   7.430  1.00  0.00    -0.008 A 
HETATM   29  C20 UNL     1       9.445 -12.477   7.039  1.00  0.00     0.014 A 
HETATM   30  C21 UNL     1      10.321 -12.721   6.008  1.00  0.00     0.001 A 
HETATM   31  C22 UNL     1      10.204 -13.914   5.316  1.00  0.00     0.000 A 
HETATM   32  C23 UNL     1       9.208 -14.794   5.704  1.00  0.00     0.001 A 
HETATM   33  C24 UNL     1       8.340 -14.538   6.737  1.00  0.00     0.014 A 
ENDBRANCH   5  28
BRANCH   1  34
HETATM   34  C4  UNL     1       5.048 -11.928  11.654  1.00  0.00     0.137 C 
BRANCH  34  35
HETATM   35  C3  UNL     1       5.482 -10.718  12.430  1.00  0.00     0.020 C 
BRANCH  35  36
HETATM   36  C2  UNL     1       4.265  -9.794  12.510  1.00  0.00    -0.003 C 
HETATM   37  C1  UNL     1       4.712  -8.389  12.866  1.00  0.00     0.005 C 
ENDBRANCH  35  36
ENDBRANCH  34  35
ENDBRANCH   1  34
TORSDOF 11
ENDMDL
MODEL 4
REMARK VINA RESULT: -9.332308616      1.706      4.943
REMARK  11 active torsions:
REMARK  status: ('A' for Active; 'I' for Inactive)
REMARK    1  A    between atoms: C2_2  and  C3_3 
REMARK    2  A    between atoms: C3_3  and  C4_4 
REMARK    3  A    between atoms: C4_4  and  N1_5 
REMARK    4  A    between atoms: C6_8  and  C7_9 
REMARK    5  A    between atoms: C7_9  and  C8_11 
REMARK    6  A    between atoms: C8_11  and  O3_12 
REMARK    7  A    between atoms: O3_12  and  C9_13 
REMARK    8  A    between atoms: C9_13  and  C10_15 
REMARK    9  A    between atoms: C10_15  and  N2_16 
REMARK       I    between atoms: N2_16  and  C11_18 
REMARK   10  A    between atoms: C11_18  and  C12_20 
REMARK   11  A    between atoms: C18_27  and  C19_28 
ROOT
HETATM    1  N1  UNL     1      10.179 -13.490   6.317  1.00  0.00    -0.265 N 
HETATM    2  C5  UNL     1      10.271 -14.076   7.537  1.00  0.00     0.267 A 
HETATM    3  O1  UNL     1      11.200 -14.886   7.791  1.00  0.00    -0.267 OA
HETATM    4  C6  UNL     1       9.364 -13.817   8.542  1.00  0.00     0.108 A 
HETATM    5  C18 UNL     1       8.353 -12.947   8.291  1.00  0.00     0.068 A 
HETATM    6  N3  UNL     1       8.250 -12.350   7.067  1.00  0.00    -0.302 N 
HETATM    7  C25 UNL     1       7.157 -11.430   6.851  1.00  0.00     0.161 C 
HETATM    8  C26 UNL     1       9.156 -12.641   6.138  1.00  0.00     0.331 A 
HETATM    9  O6  UNL     1       9.066 -12.096   5.009  1.00  0.00    -0.246 OA
ENDROOT
BRANCH   4  10
HETATM   10  C7  UNL     1       9.492 -14.489   9.819  1.00  0.00     0.191 C 
HETATM   11  O2  UNL     1       8.813 -15.577   9.903  1.00  0.00    -0.290 OA
BRANCH  10  12
HETATM   12  C8  UNL     1      10.310 -14.024  10.956  1.00  0.00     0.263 C 
BRANCH  12  13
HETATM   13  O3  UNL     1       9.643 -14.262  12.157  1.00  0.00    -0.312 OA
BRANCH  13  14
HETATM   14  C9  UNL     1      10.075 -15.108  13.158  1.00  0.00     0.277 C 
HETATM   15  O4  UNL     1       9.571 -16.271  13.218  1.00  0.00    -0.263 OA
BRANCH  14  16
HETATM   16  C10 UNL     1      11.110 -14.653  14.136  1.00  0.00     0.233 C 
BRANCH  16  17
HETATM   17  N2  UNL     1      10.734 -14.988  15.481  1.00  0.00    -0.348 N 
HETATM   18  C11 UNL     1      10.771 -14.106  16.570  1.00  0.00     0.252 C 
HETATM   19  O5  UNL     1      11.163 -12.911  16.358  1.00  0.00    -0.268 OA
ATOM     20  H2  UNL     1      10.415 -15.941  15.657  1.00  0.00     0.163 HD
BRANCH  18  21
HETATM   21  C12 UNL     1      10.395 -14.457  17.926  1.00  0.00     0.032 A 
HETATM   22  C13 UNL     1      10.426 -13.545  18.950  1.00  0.00     0.018 A 
HETATM   23  C14 UNL     1      10.074 -13.857  20.236  1.00  0.00     0.025 A 
HETATM   24  C15 UNL     1       9.673 -15.131  20.522  1.00  0.00     0.034 A 
HETATM   25 CL1  UNL     1       9.215 -15.574  22.151  1.00  0.00    -0.084 Cl
HETATM   26  C16 UNL     1       9.626 -16.088  19.516  1.00  0.00     0.025 A 
HETATM   27  C17 UNL     1       9.994 -15.732  18.214  1.00  0.00     0.018 A 
ENDBRANCH  18  21
ENDBRANCH  16  17
ENDBRANCH  14  16
ENDBRANCH  13  14
ENDBRANCH  12  13
ENDBRANCH  10  12
ENDBRANCH   4  10
BRANCH   5  28
HETATM   28  C19 UNL     1       7.371 -12.637   9.306  1.00  0.00    -0.008 A 
HETATM   29  C20 UNL     1       6.096 -13.148   9.194  1.00  0.00     0.014 A 
HETATM   30  C21 UNL     1       5.090 -12.910  10.100  1.00  0.00     0.001 A 
HETATM   31  C22 UNL     1       5.367 -12.109  11.193  1.00  0.00     0.000 A 
HETATM   32  C23 UNL     1       6.646 -11.592  11.311  1.00  0.00     0.001 A 
HETATM   33  C24 UNL     1       7.643 -11.838  10.399  1.00  0.00     0.014 A 
ENDBRANCH   5  28
BRANCH   1  34
HETATM   34  C4  UNL     1      11.155 -13.814   5.338  1.00  0.00     0.137 C 
BRANCH  34  35
HETATM   35  C3  UNL     1      10.767 -14.916   4.396  1.00  0.00     0.020 C 
BRANCH  35  36
HETATM   36  C2  UNL     1      11.812 -16.021   4.566  1.00  0.00    -0.003 C 
HETATM   37  C1  UNL     1      11.319 -17.297   3.910  1.00  0.00     0.005 C 
ENDBRANCH  35  36
ENDBRANCH  34  35
ENDBRANCH   1  34
TORSDOF 11
ENDMDL
MODEL 5
REMARK VINA RESULT: -9.283157780      0.939      1.416
REMARK  11 active torsions:
REMARK  status: ('A' for Active; 'I' for Inactive)
REMARK    1  A    between atoms: C2_2  and  C3_3 
REMARK    2  A    between atoms: C3_3  and  C4_4 
REMARK    3  A    between atoms: C4_4  and  N1_5 
REMARK    4  A    between atoms: C6_8  and  C7_9 
REMARK    5  A    between atoms: C7_9  and  C8_11 
REMARK    6  A    between atoms: C8_11  and  O3_12 
REMARK    7  A    between atoms: O3_12  and  C9_13 
REMARK    8  A    between atoms: C9_13  and  C10_15 
REMARK    9  A    between atoms: C10_15  and  N2_16 
REMARK       I    between atoms: N2_16  and  C11_18 
REMARK   10  A    between atoms: C11_18  and  C12_20 
REMARK   11  A    between atoms: C18_27  and  C19_28 
ROOT
HETATM    1  N1  UNL     1       5.783 -12.341  10.265  1.00  0.00    -0.265 N 
HETATM    2  C5  UNL     1       6.875 -13.097  10.537  1.00  0.00     0.267 A 
HETATM    3  O1  UNL     1       7.087 -13.520  11.703  1.00  0.00    -0.267 OA
HETATM    4  C6  UNL     1       7.792 -13.433   9.565  1.00  0.00     0.108 A 
HETATM    5  C18 UNL     1       7.584 -12.987   8.300  1.00  0.00     0.068 A 
HETATM    6  N3  UNL     1       6.488 -12.225   8.013  1.00  0.00    -0.302 N 
HETATM    7  C25 UNL     1       6.310 -11.778   6.650  1.00  0.00     0.161 C 
HETATM    8  C26 UNL     1       5.639 -11.934   8.994  1.00  0.00     0.331 A 
HETATM    9  O6  UNL     1       4.628 -11.233   8.736  1.00  0.00    -0.246 OA
ENDROOT
BRANCH   4  10
HETATM   10  C7  UNL     1       8.956 -14.220   9.913  1.00  0.00     0.191 C 
HETATM   11  O2  UNL     1       8.771 -15.489   9.828  1.00  0.00    -0.290 OA
BRANCH  10  12
HETATM   12  C8  UNL     1      10.265 -13.680  10.333  1.00  0.00     0.263 C 
BRANCH  12  13
HETATM   13  O3  UNL     1      10.811 -14.470  11.342  1.00  0.00    -0.312 OA
BRANCH  13  14
HETATM   14  C9  UNL     1      10.560 -14.329  12.692  1.00  0.00     0.277 C 
HETATM   15  O4  UNL     1      11.070 -13.336  13.295  1.00  0.00    -0.263 OA
BRANCH  14  16
HETATM   16  C10 UNL     1       9.710 -15.328  13.409  1.00  0.00     0.233 C 
BRANCH  16  17
HETATM   17  N2  UNL     1       9.590 -15.000  14.802  1.00  0.00    -0.348 N 
HETATM   18  C11 UNL     1      10.269 -15.650  15.843  1.00  0.00     0.252 C 
HETATM   19  O5  UNL     1      11.058 -16.604  15.537  1.00  0.00    -0.268 OA
ATOM     20  H2  UNL     1       8.963 -14.236  15.054  1.00  0.00     0.163 HD
BRANCH  18  21
HETATM   21  C12 UNL     1      10.135 -15.315  17.248  1.00  0.00     0.032 A 
HETATM   22  C13 UNL     1       9.877 -16.266  18.202  1.00  0.00     0.018 A 
HETATM   23  C14 UNL     1       9.749 -15.969  19.533  1.00  0.00     0.025 A 
HETATM   24  C15 UNL     1       9.881 -14.671  19.938  1.00  0.00     0.034 A 
HETATM   25 CL1  UNL     1       9.724 -14.247  21.627  1.00  0.00    -0.084 Cl
HETATM   26  C16 UNL     1      10.143 -13.675  19.006  1.00  0.00     0.025 A 
HETATM   27  C17 UNL     1      10.267 -14.016  17.654  1.00  0.00     0.018 A 
ENDBRANCH  18  21
ENDBRANCH  16  17
ENDBRANCH  14  16
ENDBRANCH  13  14
ENDBRANCH  12  13
ENDBRANCH  10  12
ENDBRANCH   4  10
BRANCH   5  28
HETATM   28  C19 UNL     1       8.512 -13.306   7.238  1.00  0.00    -0.008 A 
HETATM   29  C20 UNL     1       8.383 -14.498   6.560  1.00  0.00     0.014 A 
HETATM   30  C21 UNL     1       9.214 -14.897   5.540  1.00  0.00     0.001 A 
HETATM   31  C22 UNL     1      10.245 -14.054   5.166  1.00  0.00     0.000 A 
HETATM   32  C23 UNL     1      10.381 -12.854   5.844  1.00  0.00     0.001 A 
HETATM   33  C24 UNL     1       9.543 -12.468   6.862  1.00  0.00     0.014 A 
ENDBRANCH   5  28
BRANCH   1  34
HETATM   34  C4  UNL     1       4.888 -12.040  11.326  1.00  0.00     0.137 C 
BRANCH  34  35
HETATM   35  C3  UNL     1       5.227 -10.807  12.111  1.00  0.00     0.020 C 
BRANCH  35  36
HETATM   36  C2  UNL     1       3.903 -10.095  12.396  1.00  0.00    -0.003 C 
HETATM   37  C1  UNL     1       2.772 -10.815  11.687  1.00  0.00     0.005 C 
ENDBRANCH  35  36
ENDBRANCH  34  35
ENDBRANCH   1  34
TORSDOF 11
ENDMDL
