MODEL 1
REMARK VINA RESULT: -5.900488054      0.000      0.000
REMARK  4 active torsions:
REMARK  status: ('A' for Active; 'I' for Inactive)
REMARK    1  A    between atoms: C2_2  and  C3_3 
REMARK    2  A    between atoms: C6_6  and  N1_7 
REMARK    3  A    between atoms: N2_10  and  C9_11 
REMARK    4  A    between atoms: C9_11  and  C10_12 
ROOT
HETATM    1  N1  UNL     1      29.622   9.616  68.094  1.00  0.00    -0.403 N 
HETATM    2  C7  UNL     1      28.690   8.882  67.335  1.00  0.00     0.147 C 
HETATM    3  C8  UNL     1      28.243   7.725  68.247  1.00  0.00     0.292 C 
HETATM    4  N2  UNL     1      27.390   8.255  69.301  1.00  0.00     0.100 N 
HETATM    5  C11 UNL     1      27.689   9.603  69.649  1.00  0.00     0.292 C 
HETATM    6  C12 UNL     1      29.076  10.030  69.328  1.00  0.00     0.147 C 
ENDROOT
BRANCH   1   7
HETATM    7  C6  UNL     1      30.480  10.530  67.418  1.00  0.00     0.097 C 
HETATM    8  C5  UNL     1      31.068  11.464  68.407  1.00  0.00     0.027 C 
HETATM    9  C4  UNL     1      32.232  12.264  67.984  1.00  0.00     0.010 C 
HETATM   10  C3  UNL     1      33.068  11.740  66.887  1.00  0.00     0.009 C 
HETATM   11  C14 UNL     1      32.428  10.773  65.962  1.00  0.00     0.030 C 
HETATM   12  C13 UNL     1      31.523   9.784  66.620  1.00  0.00     0.105 C 
HETATM   13 CL1  UNL     1      32.336   8.656  67.690  1.00  0.00    -0.123 Cl
BRANCH  10  14
HETATM   14  C2  UNL     1      34.393  11.229  67.408  1.00  0.00    -0.032 C 
HETATM   15  C1  UNL     1      35.365  12.049  67.787  1.00  0.00     0.007 C 
ENDBRANCH  10  14
ENDBRANCH   1   7
BRANCH   4  16
HETATM   16  C9  UNL     1      26.042   8.038  68.874  1.00  0.00     0.371 C 
BRANCH  16  17
HETATM   17  C10 UNL     1      25.083   7.737  69.936  1.00  0.00     0.259 C 
HETATM   18  N3  UNL     1      25.521   7.375  71.238  1.00  0.00    -0.061 NA
HETATM   19  O1  UNL     1      23.837   7.784  69.748  1.00  0.00    -0.275 OA
ENDBRANCH  16  17
ENDBRANCH   4  16
TORSDOF 4
ENDMDL
MODEL 2
REMARK VINA RESULT: -5.573568637      3.604      7.306
REMARK  4 active torsions:
REMARK  status: ('A' for Active; 'I' for Inactive)
REMARK    1  A    between atoms: C2_2  and  C3_3 
REMARK    2  A    between atoms: C6_6  and  N1_7 
REMARK    3  A    between atoms: N2_10  and  C9_11 
REMARK    4  A    between atoms: C9_11  and  C10_12 
ROOT
HETATM    1  N1  UNL     1      30.390   9.974  67.911  1.00  0.00    -0.403 N 
HETATM    2  C7  UNL     1      31.443   9.344  67.218  1.00  0.00     0.147 C 
HETATM    3  C8  UNL     1      31.837  10.323  66.099  1.00  0.00     0.292 C 
HETATM    4  N2  UNL     1      32.529  11.461  66.686  1.00  0.00     0.100 N 
HETATM    5  C11 UNL     1      32.121  11.746  68.020  1.00  0.00     0.292 C 
HETATM    6  C12 UNL     1      30.762  11.256  68.368  1.00  0.00     0.147 C 
ENDROOT
BRANCH   1   7
HETATM    7  C6  UNL     1      29.572   9.184  68.769  1.00  0.00     0.097 C 
HETATM    8  C5  UNL     1      28.611  10.068  69.470  1.00  0.00     0.027 C 
HETATM    9  C4  UNL     1      27.461   9.434  70.139  1.00  0.00     0.010 C 
HETATM   10  C3  UNL     1      27.016   8.115  69.646  1.00  0.00     0.009 C 
HETATM   11  C14 UNL     1      28.017   7.303  68.912  1.00  0.00     0.030 C 
HETATM   12  C13 UNL     1      28.897   8.081  67.990  1.00  0.00     0.105 C 
HETATM   13 CL1  UNL     1      28.062   8.800  66.625  1.00  0.00    -0.123 Cl
BRANCH  10  14
HETATM   14  C2  UNL     1      25.715   8.230  68.883  1.00  0.00    -0.032 C 
HETATM   15  C1  UNL     1      24.536   8.082  69.473  1.00  0.00     0.007 C 
ENDBRANCH  10  14
ENDBRANCH   1   7
BRANCH   4  16
HETATM   16  C9  UNL     1      33.928  11.200  66.536  1.00  0.00     0.371 C 
BRANCH  16  17
HETATM   17  C10 UNL     1      34.824  12.208  67.103  1.00  0.00     0.259 C 
HETATM   18  N3  UNL     1      34.815  13.546  66.627  1.00  0.00    -0.061 NA
HETATM   19  O1  UNL     1      35.636  11.939  68.028  1.00  0.00    -0.275 OA
ENDBRANCH  16  17
ENDBRANCH   4  16
TORSDOF 4
ENDMDL
MODEL 3
REMARK VINA RESULT: -5.516167368      5.009      6.401
REMARK  4 active torsions:
REMARK  status: ('A' for Active; 'I' for Inactive)
REMARK    1  A    between atoms: C2_2  and  C3_3 
REMARK    2  A    between atoms: C6_6  and  N1_7 
REMARK    3  A    between atoms: N2_10  and  C9_11 
REMARK    4  A    between atoms: C9_11  and  C10_12 
ROOT
HETATM    1  N1  UNL     1      30.178   5.931  66.646  1.00  0.00    -0.403 N 
HETATM    2  C7  UNL     1      30.140   5.302  65.386  1.00  0.00     0.147 C 
HETATM    3  C8  UNL     1      31.213   4.200  65.450  1.00  0.00     0.292 C 
HETATM    4  N2  UNL     1      30.740   3.127  66.313  1.00  0.00     0.100 N 
HETATM    5  C11 UNL     1      29.854   3.571  67.335  1.00  0.00     0.292 C 
HETATM    6  C12 UNL     1      29.996   5.006  67.696  1.00  0.00     0.147 C 
ENDROOT
BRANCH   1   7
HETATM    7  C6  UNL     1      29.565   7.209  66.786  1.00  0.00     0.097 C 
HETATM    8  C5  UNL     1      28.529   7.137  67.843  1.00  0.00     0.027 C 
HETATM    9  C4  UNL     1      28.013   8.408  68.383  1.00  0.00     0.010 C 
HETATM   10  C3  UNL     1      28.878   9.600  68.288  1.00  0.00     0.009 C 
HETATM   11  C14 UNL     1      29.925   9.585  67.238  1.00  0.00     0.030 C 
HETATM   12  C13 UNL     1      30.607   8.269  67.055  1.00  0.00     0.105 C 
HETATM   13 CL1  UNL     1      31.575   7.757  68.426  1.00  0.00    -0.123 Cl
BRANCH  10  14
HETATM   14  C2  UNL     1      29.442   9.972  69.642  1.00  0.00    -0.032 C 
HETATM   15  C1  UNL     1      28.759  10.701  70.514  1.00  0.00     0.007 C 
ENDBRANCH  10  14
ENDBRANCH   1   7
BRANCH   4  16
HETATM   16  C9  UNL     1      30.196   2.127  65.448  1.00  0.00     0.371 C 
BRANCH  16  17
HETATM   17  C10 UNL     1      30.586   0.749  65.750  1.00  0.00     0.259 C 
HETATM   18  N3  UNL     1      30.382  -0.292  64.807  1.00  0.00    -0.061 NA
HETATM   19  O1  UNL     1      31.113   0.426  66.848  1.00  0.00    -0.275 OA
ENDBRANCH  16  17
ENDBRANCH   4  16
TORSDOF 4
ENDMDL
MODEL 4
REMARK VINA RESULT: -5.457600962      5.165      6.585
REMARK  4 active torsions:
REMARK  status: ('A' for Active; 'I' for Inactive)
REMARK    1  A    between atoms: C2_2  and  C3_3 
REMARK    2  A    between atoms: C6_6  and  N1_7 
REMARK    3  A    between atoms: N2_10  and  C9_11 
REMARK    4  A    between atoms: C9_11  and  C10_12 
ROOT
HETATM    1  N1  UNL     1      29.898   6.013  66.409  1.00  0.00    -0.403 N 
HETATM    2  C7  UNL     1      30.494   5.770  65.156  1.00  0.00     0.147 C 
HETATM    3  C8  UNL     1      31.314   4.480  65.339  1.00  0.00     0.292 C 
HETATM    4  N2  UNL     1      30.403   3.349  65.441  1.00  0.00     0.100 N 
HETATM    5  C11 UNL     1      29.137   3.690  65.996  1.00  0.00     0.292 C 
HETATM    6  C12 UNL     1      29.144   4.905  66.850  1.00  0.00     0.147 C 
ENDROOT
BRANCH   1   7
HETATM    7  C6  UNL     1      29.372   7.311  66.670  1.00  0.00     0.097 C 
HETATM    8  C5  UNL     1      28.351   7.212  67.740  1.00  0.00     0.027 C 
HETATM    9  C4  UNL     1      27.927   8.461  68.398  1.00  0.00     0.010 C 
HETATM   10  C3  UNL     1      28.865   9.601  68.386  1.00  0.00     0.009 C 
HETATM   11  C14 UNL     1      29.891   9.611  67.315  1.00  0.00     0.030 C 
HETATM   12  C13 UNL     1      30.484   8.276  67.005  1.00  0.00     0.105 C 
HETATM   13 CL1  UNL     1      31.440   7.588  68.306  1.00  0.00    -0.123 Cl
BRANCH  10  14
HETATM   14  C2  UNL     1      29.475   9.819  69.753  1.00  0.00    -0.032 C 
HETATM   15  C1  UNL     1      29.019  10.742  70.589  1.00  0.00     0.007 C 
ENDBRANCH  10  14
ENDBRANCH   1   7
BRANCH   4  16
HETATM   16  C9  UNL     1      30.343   2.765  64.137  1.00  0.00     0.371 C 
BRANCH  16  17
HETATM   17  C10 UNL     1      30.817   1.385  64.039  1.00  0.00     0.259 C 
HETATM   18  N3  UNL     1      30.418   0.405  64.987  1.00  0.00    -0.061 NA
HETATM   19  O1  UNL     1      31.592   1.005  63.121  1.00  0.00    -0.275 OA
ENDBRANCH  16  17
ENDBRANCH   4  16
TORSDOF 4
ENDMDL
MODEL 5
REMARK VINA RESULT: -5.405694639      1.229      1.322
REMARK  4 active torsions:
REMARK  status: ('A' for Active; 'I' for Inactive)
REMARK    1  A    between atoms: C2_2  and  C3_3 
REMARK    2  A    between atoms: C6_6  and  N1_7 
REMARK    3  A    between atoms: N2_10  and  C9_11 
REMARK    4  A    between atoms: C9_11  and  C10_12 
ROOT
HETATM    1  N1  UNL     1      30.411  10.390  68.274  1.00  0.00    -0.403 N 
HETATM    2  C7  UNL     1      29.611   9.572  67.452  1.00  0.00     0.147 C 
HETATM    3  C8  UNL     1      29.240   8.359  68.323  1.00  0.00     0.292 C 
HETATM    4  N2  UNL     1      28.273   8.775  69.329  1.00  0.00     0.100 N 
HETATM    5  C11 UNL     1      28.403  10.141  69.709  1.00  0.00     0.292 C 
HETATM    6  C12 UNL     1      29.752  10.720  69.477  1.00  0.00     0.147 C 
ENDROOT
BRANCH   1   7
HETATM    7  C6  UNL     1      31.204  11.402  67.661  1.00  0.00     0.097 C 
HETATM    8  C5  UNL     1      31.883  12.190  68.717  1.00  0.00     0.027 C 
HETATM    9  C4  UNL     1      33.003  13.057  68.308  1.00  0.00     0.010 C 
HETATM   10  C3  UNL     1      33.732  12.708  67.073  1.00  0.00     0.009 C 
HETATM   11  C14 UNL     1      33.007  11.877  66.081  1.00  0.00     0.030 C 
HETATM   12  C13 UNL     1      32.166  10.793  66.670  1.00  0.00     0.105 C 
HETATM   13 CL1  UNL     1      33.075   9.532  67.485  1.00  0.00    -0.123 Cl
BRANCH  10  14
HETATM   14  C2  UNL     1      35.100  12.144  67.390  1.00  0.00    -0.032 C 
HETATM   15  C1  UNL     1      36.151  12.923  67.607  1.00  0.00     0.007 C 
ENDBRANCH  10  14
ENDBRANCH   1   7
BRANCH   4  16
HETATM   16  C9  UNL     1      26.985   8.421  68.819  1.00  0.00     0.371 C 
BRANCH  16  17
HETATM   17  C10 UNL     1      25.997   8.017  69.819  1.00  0.00     0.259 C 
HETATM   18  N3  UNL     1      24.607   8.056  69.531  1.00  0.00    -0.061 NA
HETATM   19  O1  UNL     1      26.328   7.622  70.969  1.00  0.00    -0.275 OA
ENDBRANCH  16  17
ENDBRANCH   4  16
TORSDOF 4
ENDMDL
