MODEL 1
REMARK VINA RESULT: -8.856452523      0.000      0.000
REMARK  12 active torsions:
REMARK  status: ('A' for Active; 'I' for Inactive)
REMARK       I    between atoms: C2_2  and  N1_4 
REMARK    1  A    between atoms: N1_4  and  C3_6 
REMARK    2  A    between atoms: C3_6  and  C4_7 
REMARK    3  A    between atoms: C6_10  and  C7_11 
REMARK    4  A    between atoms: C7_11  and  N2_12 
REMARK       I    between atoms: N2_12  and  C8_13 
REMARK    5  A    between atoms: C8_13  and  C9_15 
REMARK    6  A    between atoms: C9_15  and  C10_16 
REMARK    7  A    between atoms: C10_16  and  C11_17 
REMARK    8  A    between atoms: C11_17  and  C12_18 
REMARK    9  A    between atoms: C12_18  and  C13_19 
REMARK   10  A    between atoms: C13_19  and  C14_20 
REMARK   11  A    between atoms: C14_20  and  C15_21 
REMARK   12  A    between atoms: C15_21  and  N4_25 
ROOT
HETATM    1  N2  UNL     1      12.165  11.622  15.350  1.00  0.00    -0.385 NA
HETATM    2  C8  UNL     1      12.282  11.888  16.669  1.00  0.00     0.290 C 
HETATM    3  O3  UNL     1      12.519  12.996  17.243  1.00  0.00    -0.257 OA
ENDROOT
BRANCH   2   4
HETATM    4  C9  UNL     1      12.131  10.747  17.709  1.00  0.00     0.119 C 
BRANCH   4   5
HETATM    5  C10 UNL     1      10.978  11.082  18.585  1.00  0.00     0.010 C 
BRANCH   5   6
HETATM    6  C11 UNL     1      11.081  11.033  20.033  1.00  0.00     0.001 C 
BRANCH   6   7
HETATM    7  C12 UNL     1      11.362   9.828  20.819  1.00  0.00     0.000 C 
BRANCH   7   8
HETATM    8  C13 UNL     1      10.834   8.519  20.349  1.00  0.00     0.007 C 
BRANCH   8   9
HETATM    9  C14 UNL     1      11.494   7.390  21.164  1.00  0.00     0.076 C 
BRANCH   9  10
HETATM   10  C15 UNL     1      12.250   6.485  20.286  1.00  0.00     0.073 C 
HETATM   11  N3  UNL     1      11.727   5.422  19.800  1.00  0.00    -0.389 N 
ATOM     12  H32 UNL     1      10.753   5.211  20.018  1.00  0.00     0.157 HD
ATOM     13  H31 UNL     1      12.251   4.794  19.191  1.00  0.00     0.157 HD
BRANCH  10  14
HETATM   14  N4  UNL     1      13.606   6.779  19.983  1.00  0.00    -0.362 N 
HETATM   15  C16 UNL     1      14.843   6.199  20.469  1.00  0.00     0.086 C 
HETATM   16  C17 UNL     1      15.528   7.457  20.969  1.00  0.00     0.027 C 
HETATM   17  C21 UNL     1      15.510   5.832  19.176  1.00  0.00     0.027 C 
HETATM   18  C18 UNL     1      15.011   8.558  20.056  1.00  0.00     0.027 C 
HETATM   19  C19 UNL     1      14.141   7.797  19.075  1.00  0.00     0.086 C 
HETATM   20  C20 UNL     1      15.071   6.957  18.239  1.00  0.00     0.027 C 
ENDBRANCH  10  14
ENDBRANCH   9  10
ENDBRANCH   8   9
ENDBRANCH   7   8
ENDBRANCH   6   7
ENDBRANCH   5   6
ENDBRANCH   4   5
ENDBRANCH   2   4
BRANCH   1  21
HETATM   21  C7  UNL     1      12.043  11.348  13.989  1.00  0.00     0.192 C 
BRANCH  21  22
HETATM   22  C6  UNL     1      13.332  11.515  13.214  1.00  0.00     0.199 C 
HETATM   23  O2  UNL     1      14.134  10.421  13.368  1.00  0.00    -0.376 OA
HETATM   24  C5  UNL     1      15.295  10.425  12.658  1.00  0.00     0.203 C 
HETATM   25  C4  UNL     1      15.152  10.867  11.247  1.00  0.00     0.227 C 
HETATM   26  N5  UNL     1      14.322  11.988  11.059  1.00  0.00    -0.065 N 
HETATM   27  C22 UNL     1      13.076  11.869  11.794  1.00  0.00     0.271 C 
ATOM     28  H52 UNL     1      14.809  12.853  11.292  1.00  0.00     0.277 HD
ATOM     29  H51 UNL     1      14.152  12.161  10.069  1.00  0.00     0.277 HD
BRANCH  25  30
HETATM   30  C3  UNL     1      14.867   9.717  10.291  1.00  0.00     0.157 C 
BRANCH  30  31
HETATM   31  N1  UNL     1      15.830   9.787   9.225  1.00  0.00    -0.359 N 
HETATM   32  C2  UNL     1      16.237   8.608   8.565  1.00  0.00     0.213 C 
HETATM   33  C1  UNL     1      17.217   8.687   7.463  1.00  0.00     0.117 C 
HETATM   34  O1  UNL     1      15.779   7.506   8.895  1.00  0.00    -0.274 OA
ATOM     35  H1  UNL     1      16.219  10.688   8.946  1.00  0.00     0.162 HD
ENDBRANCH  30  31
ENDBRANCH  25  30
ENDBRANCH  21  22
ENDBRANCH   1  21
TORSDOF 12
ENDMDL
MODEL 2
REMARK VINA RESULT: -8.814032691      1.448      2.057
REMARK  12 active torsions:
REMARK  status: ('A' for Active; 'I' for Inactive)
REMARK       I    between atoms: C2_2  and  N1_4 
REMARK    1  A    between atoms: N1_4  and  C3_6 
REMARK    2  A    between atoms: C3_6  and  C4_7 
REMARK    3  A    between atoms: C6_10  and  C7_11 
REMARK    4  A    between atoms: C7_11  and  N2_12 
REMARK       I    between atoms: N2_12  and  C8_13 
REMARK    5  A    between atoms: C8_13  and  C9_15 
REMARK    6  A    between atoms: C9_15  and  C10_16 
REMARK    7  A    between atoms: C10_16  and  C11_17 
REMARK    8  A    between atoms: C11_17  and  C12_18 
REMARK    9  A    between atoms: C12_18  and  C13_19 
REMARK   10  A    between atoms: C13_19  and  C14_20 
REMARK   11  A    between atoms: C14_20  and  C15_21 
REMARK   12  A    between atoms: C15_21  and  N4_25 
ROOT
HETATM    1  N2  UNL     1      12.790  12.676  14.724  1.00  0.00    -0.385 NA
HETATM    2  C8  UNL     1      12.665  12.613  16.068  1.00  0.00     0.290 C 
HETATM    3  O3  UNL     1      13.463  13.028  16.964  1.00  0.00    -0.257 OA
ENDROOT
BRANCH   2   4
HETATM    4  C9  UNL     1      11.414  11.952  16.702  1.00  0.00     0.119 C 
BRANCH   4   5
HETATM    5  C10 UNL     1      11.859  11.196  17.902  1.00  0.00     0.010 C 
BRANCH   5   6
HETATM    6  C11 UNL     1      10.936  10.839  18.965  1.00  0.00     0.001 C 
BRANCH   6   7
HETATM    7  C12 UNL     1      11.101  11.190  20.378  1.00  0.00     0.000 C 
BRANCH   7   8
HETATM    8  C13 UNL     1      10.703  10.205  21.419  1.00  0.00     0.007 C 
BRANCH   8   9
HETATM    9  C14 UNL     1      10.844   8.783  20.843  1.00  0.00     0.076 C 
BRANCH   9  10
HETATM   10  C15 UNL     1      11.982   8.082  21.456  1.00  0.00     0.073 C 
HETATM   11  N3  UNL     1      11.942   7.649  22.660  1.00  0.00    -0.389 N 
ATOM     12  H32 UNL     1      11.087   7.783  23.200  1.00  0.00     0.157 HD
ATOM     13  H31 UNL     1      12.731   7.163  23.085  1.00  0.00     0.157 HD
BRANCH  10  14
HETATM   14  N4  UNL     1      13.173   7.896  20.703  1.00  0.00    -0.362 N 
HETATM   15  C16 UNL     1      13.918   8.804  19.853  1.00  0.00     0.086 C 
HETATM   16  C17 UNL     1      13.949   7.981  18.578  1.00  0.00     0.027 C 
HETATM   17  C21 UNL     1      15.286   8.702  20.462  1.00  0.00     0.027 C 
HETATM   18  C18 UNL     1      13.944   6.538  19.058  1.00  0.00     0.027 C 
HETATM   19  C19 UNL     1      13.991   6.688  20.566  1.00  0.00     0.086 C 
HETATM   20  C20 UNL     1      15.352   7.239  20.900  1.00  0.00     0.027 C 
ENDBRANCH  10  14
ENDBRANCH   9  10
ENDBRANCH   8   9
ENDBRANCH   7   8
ENDBRANCH   6   7
ENDBRANCH   5   6
ENDBRANCH   4   5
ENDBRANCH   2   4
BRANCH   1  21
HETATM   21  C7  UNL     1      12.919  12.742  13.338  1.00  0.00     0.192 C 
BRANCH  21  22
HETATM   22  C6  UNL     1      13.309  11.429  12.696  1.00  0.00     0.199 C 
HETATM   23  O2  UNL     1      13.521  11.589  11.357  1.00  0.00    -0.376 OA
HETATM   24  C5  UNL     1      13.947  10.487  10.683  1.00  0.00     0.203 C 
HETATM   25  C4  UNL     1      15.018   9.720  11.370  1.00  0.00     0.227 C 
HETATM   26  N5  UNL     1      14.829   9.549  12.754  1.00  0.00    -0.065 N 
HETATM   27  C22 UNL     1      14.446  10.788  13.406  1.00  0.00     0.271 C 
ATOM     28  H52 UNL     1      14.157   8.806  12.947  1.00  0.00     0.277 HD
ATOM     29  H51 UNL     1      15.652   9.139  13.193  1.00  0.00     0.277 HD
BRANCH  25  30
HETATM   30  C3  UNL     1      16.418  10.182  10.988  1.00  0.00     0.157 C 
BRANCH  30  31
HETATM   31  N1  UNL     1      16.505  10.175   9.553  1.00  0.00    -0.359 N 
HETATM   32  C2  UNL     1      17.517   9.428   8.913  1.00  0.00     0.213 C 
HETATM   33  C1  UNL     1      17.595   9.414   7.439  1.00  0.00     0.117 C 
HETATM   34  O1  UNL     1      18.341   8.780   9.572  1.00  0.00    -0.274 OA
ATOM     35  H1  UNL     1      15.835  10.708   8.998  1.00  0.00     0.162 HD
ENDBRANCH  30  31
ENDBRANCH  25  30
ENDBRANCH  21  22
ENDBRANCH   1  21
TORSDOF 12
ENDMDL
MODEL 3
REMARK VINA RESULT: -8.802390728      1.688      2.426
REMARK  12 active torsions:
REMARK  status: ('A' for Active; 'I' for Inactive)
REMARK       I    between atoms: C2_2  and  N1_4 
REMARK    1  A    between atoms: N1_4  and  C3_6 
REMARK    2  A    between atoms: C3_6  and  C4_7 
REMARK    3  A    between atoms: C6_10  and  C7_11 
REMARK    4  A    between atoms: C7_11  and  N2_12 
REMARK       I    between atoms: N2_12  and  C8_13 
REMARK    5  A    between atoms: C8_13  and  C9_15 
REMARK    6  A    between atoms: C9_15  and  C10_16 
REMARK    7  A    between atoms: C10_16  and  C11_17 
REMARK    8  A    between atoms: C11_17  and  C12_18 
REMARK    9  A    between atoms: C12_18  and  C13_19 
REMARK   10  A    between atoms: C13_19  and  C14_20 
REMARK   11  A    between atoms: C14_20  and  C15_21 
REMARK   12  A    between atoms: C15_21  and  N4_25 
ROOT
HETATM    1  N2  UNL     1      13.978   9.638  14.571  1.00  0.00    -0.385 NA
HETATM    2  C8  UNL     1      13.117  10.467  15.203  1.00  0.00     0.290 C 
HETATM    3  O3  UNL     1      12.261  11.261  14.703  1.00  0.00    -0.257 OA
ENDROOT
BRANCH   2   4
HETATM    4  C9  UNL     1      13.100  10.537  16.752  1.00  0.00     0.119 C 
BRANCH   4   5
HETATM    5  C10 UNL     1      11.958  11.399  17.154  1.00  0.00     0.010 C 
BRANCH   5   6
HETATM    6  C11 UNL     1      11.163  11.111  18.335  1.00  0.00     0.001 C 
BRANCH   6   7
HETATM    7  C12 UNL     1      11.651  11.172  19.716  1.00  0.00     0.000 C 
BRANCH   7   8
HETATM    8  C13 UNL     1      10.977  10.350  20.757  1.00  0.00     0.007 C 
BRANCH   8   9
HETATM    9  C14 UNL     1      11.008   8.871  20.326  1.00  0.00     0.076 C 
BRANCH   9  10
HETATM   10  C15 UNL     1      12.005   8.121  21.104  1.00  0.00     0.073 C 
HETATM   11  N3  UNL     1      11.778   7.739  22.305  1.00  0.00    -0.389 N 
ATOM     12  H32 UNL     1      10.871   7.949  22.722  1.00  0.00     0.157 HD
ATOM     13  H31 UNL     1      12.469   7.219  22.845  1.00  0.00     0.157 HD
BRANCH  10  14
HETATM   14  N4  UNL     1      13.267   7.828  20.522  1.00  0.00    -0.362 N 
HETATM   15  C16 UNL     1      14.111   8.600  19.631  1.00  0.00     0.086 C 
HETATM   16  C17 UNL     1      14.269   7.594  18.505  1.00  0.00     0.027 C 
HETATM   17  C21 UNL     1      15.404   8.597  20.393  1.00  0.00     0.027 C 
HETATM   18  C18 UNL     1      14.194   6.240  19.194  1.00  0.00     0.027 C 
HETATM   19  C19 UNL     1      14.080   6.617  20.658  1.00  0.00     0.086 C 
HETATM   20  C20 UNL     1      15.404   7.218  21.051  1.00  0.00     0.027 C 
ENDBRANCH  10  14
ENDBRANCH   9  10
ENDBRANCH   8   9
ENDBRANCH   7   8
ENDBRANCH   6   7
ENDBRANCH   5   6
ENDBRANCH   4   5
ENDBRANCH   2   4
BRANCH   1  21
HETATM   21  C7  UNL     1      14.865   8.784  13.920  1.00  0.00     0.192 C 
BRANCH  21  22
HETATM   22  C6  UNL     1      15.818   9.491  12.982  1.00  0.00     0.199 C 
HETATM   23  O2  UNL     1      16.562   8.589  12.277  1.00  0.00    -0.376 OA
HETATM   24  C5  UNL     1      17.408   9.107  11.347  1.00  0.00     0.203 C 
HETATM   25  C4  UNL     1      16.817  10.180  10.507  1.00  0.00     0.227 C 
HETATM   26  N5  UNL     1      16.037  11.119  11.207  1.00  0.00    -0.065 N 
HETATM   27  C22 UNL     1      15.113  10.479  12.125  1.00  0.00     0.271 C 
ATOM     28  H52 UNL     1      16.622  11.802  11.687  1.00  0.00     0.277 HD
ATOM     29  H51 UNL     1      15.549  11.746  10.569  1.00  0.00     0.277 HD
BRANCH  25  30
HETATM   30  C3  UNL     1      16.158   9.648   9.241  1.00  0.00     0.157 C 
BRANCH  30  31
HETATM   31  N1  UNL     1      16.003   8.227   9.393  1.00  0.00    -0.359 N 
HETATM   32  C2  UNL     1      16.074   7.386   8.262  1.00  0.00     0.213 C 
HETATM   33  C1  UNL     1      15.925   5.926   8.424  1.00  0.00     0.117 C 
HETATM   34  O1  UNL     1      16.262   7.856   7.132  1.00  0.00    -0.274 OA
ATOM     35  H1  UNL     1      15.842   7.827  10.317  1.00  0.00     0.162 HD
ENDBRANCH  30  31
ENDBRANCH  25  30
ENDBRANCH  21  22
ENDBRANCH   1  21
TORSDOF 12
ENDMDL
MODEL 4
REMARK VINA RESULT: -8.655659756      1.802      3.320
REMARK  12 active torsions:
REMARK  status: ('A' for Active; 'I' for Inactive)
REMARK       I    between atoms: C2_2  and  N1_4 
REMARK    1  A    between atoms: N1_4  and  C3_6 
REMARK    2  A    between atoms: C3_6  and  C4_7 
REMARK    3  A    between atoms: C6_10  and  C7_11 
REMARK    4  A    between atoms: C7_11  and  N2_12 
REMARK       I    between atoms: N2_12  and  C8_13 
REMARK    5  A    between atoms: C8_13  and  C9_15 
REMARK    6  A    between atoms: C9_15  and  C10_16 
REMARK    7  A    between atoms: C10_16  and  C11_17 
REMARK    8  A    between atoms: C11_17  and  C12_18 
REMARK    9  A    between atoms: C12_18  and  C13_19 
REMARK   10  A    between atoms: C13_19  and  C14_20 
REMARK   11  A    between atoms: C14_20  and  C15_21 
REMARK   12  A    between atoms: C15_21  and  N4_25 
ROOT
HETATM    1  N2  UNL     1      14.057  11.033  12.893  1.00  0.00    -0.385 NA
HETATM    2  C8  UNL     1      12.840  11.606  13.021  1.00  0.00     0.290 C 
HETATM    3  O3  UNL     1      12.187  12.290  12.173  1.00  0.00    -0.257 OA
ENDROOT
BRANCH   2   4
HETATM    4  C9  UNL     1      12.054  11.475  14.351  1.00  0.00     0.119 C 
BRANCH   4   5
HETATM    5  C10 UNL     1      12.592  12.488  15.296  1.00  0.00     0.010 C 
BRANCH   5   6
HETATM    6  C11 UNL     1      12.401  12.371  16.731  1.00  0.00     0.001 C 
BRANCH   6   7
HETATM    7  C12 UNL     1      11.299  11.653  17.379  1.00  0.00     0.000 C 
BRANCH   7   8
HETATM    8  C13 UNL     1      11.600  10.740  18.514  1.00  0.00     0.007 C 
BRANCH   8   9
HETATM    9  C14 UNL     1      13.111  10.437  18.528  1.00  0.00     0.076 C 
BRANCH   9  10
HETATM   10  C15 UNL     1      13.361   9.014  18.260  1.00  0.00     0.073 C 
HETATM   11  N3  UNL     1      13.577   8.575  17.077  1.00  0.00    -0.389 N 
ATOM     12  H32 UNL     1      13.592   9.240  16.303  1.00  0.00     0.157 HD
ATOM     13  H31 UNL     1      13.750   7.588  16.891  1.00  0.00     0.157 HD
BRANCH  10  14
HETATM   14  N4  UNL     1      13.340   8.088  19.338  1.00  0.00    -0.362 N 
HETATM   15  C16 UNL     1      13.359   8.290  20.773  1.00  0.00     0.086 C 
HETATM   16  C17 UNL     1      14.562   7.437  21.129  1.00  0.00     0.027 C 
HETATM   17  C21 UNL     1      12.144   7.511  21.184  1.00  0.00     0.027 C 
HETATM   18  C18 UNL     1      14.563   6.330  20.085  1.00  0.00     0.027 C 
HETATM   19  C19 UNL     1      13.308   6.624  19.287  1.00  0.00     0.086 C 
HETATM   20  C20 UNL     1      12.143   6.343  20.199  1.00  0.00     0.027 C 
ENDBRANCH  10  14
ENDBRANCH   9  10
ENDBRANCH   8   9
ENDBRANCH   7   8
ENDBRANCH   6   7
ENDBRANCH   5   6
ENDBRANCH   4   5
ENDBRANCH   2   4
BRANCH   1  21
HETATM   21  C7  UNL     1      15.312  10.442  12.761  1.00  0.00     0.192 C 
BRANCH  21  22
HETATM   22  C6  UNL     1      15.927  10.611  11.390  1.00  0.00     0.199 C 
HETATM   23  O2  UNL     1      17.280  10.438  11.442  1.00  0.00    -0.376 OA
HETATM   24  C5  UNL     1      17.937  10.497  10.252  1.00  0.00     0.203 C 
HETATM   25  C4  UNL     1      17.282   9.748   9.149  1.00  0.00     0.227 C 
HETATM   26  N5  UNL     1      15.885   9.901   9.078  1.00  0.00    -0.065 N 
HETATM   27  C22 UNL     1      15.257   9.753  10.378  1.00  0.00     0.271 C 
ATOM     28  H52 UNL     1      15.630  10.787   8.643  1.00  0.00     0.277 HD
ATOM     29  H51 UNL     1      15.476   9.264   8.395  1.00  0.00     0.277 HD
BRANCH  25  30
HETATM   30  C3  UNL     1      17.753   8.304   9.049  1.00  0.00     0.157 C 
BRANCH  30  31
HETATM   31  N1  UNL     1      17.604   7.889   7.680  1.00  0.00    -0.359 N 
HETATM   32  C2  UNL     1      16.479   7.131   7.293  1.00  0.00     0.213 C 
HETATM   33  C1  UNL     1      16.324   6.718   5.884  1.00  0.00     0.117 C 
HETATM   34  O1  UNL     1      15.615   6.810   8.119  1.00  0.00    -0.274 OA
ATOM     35  H1  UNL     1      18.311   8.143   6.990  1.00  0.00     0.162 HD
ENDBRANCH  30  31
ENDBRANCH  25  30
ENDBRANCH  21  22
ENDBRANCH   1  21
TORSDOF 12
ENDMDL
MODEL 5
REMARK VINA RESULT: -8.587312830      2.195      3.235
REMARK  12 active torsions:
REMARK  status: ('A' for Active; 'I' for Inactive)
REMARK       I    between atoms: C2_2  and  N1_4 
REMARK    1  A    between atoms: N1_4  and  C3_6 
REMARK    2  A    between atoms: C3_6  and  C4_7 
REMARK    3  A    between atoms: C6_10  and  C7_11 
REMARK    4  A    between atoms: C7_11  and  N2_12 
REMARK       I    between atoms: N2_12  and  C8_13 
REMARK    5  A    between atoms: C8_13  and  C9_15 
REMARK    6  A    between atoms: C9_15  and  C10_16 
REMARK    7  A    between atoms: C10_16  and  C11_17 
REMARK    8  A    between atoms: C11_17  and  C12_18 
REMARK    9  A    between atoms: C12_18  and  C13_19 
REMARK   10  A    between atoms: C13_19  and  C14_20 
REMARK   11  A    between atoms: C14_20  and  C15_21 
REMARK   12  A    between atoms: C15_21  and  N4_25 
ROOT
HETATM    1  N2  UNL     1      12.049  11.752  15.342  1.00  0.00    -0.385 NA
HETATM    2  C8  UNL     1      12.103  12.162  16.629  1.00  0.00     0.290 C 
HETATM    3  O3  UNL     1      12.860  13.034  17.158  1.00  0.00    -0.257 OA
ENDROOT
BRANCH   2   4
HETATM    4  C9  UNL     1      11.157  11.534  17.685  1.00  0.00     0.119 C 
BRANCH   4   5
HETATM    5  C10 UNL     1      11.999  10.836  18.691  1.00  0.00     0.010 C 
BRANCH   5   6
HETATM    6  C11 UNL     1      12.637   9.563  18.402  1.00  0.00     0.001 C 
BRANCH   6   7
HETATM    7  C12 UNL     1      12.826   8.477  19.367  1.00  0.00     0.000 C 
BRANCH   7   8
HETATM    8  C13 UNL     1      13.880   7.458  19.111  1.00  0.00     0.007 C 
BRANCH   8   9
HETATM    9  C14 UNL     1      14.204   7.440  17.605  1.00  0.00     0.076 C 
BRANCH   9  10
HETATM   10  C15 UNL     1      14.639   6.101  17.180  1.00  0.00     0.073 C 
HETATM   11  N3  UNL     1      14.782   5.140  18.014  1.00  0.00    -0.389 N 
ATOM     12  H32 UNL     1      14.571   5.309  18.998  1.00  0.00     0.157 HD
ATOM     13  H31 UNL     1      15.083   4.212  17.720  1.00  0.00     0.157 HD
BRANCH  10  14
HETATM   14  N4  UNL     1      14.932   5.866  15.810  1.00  0.00    -0.362 N 
HETATM   15  C16 UNL     1      14.139   6.068  14.613  1.00  0.00     0.086 C 
HETATM   16  C17 UNL     1      14.207   4.669  14.030  1.00  0.00     0.027 C 
HETATM   17  C21 UNL     1      15.069   6.918  13.799  1.00  0.00     0.027 C 
HETATM   18  C18 UNL     1      15.557   4.135  14.484  1.00  0.00     0.027 C 
HETATM   19  C19 UNL     1      16.156   5.321  15.216  1.00  0.00     0.086 C 
HETATM   20  C20 UNL     1      16.444   6.368  14.173  1.00  0.00     0.027 C 
ENDBRANCH  10  14
ENDBRANCH   9  10
ENDBRANCH   8   9
ENDBRANCH   7   8
ENDBRANCH   6   7
ENDBRANCH   5   6
ENDBRANCH   4   5
ENDBRANCH   2   4
BRANCH   1  21
HETATM   21  C7  UNL     1      11.994  11.331  14.015  1.00  0.00     0.192 C 
BRANCH  21  22
HETATM   22  C6  UNL     1      13.296  11.501  13.264  1.00  0.00     0.199 C 
HETATM   23  O2  UNL     1      14.080  10.392  13.398  1.00  0.00    -0.376 OA
HETATM   24  C5  UNL     1      15.251  10.400  12.706  1.00  0.00     0.203 C 
HETATM   25  C4  UNL     1      15.136  10.884  11.306  1.00  0.00     0.227 C 
HETATM   26  N5  UNL     1      14.324  12.021  11.138  1.00  0.00    -0.065 N 
HETATM   27  C22 UNL     1      13.066  11.899  11.851  1.00  0.00     0.271 C 
ATOM     28  H52 UNL     1      14.820  12.872  11.403  1.00  0.00     0.277 HD
ATOM     29  H51 UNL     1      14.172  12.225  10.151  1.00  0.00     0.277 HD
BRANCH  25  30
HETATM   30  C3  UNL     1      14.850   9.766  10.313  1.00  0.00     0.157 C 
BRANCH  30  31
HETATM   31  N1  UNL     1      15.843   9.838   9.275  1.00  0.00    -0.359 N 
HETATM   32  C2  UNL     1      16.215   8.672   8.574  1.00  0.00     0.213 C 
HETATM   33  C1  UNL     1      17.226   8.753   7.502  1.00  0.00     0.117 C 
HETATM   34  O1  UNL     1      15.701   7.578   8.844  1.00  0.00    -0.274 OA
ATOM     35  H1  UNL     1      16.278  10.732   9.046  1.00  0.00     0.162 HD
ENDBRANCH  30  31
ENDBRANCH  25  30
ENDBRANCH  21  22
ENDBRANCH   1  21
TORSDOF 12
ENDMDL
