MODEL 1
REMARK VINA RESULT: -7.457486613      0.000      0.000
REMARK  9 active torsions:
REMARK  status: ('A' for Active; 'I' for Inactive)
REMARK    1  A    between atoms: C2_2  and  N1_3 
REMARK    2  A    between atoms: N1_3  and  C4_5 
REMARK    3  A    between atoms: C7_8  and  S1_9 
REMARK    4  A    between atoms: S1_9  and  N2_12 
REMARK    5  A    between atoms: N2_12  and  C8_14 
REMARK    6  A    between atoms: C14_23  and  S2_24 
REMARK    7  A    between atoms: S2_24  and  N4_27 
REMARK    8  A    between atoms: N4_27  and  C15_29 
REMARK    9  A    between atoms: C15_29  and  C17_31 
ROOT
HETATM    1  C4  UNL     1      -1.483  -7.507 -17.076  1.00  0.00     0.053 A 
HETATM    2  C5  UNL     1      -2.097  -8.754 -17.037  1.00  0.00     0.032 A 
HETATM    3  C6  UNL     1      -3.430  -8.886 -16.736  1.00  0.00     0.027 A 
HETATM    4  C7  UNL     1      -4.190  -7.770 -16.466  1.00  0.00     0.081 A 
HETATM    5  C13 UNL     1      -3.567  -6.547 -16.510  1.00  0.00     0.052 A 
HETATM    6  C14 UNL     1      -2.230  -6.381 -16.807  1.00  0.00     0.107 A 
ENDROOT
BRANCH   6   7
HETATM    7  S2  UNL     1      -1.465  -4.796 -16.817  1.00  0.00     0.261 S 
HETATM    8  O4  UNL     1      -0.956  -4.395 -18.158  1.00  0.00    -0.200 OA
HETATM    9  O5  UNL     1      -2.575  -3.796 -16.496  1.00  0.00    -0.200 OA
BRANCH   7  10
HETATM   10  N4  UNL     1      -0.254  -4.707 -15.581  1.00  0.00    -0.311 N 
ATOM     11  H4  UNL     1      -0.199  -5.357 -14.797  1.00  0.00     0.172 HD
BRANCH  10  12
HETATM   12  C15 UNL     1       0.674  -3.608 -15.780  1.00  0.00     0.093 C 
HETATM   13  C16 UNL     1       0.465  -2.638 -14.633  1.00  0.00     0.033 C 
BRANCH  12  14
HETATM   14  C17 UNL     1       2.064  -4.042 -15.984  1.00  0.00     0.014 C 
HETATM   15  C18 UNL     1       3.088  -2.895 -15.878  1.00  0.00     0.012 C 
HETATM   16  C19 UNL     1       4.000  -3.312 -17.002  1.00  0.00    -0.006 C 
HETATM   17  C20 UNL     1       2.988  -3.432 -18.149  1.00  0.00     0.011 C 
HETATM   18  C22 UNL     1       3.962  -4.847 -17.035  1.00  0.00    -0.040 C 
HETATM   19  C21 UNL     1       2.461  -4.585 -17.294  1.00  0.00     0.000 C 
HETATM   20  C23 UNL     1       4.284  -5.497 -15.736  1.00  0.00     0.015 C 
HETATM   21  C24 UNL     1       4.620  -5.431 -18.236  1.00  0.00     0.015 C 
ENDBRANCH  12  14
ENDBRANCH  10  12
ENDBRANCH   7  10
ENDBRANCH   6   7
BRANCH   1  22
HETATM   22  N1  UNL     1      -0.115  -7.491 -17.418  1.00  0.00    -0.384 N 
HETATM   23  C3  UNL     1       0.275  -7.303 -18.792  1.00  0.00     0.149 C 
BRANCH  22  24
HETATM   24  C2  UNL     1       0.892  -7.683 -16.413  1.00  0.00     0.118 C 
HETATM   25  C1  UNL     1       2.131  -8.353 -17.044  1.00  0.00     0.026 C 
ENDBRANCH  22  24
ENDBRANCH   1  22
BRANCH   4  26
HETATM   26  S1  UNL     1      -5.902  -7.931 -16.072  1.00  0.00     0.264 S 
HETATM   27  O1  UNL     1      -6.683  -7.059 -17.001  1.00  0.00    -0.200 OA
HETATM   28  O2  UNL     1      -6.236  -9.390 -16.240  1.00  0.00    -0.200 OA
BRANCH  26  29
HETATM   29  N2  UNL     1      -6.114  -7.427 -14.437  1.00  0.00    -0.258 N 
ATOM     30  H2  UNL     1      -5.500  -7.779 -13.703  1.00  0.00     0.181 HD
BRANCH  29  31
HETATM   31  C8  UNL     1      -7.062  -6.599 -14.156  1.00  0.00     0.187 A 
HETATM   32  O3  UNL     1      -8.342  -6.675 -14.381  1.00  0.00    -0.218 OA
HETATM   33  N3  UNL     1      -8.964  -5.616 -13.937  1.00  0.00    -0.263 N 
HETATM   34  C9  UNL     1      -8.092  -4.757 -13.375  1.00  0.00     0.039 A 
ATOM     35  H3  UNL     1      -9.970  -5.461 -14.005  1.00  0.00     0.194 HD
HETATM   36  C10 UNL     1      -8.370  -3.431 -12.745  1.00  0.00     0.071 C 
HETATM   37  C11 UNL     1      -6.870  -5.380 -13.512  1.00  0.00     0.016 A 
HETATM   38  C12 UNL     1      -5.562  -4.867 -13.063  1.00  0.00     0.055 C 
ENDBRANCH  29  31
ENDBRANCH  26  29
ENDBRANCH   4  26
TORSDOF 9
ENDMDL
MODEL 2
REMARK VINA RESULT: -7.317588151      2.524      4.089
REMARK  9 active torsions:
REMARK  status: ('A' for Active; 'I' for Inactive)
REMARK    1  A    between atoms: C2_2  and  N1_3 
REMARK    2  A    between atoms: N1_3  and  C4_5 
REMARK    3  A    between atoms: C7_8  and  S1_9 
REMARK    4  A    between atoms: S1_9  and  N2_12 
REMARK    5  A    between atoms: N2_12  and  C8_14 
REMARK    6  A    between atoms: C14_23  and  S2_24 
REMARK    7  A    between atoms: S2_24  and  N4_27 
REMARK    8  A    between atoms: N4_27  and  C15_29 
REMARK    9  A    between atoms: C15_29  and  C17_31 
ROOT
HETATM    1  C4  UNL     1      -1.650  -5.840 -16.928  1.00  0.00     0.053 A 
HETATM    2  C5  UNL     1      -2.660  -5.101 -16.324  1.00  0.00     0.032 A 
HETATM    3  C6  UNL     1      -3.875  -5.664 -16.021  1.00  0.00     0.027 A 
HETATM    4  C7  UNL     1      -4.115  -6.988 -16.314  1.00  0.00     0.081 A 
HETATM    5  C13 UNL     1      -3.105  -7.702 -16.911  1.00  0.00     0.052 A 
HETATM    6  C14 UNL     1      -1.874  -7.166 -17.229  1.00  0.00     0.107 A 
ENDROOT
BRANCH   6   7
HETATM    7  S2  UNL     1      -0.622  -8.110 -18.027  1.00  0.00     0.261 S 
HETATM    8  O4  UNL     1       0.710  -8.001 -17.366  1.00  0.00    -0.200 OA
HETATM    9  O5  UNL     1      -1.031  -9.573 -17.859  1.00  0.00    -0.200 OA
BRANCH   7  10
HETATM   10  N4  UNL     1      -0.569  -7.733 -19.717  1.00  0.00    -0.311 N 
ATOM     11  H4  UNL     1      -1.388  -7.457 -20.259  1.00  0.00     0.172 HD
BRANCH  10  12
HETATM   12  C15 UNL     1       0.763  -7.851 -20.279  1.00  0.00     0.093 C 
HETATM   13  C16 UNL     1       0.834  -9.199 -20.972  1.00  0.00     0.033 C 
BRANCH  12  14
HETATM   14  C17 UNL     1       1.156  -6.703 -21.110  1.00  0.00     0.014 C 
HETATM   15  C18 UNL     1       1.253  -7.035 -22.612  1.00  0.00     0.012 C 
HETATM   16  C19 UNL     1       2.484  -6.228 -22.935  1.00  0.00    -0.006 C 
HETATM   17  C20 UNL     1       3.459  -6.780 -21.887  1.00  0.00     0.011 C 
HETATM   18  C22 UNL     1       2.446  -5.005 -22.007  1.00  0.00    -0.040 C 
HETATM   19  C21 UNL     1       2.487  -6.103 -20.921  1.00  0.00     0.000 C 
HETATM   20  C23 UNL     1       1.184  -4.219 -22.078  1.00  0.00     0.015 C 
HETATM   21  C24 UNL     1       3.707  -4.213 -22.019  1.00  0.00     0.015 C 
ENDBRANCH  12  14
ENDBRANCH  10  12
ENDBRANCH   7  10
ENDBRANCH   6   7
BRANCH   1  22
HETATM   22  N1  UNL     1      -0.436  -5.164 -17.173  1.00  0.00    -0.384 N 
HETATM   23  C3  UNL     1       0.565  -5.099 -16.139  1.00  0.00     0.149 C 
BRANCH  22  24
HETATM   24  C2  UNL     1      -0.200  -4.519 -18.434  1.00  0.00     0.118 C 
HETATM   25  C1  UNL     1       1.204  -3.877 -18.430  1.00  0.00     0.026 C 
ENDBRANCH  22  24
ENDBRANCH   1  22
BRANCH   4  26
HETATM   26  S1  UNL     1      -5.675  -7.717 -15.934  1.00  0.00     0.264 S 
HETATM   27  O1  UNL     1      -6.689  -7.190 -16.897  1.00  0.00    -0.200 OA
HETATM   28  O2  UNL     1      -5.485  -9.206 -16.061  1.00  0.00    -0.200 OA
BRANCH  26  29
HETATM   29  N2  UNL     1      -6.080  -7.276 -14.317  1.00  0.00    -0.258 N 
ATOM     30  H2  UNL     1      -5.533  -7.628 -13.532  1.00  0.00     0.181 HD
BRANCH  29  31
HETATM   31  C8  UNL     1      -7.086  -6.494 -14.115  1.00  0.00     0.187 A 
HETATM   32  O3  UNL     1      -8.340  -6.636 -14.434  1.00  0.00    -0.218 OA
HETATM   33  N3  UNL     1      -9.045  -5.606 -14.047  1.00  0.00    -0.263 N 
HETATM   34  C9  UNL     1      -8.260  -4.701 -13.431  1.00  0.00     0.039 A 
ATOM     35  H3  UNL     1     -10.049  -5.502 -14.192  1.00  0.00     0.194 HD
HETATM   36  C10 UNL     1      -8.649  -3.386 -12.837  1.00  0.00     0.071 C 
HETATM   37  C11 UNL     1      -7.002  -5.263 -13.471  1.00  0.00     0.016 A 
HETATM   38  C12 UNL     1      -5.758  -4.683 -12.931  1.00  0.00     0.055 C 
ENDBRANCH  29  31
ENDBRANCH  26  29
ENDBRANCH   4  26
TORSDOF 9
ENDMDL
MODEL 3
REMARK VINA RESULT: -7.295997837      2.711      4.742
REMARK  9 active torsions:
REMARK  status: ('A' for Active; 'I' for Inactive)
REMARK    1  A    between atoms: C2_2  and  N1_3 
REMARK    2  A    between atoms: N1_3  and  C4_5 
REMARK    3  A    between atoms: C7_8  and  S1_9 
REMARK    4  A    between atoms: S1_9  and  N2_12 
REMARK    5  A    between atoms: N2_12  and  C8_14 
REMARK    6  A    between atoms: C14_23  and  S2_24 
REMARK    7  A    between atoms: S2_24  and  N4_27 
REMARK    8  A    between atoms: N4_27  and  C15_29 
REMARK    9  A    between atoms: C15_29  and  C17_31 
ROOT
HETATM    1  C4  UNL     1      -1.509  -6.426 -17.039  1.00  0.00     0.053 A 
HETATM    2  C5  UNL     1      -2.506  -5.508 -16.733  1.00  0.00     0.032 A 
HETATM    3  C6  UNL     1      -3.771  -5.914 -16.387  1.00  0.00     0.027 A 
HETATM    4  C7  UNL     1      -4.075  -7.257 -16.337  1.00  0.00     0.081 A 
HETATM    5  C13 UNL     1      -3.077  -8.149 -16.642  1.00  0.00     0.052 A 
HETATM    6  C14 UNL     1      -1.797  -7.773 -16.994  1.00  0.00     0.107 A 
ENDROOT
BRANCH   6   7
HETATM    7  S2  UNL     1      -0.559  -8.952 -17.412  1.00  0.00     0.261 S 
HETATM    8  O4  UNL     1       0.785  -8.615 -16.863  1.00  0.00    -0.200 OA
HETATM    9  O5  UNL     1      -0.963 -10.248 -16.712  1.00  0.00    -0.200 OA
BRANCH   7  10
HETATM   10  N4  UNL     1      -0.540  -9.221 -19.124  1.00  0.00    -0.311 N 
ATOM     11  H4  UNL     1      -1.378  -9.214 -19.705  1.00  0.00     0.172 HD
BRANCH  10  12
HETATM   12  C15 UNL     1       0.795  -9.457 -19.642  1.00  0.00     0.093 C 
HETATM   13  C16 UNL     1       1.230 -10.821 -19.141  1.00  0.00     0.033 C 
BRANCH  12  14
HETATM   14  C17 UNL     1       0.905  -9.264 -21.096  1.00  0.00     0.014 C 
HETATM   15  C18 UNL     1       2.346  -9.389 -21.626  1.00  0.00     0.012 C 
HETATM   16  C19 UNL     1       2.306  -8.270 -22.635  1.00  0.00    -0.006 C 
HETATM   17  C20 UNL     1       1.835  -7.113 -21.744  1.00  0.00     0.011 C 
HETATM   18  C22 UNL     1       0.865  -8.225 -23.163  1.00  0.00    -0.040 C 
HETATM   19  C21 UNL     1       0.561  -7.954 -21.672  1.00  0.00     0.000 C 
HETATM   20  C23 UNL     1       0.365  -9.522 -23.693  1.00  0.00     0.015 C 
HETATM   21  C24 UNL     1       0.577  -7.026 -23.997  1.00  0.00     0.015 C 
ENDBRANCH  12  14
ENDBRANCH  10  12
ENDBRANCH   7  10
ENDBRANCH   6   7
BRANCH   1  22
HETATM   22  N1  UNL     1      -0.242  -5.895 -17.358  1.00  0.00    -0.384 N 
HETATM   23  C3  UNL     1       0.654  -5.502 -16.301  1.00  0.00     0.149 C 
BRANCH  22  24
HETATM   24  C2  UNL     1       0.154  -5.720 -18.727  1.00  0.00     0.118 C 
HETATM   25  C1  UNL     1       0.041  -4.230 -19.111  1.00  0.00     0.026 C 
ENDBRANCH  22  24
ENDBRANCH   1  22
BRANCH   4  26
HETATM   26  S1  UNL     1      -5.699  -7.787 -15.900  1.00  0.00     0.264 S 
HETATM   27  O1  UNL     1      -6.676  -7.116 -16.811  1.00  0.00    -0.200 OA
HETATM   28  O2  UNL     1      -5.708  -9.285 -16.055  1.00  0.00    -0.200 OA
BRANCH  26  29
HETATM   29  N2  UNL     1      -5.978  -7.329 -14.261  1.00  0.00    -0.258 N 
ATOM     30  H2  UNL     1      -5.378  -7.682 -13.516  1.00  0.00     0.181 HD
BRANCH  29  31
HETATM   31  C8  UNL     1      -6.957  -6.535 -13.991  1.00  0.00     0.187 A 
HETATM   32  O3  UNL     1      -8.238  -6.685 -14.170  1.00  0.00    -0.218 OA
HETATM   33  N3  UNL     1      -8.899  -5.635 -13.760  1.00  0.00    -0.263 N 
HETATM   34  C9  UNL     1      -8.054  -4.707 -13.272  1.00  0.00     0.039 A 
ATOM     35  H3  UNL     1      -9.913  -5.533 -13.803  1.00  0.00     0.194 HD
HETATM   36  C10 UNL     1      -8.379  -3.364 -12.701  1.00  0.00     0.071 C 
HETATM   37  C11 UNL     1      -6.807  -5.275 -13.417  1.00  0.00     0.016 A 
HETATM   38  C12 UNL     1      -5.513  -4.677 -13.038  1.00  0.00     0.055 C 
ENDBRANCH  29  31
ENDBRANCH  26  29
ENDBRANCH   4  26
TORSDOF 9
ENDMDL
MODEL 4
REMARK VINA RESULT: -7.295835559      0.752      1.399
REMARK  9 active torsions:
REMARK  status: ('A' for Active; 'I' for Inactive)
REMARK    1  A    between atoms: C2_2  and  N1_3 
REMARK    2  A    between atoms: N1_3  and  C4_5 
REMARK    3  A    between atoms: C7_8  and  S1_9 
REMARK    4  A    between atoms: S1_9  and  N2_12 
REMARK    5  A    between atoms: N2_12  and  C8_14 
REMARK    6  A    between atoms: C14_23  and  S2_24 
REMARK    7  A    between atoms: S2_24  and  N4_27 
REMARK    8  A    between atoms: N4_27  and  C15_29 
REMARK    9  A    between atoms: C15_29  and  C17_31 
ROOT
HETATM    1  C4  UNL     1      -1.456  -7.516 -17.014  1.00  0.00     0.053 A 
HETATM    2  C5  UNL     1      -2.070  -8.762 -16.978  1.00  0.00     0.032 A 
HETATM    3  C6  UNL     1      -3.412  -8.892 -16.723  1.00  0.00     0.027 A 
HETATM    4  C7  UNL     1      -4.183  -7.774 -16.496  1.00  0.00     0.081 A 
HETATM    5  C13 UNL     1      -3.559  -6.550 -16.536  1.00  0.00     0.052 A 
HETATM    6  C14 UNL     1      -2.213  -6.386 -16.788  1.00  0.00     0.107 A 
ENDROOT
BRANCH   6   7
HETATM    7  S2  UNL     1      -1.450  -4.801 -16.794  1.00  0.00     0.261 S 
HETATM    8  O4  UNL     1      -0.956  -4.389 -18.138  1.00  0.00    -0.200 OA
HETATM    9  O5  UNL     1      -2.557  -3.804 -16.453  1.00  0.00    -0.200 OA
BRANCH   7  10
HETATM   10  N4  UNL     1      -0.226  -4.720 -15.571  1.00  0.00    -0.311 N 
ATOM     11  H4  UNL     1       0.093  -5.529 -15.037  1.00  0.00     0.172 HD
BRANCH  10  12
HETATM   12  C15 UNL     1       0.299  -3.379 -15.386  1.00  0.00     0.093 C 
HETATM   13  C16 UNL     1      -0.126  -2.923 -14.003  1.00  0.00     0.033 C 
BRANCH  12  14
HETATM   14  C17 UNL     1       1.738  -3.266 -15.664  1.00  0.00     0.014 C 
HETATM   15  C18 UNL     1       2.255  -4.316 -16.667  1.00  0.00     0.012 C 
HETATM   16  C19 UNL     1       3.572  -4.623 -16.003  1.00  0.00    -0.006 C 
HETATM   17  C20 UNL     1       3.093  -4.976 -14.589  1.00  0.00     0.011 C 
HETATM   18  C22 UNL     1       4.028  -3.317 -15.338  1.00  0.00    -0.040 C 
HETATM   19  C21 UNL     1       2.699  -3.499 -14.573  1.00  0.00     0.000 C 
HETATM   20  C23 UNL     1       4.084  -2.147 -16.257  1.00  0.00     0.015 C 
HETATM   21  C24 UNL     1       5.198  -3.488 -14.433  1.00  0.00     0.015 C 
ENDBRANCH  12  14
ENDBRANCH  10  12
ENDBRANCH   7  10
ENDBRANCH   6   7
BRANCH   1  22
HETATM   22  N1  UNL     1      -0.077  -7.502 -17.308  1.00  0.00    -0.384 N 
HETATM   23  C3  UNL     1       0.362  -7.295 -18.664  1.00  0.00     0.149 C 
BRANCH  22  24
HETATM   24  C2  UNL     1       0.893  -7.717 -16.271  1.00  0.00     0.118 C 
HETATM   25  C1  UNL     1       2.234  -8.151 -16.901  1.00  0.00     0.026 C 
ENDBRANCH  22  24
ENDBRANCH   1  22
BRANCH   4  26
HETATM   26  S1  UNL     1      -5.907  -7.931 -16.161  1.00  0.00     0.264 S 
HETATM   27  O1  UNL     1      -6.659  -7.119 -17.166  1.00  0.00    -0.200 OA
HETATM   28  O2  UNL     1      -6.222  -9.401 -16.261  1.00  0.00    -0.200 OA
BRANCH  26  29
HETATM   29  N2  UNL     1      -6.188  -7.342 -14.565  1.00  0.00    -0.258 N 
ATOM     30  H2  UNL     1      -5.561  -7.595 -13.802  1.00  0.00     0.181 HD
BRANCH  29  31
HETATM   31  C8  UNL     1      -7.203  -6.576 -14.351  1.00  0.00     0.187 A 
HETATM   32  O3  UNL     1      -8.446  -6.702 -14.718  1.00  0.00    -0.218 OA
HETATM   33  N3  UNL     1      -9.168  -5.698 -14.295  1.00  0.00    -0.263 N 
HETATM   34  C9  UNL     1      -8.408  -4.830 -13.602  1.00  0.00     0.039 A 
ATOM     35  H3  UNL     1     -10.167  -5.589 -14.466  1.00  0.00     0.194 HD
HETATM   36  C10 UNL     1      -8.822  -3.552 -12.944  1.00  0.00     0.071 C 
HETATM   37  C11 UNL     1      -7.146  -5.384 -13.633  1.00  0.00     0.016 A 
HETATM   38  C12 UNL     1      -5.923  -4.834 -13.020  1.00  0.00     0.055 C 
ENDBRANCH  29  31
ENDBRANCH  26  29
ENDBRANCH   4  26
TORSDOF 9
ENDMDL
MODEL 5
REMARK VINA RESULT: -7.193532486      2.077      2.888
REMARK  9 active torsions:
REMARK  status: ('A' for Active; 'I' for Inactive)
REMARK    1  A    between atoms: C2_2  and  N1_3 
REMARK    2  A    between atoms: N1_3  and  C4_5 
REMARK    3  A    between atoms: C7_8  and  S1_9 
REMARK    4  A    between atoms: S1_9  and  N2_12 
REMARK    5  A    between atoms: N2_12  and  C8_14 
REMARK    6  A    between atoms: C14_23  and  S2_24 
REMARK    7  A    between atoms: S2_24  and  N4_27 
REMARK    8  A    between atoms: N4_27  and  C15_29 
REMARK    9  A    between atoms: C15_29  and  C17_31 
ROOT
HETATM    1  C4  UNL     1      -1.650  -7.345 -17.412  1.00  0.00     0.053 A 
HETATM    2  C5  UNL     1      -2.332  -8.528 -17.668  1.00  0.00     0.032 A 
HETATM    3  C6  UNL     1      -3.633  -8.705 -17.267  1.00  0.00     0.027 A 
HETATM    4  C7  UNL     1      -4.291  -7.698 -16.596  1.00  0.00     0.081 A 
HETATM    5  C13 UNL     1      -3.601  -6.536 -16.352  1.00  0.00     0.052 A 
HETATM    6  C14 UNL     1      -2.294  -6.328 -16.741  1.00  0.00     0.107 A 
ENDROOT
BRANCH   6   7
HETATM    7  S2  UNL     1      -1.437  -4.835 -16.375  1.00  0.00     0.261 S 
HETATM    8  O4  UNL     1       0.010  -5.041 -16.085  1.00  0.00    -0.200 OA
HETATM    9  O5  UNL     1      -1.473  -4.008 -17.659  1.00  0.00    -0.200 OA
BRANCH   7  10
HETATM   10  N4  UNL     1      -2.258  -3.962 -15.123  1.00  0.00    -0.311 N 
ATOM     11  H4  UNL     1      -3.053  -4.336 -14.604  1.00  0.00     0.172 HD
BRANCH  10  12
HETATM   12  C15 UNL     1      -1.695  -2.645 -14.893  1.00  0.00     0.093 C 
HETATM   13  C16 UNL     1      -2.858  -1.705 -14.635  1.00  0.00     0.033 C 
BRANCH  12  14
HETATM   14  C17 UNL     1      -0.641  -2.627 -13.868  1.00  0.00     0.014 C 
HETATM   15  C18 UNL     1      -0.939  -1.671 -12.696  1.00  0.00     0.012 C 
HETATM   16  C19 UNL     1       0.452  -1.126 -12.499  1.00  0.00    -0.006 C 
HETATM   17  C20 UNL     1       0.761  -0.640 -13.921  1.00  0.00     0.011 C 
HETATM   18  C22 UNL     1       1.412  -2.267 -12.863  1.00  0.00    -0.040 C 
HETATM   19  C21 UNL     1       0.700  -2.137 -14.228  1.00  0.00     0.000 C 
HETATM   20  C23 UNL     1       1.162  -3.537 -12.128  1.00  0.00     0.015 C 
HETATM   21  C24 UNL     1       2.835  -1.838 -12.955  1.00  0.00     0.015 C 
ENDBRANCH  12  14
ENDBRANCH  10  12
ENDBRANCH   7  10
ENDBRANCH   6   7
BRANCH   1  22
HETATM   22  N1  UNL     1      -0.325  -7.266 -17.890  1.00  0.00    -0.384 N 
HETATM   23  C3  UNL     1       0.750  -7.823 -17.109  1.00  0.00     0.149 C 
BRANCH  22  24
HETATM   24  C2  UNL     1      -0.035  -6.615 -19.137  1.00  0.00     0.118 C 
HETATM   25  C1  UNL     1       0.066  -7.671 -20.259  1.00  0.00     0.026 C 
ENDBRANCH  22  24
ENDBRANCH   1  22
BRANCH   4  26
HETATM   26  S1  UNL     1      -5.961  -7.919 -16.072  1.00  0.00     0.264 S 
HETATM   27  O1  UNL     1      -6.835  -7.032 -16.897  1.00  0.00    -0.200 OA
HETATM   28  O2  UNL     1      -6.275  -9.379 -16.273  1.00  0.00    -0.200 OA
BRANCH  26  29
HETATM   29  N2  UNL     1      -6.049  -7.486 -14.406  1.00  0.00    -0.258 N 
ATOM     30  H2  UNL     1      -5.406  -7.897 -13.730  1.00  0.00     0.181 HD
BRANCH  29  31
HETATM   31  C8  UNL     1      -6.942  -6.636 -14.026  1.00  0.00     0.187 A 
HETATM   32  O3  UNL     1      -8.241  -6.697 -14.082  1.00  0.00    -0.218 OA
HETATM   33  N3  UNL     1      -8.787  -5.617 -13.589  1.00  0.00    -0.263 N 
HETATM   34  C9  UNL     1      -7.838  -4.759 -13.169  1.00  0.00     0.039 A 
ATOM     35  H3  UNL     1      -9.791  -5.448 -13.531  1.00  0.00     0.194 HD
HETATM   36  C10 UNL     1      -8.015  -3.412 -12.545  1.00  0.00     0.071 C 
HETATM   37  C11 UNL     1      -6.652  -5.404 -13.446  1.00  0.00     0.016 A 
HETATM   38  C12 UNL     1      -5.290  -4.901 -13.185  1.00  0.00     0.055 C 
ENDBRANCH  29  31
ENDBRANCH  26  29
ENDBRANCH   4  26
TORSDOF 9
ENDMDL
