MODEL 1
REMARK VINA RESULT: -8.366250857      0.000      0.000
REMARK  13 active torsions:
REMARK  status: ('A' for Active; 'I' for Inactive)
REMARK    1  A    between atoms: N1_2  and  C2_4 
REMARK    2  A    between atoms: C3_7  and  C4_8 
REMARK    3  A    between atoms: C5_12  and  C6_13 
REMARK    4  A    between atoms: C6_13  and  N5_14 
REMARK    5  A    between atoms: N5_14  and  C7_16 
REMARK    6  A    between atoms: C7_16  and  O1_17 
REMARK    7  A    between atoms: C7_16  and  C8_19 
REMARK    8  A    between atoms: C8_19  and  N6_20 
REMARK    9  A    between atoms: C8_19  and  C9_24 
REMARK   10  A    between atoms: C9_24  and  O2_25 
REMARK   11  A    between atoms: C13_35  and  C14_36 
REMARK   12  A    between atoms: C14_36  and  N10_37 
REMARK   13  A    between atoms: C17_47  and  N15_48 
ROOT
HETATM    1  C2  UNL     1     -19.091  12.287 -20.610  1.00  0.00     0.673 C 
HETATM    2  N2  UNL     1     -19.931  12.033 -21.516  1.00  0.00    -0.193 N 
ATOM      3  H2  UNL     1     -19.845  12.712 -22.272  1.00  0.00     0.184 HD
HETATM    4  C3  UNL     1     -20.947  11.114 -21.814  1.00  0.00     0.066 C 
HETATM    5  C13 UNL     1     -20.811   9.718 -21.314  1.00  0.00     0.060 C 
HETATM    6  C19 UNL     1     -19.589   9.433 -20.489  1.00  0.00     0.033 C 
HETATM    7  C20 UNL     1     -19.574  10.198 -19.159  1.00  0.00     0.139 C 
HETATM    8  N17 UNL     1     -18.956  11.496 -19.420  1.00  0.00    -0.226 N 
ATOM      9  H17 UNL     1     -18.367  11.879 -18.680  1.00  0.00     0.177 HD
ENDROOT
BRANCH   4  10
HETATM   10  C4  UNL     1     -22.312  11.596 -21.888  1.00  0.00     0.145 A 
HETATM   11  N3  UNL     1     -23.445  10.926 -21.692  1.00  0.00    -0.271 N 
HETATM   12  N4  UNL     1     -24.498  11.714 -21.965  1.00  0.00    -0.174 N 
ATOM     13  H3  UNL     1     -23.504   9.956 -21.380  1.00  0.00     0.189 HD
HETATM   14  C5  UNL     1     -25.821  11.605 -21.935  1.00  0.00     0.075 A 
HETATM   15  N9  UNL     1     -24.048  12.925 -22.342  1.00  0.00    -0.132 N 
HETATM   16  C10 UNL     1     -26.702  12.622 -22.242  1.00  0.00     0.077 A 
HETATM   17  C11 UNL     1     -26.187  13.863 -22.621  1.00  0.00     0.134 A 
HETATM   18  N7  UNL     1     -27.036  14.957 -22.911  1.00  0.00    -0.081 NA
HETATM   19  N8  UNL     1     -24.845  13.941 -22.649  1.00  0.00    -0.261 N 
ATOM     20  H8  UNL     1     -24.418  14.827 -22.921  1.00  0.00     0.190 HD
HETATM   21  C12 UNL     1     -22.704  12.847 -22.299  1.00  0.00     0.313 A 
HETATM   22  O3  UNL     1     -21.906  13.759 -22.586  1.00  0.00    -0.262 OA
BRANCH  14  23
HETATM   23  C6  UNL     1     -26.435  10.221 -21.713  1.00  0.00     0.178 C 
BRANCH  23  24
HETATM   24  N5  UNL     1     -26.812   9.701 -22.955  1.00  0.00    -0.390 N 
ATOM     25  H5  UNL     1     -27.629  10.099 -23.418  1.00  0.00     0.156 HD
BRANCH  24  26
HETATM   26  C7  UNL     1     -26.137   8.677 -23.586  1.00  0.00     0.246 C 
BRANCH  26  27
HETATM   27  O1  UNL     1     -24.882   9.153 -24.141  1.00  0.00    -0.375 OA
ATOM     28  H1  UNL     1     -24.668   8.685 -24.939  1.00  0.00     0.212 HD
ENDBRANCH  26  27
BRANCH  26  29
HETATM   29  C8  UNL     1     -26.847   7.945 -24.711  1.00  0.00     0.254 C 
BRANCH  29  30
HETATM   30  N6  UNL     1     -27.728   6.908 -24.147  1.00  0.00    -0.069 N 
ATOM     31  H63 UNL     1     -27.232   6.036 -23.969  1.00  0.00     0.275 HD
ATOM     32  H62 UNL     1     -28.004   7.118 -23.188  1.00  0.00     0.275 HD
ATOM     33  H61 UNL     1     -28.534   6.775 -24.758  1.00  0.00     0.275 HD
ENDBRANCH  29  30
BRANCH  29  34
HETATM   34  C9  UNL     1     -25.843   7.282 -25.612  1.00  0.00     0.201 C 
BRANCH  34  35
HETATM   35  O2  UNL     1     -25.658   7.947 -26.789  1.00  0.00    -0.399 OA
ATOM     36  H2  UNL     1     -24.965   8.595 -26.747  1.00  0.00     0.209 HD
ENDBRANCH  34  35
ENDBRANCH  29  34
ENDBRANCH  26  29
ENDBRANCH  24  26
ENDBRANCH  23  24
ENDBRANCH  14  23
ENDBRANCH   4  10
BRANCH   5  37
HETATM   37  C14 UNL     1     -20.985   8.649 -22.344  1.00  0.00     0.163 C 
BRANCH  37  38
HETATM   38  N10 UNL     1     -20.376   8.936 -23.618  1.00  0.00    -0.259 N 
HETATM   39  N11 UNL     1     -19.061   8.886 -23.842  1.00  0.00    -0.238 N 
HETATM   40  N12 UNL     1     -18.769   9.238 -25.072  1.00  0.00    -0.279 N 
ATOM     41  H11 UNL     1     -18.369   8.608 -23.145  1.00  0.00     0.208 HD
HETATM   42  C15 UNL     1     -19.926   9.546 -25.742  1.00  0.00     0.137 A 
ATOM     43  H12 UNL     1     -17.830   9.277 -25.469  1.00  0.00     0.189 HD
HETATM   44  C16 UNL     1     -20.215   9.953 -27.013  1.00  0.00     0.163 A 
HETATM   45  C18 UNL     1     -20.918   9.335 -24.763  1.00  0.00     0.170 A 
HETATM   46  N13 UNL     1     -19.189  10.164 -27.965  1.00  0.00    -0.080 NA
HETATM   47  N14 UNL     1     -21.492  10.159 -27.364  1.00  0.00    -0.177 N 
HETATM   48  C17 UNL     1     -22.442   9.953 -26.438  1.00  0.00     0.678 A 
ATOM     49  H14 UNL     1     -21.735  10.464 -28.307  1.00  0.00     0.185 HD
HETATM   50  N16 UNL     1     -22.191   9.561 -25.184  1.00  0.00    -0.173 N 
ATOM     51  H16 UNL     1     -22.966   9.431 -24.534  1.00  0.00     0.186 HD
BRANCH  48  52
HETATM   52  N15 UNL     1     -23.669  10.111 -26.782  1.00  0.00    -0.234 N 
ATOM     53 2H15 UNL     1     -23.919   9.923 -27.754  1.00  0.00     0.174 HD
ATOM     54 1H15 UNL     1     -24.328  10.438 -26.077  1.00  0.00     0.174 HD
ENDBRANCH  48  52
ENDBRANCH  37  38
ENDBRANCH   5  37
BRANCH   1  55
HETATM   55  N1  UNL     1     -18.211  13.398 -20.757  1.00  0.00    -0.231 N 
HETATM   56  C1  UNL     1     -18.420  14.378 -21.777  1.00  0.00     0.165 C 
ATOM     57  H1  UNL     1     -17.417  13.496 -20.124  1.00  0.00     0.177 HD
ENDBRANCH   1  55
TORSDOF 13
ENDMDL
MODEL 2
REMARK VINA RESULT: -8.300735650      9.650     13.590
REMARK  13 active torsions:
REMARK  status: ('A' for Active; 'I' for Inactive)
REMARK    1  A    between atoms: N1_2  and  C2_4 
REMARK    2  A    between atoms: C3_7  and  C4_8 
REMARK    3  A    between atoms: C5_12  and  C6_13 
REMARK    4  A    between atoms: C6_13  and  N5_14 
REMARK    5  A    between atoms: N5_14  and  C7_16 
REMARK    6  A    between atoms: C7_16  and  O1_17 
REMARK    7  A    between atoms: C7_16  and  C8_19 
REMARK    8  A    between atoms: C8_19  and  N6_20 
REMARK    9  A    between atoms: C8_19  and  C9_24 
REMARK   10  A    between atoms: C9_24  and  O2_25 
REMARK   11  A    between atoms: C13_35  and  C14_36 
REMARK   12  A    between atoms: C14_36  and  N10_37 
REMARK   13  A    between atoms: C17_47  and  N15_48 
ROOT
HETATM    1  C2  UNL     1     -20.593  24.275 -25.077  1.00  0.00     0.673 C 
HETATM    2  N2  UNL     1     -21.616  23.701 -24.609  1.00  0.00    -0.193 N 
ATOM      3  H2  UNL     1     -21.345  22.843 -24.128  1.00  0.00     0.184 HD
HETATM    4  C3  UNL     1     -23.005  23.868 -24.542  1.00  0.00     0.066 C 
HETATM    5  C13 UNL     1     -23.554  25.252 -24.498  1.00  0.00     0.060 C 
HETATM    6  C19 UNL     1     -22.543  26.361 -24.570  1.00  0.00     0.033 C 
HETATM    7  C20 UNL     1     -21.801  26.407 -25.912  1.00  0.00     0.139 C 
HETATM    8  N17 UNL     1     -20.649  25.517 -25.793  1.00  0.00    -0.226 N 
ATOM      9  H17 UNL     1     -19.795  25.808 -26.270  1.00  0.00     0.177 HD
ENDROOT
BRANCH   4  10
HETATM   10  C4  UNL     1     -23.849  22.908 -25.227  1.00  0.00     0.145 A 
HETATM   11  N3  UNL     1     -24.783  22.107 -24.720  1.00  0.00    -0.271 N 
HETATM   12  N4  UNL     1     -25.258  21.292 -25.675  1.00  0.00    -0.174 N 
ATOM     13  H3  UNL     1     -25.092  22.113 -23.747  1.00  0.00     0.189 HD
HETATM   14  C5  UNL     1     -26.173  20.334 -25.764  1.00  0.00     0.075 A 
HETATM   15  N9  UNL     1     -24.627  21.566 -26.832  1.00  0.00    -0.132 N 
HETATM   16  C10 UNL     1     -26.497  19.659 -26.922  1.00  0.00     0.077 A 
HETATM   17  C11 UNL     1     -25.821  19.984 -28.099  1.00  0.00     0.134 A 
HETATM   18  N7  UNL     1     -26.133  19.355 -29.327  1.00  0.00    -0.081 NA
HETATM   19  N8  UNL     1     -24.894  20.950 -27.978  1.00  0.00    -0.261 N 
ATOM     20  H8  UNL     1     -24.370  21.225 -28.809  1.00  0.00     0.190 HD
HETATM   21  C12 UNL     1     -23.758  22.556 -26.551  1.00  0.00     0.313 A 
HETATM   22  O3  UNL     1     -22.972  23.094 -27.354  1.00  0.00    -0.262 OA
BRANCH  14  23
HETATM   23  C6  UNL     1     -26.807  19.809 -24.474  1.00  0.00     0.178 C 
BRANCH  23  24
HETATM   24  N5  UNL     1     -25.890  18.961 -23.845  1.00  0.00    -0.390 N 
ATOM     25  H5  UNL     1     -24.897  19.095 -24.037  1.00  0.00     0.156 HD
BRANCH  24  26
HETATM   26  C7  UNL     1     -26.257  17.952 -22.979  1.00  0.00     0.246 C 
BRANCH  26  27
HETATM   27  O1  UNL     1     -25.871  18.276 -21.618  1.00  0.00    -0.375 OA
ATOM     28  H1  UNL     1     -25.902  17.504 -21.066  1.00  0.00     0.212 HD
ENDBRANCH  26  27
BRANCH  26  29
HETATM   29  C8  UNL     1     -25.729  16.555 -23.249  1.00  0.00     0.254 C 
BRANCH  29  30
HETATM   30  N6  UNL     1     -25.539  16.369 -24.698  1.00  0.00    -0.069 N 
ATOM     31  H63 UNL     1     -26.405  16.109 -25.169  1.00  0.00     0.275 HD
ATOM     32  H62 UNL     1     -25.369  17.251 -25.179  1.00  0.00     0.275 HD
ATOM     33  H61 UNL     1     -24.794  15.691 -24.862  1.00  0.00     0.275 HD
ENDBRANCH  29  30
BRANCH  29  34
HETATM   34  C9  UNL     1     -26.708  15.526 -22.758  1.00  0.00     0.201 C 
BRANCH  34  35
HETATM   35  O2  UNL     1     -26.701  15.385 -21.401  1.00  0.00    -0.399 OA
ATOM     36  H2  UNL     1     -27.558  15.184 -21.043  1.00  0.00     0.209 HD
ENDBRANCH  34  35
ENDBRANCH  29  34
ENDBRANCH  26  29
ENDBRANCH  24  26
ENDBRANCH  23  24
ENDBRANCH  14  23
ENDBRANCH   4  10
BRANCH   5  37
HETATM   37  C14 UNL     1     -24.522  25.523 -23.393  1.00  0.00     0.163 C 
BRANCH  37  38
HETATM   38  N10 UNL     1     -25.765  26.118 -23.814  1.00  0.00    -0.259 N 
HETATM   39  N11 UNL     1     -26.011  27.431 -23.780  1.00  0.00    -0.238 N 
HETATM   40  N12 UNL     1     -27.234  27.701 -24.173  1.00  0.00    -0.279 N 
ATOM     41  H11 UNL     1     -25.334  28.134 -23.485  1.00  0.00     0.208 HD
HETATM   42  C15 UNL     1     -27.873  26.532 -24.500  1.00  0.00     0.137 A 
ATOM     43  H12 UNL     1     -27.644  28.632 -24.227  1.00  0.00     0.189 HD
HETATM   44  C16 UNL     1     -29.120  26.223 -24.965  1.00  0.00     0.163 A 
HETATM   45  C18 UNL     1     -26.887  25.557 -24.250  1.00  0.00     0.170 A 
HETATM   46  N13 UNL     1     -30.086  27.231 -25.193  1.00  0.00    -0.080 NA
HETATM   47  N14 UNL     1     -29.433  24.942 -25.204  1.00  0.00    -0.177 N 
HETATM   48  C17 UNL     1     -28.495  24.009 -24.976  1.00  0.00     0.678 A 
ATOM     49  H14 UNL     1     -30.358  24.683 -25.551  1.00  0.00     0.185 HD
HETATM   50  N16 UNL     1     -27.270  24.279 -24.515  1.00  0.00    -0.173 N 
ATOM     51  H16 UNL     1     -26.612  23.515 -24.360  1.00  0.00     0.186 HD
BRANCH  48  52
HETATM   52  N15 UNL     1     -28.779  22.785 -25.243  1.00  0.00    -0.234 N 
ATOM     53 2H15 UNL     1     -29.538  22.605 -25.902  1.00  0.00     0.174 HD
ATOM     54 1H15 UNL     1     -28.251  22.054 -24.767  1.00  0.00     0.174 HD
ENDBRANCH  48  52
ENDBRANCH  37  38
ENDBRANCH   5  37
BRANCH   1  55
HETATM   55  N1  UNL     1     -19.308  23.690 -24.883  1.00  0.00    -0.231 N 
HETATM   56  C1  UNL     1     -18.967  22.437 -25.480  1.00  0.00     0.165 C 
ATOM     57  H1  UNL     1     -18.619  24.175 -24.308  1.00  0.00     0.177 HD
ENDBRANCH   1  55
TORSDOF 13
ENDMDL
MODEL 3
REMARK VINA RESULT: -7.820297866      1.419      1.813
REMARK  13 active torsions:
REMARK  status: ('A' for Active; 'I' for Inactive)
REMARK    1  A    between atoms: N1_2  and  C2_4 
REMARK    2  A    between atoms: C3_7  and  C4_8 
REMARK    3  A    between atoms: C5_12  and  C6_13 
REMARK    4  A    between atoms: C6_13  and  N5_14 
REMARK    5  A    between atoms: N5_14  and  C7_16 
REMARK    6  A    between atoms: C7_16  and  O1_17 
REMARK    7  A    between atoms: C7_16  and  C8_19 
REMARK    8  A    between atoms: C8_19  and  N6_20 
REMARK    9  A    between atoms: C8_19  and  C9_24 
REMARK   10  A    between atoms: C9_24  and  O2_25 
REMARK   11  A    between atoms: C13_35  and  C14_36 
REMARK   12  A    between atoms: C14_36  and  N10_37 
REMARK   13  A    between atoms: C17_47  and  N15_48 
ROOT
HETATM    1  C2  UNL     1     -19.001  10.623 -18.809  1.00  0.00     0.673 C 
HETATM    2  N2  UNL     1     -19.420  11.381 -19.727  1.00  0.00    -0.193 N 
ATOM      3  H2  UNL     1     -19.474  12.342 -19.390  1.00  0.00     0.184 HD
HETATM    4  C3  UNL     1     -19.835  11.321 -21.065  1.00  0.00     0.066 C 
HETATM    5  C13 UNL     1     -19.216  10.301 -21.956  1.00  0.00     0.060 C 
HETATM    6  C19 UNL     1     -18.211   9.389 -21.312  1.00  0.00     0.033 C 
HETATM    7  C20 UNL     1     -18.830   8.476 -20.246  1.00  0.00     0.139 C 
HETATM    8  N17 UNL     1     -18.802   9.213 -18.984  1.00  0.00    -0.226 N 
ATOM      9  H17 UNL     1     -18.623   8.668 -18.140  1.00  0.00     0.177 HD
ENDROOT
BRANCH   4  10
HETATM   10  C4  UNL     1     -21.218  11.627 -21.371  1.00  0.00     0.145 A 
HETATM   11  N3  UNL     1     -22.255  10.798 -21.468  1.00  0.00    -0.271 N 
HETATM   12  N4  UNL     1     -23.344  11.469 -21.877  1.00  0.00    -0.174 N 
ATOM     13  H3  UNL     1     -22.225   9.799 -21.261  1.00  0.00     0.189 HD
HETATM   14  C5  UNL     1     -24.617  11.187 -22.125  1.00  0.00     0.075 A 
HETATM   15  N9  UNL     1     -23.017  12.764 -22.047  1.00  0.00    -0.132 N 
HETATM   16  C10 UNL     1     -25.567  12.110 -22.513  1.00  0.00     0.077 A 
HETATM   17  C11 UNL     1     -25.181  13.443 -22.669  1.00  0.00     0.134 A 
HETATM   18  N7  UNL     1     -26.115  14.443 -23.028  1.00  0.00    -0.081 NA
HETATM   19  N8  UNL     1     -23.885  13.697 -22.419  1.00  0.00    -0.261 N 
ATOM     20  H8  UNL     1     -23.552  14.656 -22.520  1.00  0.00     0.190 HD
HETATM   21  C12 UNL     1     -21.709  12.856 -21.740  1.00  0.00     0.313 A 
HETATM   22  O3  UNL     1     -21.017  13.890 -21.779  1.00  0.00    -0.262 OA
BRANCH  14  23
HETATM   23  C6  UNL     1     -25.048   9.719 -22.155  1.00  0.00     0.178 C 
BRANCH  23  24
HETATM   24  N5  UNL     1     -25.647   9.459 -23.391  1.00  0.00    -0.390 N 
ATOM     25  H5  UNL     1     -25.160   9.758 -24.237  1.00  0.00     0.156 HD
BRANCH  24  26
HETATM   26  C7  UNL     1     -26.861   8.821 -23.528  1.00  0.00     0.246 C 
BRANCH  26  27
HETATM   27  O1  UNL     1     -27.140   7.990 -22.371  1.00  0.00    -0.375 OA
ATOM     28  H1  UNL     1     -26.978   8.469 -21.566  1.00  0.00     0.212 HD
ENDBRANCH  26  27
BRANCH  26  29
HETATM   29  C8  UNL     1     -27.066   7.935 -24.745  1.00  0.00     0.254 C 
BRANCH  29  30
HETATM   30  N6  UNL     1     -27.578   6.621 -24.320  1.00  0.00    -0.069 N 
ATOM     31  H63 UNL     1     -27.959   6.645 -23.374  1.00  0.00     0.275 HD
ATOM     32  H62 UNL     1     -28.430   6.362 -24.816  1.00  0.00     0.275 HD
ATOM     33  H61 UNL     1     -26.845   5.919 -24.421  1.00  0.00     0.275 HD
ENDBRANCH  29  30
BRANCH  29  34
HETATM   34  C9  UNL     1     -25.763   7.732 -25.464  1.00  0.00     0.201 C 
BRANCH  34  35
HETATM   35  O2  UNL     1     -25.504   8.703 -26.388  1.00  0.00    -0.399 OA
ATOM     36  H2  UNL     1     -24.805   8.469 -26.989  1.00  0.00     0.209 HD
ENDBRANCH  34  35
ENDBRANCH  29  34
ENDBRANCH  26  29
ENDBRANCH  24  26
ENDBRANCH  23  24
ENDBRANCH  14  23
ENDBRANCH   4  10
BRANCH   5  37
HETATM   37  C14 UNL     1     -18.670  10.823 -23.245  1.00  0.00     0.163 C 
BRANCH  37  38
HETATM   38  N10 UNL     1     -19.052  10.067 -24.411  1.00  0.00    -0.259 N 
HETATM   39  N11 UNL     1     -18.221   9.268 -25.085  1.00  0.00    -0.238 N 
HETATM   40  N12 UNL     1     -18.808   8.737 -26.132  1.00  0.00    -0.279 N 
ATOM     41  H11 UNL     1     -17.251   9.093 -24.820  1.00  0.00     0.208 HD
HETATM   42  C15 UNL     1     -20.105   9.177 -26.195  1.00  0.00     0.137 A 
ATOM     43  H12 UNL     1     -18.369   8.098 -26.794  1.00  0.00     0.189 HD
HETATM   44  C16 UNL     1     -21.152   8.949 -27.043  1.00  0.00     0.163 A 
HETATM   45  C18 UNL     1     -20.203  10.023 -25.072  1.00  0.00     0.170 A 
HETATM   46  N13 UNL     1     -21.011   8.101 -28.167  1.00  0.00    -0.080 NA
HETATM   47  N14 UNL     1     -22.331   9.542 -26.808  1.00  0.00    -0.177 N 
HETATM   48  C17 UNL     1     -22.431  10.343 -25.736  1.00  0.00     0.678 A 
ATOM     49  H14 UNL     1     -23.128   9.390 -27.427  1.00  0.00     0.185 HD
HETATM   50  N16 UNL     1     -21.425  10.591 -24.892  1.00  0.00    -0.173 N 
ATOM     51  H16 UNL     1     -21.576  11.218 -24.100  1.00  0.00     0.186 HD
BRANCH  48  52
HETATM   52  N15 UNL     1     -23.571  10.881 -25.485  1.00  0.00    -0.234 N 
ATOM     53 2H15 UNL     1     -24.409  10.380 -25.781  1.00  0.00     0.174 HD
ATOM     54 1H15 UNL     1     -23.583  11.790 -25.025  1.00  0.00     0.174 HD
ENDBRANCH  48  52
ENDBRANCH  37  38
ENDBRANCH   5  37
BRANCH   1  55
HETATM   55  N1  UNL     1     -18.689  11.172 -17.532  1.00  0.00    -0.231 N 
HETATM   56  C1  UNL     1     -18.237  12.522 -17.396  1.00  0.00     0.165 C 
ATOM     57  H1  UNL     1     -18.789  10.592 -16.699  1.00  0.00     0.177 HD
ENDBRANCH   1  55
TORSDOF 13
ENDMDL
MODEL 4
REMARK VINA RESULT: -7.778337633      2.002      7.612
REMARK  13 active torsions:
REMARK  status: ('A' for Active; 'I' for Inactive)
REMARK    1  A    between atoms: N1_2  and  C2_4 
REMARK    2  A    between atoms: C3_7  and  C4_8 
REMARK    3  A    between atoms: C5_12  and  C6_13 
REMARK    4  A    between atoms: C6_13  and  N5_14 
REMARK    5  A    between atoms: N5_14  and  C7_16 
REMARK    6  A    between atoms: C7_16  and  O1_17 
REMARK    7  A    between atoms: C7_16  and  C8_19 
REMARK    8  A    between atoms: C8_19  and  N6_20 
REMARK    9  A    between atoms: C8_19  and  C9_24 
REMARK   10  A    between atoms: C9_24  and  O2_25 
REMARK   11  A    between atoms: C13_35  and  C14_36 
REMARK   12  A    between atoms: C14_36  and  N10_37 
REMARK   13  A    between atoms: C17_47  and  N15_48 
ROOT
HETATM    1  C2  UNL     1     -26.929   8.532 -23.756  1.00  0.00     0.673 C 
HETATM    2  N2  UNL     1     -26.121   9.362 -24.255  1.00  0.00    -0.193 N 
ATOM      3  H2  UNL     1     -26.345   9.520 -25.237  1.00  0.00     0.184 HD
HETATM    4  C3  UNL     1     -25.012  10.137 -23.888  1.00  0.00     0.066 C 
HETATM    5  C13 UNL     1     -24.927  10.639 -22.489  1.00  0.00     0.060 C 
HETATM    6  C19 UNL     1     -26.045  10.226 -21.575  1.00  0.00     0.033 C 
HETATM    7  C20 UNL     1     -26.079   8.714 -21.317  1.00  0.00     0.139 C 
HETATM    8  N17 UNL     1     -26.881   8.118 -22.383  1.00  0.00    -0.226 N 
ATOM      9  H17 UNL     1     -27.469   7.325 -22.123  1.00  0.00     0.177 HD
ENDROOT
BRANCH   4  10
HETATM   10  C4  UNL     1     -23.731   9.839 -24.499  1.00  0.00     0.145 A 
HETATM   11  N3  UNL     1     -22.538   9.725 -23.921  1.00  0.00    -0.271 N 
HETATM   12  N4  UNL     1     -21.589   9.550 -24.856  1.00  0.00    -0.174 N 
ATOM     13  H3  UNL     1     -22.369   9.765 -22.915  1.00  0.00     0.189 HD
HETATM   14  C5  UNL     1     -20.274   9.367 -24.878  1.00  0.00     0.075 A 
HETATM   15  N9  UNL     1     -22.172   9.543 -26.069  1.00  0.00    -0.132 N 
HETATM   16  C10 UNL     1     -19.526   9.169 -26.019  1.00  0.00     0.077 A 
HETATM   17  C11 UNL     1     -20.176   9.163 -27.254  1.00  0.00     0.134 A 
HETATM   18  N7  UNL     1     -19.471   8.927 -28.458  1.00  0.00    -0.081 NA
HETATM   19  N8  UNL     1     -21.505   9.358 -27.202  1.00  0.00    -0.261 N 
ATOM     20  H8  UNL     1     -22.028   9.364 -28.078  1.00  0.00     0.190 HD
HETATM   21  C12 UNL     1     -23.487   9.726 -25.846  1.00  0.00     0.313 A 
HETATM   22  O3  UNL     1     -24.378   9.791 -26.715  1.00  0.00    -0.262 OA
BRANCH  14  23
HETATM   23  C6  UNL     1     -19.490   9.554 -23.577  1.00  0.00     0.178 C 
BRANCH  23  24
HETATM   24  N5  UNL     1     -19.813   8.505 -22.711  1.00  0.00    -0.390 N 
ATOM     25  H5  UNL     1     -19.871   7.562 -23.096  1.00  0.00     0.156 HD
BRANCH  24  26
HETATM   26  C7  UNL     1     -20.057   8.678 -21.365  1.00  0.00     0.246 C 
BRANCH  26  27
HETATM   27  O1  UNL     1     -21.055   9.711 -21.152  1.00  0.00    -0.375 OA
ATOM     28  H1  UNL     1     -21.127  10.272 -21.915  1.00  0.00     0.212 HD
ENDBRANCH  26  27
BRANCH  26  29
HETATM   29  C8  UNL     1     -18.883   9.031 -20.468  1.00  0.00     0.254 C 
BRANCH  29  30
HETATM   30  N6  UNL     1     -17.951   7.893 -20.404  1.00  0.00    -0.069 N 
ATOM     31  H63 UNL     1     -17.304   7.969 -19.620  1.00  0.00     0.275 HD
ATOM     32  H62 UNL     1     -18.417   7.029 -20.127  1.00  0.00     0.275 HD
ATOM     33  H61 UNL     1     -17.464   7.798 -21.296  1.00  0.00     0.275 HD
ENDBRANCH  29  30
BRANCH  29  34
HETATM   34  C9  UNL     1     -19.366   9.333 -19.078  1.00  0.00     0.201 C 
BRANCH  34  35
HETATM   35  O2  UNL     1     -19.591  10.663 -18.866  1.00  0.00    -0.399 OA
ATOM     36  H2  UNL     1     -19.002  11.043 -18.225  1.00  0.00     0.209 HD
ENDBRANCH  34  35
ENDBRANCH  29  34
ENDBRANCH  26  29
ENDBRANCH  24  26
ENDBRANCH  23  24
ENDBRANCH  14  23
ENDBRANCH   4  10
BRANCH   5  37
HETATM   37  C14 UNL     1     -24.676  12.106 -22.348  1.00  0.00     0.163 C 
BRANCH  37  38
HETATM   38  N10 UNL     1     -23.816  12.466 -21.249  1.00  0.00    -0.259 N 
HETATM   39  N11 UNL     1     -24.243  12.632 -19.994  1.00  0.00    -0.238 N 
HETATM   40  N12 UNL     1     -23.267  13.005 -19.200  1.00  0.00    -0.279 N 
ATOM     41  H11 UNL     1     -25.207  12.487 -19.691  1.00  0.00     0.208 HD
HETATM   42  C15 UNL     1     -22.106  13.102 -19.924  1.00  0.00     0.137 A 
ATOM     43  H12 UNL     1     -23.357  13.193 -18.202  1.00  0.00     0.189 HD
HETATM   44  C16 UNL     1     -20.815  13.430 -19.620  1.00  0.00     0.163 A 
HETATM   45  C18 UNL     1     -22.519  12.747 -21.224  1.00  0.00     0.170 A 
HETATM   46  N13 UNL     1     -20.443  13.792 -18.304  1.00  0.00    -0.080 NA
HETATM   47  N14 UNL     1     -19.887  13.414 -20.588  1.00  0.00    -0.177 N 
HETATM   48  C17 UNL     1     -20.273  13.069 -21.826  1.00  0.00     0.678 A 
ATOM     49  H14 UNL     1     -18.916  13.656 -20.388  1.00  0.00     0.185 HD
HETATM   50  N16 UNL     1     -21.529  12.749 -22.156  1.00  0.00    -0.173 N 
ATOM     51  H16 UNL     1     -21.747  12.504 -23.122  1.00  0.00     0.186 HD
BRANCH  48  52
HETATM   52  N15 UNL     1     -19.379  13.013 -22.746  1.00  0.00    -0.234 N 
ATOM     53 2H15 UNL     1     -18.582  13.646 -22.675  1.00  0.00     0.174 HD
ATOM     54 1H15 UNL     1     -19.519  12.357 -23.514  1.00  0.00     0.174 HD
ENDBRANCH  48  52
ENDBRANCH  37  38
ENDBRANCH   5  37
BRANCH   1  55
HETATM   55  N1  UNL     1     -27.958   7.975 -24.569  1.00  0.00    -0.231 N 
HETATM   56  C1  UNL     1     -28.224   6.570 -24.569  1.00  0.00     0.165 C 
ATOM     57  H1  UNL     1     -28.516   8.591 -25.162  1.00  0.00     0.177 HD
ENDBRANCH   1  55
TORSDOF 13
ENDMDL
MODEL 5
REMARK VINA RESULT: -7.739476693     10.127     14.187
REMARK  13 active torsions:
REMARK  status: ('A' for Active; 'I' for Inactive)
REMARK    1  A    between atoms: N1_2  and  C2_4 
REMARK    2  A    between atoms: C3_7  and  C4_8 
REMARK    3  A    between atoms: C5_12  and  C6_13 
REMARK    4  A    between atoms: C6_13  and  N5_14 
REMARK    5  A    between atoms: N5_14  and  C7_16 
REMARK    6  A    between atoms: C7_16  and  O1_17 
REMARK    7  A    between atoms: C7_16  and  C8_19 
REMARK    8  A    between atoms: C8_19  and  N6_20 
REMARK    9  A    between atoms: C8_19  and  C9_24 
REMARK   10  A    between atoms: C9_24  and  O2_25 
REMARK   11  A    between atoms: C13_35  and  C14_36 
REMARK   12  A    between atoms: C14_36  and  N10_37 
REMARK   13  A    between atoms: C17_47  and  N15_48 
ROOT
HETATM    1  C2  UNL     1     -22.216  24.985 -23.772  1.00  0.00     0.673 C 
HETATM    2  N2  UNL     1     -23.416  24.772 -24.099  1.00  0.00    -0.193 N 
ATOM      3  H2  UNL     1     -23.945  24.442 -23.292  1.00  0.00     0.184 HD
HETATM    4  C3  UNL     1     -24.254  24.846 -25.220  1.00  0.00     0.066 C 
HETATM    5  C13 UNL     1     -23.984  25.895 -26.242  1.00  0.00     0.060 C 
HETATM    6  C19 UNL     1     -22.790  26.769 -25.985  1.00  0.00     0.033 C 
HETATM    7  C20 UNL     1     -21.464  25.999 -26.032  1.00  0.00     0.139 C 
HETATM    8  N17 UNL     1     -21.227  25.474 -24.690  1.00  0.00    -0.226 N 
ATOM      9  H17 UNL     1     -20.258  25.453 -24.371  1.00  0.00     0.177 HD
ENDROOT
BRANCH   4  10
HETATM   10  C4  UNL     1     -24.801  23.613 -25.754  1.00  0.00     0.145 A 
HETATM   11  N3  UNL     1     -25.527  22.686 -25.134  1.00  0.00    -0.271 N 
HETATM   12  N4  UNL     1     -25.741  21.645 -25.955  1.00  0.00    -0.174 N 
ATOM     13  H3  UNL     1     -25.870  22.756 -24.175  1.00  0.00     0.189 HD
HETATM   14  C5  UNL     1     -26.385  20.485 -25.899  1.00  0.00     0.075 A 
HETATM   15  N9  UNL     1     -25.149  21.897 -27.138  1.00  0.00    -0.132 N 
HETATM   16  C10 UNL     1     -26.480  19.586 -26.942  1.00  0.00     0.077 A 
HETATM   17  C11 UNL     1     -25.855  19.895 -28.151  1.00  0.00     0.134 A 
HETATM   18  N7  UNL     1     -25.947  19.033 -29.270  1.00  0.00    -0.081 NA
HETATM   19  N8  UNL     1     -25.205  21.071 -28.176  1.00  0.00    -0.261 N 
ATOM     20  H8  UNL     1     -24.730  21.344 -29.037  1.00  0.00     0.190 HD
HETATM   21  C12 UNL     1     -24.568  23.105 -27.008  1.00  0.00     0.313 A 
HETATM   22  O3  UNL     1     -23.907  23.699 -27.880  1.00  0.00    -0.262 OA
BRANCH  14  23
HETATM   23  C6  UNL     1     -26.922  20.013 -24.547  1.00  0.00     0.178 C 
BRANCH  23  24
HETATM   24  N5  UNL     1     -26.038  19.062 -24.028  1.00  0.00    -0.390 N 
ATOM     25  H5  UNL     1     -25.055  19.121 -24.293  1.00  0.00     0.156 HD
BRANCH  24  26
HETATM   26  C7  UNL     1     -26.425  18.050 -23.176  1.00  0.00     0.246 C 
BRANCH  26  27
HETATM   27  O1  UNL     1     -25.849  18.238 -21.856  1.00  0.00    -0.375 OA
ATOM     28  H1  UNL     1     -25.809  17.414 -21.386  1.00  0.00     0.212 HD
ENDBRANCH  26  27
BRANCH  26  29
HETATM   29  C8  UNL     1     -26.106  16.621 -23.577  1.00  0.00     0.254 C 
BRANCH  29  30
HETATM   30  N6  UNL     1     -26.369  16.440 -25.015  1.00  0.00    -0.069 N 
ATOM     31  H63 UNL     1     -26.085  15.518 -25.346  1.00  0.00     0.275 HD
ATOM     32  H62 UNL     1     -27.366  16.368 -25.217  1.00  0.00     0.275 HD
ATOM     33  H61 UNL     1     -25.923  17.192 -25.542  1.00  0.00     0.275 HD
ENDBRANCH  29  30
BRANCH  29  34
HETATM   34  C9  UNL     1     -26.969  15.661 -22.808  1.00  0.00     0.201 C 
BRANCH  34  35
HETATM   35  O2  UNL     1     -26.592  15.527 -21.504  1.00  0.00    -0.399 OA
ATOM     36  H2  UNL     1     -26.340  14.640 -21.277  1.00  0.00     0.209 HD
ENDBRANCH  34  35
ENDBRANCH  29  34
ENDBRANCH  26  29
ENDBRANCH  24  26
ENDBRANCH  23  24
ENDBRANCH  14  23
ENDBRANCH   4  10
BRANCH   5  37
HETATM   37  C14 UNL     1     -25.157  26.741 -26.618  1.00  0.00     0.163 C 
BRANCH  37  38
HETATM   38  N10 UNL     1     -26.020  27.094 -25.519  1.00  0.00    -0.259 N 
HETATM   39  N11 UNL     1     -25.794  28.121 -24.696  1.00  0.00    -0.238 N 
HETATM   40  N12 UNL     1     -26.706  28.191 -23.755  1.00  0.00    -0.279 N 
ATOM     41  H11 UNL     1     -25.012  28.769 -24.787  1.00  0.00     0.208 HD
HETATM   42  C15 UNL     1     -27.612  27.175 -23.924  1.00  0.00     0.137 A 
ATOM     43  H12 UNL     1     -26.737  28.891 -23.014  1.00  0.00     0.189 HD
HETATM   44  C16 UNL     1     -28.741  26.782 -23.264  1.00  0.00     0.163 A 
HETATM   45  C18 UNL     1     -27.122  26.508 -25.065  1.00  0.00     0.170 A 
HETATM   46  N13 UNL     1     -29.195  27.472 -22.115  1.00  0.00    -0.080 NA
HETATM   47  N14 UNL     1     -29.428  25.720 -23.710  1.00  0.00    -0.177 N 
HETATM   48  C17 UNL     1     -28.970  25.086 -24.801  1.00  0.00     0.678 A 
ATOM     49  H14 UNL     1     -30.274  25.404 -23.235  1.00  0.00     0.185 HD
HETATM   50  N16 UNL     1     -27.866  25.443 -25.465  1.00  0.00    -0.173 N 
ATOM     51  H16 UNL     1     -27.577  24.907 -26.283  1.00  0.00     0.186 HD
BRANCH  48  52
HETATM   52  N15 UNL     1     -29.648  24.094 -25.255  1.00  0.00    -0.234 N 
ATOM     53 2H15 UNL     1     -29.507  23.181 -24.820  1.00  0.00     0.174 HD
ATOM     54 1H15 UNL     1     -30.276  24.260 -26.041  1.00  0.00     0.174 HD
ENDBRANCH  48  52
ENDBRANCH  37  38
ENDBRANCH   5  37
BRANCH   1  55
HETATM   55  N1  UNL     1     -21.801  24.751 -22.429  1.00  0.00    -0.231 N 
HETATM   56  C1  UNL     1     -20.661  23.938 -22.137  1.00  0.00     0.165 C 
ATOM     57  H1  UNL     1     -22.326  25.171 -21.662  1.00  0.00     0.177 HD
ENDBRANCH   1  55
TORSDOF 13
ENDMDL
