MODEL 1
REMARK VINA RESULT: -5.539816480      0.000      0.000
REMARK  12 active torsions:
REMARK  status: ('A' for Active; 'I' for Inactive)
REMARK       I    between atoms: C2_2  and  N1_4 
REMARK    1  A    between atoms: N1_4  and  C3_6 
REMARK    2  A    between atoms: C4_12  and  C5_13 
REMARK    3  A    between atoms: C6_16  and  N5_17 
REMARK    4  A    between atoms: N5_17  and  C7_19 
REMARK    5  A    between atoms: C8_20  and  N6_21 
REMARK    6  A    between atoms: C9_25  and  C10_26 
REMARK    7  A    between atoms: C10_26  and  O3_27 
REMARK    8  A    between atoms: C11_29  and  O4_30 
REMARK    9  A    between atoms: C12_32  and  O5_33 
REMARK   10  A    between atoms: C13_35  and  O6_36 
REMARK   11  A    between atoms: C14_38  and  N7_39 
REMARK       I    between atoms: N7_39  and  C15_40 
REMARK   12  A    between atoms: C16_43  and  N9_44 
REMARK       I    between atoms: N9_44  and  C17_46 
REMARK       I    between atoms: C17_46  and  N10_47 
REMARK       I    between atoms: C17_46  and  N11_51 
ROOT
HETATM    1  C5  UNL     1       1.662 -18.108  10.112  1.00  0.00     0.110 A 
HETATM    2  N4  UNL     1       0.478 -17.956   9.588  1.00  0.00    -0.332 N 
ATOM      3  H4  UNL     1       0.353 -18.452   8.706  1.00  0.00     0.168 HD
HETATM    4  C6  UNL     1      -0.593 -17.283   9.976  1.00  0.00     0.147 A 
HETATM    5  C14 UNL     1      -0.663 -16.516  11.173  1.00  0.00     0.189 A 
HETATM    6  C16 UNL     1       0.406 -16.408  12.041  1.00  0.00     0.120 A 
HETATM    7  S1  UNL     1       1.810 -17.232  11.620  1.00  0.00    -0.049 SA
ENDROOT
BRANCH   4   8
HETATM    8  N5  UNL     1      -1.779 -17.274   9.200  1.00  0.00    -0.364 N 
ATOM      9  H5  UNL     1      -2.590 -17.600   9.726  1.00  0.00     0.161 HD
BRANCH   8  10
HETATM   10  C7  UNL     1      -2.100 -16.925   7.889  1.00  0.00     0.145 C 
HETATM   11  C8  UNL     1      -3.112 -15.893   7.582  1.00  0.00     0.217 C 
HETATM   12  C9  UNL     1      -2.950 -15.473   6.132  1.00  0.00     0.073 C 
HETATM   13  C11 UNL     1      -2.009 -16.366   5.359  1.00  0.00     0.157 C 
HETATM   14  C12 UNL     1      -2.150 -17.826   5.628  1.00  0.00     0.178 C 
HETATM   15  C13 UNL     1      -2.431 -18.169   7.075  1.00  0.00     0.174 C 
BRANCH  11  16
HETATM   16  N6  UNL     1      -2.883 -14.710   8.427  1.00  0.00    -0.072 N 
ATOM     17  H63 UNL     1      -3.750 -14.343   8.820  1.00  0.00     0.274 HD
ATOM     18  H62 UNL     1      -2.415 -14.946   9.302  1.00  0.00     0.274 HD
ATOM     19  H61 UNL     1      -2.372 -14.004   7.896  1.00  0.00     0.274 HD
ENDBRANCH  11  16
BRANCH  12  20
HETATM   20  C10 UNL     1      -4.279 -15.504   5.391  1.00  0.00     0.173 C 
BRANCH  20  21
HETATM   21  O3  UNL     1      -4.585 -14.228   4.897  1.00  0.00    -0.400 OA
ATOM     22  H3  UNL     1      -5.201 -14.296   4.176  1.00  0.00     0.209 HD
ENDBRANCH  20  21
ENDBRANCH  12  20
BRANCH  13  23
HETATM   23  O4  UNL     1      -2.342 -16.186   3.992  1.00  0.00    -0.392 OA
ATOM     24  H4  UNL     1      -3.162 -16.648   3.863  1.00  0.00     0.210 HD
ENDBRANCH  13  23
BRANCH  14  25
HETATM   25  O5  UNL     1      -0.908 -18.414   5.307  1.00  0.00    -0.390 OA
ATOM     26  H5  UNL     1      -0.392 -18.408   6.105  1.00  0.00     0.210 HD
ENDBRANCH  14  25
BRANCH  15  27
HETATM   27  O6  UNL     1      -1.567 -19.172   7.565  1.00  0.00    -0.391 OA
ATOM     28  H6  UNL     1      -1.058 -19.451   6.812  1.00  0.00     0.210 HD
ENDBRANCH  15  27
ENDBRANCH   8  10
ENDBRANCH   4   8
BRANCH   5  29
HETATM   29  N7  UNL     1      -1.823 -15.846  11.580  1.00  0.00    -0.348 NA
HETATM   30  C15 UNL     1      -2.924 -15.212  11.962  1.00  0.00     0.406 C 
HETATM   31  N8  UNL     1      -3.118 -14.704  13.335  1.00  0.00    -0.025 NA
HETATM   32  O7  UNL     1      -3.976 -14.926  11.269  1.00  0.00    -0.234 OA
ENDBRANCH   5  29
BRANCH   1  33
HETATM   33  C4  UNL     1       2.811 -18.903   9.712  1.00  0.00     0.136 A 
HETATM   34  C3  UNL     1       3.189 -20.183   9.878  1.00  0.00     0.161 A 
HETATM   35  N2  UNL     1       4.412 -20.318   9.298  1.00  0.00    -0.223 N 
HETATM   36  O2  UNL     1       4.780 -19.186   8.796  1.00  0.00    -0.155 OA
ATOM     37  H2  UNL     1       4.955 -21.180   9.263  1.00  0.00     0.198 HD
HETATM   38  N3  UNL     1       3.866 -18.311   9.014  1.00  0.00    -0.235 N 
ATOM     39  H3  UNL     1       3.905 -17.334   8.723  1.00  0.00     0.197 HD
BRANCH  34  40
HETATM   40  N1  UNL     1       2.461 -21.204  10.543  1.00  0.00    -0.310 N 
HETATM   41  C2  UNL     1       1.866 -22.190   9.717  1.00  0.00     0.219 C 
HETATM   42  C1  UNL     1       1.091 -23.325  10.251  1.00  0.00     0.117 C 
HETATM   43  O1  UNL     1       1.994 -22.116   8.472  1.00  0.00    -0.274 OA
ATOM     44  H1  UNL     1       2.372 -21.227  11.558  1.00  0.00     0.170 HD
ENDBRANCH  34  40
ENDBRANCH   1  33
BRANCH   6  45
HETATM   45  N9  UNL     1       0.340 -15.724  13.124  1.00  0.00    -0.332 N 
HETATM   46  C17 UNL     1      -0.022 -16.195  14.415  1.00  0.00     0.481 C 
HETATM   47  N10 UNL     1      -1.115 -17.109  14.483  1.00  0.00    -0.033 N 
HETATM   48  N11 UNL     1      -0.392 -15.021  15.215  1.00  0.00    -0.033 N 
ATOM     49 3H10 UNL     1      -1.931 -16.700  14.028  1.00  0.00     0.278 HD
ATOM     50 2H10 UNL     1      -0.936 -17.902  13.868  1.00  0.00     0.278 HD
ATOM     51 1H10 UNL     1      -1.375 -17.446  15.410  1.00  0.00     0.278 HD
ATOM     52 3H11 UNL     1       0.336 -14.307  15.238  1.00  0.00     0.278 HD
ATOM     53 2H11 UNL     1      -1.118 -14.452  14.777  1.00  0.00     0.278 HD
ATOM     54 1H11 UNL     1      -0.652 -15.359  16.141  1.00  0.00     0.278 HD
ATOM     55  H9  UNL     1       0.574 -14.733  13.051  1.00  0.00     0.164 HD
ENDBRANCH   6  45
TORSDOF 12
ENDMDL
MODEL 2
REMARK VINA RESULT: -5.358537856      7.638     12.046
REMARK  12 active torsions:
REMARK  status: ('A' for Active; 'I' for Inactive)
REMARK       I    between atoms: C2_2  and  N1_4 
REMARK    1  A    between atoms: N1_4  and  C3_6 
REMARK    2  A    between atoms: C4_12  and  C5_13 
REMARK    3  A    between atoms: C6_16  and  N5_17 
REMARK    4  A    between atoms: N5_17  and  C7_19 
REMARK    5  A    between atoms: C8_20  and  N6_21 
REMARK    6  A    between atoms: C9_25  and  C10_26 
REMARK    7  A    between atoms: C10_26  and  O3_27 
REMARK    8  A    between atoms: C11_29  and  O4_30 
REMARK    9  A    between atoms: C12_32  and  O5_33 
REMARK   10  A    between atoms: C13_35  and  O6_36 
REMARK   11  A    between atoms: C14_38  and  N7_39 
REMARK       I    between atoms: N7_39  and  C15_40 
REMARK   12  A    between atoms: C16_43  and  N9_44 
REMARK       I    between atoms: N9_44  and  C17_46 
REMARK       I    between atoms: C17_46  and  N10_47 
REMARK       I    between atoms: C17_46  and  N11_51 
ROOT
HETATM    1  C5  UNL     1      -7.428 -16.247  -0.265  1.00  0.00     0.110 A 
HETATM    2  N4  UNL     1      -6.419 -16.610   0.476  1.00  0.00    -0.332 N 
ATOM      3  H4  UNL     1      -5.570 -16.074   0.303  1.00  0.00     0.168 HD
HETATM    4  C6  UNL     1      -6.282 -17.537   1.409  1.00  0.00     0.147 A 
HETATM    5  C14 UNL     1      -7.327 -18.409   1.827  1.00  0.00     0.189 A 
HETATM    6  C16 UNL     1      -8.593 -18.356   1.278  1.00  0.00     0.120 A 
HETATM    7  S1  UNL     1      -8.851 -17.204   0.081  1.00  0.00    -0.049 SA
ENDROOT
BRANCH   4   8
HETATM    8  N5  UNL     1      -5.046 -17.739   2.073  1.00  0.00    -0.364 N 
ATOM      9  H5  UNL     1      -4.635 -18.648   1.863  1.00  0.00     0.161 HD
BRANCH   8  10
HETATM   10  C7  UNL     1      -4.260 -16.988   2.946  1.00  0.00     0.145 C 
HETATM   11  C8  UNL     1      -4.779 -16.499   4.240  1.00  0.00     0.217 C 
HETATM   12  C9  UNL     1      -3.605 -16.075   5.104  1.00  0.00     0.073 C 
HETATM   13  C11 UNL     1      -2.300 -16.028   4.345  1.00  0.00     0.157 C 
HETATM   14  C12 UNL     1      -2.378 -15.443   2.976  1.00  0.00     0.178 C 
HETATM   15  C13 UNL     1      -3.633 -15.808   2.213  1.00  0.00     0.174 C 
BRANCH  11  16
HETATM   16  N6  UNL     1      -5.482 -17.592   4.933  1.00  0.00    -0.072 N 
ATOM     17  H63 UNL     1      -5.188 -17.683   5.905  1.00  0.00     0.274 HD
ATOM     18  H62 UNL     1      -6.465 -17.374   5.098  1.00  0.00     0.274 HD
ATOM     19  H61 UNL     1      -5.363 -18.460   4.411  1.00  0.00     0.274 HD
ENDBRANCH  11  16
BRANCH  12  20
HETATM   20  C10 UNL     1      -3.815 -14.684   5.685  1.00  0.00     0.173 C 
BRANCH  20  21
HETATM   21  O3  UNL     1      -4.912 -14.066   5.070  1.00  0.00    -0.400 OA
ATOM     22  H3  UNL     1      -4.647 -13.677   4.244  1.00  0.00     0.209 HD
ENDBRANCH  20  21
ENDBRANCH  12  20
BRANCH  13  23
HETATM   23  O4  UNL     1      -1.452 -15.168   5.090  1.00  0.00    -0.392 OA
ATOM     24  H4  UNL     1      -0.644 -15.109   4.593  1.00  0.00     0.210 HD
ENDBRANCH  13  23
BRANCH  14  25
HETATM   25  O5  UNL     1      -1.293 -15.978   2.249  1.00  0.00    -0.390 OA
ATOM     26  H5  UNL     1      -1.654 -16.323   1.440  1.00  0.00     0.210 HD
ENDBRANCH  14  25
BRANCH  15  27
HETATM   27  O6  UNL     1      -3.350 -16.288   0.915  1.00  0.00    -0.391 OA
ATOM     28  H6  UNL     1      -3.668 -15.613   0.327  1.00  0.00     0.210 HD
ENDBRANCH  15  27
ENDBRANCH   8  10
ENDBRANCH   4   8
BRANCH   5  29
HETATM   29  N7  UNL     1      -7.166 -19.356   2.846  1.00  0.00    -0.348 NA
HETATM   30  C15 UNL     1      -7.008 -20.253   3.811  1.00  0.00     0.406 C 
HETATM   31  N8  UNL     1      -8.143 -20.956   4.442  1.00  0.00    -0.025 NA
HETATM   32  O7  UNL     1      -5.916 -20.669   4.360  1.00  0.00    -0.234 OA
ENDBRANCH   5  29
BRANCH   1  33
HETATM   33  C4  UNL     1      -7.588 -15.182  -1.241  1.00  0.00     0.136 A 
HETATM   34  C3  UNL     1      -6.752 -14.461  -2.011  1.00  0.00     0.161 A 
HETATM   35  N2  UNL     1      -7.513 -13.566  -2.697  1.00  0.00    -0.223 N 
HETATM   36  O2  UNL     1      -8.754 -13.717  -2.376  1.00  0.00    -0.155 OA
ATOM     37  H2  UNL     1      -7.157 -12.880  -3.363  1.00  0.00     0.198 HD
HETATM   38  N3  UNL     1      -8.855 -14.664  -1.515  1.00  0.00    -0.235 N 
ATOM     39  H3  UNL     1      -9.726 -14.987  -1.095  1.00  0.00     0.197 HD
BRANCH  34  40
HETATM   40  N1  UNL     1      -5.341 -14.593  -2.088  1.00  0.00    -0.310 N 
HETATM   41  C2  UNL     1      -4.834 -15.249  -3.237  1.00  0.00     0.219 C 
HETATM   42  C1  UNL     1      -3.394 -15.452  -3.477  1.00  0.00     0.117 C 
HETATM   43  O1  UNL     1      -5.629 -15.679  -4.107  1.00  0.00    -0.274 OA
ATOM     44  H1  UNL     1      -4.727 -14.237  -1.357  1.00  0.00     0.170 HD
ENDBRANCH  34  40
ENDBRANCH   1  33
BRANCH   6  45
HETATM   45  N9  UNL     1      -9.537 -19.136   1.660  1.00  0.00    -0.332 N 
HETATM   46  C17 UNL     1     -10.504 -18.881   2.670  1.00  0.00     0.481 C 
HETATM   47  N10 UNL     1     -10.038 -18.245   3.860  1.00  0.00    -0.033 N 
HETATM   48  N11 UNL     1     -11.066 -20.178   3.067  1.00  0.00    -0.033 N 
ATOM     49 3H10 UNL     1      -9.266 -18.782   4.254  1.00  0.00     0.278 HD
ATOM     50 2H10 UNL     1      -9.560 -17.378   3.619  1.00  0.00     0.278 HD
ATOM     51 1H10 UNL     1     -10.732 -18.063   4.585  1.00  0.00     0.278 HD
ATOM     52 3H11 UNL     1     -11.439 -20.709   2.281  1.00  0.00     0.278 HD
ATOM     53 2H11 UNL     1     -10.355 -20.851   3.354  1.00  0.00     0.278 HD
ATOM     54 1H11 UNL     1     -11.759 -19.995   3.792  1.00  0.00     0.278 HD
ATOM     55  H9  UNL     1      -9.602 -20.038   1.187  1.00  0.00     0.164 HD
ENDBRANCH   6  45
TORSDOF 12
ENDMDL
MODEL 3
REMARK VINA RESULT: -5.319740669      6.474     10.149
REMARK  12 active torsions:
REMARK  status: ('A' for Active; 'I' for Inactive)
REMARK       I    between atoms: C2_2  and  N1_4 
REMARK    1  A    between atoms: N1_4  and  C3_6 
REMARK    2  A    between atoms: C4_12  and  C5_13 
REMARK    3  A    between atoms: C6_16  and  N5_17 
REMARK    4  A    between atoms: N5_17  and  C7_19 
REMARK    5  A    between atoms: C8_20  and  N6_21 
REMARK    6  A    between atoms: C9_25  and  C10_26 
REMARK    7  A    between atoms: C10_26  and  O3_27 
REMARK    8  A    between atoms: C11_29  and  O4_30 
REMARK    9  A    between atoms: C12_32  and  O5_33 
REMARK   10  A    between atoms: C13_35  and  O6_36 
REMARK   11  A    between atoms: C14_38  and  N7_39 
REMARK       I    between atoms: N7_39  and  C15_40 
REMARK   12  A    between atoms: C16_43  and  N9_44 
REMARK       I    between atoms: N9_44  and  C17_46 
REMARK       I    between atoms: C17_46  and  N10_47 
REMARK       I    between atoms: C17_46  and  N11_51 
ROOT
HETATM    1  C5  UNL     1      -6.776 -18.886   4.134  1.00  0.00     0.110 A 
HETATM    2  N4  UNL     1      -6.310 -18.280   3.078  1.00  0.00    -0.332 N 
ATOM      3  H4  UNL     1      -6.915 -18.355   2.261  1.00  0.00     0.168 HD
HETATM    4  C6  UNL     1      -5.205 -17.586   2.859  1.00  0.00     0.147 A 
HETATM    5  C14 UNL     1      -4.208 -17.342   3.845  1.00  0.00     0.189 A 
HETATM    6  C16 UNL     1      -4.316 -17.822   5.135  1.00  0.00     0.120 A 
HETATM    7  S1  UNL     1      -5.692 -18.718   5.497  1.00  0.00    -0.049 SA
ENDROOT
BRANCH   4   8
HETATM    8  N5  UNL     1      -4.926 -17.026   1.587  1.00  0.00    -0.364 N 
ATOM      9  H5  UNL     1      -3.989 -17.258   1.257  1.00  0.00     0.161 HD
BRANCH   8  10
HETATM   10  C7  UNL     1      -5.628 -16.234   0.681  1.00  0.00     0.145 C 
HETATM   11  C8  UNL     1      -6.331 -16.815  -0.483  1.00  0.00     0.217 C 
HETATM   12  C9  UNL     1      -7.298 -15.780  -1.031  1.00  0.00     0.073 C 
HETATM   13  C11 UNL     1      -7.103 -14.411  -0.425  1.00  0.00     0.157 C 
HETATM   14  C12 UNL     1      -5.684 -13.985  -0.251  1.00  0.00     0.178 C 
HETATM   15  C13 UNL     1      -4.750 -15.094   0.180  1.00  0.00     0.174 C 
BRANCH  11  16
HETATM   16  N6  UNL     1      -7.113 -17.986  -0.052  1.00  0.00    -0.072 N 
ATOM     17  H63 UNL     1      -6.550 -18.836  -0.025  1.00  0.00     0.274 HD
ATOM     18  H62 UNL     1      -7.358 -17.942   0.937  1.00  0.00     0.274 HD
ATOM     19  H61 UNL     1      -7.934 -18.087  -0.648  1.00  0.00     0.274 HD
ENDBRANCH  11  16
BRANCH  12  20
HETATM   20  C10 UNL     1      -7.140 -15.612  -2.535  1.00  0.00     0.173 C 
BRANCH  20  21
HETATM   21  O3  UNL     1      -6.749 -16.826  -3.117  1.00  0.00    -0.400 OA
ATOM     22  H3  UNL     1      -6.774 -16.757  -4.064  1.00  0.00     0.209 HD
ENDBRANCH  20  21
ENDBRANCH  12  20
BRANCH  13  23
HETATM   23  O4  UNL     1      -7.676 -13.497  -1.346  1.00  0.00    -0.392 OA
ATOM     24  H4  UNL     1      -8.555 -13.327  -1.028  1.00  0.00     0.210 HD
ENDBRANCH  13  23
BRANCH  14  25
HETATM   25  O5  UNL     1      -5.678 -13.025   0.784  1.00  0.00    -0.390 OA
ATOM     26  H5  UNL     1      -5.300 -12.235   0.416  1.00  0.00     0.210 HD
ENDBRANCH  14  25
BRANCH  15  27
HETATM   27  O6  UNL     1      -3.957 -14.725   1.289  1.00  0.00    -0.391 OA
ATOM     28  H6  UNL     1      -3.125 -14.453   0.920  1.00  0.00     0.210 HD
ENDBRANCH  15  27
ENDBRANCH   8  10
ENDBRANCH   4   8
BRANCH   5  29
HETATM   29  N7  UNL     1      -3.067 -16.569   3.597  1.00  0.00    -0.348 NA
HETATM   30  C15 UNL     1      -1.986 -15.835   3.366  1.00  0.00     0.406 C 
HETATM   31  N8  UNL     1      -1.142 -16.010   2.168  1.00  0.00    -0.025 NA
HETATM   32  O7  UNL     1      -1.483 -14.886   4.084  1.00  0.00    -0.234 OA
ENDBRANCH   5  29
BRANCH   1  33
HETATM   33  C4  UNL     1      -8.023 -19.590   4.384  1.00  0.00     0.136 A 
HETATM   34  C3  UNL     1      -8.664 -20.625   3.810  1.00  0.00     0.161 A 
HETATM   35  N2  UNL     1      -9.834 -20.792   4.484  1.00  0.00    -0.223 N 
HETATM   36  O2  UNL     1      -9.921 -19.913   5.426  1.00  0.00    -0.155 OA
ATOM     37  H2  UNL     1     -10.536 -21.504   4.277  1.00  0.00     0.198 HD
HETATM   38  N3  UNL     1      -8.872 -19.174   5.411  1.00  0.00    -0.235 N 
ATOM     39  H3  UNL     1      -8.687 -18.401   6.050  1.00  0.00     0.197 HD
BRANCH  34  40
HETATM   40  N1  UNL     1      -8.219 -21.393   2.704  1.00  0.00    -0.310 N 
HETATM   41  C2  UNL     1      -8.614 -20.936   1.422  1.00  0.00     0.219 C 
HETATM   42  C1  UNL     1      -8.221 -21.610   0.171  1.00  0.00     0.117 C 
HETATM   43  O1  UNL     1      -9.327 -19.909   1.323  1.00  0.00    -0.274 OA
ATOM     44  H1  UNL     1      -7.646 -22.228   2.824  1.00  0.00     0.170 HD
ENDBRANCH  34  40
ENDBRANCH   1  33
BRANCH   6  45
HETATM   45  N9  UNL     1      -3.421 -17.595   6.027  1.00  0.00    -0.332 N 
HETATM   46  C17 UNL     1      -3.385 -16.513   6.948  1.00  0.00     0.481 C 
HETATM   47  N10 UNL     1      -3.748 -15.228   6.446  1.00  0.00    -0.033 N 
HETATM   48  N11 UNL     1      -2.004 -16.409   7.436  1.00  0.00    -0.033 N 
ATOM     49 3H10 UNL     1      -3.174 -15.004   5.633  1.00  0.00     0.278 HD
ATOM     50 2H10 UNL     1      -4.671 -15.278   6.015  1.00  0.00     0.278 HD
ATOM     51 1H10 UNL     1      -3.721 -14.452   7.107  1.00  0.00     0.278 HD
ATOM     52 3H11 UNL     1      -1.652 -17.282   7.830  1.00  0.00     0.278 HD
ATOM     53 2H11 UNL     1      -1.320 -16.319   6.685  1.00  0.00     0.278 HD
ATOM     54 1H11 UNL     1      -1.978 -15.633   8.097  1.00  0.00     0.278 HD
ATOM     55  H9  UNL     1      -2.652 -18.263   6.080  1.00  0.00     0.164 HD
ENDBRANCH   6  45
TORSDOF 12
ENDMDL
MODEL 4
REMARK VINA RESULT: -5.315429831      6.367     10.332
REMARK  12 active torsions:
REMARK  status: ('A' for Active; 'I' for Inactive)
REMARK       I    between atoms: C2_2  and  N1_4 
REMARK    1  A    between atoms: N1_4  and  C3_6 
REMARK    2  A    between atoms: C4_12  and  C5_13 
REMARK    3  A    between atoms: C6_16  and  N5_17 
REMARK    4  A    between atoms: N5_17  and  C7_19 
REMARK    5  A    between atoms: C8_20  and  N6_21 
REMARK    6  A    between atoms: C9_25  and  C10_26 
REMARK    7  A    between atoms: C10_26  and  O3_27 
REMARK    8  A    between atoms: C11_29  and  O4_30 
REMARK    9  A    between atoms: C12_32  and  O5_33 
REMARK   10  A    between atoms: C13_35  and  O6_36 
REMARK   11  A    between atoms: C14_38  and  N7_39 
REMARK       I    between atoms: N7_39  and  C15_40 
REMARK   12  A    between atoms: C16_43  and  N9_44 
REMARK       I    between atoms: N9_44  and  C17_46 
REMARK       I    between atoms: C17_46  and  N10_47 
REMARK       I    between atoms: C17_46  and  N11_51 
ROOT
HETATM    1  C5  UNL     1      -6.801 -18.888   4.130  1.00  0.00     0.110 A 
HETATM    2  N4  UNL     1      -6.330 -18.283   3.075  1.00  0.00    -0.332 N 
ATOM      3  H4  UNL     1      -6.933 -18.358   2.257  1.00  0.00     0.168 HD
HETATM    4  C6  UNL     1      -5.223 -17.592   2.860  1.00  0.00     0.147 A 
HETATM    5  C14 UNL     1      -4.229 -17.349   3.850  1.00  0.00     0.189 A 
HETATM    6  C16 UNL     1      -4.342 -17.829   5.140  1.00  0.00     0.120 A 
HETATM    7  S1  UNL     1      -5.721 -18.722   5.497  1.00  0.00    -0.049 SA
ENDROOT
BRANCH   4   8
HETATM    8  N5  UNL     1      -4.938 -17.033   1.589  1.00  0.00    -0.364 N 
ATOM      9  H5  UNL     1      -4.002 -17.270   1.261  1.00  0.00     0.161 HD
BRANCH   8  10
HETATM   10  C7  UNL     1      -5.634 -16.236   0.682  1.00  0.00     0.145 C 
HETATM   11  C8  UNL     1      -6.342 -16.813  -0.481  1.00  0.00     0.217 C 
HETATM   12  C9  UNL     1      -7.300 -15.771  -1.030  1.00  0.00     0.073 C 
HETATM   13  C11 UNL     1      -7.094 -14.402  -0.425  1.00  0.00     0.157 C 
HETATM   14  C12 UNL     1      -5.672 -13.988  -0.252  1.00  0.00     0.178 C 
HETATM   15  C13 UNL     1      -4.746 -15.104   0.180  1.00  0.00     0.174 C 
BRANCH  11  16
HETATM   16  N6  UNL     1      -7.133 -17.977  -0.048  1.00  0.00    -0.072 N 
ATOM     17  H63 UNL     1      -7.611 -17.810   0.837  1.00  0.00     0.274 HD
ATOM     18  H62 UNL     1      -7.956 -18.122  -0.633  1.00  0.00     0.274 HD
ATOM     19  H61 UNL     1      -6.535 -18.803  -0.013  1.00  0.00     0.274 HD
ENDBRANCH  11  16
BRANCH  12  20
HETATM   20  C10 UNL     1      -7.141 -15.606  -2.535  1.00  0.00     0.173 C 
BRANCH  20  21
HETATM   21  O3  UNL     1      -6.767 -16.825  -3.116  1.00  0.00    -0.400 OA
ATOM     22  H3  UNL     1      -6.063 -16.687  -3.739  1.00  0.00     0.209 HD
ENDBRANCH  20  21
ENDBRANCH  12  20
BRANCH  13  23
HETATM   23  O4  UNL     1      -7.660 -13.485  -1.348  1.00  0.00    -0.392 OA
ATOM     24  H4  UNL     1      -7.557 -12.626  -0.954  1.00  0.00     0.210 HD
ENDBRANCH  13  23
BRANCH  14  25
HETATM   25  O5  UNL     1      -5.658 -13.027   0.782  1.00  0.00    -0.390 OA
ATOM     26  H5  UNL     1      -5.098 -13.375   1.465  1.00  0.00     0.210 HD
ENDBRANCH  14  25
BRANCH  15  27
HETATM   27  O6  UNL     1      -3.951 -14.740   1.288  1.00  0.00    -0.391 OA
ATOM     28  H6  UNL     1      -4.205 -13.848   1.494  1.00  0.00     0.210 HD
ENDBRANCH  15  27
ENDBRANCH   8  10
ENDBRANCH   4   8
BRANCH   5  29
HETATM   29  N7  UNL     1      -3.085 -16.579   3.606  1.00  0.00    -0.348 NA
HETATM   30  C15 UNL     1      -2.002 -15.847   3.378  1.00  0.00     0.406 C 
HETATM   31  N8  UNL     1      -1.152 -16.026   2.184  1.00  0.00    -0.025 NA
HETATM   32  O7  UNL     1      -1.501 -14.898   4.096  1.00  0.00    -0.234 OA
ENDBRANCH   5  29
BRANCH   1  33
HETATM   33  C4  UNL     1      -8.050 -19.590   4.375  1.00  0.00     0.136 A 
HETATM   34  C3  UNL     1      -9.351 -19.324   4.157  1.00  0.00     0.161 A 
HETATM   35  N2  UNL     1     -10.062 -20.372   4.656  1.00  0.00    -0.223 N 
HETATM   36  O2  UNL     1      -9.252 -21.244   5.158  1.00  0.00    -0.155 OA
ATOM     37  H2  UNL     1     -11.078 -20.456   4.636  1.00  0.00     0.198 HD
HETATM   38  N3  UNL     1      -8.046 -20.829   5.018  1.00  0.00    -0.235 N 
ATOM     39  H3  UNL     1      -7.212 -21.327   5.329  1.00  0.00     0.197 HD
BRANCH  34  40
HETATM   40  N1  UNL     1      -9.890 -18.167   3.536  1.00  0.00    -0.310 N 
HETATM   41  C2  UNL     1     -10.015 -18.212   2.126  1.00  0.00     0.219 C 
HETATM   42  C1  UNL     1     -10.570 -17.101   1.332  1.00  0.00     0.117 C 
HETATM   43  O1  UNL     1      -9.647 -19.237   1.503  1.00  0.00    -0.274 OA
ATOM     44  H1  UNL     1     -10.171 -17.349   4.075  1.00  0.00     0.170 HD
ENDBRANCH  34  40
ENDBRANCH   1  33
BRANCH   6  45
HETATM   45  N9  UNL     1      -3.451 -17.603   6.034  1.00  0.00    -0.332 N 
HETATM   46  C17 UNL     1      -3.414 -16.521   6.954  1.00  0.00     0.481 C 
HETATM   47  N10 UNL     1      -3.772 -15.235   6.449  1.00  0.00    -0.033 N 
HETATM   48  N11 UNL     1      -2.035 -16.421   7.448  1.00  0.00    -0.033 N 
ATOM     49 3H10 UNL     1      -3.194 -15.014   5.639  1.00  0.00     0.278 HD
ATOM     50 2H10 UNL     1      -4.693 -15.283   6.015  1.00  0.00     0.278 HD
ATOM     51 1H10 UNL     1      -3.745 -14.459   7.110  1.00  0.00     0.278 HD
ATOM     52 3H11 UNL     1      -1.687 -17.295   7.843  1.00  0.00     0.278 HD
ATOM     53 2H11 UNL     1      -1.347 -16.333   6.699  1.00  0.00     0.278 HD
ATOM     54 1H11 UNL     1      -2.009 -15.644   8.108  1.00  0.00     0.278 HD
ATOM     55  H9  UNL     1      -2.684 -18.274   6.091  1.00  0.00     0.164 HD
ENDBRANCH   6  45
TORSDOF 12
ENDMDL
MODEL 5
REMARK VINA RESULT: -5.251409070      4.352      7.368
REMARK  12 active torsions:
REMARK  status: ('A' for Active; 'I' for Inactive)
REMARK       I    between atoms: C2_2  and  N1_4 
REMARK    1  A    between atoms: N1_4  and  C3_6 
REMARK    2  A    between atoms: C4_12  and  C5_13 
REMARK    3  A    between atoms: C6_16  and  N5_17 
REMARK    4  A    between atoms: N5_17  and  C7_19 
REMARK    5  A    between atoms: C8_20  and  N6_21 
REMARK    6  A    between atoms: C9_25  and  C10_26 
REMARK    7  A    between atoms: C10_26  and  O3_27 
REMARK    8  A    between atoms: C11_29  and  O4_30 
REMARK    9  A    between atoms: C12_32  and  O5_33 
REMARK   10  A    between atoms: C13_35  and  O6_36 
REMARK   11  A    between atoms: C14_38  and  N7_39 
REMARK       I    between atoms: N7_39  and  C15_40 
REMARK   12  A    between atoms: C16_43  and  N9_44 
REMARK       I    between atoms: N9_44  and  C17_46 
REMARK       I    between atoms: C17_46  and  N10_47 
REMARK       I    between atoms: C17_46  and  N11_51 
ROOT
HETATM    1  C5  UNL     1      -2.239 -21.190   5.729  1.00  0.00     0.110 A 
HETATM    2  N4  UNL     1      -1.299 -20.455   6.255  1.00  0.00    -0.332 N 
ATOM      3  H4  UNL     1      -0.508 -20.992   6.610  1.00  0.00     0.168 HD
HETATM    4  C6  UNL     1      -1.172 -19.149   6.420  1.00  0.00     0.147 A 
HETATM    5  C14 UNL     1      -2.142 -18.194   6.005  1.00  0.00     0.189 A 
HETATM    6  C16 UNL     1      -3.321 -18.564   5.387  1.00  0.00     0.120 A 
HETATM    7  S1  UNL     1      -3.563 -20.210   5.142  1.00  0.00    -0.049 SA
ENDROOT
BRANCH   4   8
HETATM    8  N5  UNL     1      -0.028 -18.592   7.045  1.00  0.00    -0.364 N 
ATOM      9  H5  UNL     1       0.684 -18.307   6.372  1.00  0.00     0.161 HD
BRANCH   8  10
HETATM   10  C7  UNL     1       0.355 -18.342   8.362  1.00  0.00     0.145 C 
HETATM   11  C8  UNL     1      -0.428 -17.454   9.247  1.00  0.00     0.217 C 
HETATM   12  C9  UNL     1       0.006 -17.694  10.682  1.00  0.00     0.073 C 
HETATM   13  C11 UNL     1       1.245 -18.553  10.788  1.00  0.00     0.157 C 
HETATM   14  C12 UNL     1       2.318 -18.250   9.799  1.00  0.00     0.178 C 
HETATM   15  C13 UNL     1       1.812 -17.899   8.417  1.00  0.00     0.174 C 
BRANCH  11  16
HETATM   16  N6  UNL     1      -1.858 -17.788   9.141  1.00  0.00    -0.072 N 
ATOM     17  H63 UNL     1      -2.400 -17.032   8.725  1.00  0.00     0.274 HD
ATOM     18  H62 UNL     1      -2.035 -18.502   8.434  1.00  0.00     0.274 HD
ATOM     19  H61 UNL     1      -2.214 -18.058  10.059  1.00  0.00     0.274 HD
ENDBRANCH  11  16
BRANCH  12  20
HETATM   20  C10 UNL     1       0.325 -16.388  11.394  1.00  0.00     0.173 C 
BRANCH  20  21
HETATM   21  O3  UNL     1      -0.659 -15.431  11.109  1.00  0.00    -0.400 OA
ATOM     22  H3  UNL     1      -0.347 -14.564  11.339  1.00  0.00     0.209 HD
ENDBRANCH  20  21
ENDBRANCH  12  20
BRANCH  13  23
HETATM   23  O4  UNL     1       1.798 -18.274  12.064  1.00  0.00    -0.392 OA
ATOM     24  H4  UNL     1       2.729 -18.449  11.986  1.00  0.00     0.210 HD
ENDBRANCH  13  23
BRANCH  14  25
HETATM   25  O5  UNL     1       3.082 -19.429   9.662  1.00  0.00    -0.390 OA
ATOM     26  H5  UNL     1       2.462 -20.148   9.620  1.00  0.00     0.210 HD
ENDBRANCH  14  25
BRANCH  15  27
HETATM   27  O6  UNL     1       2.460 -18.639   7.405  1.00  0.00    -0.391 OA
ATOM     28  H6  UNL     1       3.366 -18.701   7.684  1.00  0.00     0.210 HD
ENDBRANCH  15  27
ENDBRANCH   8  10
ENDBRANCH   4   8
BRANCH   5  29
HETATM   29  N7  UNL     1      -1.964 -16.813   6.155  1.00  0.00    -0.348 NA
HETATM   30  C15 UNL     1      -1.793 -15.505   6.293  1.00  0.00     0.406 C 
HETATM   31  N8  UNL     1      -2.138 -14.780   7.531  1.00  0.00    -0.025 NA
HETATM   32  O7  UNL     1      -1.324 -14.655   5.441  1.00  0.00    -0.234 OA
ENDBRANCH   5  29
BRANCH   1  33
HETATM   33  C4  UNL     1      -2.340 -22.621   5.493  1.00  0.00     0.136 A 
HETATM   34  C3  UNL     1      -2.136 -23.430   4.438  1.00  0.00     0.161 A 
HETATM   35  N2  UNL     1      -2.446 -24.693   4.836  1.00  0.00    -0.223 N 
HETATM   36  O2  UNL     1      -2.823 -24.677   6.072  1.00  0.00    -0.155 OA
ATOM     37  H2  UNL     1      -2.389 -25.526   4.250  1.00  0.00     0.198 HD
HETATM   38  N3  UNL     1      -2.779 -23.471   6.510  1.00  0.00    -0.235 N 
ATOM     39  H3  UNL     1      -3.027 -23.179   7.455  1.00  0.00     0.197 HD
BRANCH  34  40
HETATM   40  N1  UNL     1      -1.693 -23.045   3.145  1.00  0.00    -0.310 N 
HETATM   41  C2  UNL     1      -0.443 -23.565   2.729  1.00  0.00     0.219 C 
HETATM   42  C1  UNL     1       0.150 -23.276   1.411  1.00  0.00     0.117 C 
HETATM   43  O1  UNL     1       0.205 -24.313   3.500  1.00  0.00    -0.274 OA
ATOM     44  H1  UNL     1      -2.244 -22.428   2.549  1.00  0.00     0.170 HD
ENDBRANCH  34  40
ENDBRANCH   1  33
BRANCH   6  45
HETATM   45  N9  UNL     1      -4.192 -17.703   5.005  1.00  0.00    -0.332 N 
HETATM   46  C17 UNL     1      -4.221 -17.003   3.769  1.00  0.00     0.481 C 
HETATM   47  N10 UNL     1      -2.973 -16.516   3.276  1.00  0.00    -0.033 N 
HETATM   48  N11 UNL     1      -5.094 -15.837   3.953  1.00  0.00    -0.033 N 
ATOM     49 3H10 UNL     1      -2.528 -15.936   3.986  1.00  0.00     0.278 HD
ATOM     50 2H10 UNL     1      -2.306 -17.285   3.217  1.00  0.00     0.278 HD
ATOM     51 1H10 UNL     1      -2.994 -16.014   2.389  1.00  0.00     0.278 HD
ATOM     52 3H11 UNL     1      -6.023 -16.083   4.296  1.00  0.00     0.278 HD
ATOM     53 2H11 UNL     1      -4.816 -15.250   4.740  1.00  0.00     0.278 HD
ATOM     54 1H11 UNL     1      -5.115 -15.334   3.066  1.00  0.00     0.278 HD
ATOM     55  H9  UNL     1      -4.947 -17.498   5.661  1.00  0.00     0.164 HD
ENDBRANCH   6  45
TORSDOF 12
ENDMDL
