MODEL 1
REMARK VINA RESULT: -8.998193395      0.000      0.000
REMARK  16 active torsions:
REMARK  status: ('A' for Active; 'I' for Inactive)
REMARK    1  A    between atoms: O1_2  and  C2_3 
REMARK    2  A    between atoms: C5_8  and  C6_9 
REMARK    3  A    between atoms: C6_9  and  N2_10 
REMARK    4  A    between atoms: N3_13  and  C9_14 
REMARK    5  A    between atoms: C9_14  and  C10_15 
REMARK    6  A    between atoms: C10_15  and  O2_16 
REMARK    7  A    between atoms: C10_15  and  N4_18 
REMARK    8  A    between atoms: N4_18  and  C11_19 
REMARK    9  A    between atoms: C11_19  and  C12_20 
REMARK   10  A    between atoms: C12_20  and  C13_21 
REMARK   11  A    between atoms: C13_21  and  C14_22 
REMARK   12  A    between atoms: N6_34  and  C22_36 
REMARK   13  A    between atoms: C22_36  and  C23_37 
REMARK   14  A    between atoms: C23_37  and  C24_38 
REMARK   15  A    between atoms: C24_38  and  N7_39 
REMARK   16  A    between atoms: C32_47  and  O4_48 
ROOT
HETATM    1  C2  UNL     1      19.880  27.309  15.578  1.00  0.00     0.103 A 
HETATM    2  C3  UNL     1      18.844  26.587  15.071  1.00  0.00     0.070 A 
HETATM    3  C4  UNL     1      18.232  25.515  15.745  1.00  0.00     0.048 A 
HETATM    4  N1  UNL     1      17.195  24.888  15.185  1.00  0.00    -0.355 N 
ATOM      5  H1  UNL     1      16.883  25.184  14.260  1.00  0.00     0.166 HD
HETATM    6  C5  UNL     1      16.534  23.862  15.809  1.00  0.00     0.045 A 
HETATM    7  C20 UNL     1      16.998  23.526  17.029  1.00  0.00     0.060 A 
HETATM    8  C21 UNL     1      18.086  24.143  17.685  1.00  0.00     0.046 A 
HETATM    9  N6  UNL     1      18.510  23.920  18.804  1.00  0.00    -0.368 N 
ATOM     10  H6  UNL     1      19.297  24.562  18.908  1.00  0.00     0.165 HD
HETATM   11  C30 UNL     1      18.717  25.195  16.977  1.00  0.00     0.020 A 
HETATM   12  C31 UNL     1      19.765  25.898  17.533  1.00  0.00     0.055 A 
HETATM   13  C32 UNL     1      20.352  26.951  16.844  1.00  0.00     0.102 A 
ENDROOT
BRANCH   6  14
HETATM   14  C6  UNL     1      15.347  23.320  15.176  1.00  0.00     0.089 C 
BRANCH  14  15
HETATM   15  N2  UNL     1      15.152  21.910  15.063  1.00  0.00    -0.287 NA
HETATM   16  C7  UNL     1      14.026  21.697  16.055  1.00  0.00     0.125 C 
HETATM   17  C8  UNL     1      13.478  20.311  15.986  1.00  0.00     0.287 C 
HETATM   18  N3  UNL     1      12.822  20.105  14.674  1.00  0.00     0.099 N 
HETATM   19  C18 UNL     1      13.791  20.372  13.638  1.00  0.00     0.287 C 
HETATM   20  C19 UNL     1      14.594  21.604  13.754  1.00  0.00     0.125 C 
BRANCH  18  21
HETATM   21  C9  UNL     1      11.655  20.899  14.524  1.00  0.00     0.371 C 
BRANCH  21  22
HETATM   22  C10 UNL     1      10.488  20.464  15.337  1.00  0.00     0.217 C 
BRANCH  22  23
HETATM   23  O2  UNL     1       9.665  21.436  15.636  1.00  0.00    -0.338 OA
ATOM     24  H2  UNL     1       8.935  21.164  16.179  1.00  0.00     0.220 HD
ENDBRANCH  22  23
BRANCH  22  25
HETATM   25  N4  UNL     1      10.206  19.249  15.757  1.00  0.00    -0.400 NA
BRANCH  25  26
HETATM   26  C11 UNL     1       9.975  18.150  16.136  1.00  0.00     0.158 C 
BRANCH  26  27
HETATM   27  C12 UNL     1      10.815  17.355  17.102  1.00  0.00     0.062 C 
BRANCH  27  28
HETATM   28  C13 UNL     1      10.744  17.847  18.493  1.00  0.00     0.040 C 
BRANCH  28  29
HETATM   29  C14 UNL     1      12.117  18.070  19.120  1.00  0.00     0.147 C 
HETATM   30  C15 UNL     1      12.192  17.594  20.548  1.00  0.00     0.264 C 
HETATM   31  N5  UNL     1      12.556  18.625  21.486  1.00  0.00    -0.071 N 
HETATM   32  C16 UNL     1      13.724  19.343  21.048  1.00  0.00     0.258 C 
ATOM     33  H52 UNL     1      11.776  19.255  21.669  1.00  0.00     0.277 HD
ATOM     34  H51 UNL     1      12.678  18.249  22.426  1.00  0.00     0.277 HD
HETATM   35  C17 UNL     1      13.614  19.744  19.597  1.00  0.00     0.195 C 
HETATM   36  O3  UNL     1      12.358  19.455  19.057  1.00  0.00    -0.383 OA
ENDBRANCH  28  29
ENDBRANCH  27  28
ENDBRANCH  26  27
ENDBRANCH  25  26
ENDBRANCH  22  25
ENDBRANCH  21  22
ENDBRANCH  18  21
ENDBRANCH  14  15
ENDBRANCH   6  14
BRANCH   9  37
HETATM   37  C22 UNL     1      18.464  23.234  20.012  1.00  0.00     0.066 C 
BRANCH  37  38
HETATM   38  C23 UNL     1      19.679  22.345  20.134  1.00  0.00     0.089 C 
BRANCH  38  39
HETATM   39  C24 UNL     1      20.866  22.827  20.841  1.00  0.00     0.068 C 
BRANCH  39  40
HETATM   40  N7  UNL     1      21.770  23.711  20.312  1.00  0.00    -0.374 N 
HETATM   41  C25 UNL     1      22.377  24.645  21.239  1.00  0.00     0.127 C 
HETATM   42  C26 UNL     1      23.866  24.668  21.139  1.00  0.00     0.021 C 
HETATM   43  C27 UNL     1      24.398  24.637  19.737  1.00  0.00     0.007 C 
HETATM   44  C28 UNL     1      23.738  23.467  19.003  1.00  0.00     0.044 C 
HETATM   45  C29 UNL     1      22.245  23.793  19.012  1.00  0.00     0.063 C 
ENDBRANCH  39  40
ENDBRANCH  38  39
ENDBRANCH  37  38
ENDBRANCH   9  37
BRANCH   1  46
HETATM   46  O1  UNL     1      20.470  28.382  14.870  1.00  0.00    -0.353 OA
HETATM   47  C1  UNL     1      21.376  28.052  13.835  1.00  0.00     0.210 C 
ENDBRANCH   1  46
BRANCH  13  48
HETATM   48  O4  UNL     1      21.408  27.704  17.342  1.00  0.00    -0.353 OA
HETATM   49  C33 UNL     1      22.727  27.260  17.442  1.00  0.00     0.210 C 
ENDBRANCH  13  48
TORSDOF 16
ENDMDL
MODEL 2
REMARK VINA RESULT: -8.798178736      1.095      1.354
REMARK  16 active torsions:
REMARK  status: ('A' for Active; 'I' for Inactive)
REMARK    1  A    between atoms: O1_2  and  C2_3 
REMARK    2  A    between atoms: C5_8  and  C6_9 
REMARK    3  A    between atoms: C6_9  and  N2_10 
REMARK    4  A    between atoms: N3_13  and  C9_14 
REMARK    5  A    between atoms: C9_14  and  C10_15 
REMARK    6  A    between atoms: C10_15  and  O2_16 
REMARK    7  A    between atoms: C10_15  and  N4_18 
REMARK    8  A    between atoms: N4_18  and  C11_19 
REMARK    9  A    between atoms: C11_19  and  C12_20 
REMARK   10  A    between atoms: C12_20  and  C13_21 
REMARK   11  A    between atoms: C13_21  and  C14_22 
REMARK   12  A    between atoms: N6_34  and  C22_36 
REMARK   13  A    between atoms: C22_36  and  C23_37 
REMARK   14  A    between atoms: C23_37  and  C24_38 
REMARK   15  A    between atoms: C24_38  and  N7_39 
REMARK   16  A    between atoms: C32_47  and  O4_48 
ROOT
HETATM    1  C2  UNL     1      19.547  26.914  15.774  1.00  0.00     0.103 A 
HETATM    2  C3  UNL     1      18.670  26.033  15.219  1.00  0.00     0.070 A 
HETATM    3  C4  UNL     1      18.293  24.819  15.820  1.00  0.00     0.048 A 
HETATM    4  N1  UNL     1      17.396  24.034  15.217  1.00  0.00    -0.355 N 
ATOM      5  H1  UNL     1      17.022  24.321  14.312  1.00  0.00     0.166 HD
HETATM    6  C5  UNL     1      16.961  22.858  15.770  1.00  0.00     0.045 A 
HETATM    7  C20 UNL     1      17.495  22.543  16.967  1.00  0.00     0.060 A 
HETATM    8  C21 UNL     1      18.445  23.322  17.665  1.00  0.00     0.046 A 
HETATM    9  N6  UNL     1      18.916  23.117  18.768  1.00  0.00    -0.368 N 
ATOM     10  H6  UNL     1      19.560  23.895  18.916  1.00  0.00     0.165 HD
HETATM   11  C30 UNL     1      18.845  24.523  17.029  1.00  0.00     0.020 A 
HETATM   12  C31 UNL     1      19.737  25.385  17.633  1.00  0.00     0.055 A 
HETATM   13  C32 UNL     1      20.094  26.576  17.015  1.00  0.00     0.102 A 
ENDROOT
BRANCH   6  14
HETATM   14  C6  UNL     1      15.900  22.132  15.100  1.00  0.00     0.089 C 
BRANCH  14  15
HETATM   15  N2  UNL     1      14.528  22.385  15.405  1.00  0.00    -0.287 NA
HETATM   16  C7  UNL     1      13.898  22.235  14.036  1.00  0.00     0.125 C 
HETATM   17  C8  UNL     1      12.407  22.251  14.102  1.00  0.00     0.287 C 
HETATM   18  N3  UNL     1      11.934  21.051  14.831  1.00  0.00     0.099 N 
HETATM   19  C18 UNL     1      12.551  21.043  16.136  1.00  0.00     0.287 C 
HETATM   20  C19 UNL     1      14.002  21.291  16.209  1.00  0.00     0.125 C 
BRANCH  18  21
HETATM   21  C9  UNL     1      12.191  19.851  14.117  1.00  0.00     0.371 C 
BRANCH  21  22
HETATM   22  C10 UNL     1      11.102  18.840  14.169  1.00  0.00     0.217 C 
BRANCH  22  23
HETATM   23  O2  UNL     1      10.442  18.721  13.046  1.00  0.00    -0.338 OA
ATOM     24  H2  UNL     1       9.602  18.288  13.141  1.00  0.00     0.220 HD
ENDBRANCH  22  23
BRANCH  22  25
HETATM   25  N4  UNL     1      10.758  18.079  15.186  1.00  0.00    -0.400 NA
BRANCH  25  26
HETATM   26  C11 UNL     1      10.435  17.410  16.109  1.00  0.00     0.158 C 
BRANCH  26  27
HETATM   27  C12 UNL     1      10.693  17.725  17.560  1.00  0.00     0.062 C 
BRANCH  27  28
HETATM   28  C13 UNL     1      11.493  16.698  18.257  1.00  0.00     0.040 C 
BRANCH  28  29
HETATM   29  C14 UNL     1      12.619  17.287  19.100  1.00  0.00     0.147 C 
HETATM   30  C15 UNL     1      12.293  17.320  20.572  1.00  0.00     0.264 C 
HETATM   31  N5  UNL     1      12.342  18.640  21.147  1.00  0.00    -0.071 N 
HETATM   32  C16 UNL     1      13.567  19.316  20.805  1.00  0.00     0.258 C 
ATOM     33  H52 UNL     1      11.526  19.192  20.887  1.00  0.00     0.277 HD
ATOM     34  H51 UNL     1      12.199  18.613  22.156  1.00  0.00     0.277 HD
HETATM   35  C17 UNL     1      13.868  19.199  19.331  1.00  0.00     0.195 C 
HETATM   36  O3  UNL     1      12.830  18.593  18.620  1.00  0.00    -0.383 OA
ENDBRANCH  28  29
ENDBRANCH  27  28
ENDBRANCH  26  27
ENDBRANCH  25  26
ENDBRANCH  22  25
ENDBRANCH  21  22
ENDBRANCH  18  21
ENDBRANCH  14  15
ENDBRANCH   6  14
BRANCH   9  37
HETATM   37  C22 UNL     1      19.022  22.359  19.928  1.00  0.00     0.066 C 
BRANCH  37  38
HETATM   38  C23 UNL     1      20.376  22.585  20.558  1.00  0.00     0.089 C 
BRANCH  38  39
HETATM   39  C24 UNL     1      21.535  22.868  19.711  1.00  0.00     0.068 C 
BRANCH  39  40
HETATM   40  N7  UNL     1      22.486  23.811  19.999  1.00  0.00    -0.374 N 
HETATM   41  C25 UNL     1      22.350  24.497  21.268  1.00  0.00     0.127 C 
HETATM   42  C26 UNL     1      23.612  24.486  22.065  1.00  0.00     0.021 C 
HETATM   43  C27 UNL     1      24.856  24.743  21.266  1.00  0.00     0.007 C 
HETATM   44  C28 UNL     1      24.861  23.787  20.071  1.00  0.00     0.044 C 
HETATM   45  C29 UNL     1      23.613  24.158  19.270  1.00  0.00     0.063 C 
ENDBRANCH  39  40
ENDBRANCH  38  39
ENDBRANCH  37  38
ENDBRANCH   9  37
BRANCH   1  46
HETATM   46  O1  UNL     1      19.903  28.127  15.140  1.00  0.00    -0.353 OA
HETATM   47  C1  UNL     1      20.892  28.062  14.131  1.00  0.00     0.210 C 
ENDBRANCH   1  46
BRANCH  13  48
HETATM   48  O4  UNL     1      20.983  27.491  17.565  1.00  0.00    -0.353 OA
HETATM   49  C33 UNL     1      22.360  27.298  17.677  1.00  0.00     0.210 C 
ENDBRANCH  13  48
TORSDOF 16
ENDMDL
MODEL 3
REMARK VINA RESULT: -8.775628656      2.054     10.798
REMARK  16 active torsions:
REMARK  status: ('A' for Active; 'I' for Inactive)
REMARK    1  A    between atoms: O1_2  and  C2_3 
REMARK    2  A    between atoms: C5_8  and  C6_9 
REMARK    3  A    between atoms: C6_9  and  N2_10 
REMARK    4  A    between atoms: N3_13  and  C9_14 
REMARK    5  A    between atoms: C9_14  and  C10_15 
REMARK    6  A    between atoms: C10_15  and  O2_16 
REMARK    7  A    between atoms: C10_15  and  N4_18 
REMARK    8  A    between atoms: N4_18  and  C11_19 
REMARK    9  A    between atoms: C11_19  and  C12_20 
REMARK   10  A    between atoms: C12_20  and  C13_21 
REMARK   11  A    between atoms: C13_21  and  C14_22 
REMARK   12  A    between atoms: N6_34  and  C22_36 
REMARK   13  A    between atoms: C22_36  and  C23_37 
REMARK   14  A    between atoms: C23_37  and  C24_38 
REMARK   15  A    between atoms: C24_38  and  N7_39 
REMARK   16  A    between atoms: C32_47  and  O4_48 
ROOT
HETATM    1  C2  UNL     1      14.207  21.463  14.689  1.00  0.00     0.103 A 
HETATM    2  C3  UNL     1      15.362  21.668  15.378  1.00  0.00     0.070 A 
HETATM    3  C4  UNL     1      15.539  21.323  16.731  1.00  0.00     0.048 A 
HETATM    4  N1  UNL     1      16.721  21.528  17.315  1.00  0.00    -0.355 N 
ATOM      5  H1  UNL     1      17.470  21.959  16.773  1.00  0.00     0.166 HD
HETATM    6  C5  UNL     1      16.966  21.178  18.619  1.00  0.00     0.045 A 
HETATM    7  C20 UNL     1      15.934  20.610  19.274  1.00  0.00     0.060 A 
HETATM    8  C21 UNL     1      14.658  20.361  18.722  1.00  0.00     0.046 A 
HETATM    9  N6  UNL     1      13.711  19.803  19.246  1.00  0.00    -0.368 N 
ATOM     10  H6  UNL     1      12.981  19.822  18.533  1.00  0.00     0.165 HD
HETATM   11  C30 UNL     1      14.483  20.749  17.371  1.00  0.00     0.020 A 
HETATM   12  C31 UNL     1      13.292  20.520  16.714  1.00  0.00     0.055 A 
HETATM   13  C32 UNL     1      13.144  20.874  15.379  1.00  0.00     0.102 A 
ENDROOT
BRANCH   6  14
HETATM   14  C6  UNL     1      18.314  21.330  19.132  1.00  0.00     0.089 C 
BRANCH  14  15
HETATM   15  N2  UNL     1      18.628  22.350  20.081  1.00  0.00    -0.287 NA
HETATM   16  C7  UNL     1      20.138  22.400  19.957  1.00  0.00     0.125 C 
HETATM   17  C8  UNL     1      20.722  23.548  20.709  1.00  0.00     0.287 C 
HETATM   18  N3  UNL     1      20.284  24.819  20.087  1.00  0.00     0.099 N 
HETATM   19  C18 UNL     1      18.840  24.840  20.070  1.00  0.00     0.287 C 
HETATM   20  C19 UNL     1      18.144  23.632  19.590  1.00  0.00     0.125 C 
BRANCH  18  21
HETATM   21  C9  UNL     1      20.830  24.999  18.790  1.00  0.00     0.371 C 
BRANCH  21  22
HETATM   22  C10 UNL     1      20.212  26.091  17.991  1.00  0.00     0.217 C 
BRANCH  22  23
HETATM   23  O2  UNL     1      20.615  27.286  18.333  1.00  0.00    -0.338 OA
ATOM     24  H2  UNL     1      21.026  27.768  17.625  1.00  0.00     0.220 HD
ENDBRANCH  22  23
BRANCH  22  25
HETATM   25  N4  UNL     1      19.344  25.976  17.008  1.00  0.00    -0.400 NA
BRANCH  25  26
HETATM   26  C11 UNL     1      18.567  25.851  16.122  1.00  0.00     0.158 C 
BRANCH  26  27
HETATM   27  C12 UNL     1      18.817  26.185  14.674  1.00  0.00     0.062 C 
BRANCH  27  28
HETATM   28  C13 UNL     1      19.179  27.599  14.446  1.00  0.00     0.040 C 
BRANCH  28  29
HETATM   29  C14 UNL     1      20.685  27.836  14.427  1.00  0.00     0.147 C 
HETATM   30  C15 UNL     1      21.480  26.555  14.421  1.00  0.00     0.264 C 
HETATM   31  N5  UNL     1      22.388  26.429  15.532  1.00  0.00    -0.071 N 
HETATM   32  C16 UNL     1      23.192  27.613  15.688  1.00  0.00     0.258 C 
ATOM     33  H52 UNL     1      21.895  26.196  16.394  1.00  0.00     0.277 HD
ATOM     34  H51 UNL     1      22.966  25.593  15.451  1.00  0.00     0.277 HD
HETATM   35  C17 UNL     1      22.349  28.864  15.629  1.00  0.00     0.195 C 
HETATM   36  O3  UNL     1      20.981  28.585  15.581  1.00  0.00    -0.383 OA
ENDBRANCH  28  29
ENDBRANCH  27  28
ENDBRANCH  26  27
ENDBRANCH  25  26
ENDBRANCH  22  25
ENDBRANCH  21  22
ENDBRANCH  18  21
ENDBRANCH  14  15
ENDBRANCH   6  14
BRANCH   9  37
HETATM   37  C22 UNL     1      13.123  19.153  20.324  1.00  0.00     0.066 C 
BRANCH  37  38
HETATM   38  C23 UNL     1      11.853  18.471  19.871  1.00  0.00     0.089 C 
BRANCH  38  39
HETATM   39  C24 UNL     1      11.918  17.384  18.894  1.00  0.00     0.068 C 
BRANCH  39  40
HETATM   40  N7  UNL     1      10.907  17.069  18.025  1.00  0.00    -0.374 N 
HETATM   41  C25 UNL     1      10.474  18.124  17.131  1.00  0.00     0.127 C 
HETATM   42  C26 UNL     1      10.433  17.687  15.703  1.00  0.00     0.021 C 
HETATM   43  C27 UNL     1       9.863  16.316  15.488  1.00  0.00     0.007 C 
HETATM   44  C28 UNL     1      10.592  15.345  16.420  1.00  0.00     0.044 C 
HETATM   45  C29 UNL     1      10.279  15.849  17.829  1.00  0.00     0.063 C 
ENDBRANCH  39  40
ENDBRANCH  38  39
ENDBRANCH  37  38
ENDBRANCH   9  37
BRANCH   1  46
HETATM   46  O1  UNL     1      14.067  21.822  13.328  1.00  0.00    -0.353 OA
HETATM   47  C1  UNL     1      15.211  21.696  12.505  1.00  0.00     0.210 C 
ENDBRANCH   1  46
BRANCH  13  48
HETATM   48  O4  UNL     1      11.978  20.670  14.653  1.00  0.00    -0.353 OA
HETATM   49  C33 UNL     1      10.779  21.356  14.860  1.00  0.00     0.210 C 
ENDBRANCH  13  48
TORSDOF 16
ENDMDL
MODEL 4
REMARK VINA RESULT: -8.730740355      2.207     11.767
REMARK  16 active torsions:
REMARK  status: ('A' for Active; 'I' for Inactive)
REMARK    1  A    between atoms: O1_2  and  C2_3 
REMARK    2  A    between atoms: C5_8  and  C6_9 
REMARK    3  A    between atoms: C6_9  and  N2_10 
REMARK    4  A    between atoms: N3_13  and  C9_14 
REMARK    5  A    between atoms: C9_14  and  C10_15 
REMARK    6  A    between atoms: C10_15  and  O2_16 
REMARK    7  A    between atoms: C10_15  and  N4_18 
REMARK    8  A    between atoms: N4_18  and  C11_19 
REMARK    9  A    between atoms: C11_19  and  C12_20 
REMARK   10  A    between atoms: C12_20  and  C13_21 
REMARK   11  A    between atoms: C13_21  and  C14_22 
REMARK   12  A    between atoms: N6_34  and  C22_36 
REMARK   13  A    between atoms: C22_36  and  C23_37 
REMARK   14  A    between atoms: C23_37  and  C24_38 
REMARK   15  A    between atoms: C24_38  and  N7_39 
REMARK   16  A    between atoms: C32_47  and  O4_48 
ROOT
HETATM    1  C2  UNL     1      12.461  19.190  19.668  1.00  0.00     0.103 A 
HETATM    2  C3  UNL     1      13.717  19.704  19.754  1.00  0.00     0.070 A 
HETATM    3  C4  UNL     1      14.428  20.224  18.657  1.00  0.00     0.048 A 
HETATM    4  N1  UNL     1      15.644  20.742  18.843  1.00  0.00    -0.355 N 
ATOM      5  H1  UNL     1      16.047  20.725  19.780  1.00  0.00     0.166 HD
HETATM    6  C5  UNL     1      16.370  21.298  17.821  1.00  0.00     0.045 A 
HETATM    7  C20 UNL     1      15.774  21.289  16.612  1.00  0.00     0.060 A 
HETATM    8  C21 UNL     1      14.493  20.762  16.339  1.00  0.00     0.046 A 
HETATM    9  N6  UNL     1      13.885  20.778  15.284  1.00  0.00    -0.368 N 
ATOM     10  H6  UNL     1      13.008  20.300  15.491  1.00  0.00     0.165 HD
HETATM   11  C30 UNL     1      13.806  20.206  17.445  1.00  0.00     0.020 A 
HETATM   12  C31 UNL     1      12.531  19.696  17.308  1.00  0.00     0.055 A 
HETATM   13  C32 UNL     1      11.854  19.186  18.409  1.00  0.00     0.102 A 
ENDROOT
BRANCH   6  14
HETATM   14  C6  UNL     1      17.629  21.941  18.140  1.00  0.00     0.089 C 
BRANCH  14  15
HETATM   15  N2  UNL     1      18.005  22.193  19.495  1.00  0.00    -0.287 NA
HETATM   16  C7  UNL     1      19.511  22.282  19.362  1.00  0.00     0.125 C 
HETATM   17  C8  UNL     1      20.156  22.750  20.623  1.00  0.00     0.287 C 
HETATM   18  N3  UNL     1      19.752  24.148  20.894  1.00  0.00     0.099 N 
HETATM   19  C18 UNL     1      18.310  24.199  20.953  1.00  0.00     0.287 C 
HETATM   20  C19 UNL     1      17.558  23.524  19.880  1.00  0.00     0.125 C 
BRANCH  18  21
HETATM   21  C9  UNL     1      20.274  25.055  19.935  1.00  0.00     0.371 C 
BRANCH  21  22
HETATM   22  C10 UNL     1      21.715  25.387  20.100  1.00  0.00     0.217 C 
BRANCH  22  23
HETATM   23  O2  UNL     1      22.112  25.402  21.346  1.00  0.00    -0.338 OA
ATOM     24  H2  UNL     1      22.127  26.271  21.731  1.00  0.00     0.220 HD
ENDBRANCH  22  23
BRANCH  22  25
HETATM   25  N4  UNL     1      22.594  25.646  19.155  1.00  0.00    -0.400 NA
BRANCH  25  26
HETATM   26  C11 UNL     1      23.376  25.899  18.301  1.00  0.00     0.158 C 
BRANCH  26  27
HETATM   27  C12 UNL     1      23.398  27.155  17.469  1.00  0.00     0.062 C 
BRANCH  27  28
HETATM   28  C13 UNL     1      22.059  27.726  17.221  1.00  0.00     0.040 C 
BRANCH  28  29
HETATM   29  C14 UNL     1      21.317  27.039  16.080  1.00  0.00     0.147 C 
HETATM   30  C15 UNL     1      21.126  27.935  14.882  1.00  0.00     0.264 C 
HETATM   31  N5  UNL     1      19.747  28.124  14.512  1.00  0.00    -0.071 N 
HETATM   32  C16 UNL     1      19.054  26.866  14.416  1.00  0.00     0.258 C 
ATOM     33  H52 UNL     1      19.273  28.764  15.148  1.00  0.00     0.277 HD
ATOM     34  H51 UNL     1      19.661  28.665  13.652  1.00  0.00     0.277 HD
HETATM   35  C17 UNL     1      19.328  25.991  15.615  1.00  0.00     0.195 C 
HETATM   36  O3  UNL     1      20.068  26.650  16.599  1.00  0.00    -0.383 OA
ENDBRANCH  28  29
ENDBRANCH  27  28
ENDBRANCH  26  27
ENDBRANCH  25  26
ENDBRANCH  22  25
ENDBRANCH  21  22
ENDBRANCH  18  21
ENDBRANCH  14  15
ENDBRANCH   6  14
BRANCH   9  37
HETATM   37  C22 UNL     1      13.783  21.117  13.940  1.00  0.00     0.066 C 
BRANCH  37  38
HETATM   38  C23 UNL     1      13.139  19.982  13.180  1.00  0.00     0.089 C 
BRANCH  38  39
HETATM   39  C24 UNL     1      11.996  19.274  13.758  1.00  0.00     0.068 C 
BRANCH  39  40
HETATM   40  N7  UNL     1      11.491  18.099  13.266  1.00  0.00    -0.374 N 
HETATM   41  C25 UNL     1      12.167  17.539  12.113  1.00  0.00     0.127 C 
HETATM   42  C26 UNL     1      12.522  16.101  12.297  1.00  0.00     0.021 C 
HETATM   43  C27 UNL     1      11.452  15.273  12.945  1.00  0.00     0.007 C 
HETATM   44  C28 UNL     1      11.014  15.980  14.230  1.00  0.00     0.044 C 
HETATM   45  C29 UNL     1      10.455  17.324  13.763  1.00  0.00     0.063 C 
ENDBRANCH  39  40
ENDBRANCH  38  39
ENDBRANCH  37  38
ENDBRANCH   9  37
BRANCH   1  46
HETATM   46  O1  UNL     1      11.776  18.676  20.794  1.00  0.00    -0.353 OA
HETATM   47  C1  UNL     1      12.279  17.483  21.366  1.00  0.00     0.210 C 
ENDBRANCH   1  46
BRANCH  13  48
HETATM   48  O4  UNL     1      10.570  18.661  18.346  1.00  0.00    -0.353 OA
HETATM   49  C33 UNL     1      10.258  17.361  17.945  1.00  0.00     0.210 C 
ENDBRANCH  13  48
TORSDOF 16
ENDMDL
MODEL 5
REMARK VINA RESULT: -8.647247851      2.110      4.033
REMARK  16 active torsions:
REMARK  status: ('A' for Active; 'I' for Inactive)
REMARK    1  A    between atoms: O1_2  and  C2_3 
REMARK    2  A    between atoms: C5_8  and  C6_9 
REMARK    3  A    between atoms: C6_9  and  N2_10 
REMARK    4  A    between atoms: N3_13  and  C9_14 
REMARK    5  A    between atoms: C9_14  and  C10_15 
REMARK    6  A    between atoms: C10_15  and  O2_16 
REMARK    7  A    between atoms: C10_15  and  N4_18 
REMARK    8  A    between atoms: N4_18  and  C11_19 
REMARK    9  A    between atoms: C11_19  and  C12_20 
REMARK   10  A    between atoms: C12_20  and  C13_21 
REMARK   11  A    between atoms: C13_21  and  C14_22 
REMARK   12  A    between atoms: N6_34  and  C22_36 
REMARK   13  A    between atoms: C22_36  and  C23_37 
REMARK   14  A    between atoms: C23_37  and  C24_38 
REMARK   15  A    between atoms: C24_38  and  N7_39 
REMARK   16  A    between atoms: C32_47  and  O4_48 
ROOT
HETATM    1  C2  UNL     1      20.452  24.185  19.533  1.00  0.00     0.103 A 
HETATM    2  C3  UNL     1      19.305  23.842  18.887  1.00  0.00     0.070 A 
HETATM    3  C4  UNL     1      18.843  24.477  17.719  1.00  0.00     0.048 A 
HETATM    4  N1  UNL     1      17.724  24.047  17.132  1.00  0.00    -0.355 N 
ATOM      5  H1  UNL     1      17.208  23.279  17.561  1.00  0.00     0.166 HD
HETATM    6  C5  UNL     1      17.245  24.600  15.973  1.00  0.00     0.045 A 
HETATM    7  C20 UNL     1      17.979  25.608  15.460  1.00  0.00     0.060 A 
HETATM    8  C21 UNL     1      19.171  26.114  16.023  1.00  0.00     0.046 A 
HETATM    9  N6  UNL     1      19.902  26.979  15.576  1.00  0.00    -0.368 N 
ATOM     10  H6  UNL     1      20.648  27.061  16.267  1.00  0.00     0.165 HD
HETATM   11  C30 UNL     1      19.602  25.491  17.219  1.00  0.00     0.020 A 
HETATM   12  C31 UNL     1      20.774  25.874  17.839  1.00  0.00     0.055 A 
HETATM   13  C32 UNL     1      21.204  25.231  18.992  1.00  0.00     0.102 A 
ENDROOT
BRANCH   6  14
HETATM   14  C6  UNL     1      16.088  23.991  15.345  1.00  0.00     0.089 C 
BRANCH  14  15
HETATM   15  N2  UNL     1      15.772  22.615  15.563  1.00  0.00    -0.287 NA
HETATM   16  C7  UNL     1      14.522  22.739  16.410  1.00  0.00     0.125 C 
HETATM   17  C8  UNL     1      13.854  21.422  16.615  1.00  0.00     0.287 C 
HETATM   18  N3  UNL     1      13.341  20.923  15.319  1.00  0.00     0.099 N 
HETATM   19  C18 UNL     1      14.446  20.849  14.393  1.00  0.00     0.287 C 
HETATM   20  C19 UNL     1      15.345  22.014  14.307  1.00  0.00     0.125 C 
BRANCH  18  21
HETATM   21  C9  UNL     1      12.282  21.722  14.815  1.00  0.00     0.371 C 
BRANCH  21  22
HETATM   22  C10 UNL     1      10.938  21.085  14.849  1.00  0.00     0.217 C 
BRANCH  22  23
HETATM   23  O2  UNL     1      10.076  21.633  14.033  1.00  0.00    -0.338 OA
ATOM     24  H2  UNL     1       9.329  22.022  14.472  1.00  0.00     0.220 HD
ENDBRANCH  22  23
BRANCH  22  25
HETATM   25  N4  UNL     1      10.551  20.061  15.580  1.00  0.00    -0.400 NA
BRANCH  25  26
HETATM   26  C11 UNL     1      10.207  19.125  16.220  1.00  0.00     0.158 C 
BRANCH  26  27
HETATM   27  C12 UNL     1      10.537  18.879  17.670  1.00  0.00     0.062 C 
BRANCH  27  28
HETATM   28  C13 UNL     1      11.337  17.659  17.897  1.00  0.00     0.040 C 
BRANCH  28  29
HETATM   29  C14 UNL     1      12.499  17.875  18.861  1.00  0.00     0.147 C 
HETATM   30  C15 UNL     1      12.206  17.371  20.252  1.00  0.00     0.264 C 
HETATM   31  N5  UNL     1      12.306  18.385  21.270  1.00  0.00    -0.071 N 
HETATM   32  C16 UNL     1      13.541  19.116  21.163  1.00  0.00     0.258 C 
ATOM     33  H52 UNL     1      11.499  19.008  21.257  1.00  0.00     0.277 HD
ATOM     34  H51 UNL     1      12.184  17.991  22.203  1.00  0.00     0.277 HD
HETATM   35  C17 UNL     1      13.806  19.545  19.740  1.00  0.00     0.195 C 
HETATM   36  O3  UNL     1      12.736  19.262  18.888  1.00  0.00    -0.383 OA
ENDBRANCH  28  29
ENDBRANCH  27  28
ENDBRANCH  26  27
ENDBRANCH  25  26
ENDBRANCH  22  25
ENDBRANCH  21  22
ENDBRANCH  18  21
ENDBRANCH  14  15
ENDBRANCH   6  14
BRANCH   9  37
HETATM   37  C22 UNL     1      20.233  27.911  14.600  1.00  0.00     0.066 C 
BRANCH  37  38
HETATM   38  C23 UNL     1      21.732  28.103  14.573  1.00  0.00     0.089 C 
BRANCH  38  39
HETATM   39  C24 UNL     1      22.397  28.801  15.673  1.00  0.00     0.068 C 
BRANCH  39  40
HETATM   40  N7  UNL     1      23.681  28.549  16.079  1.00  0.00    -0.374 N 
HETATM   41  C25 UNL     1      23.986  27.179  16.438  1.00  0.00     0.127 C 
HETATM   42  C26 UNL     1      25.208  26.664  15.752  1.00  0.00     0.021 C 
HETATM   43  C27 UNL     1      26.348  27.637  15.694  1.00  0.00     0.007 C 
HETATM   44  C28 UNL     1      25.819  28.957  15.126  1.00  0.00     0.044 C 
HETATM   45  C29 UNL     1      24.761  29.417  16.130  1.00  0.00     0.063 C 
ENDBRANCH  39  40
ENDBRANCH  38  39
ENDBRANCH  37  38
ENDBRANCH   9  37
BRANCH   1  46
HETATM   46  O1  UNL     1      20.885  23.523  20.706  1.00  0.00    -0.353 OA
HETATM   47  C1  UNL     1      20.273  22.284  21.011  1.00  0.00     0.210 C 
ENDBRANCH   1  46
BRANCH  13  48
HETATM   48  O4  UNL     1      22.373  25.561  19.667  1.00  0.00    -0.353 OA
HETATM   49  C33 UNL     1      23.616  24.967  19.446  1.00  0.00     0.210 C 
ENDBRANCH  13  48
TORSDOF 16
ENDMDL
