MODEL 1
REMARK VINA RESULT: -8.842159319      0.000      0.000
REMARK  13 active torsions:
REMARK  status: ('A' for Active; 'I' for Inactive)
REMARK    1  A    between atoms: C2_2  and  C3_3 
REMARK    2  A    between atoms: C3_3  and  C4_4 
REMARK    3  A    between atoms: C4_4  and  C5_6 
REMARK    4  A    between atoms: C5_6  and  C6_7 
REMARK    5  A    between atoms: C6_7  and  N1_8 
REMARK    6  A    between atoms: C9_11  and  C10_12 
REMARK    7  A    between atoms: C10_12  and  S1_13 
REMARK    8  A    between atoms: S1_13  and  N2_16 
REMARK       I    between atoms: N2_16  and  C11_18 
REMARK       I    between atoms: C11_18  and  N3_20 
REMARK    9  A    between atoms: N3_20  and  C12_22 
REMARK   10  A    between atoms: N5_26  and  C14_27 
REMARK   11  A    between atoms: C14_27  and  C15_28 
REMARK   12  A    between atoms: C15_28  and  C16_29 
REMARK       I    between atoms: C16_29  and  N6_31 
REMARK   13  A    between atoms: C22_37  and  N7_38 
ROOT
HETATM    1  N2  UNL     1      20.924  25.900  16.278  1.00  0.00    -0.236 N 
ATOM      2  H2  UNL     1      21.674  25.270  15.997  1.00  0.00     0.183 HD
HETATM    3  C11 UNL     1      19.637  25.341  16.473  1.00  0.00     0.334 C 
HETATM    4  O4  UNL     1      18.692  26.055  16.818  1.00  0.00    -0.246 OA
HETATM    5  N3  UNL     1      19.479  23.958  16.259  1.00  0.00    -0.304 N 
ATOM      6  H3  UNL     1      20.305  23.432  15.976  1.00  0.00     0.171 HD
ENDROOT
BRANCH   5   7
HETATM    7  C12 UNL     1      18.267  23.238  16.402  1.00  0.00     0.099 A 
HETATM    8  C13 UNL     1      17.340  22.855  15.461  1.00  0.00     0.141 A 
HETATM    9  N4  UNL     1      16.346  22.184  16.060  1.00  0.00    -0.306 N 
HETATM   10  N5  UNL     1      16.584  22.113  17.355  1.00  0.00    -0.275 N 
ATOM     11  H4  UNL     1      15.532  21.789  15.588  1.00  0.00     0.186 HD
HETATM   12  C22 UNL     1      17.745  22.741  17.614  1.00  0.00     0.149 A 
BRANCH  10  13
HETATM   13  C14 UNL     1      15.783  21.484  18.397  1.00  0.00     0.160 C 
BRANCH  13  14
HETATM   14  C15 UNL     1      15.378  20.072  18.037  1.00  0.00     0.125 C 
BRANCH  14  15
HETATM   15  C16 UNL     1      13.926  20.102  17.692  1.00  0.00     0.221 C 
HETATM   16  O5  UNL     1      13.462  20.972  16.888  1.00  0.00    -0.273 OA
HETATM   17  N6  UNL     1      13.076  19.136  18.281  1.00  0.00    -0.352 N 
HETATM   18  C17 UNL     1      13.642  18.145  19.156  1.00  0.00     0.125 C 
HETATM   19  C21 UNL     1      11.662  19.214  17.986  1.00  0.00     0.125 C 
HETATM   20  C18 UNL     1      12.574  17.530  20.045  1.00  0.00     0.020 C 
HETATM   21  C19 UNL     1      11.550  16.940  19.069  1.00  0.00     0.003 C 
HETATM   22  C20 UNL     1      10.839  18.064  18.408  1.00  0.00     0.020 C 
ENDBRANCH  14  15
ENDBRANCH  13  14
ENDBRANCH  10  13
BRANCH  12  23
HETATM   23  N7  UNL     1      18.396  22.918  18.843  1.00  0.00    -0.364 N 
HETATM   24  C23 UNL     1      18.240  24.050  19.721  1.00  0.00     0.124 C 
HETATM   25  C24 UNL     1      19.593  24.258  20.383  1.00  0.00     0.021 C 
HETATM   26  C25 UNL     1      20.238  22.910  20.282  1.00  0.00     0.021 C 
HETATM   27  C26 UNL     1      19.330  22.024  19.461  1.00  0.00     0.124 C 
ENDBRANCH  12  23
ENDBRANCH   5   7
BRANCH   1  28
HETATM   28  S1  UNL     1      21.316  27.566  16.479  1.00  0.00     0.234 S 
HETATM   29  O2  UNL     1      21.059  27.980  17.866  1.00  0.00    -0.206 OA
HETATM   30  O3  UNL     1      20.405  28.405  15.575  1.00  0.00    -0.206 OA
BRANCH  28  31
HETATM   31  C10 UNL     1      22.994  27.764  15.966  1.00  0.00     0.168 C 
BRANCH  31  32
HETATM   32  C9  UNL     1      23.882  26.592  16.208  1.00  0.00     0.004 C 
HETATM   33  C8  UNL     1      25.268  26.930  15.610  1.00  0.00     0.036 C 
HETATM   34  C7  UNL     1      26.272  26.152  16.431  1.00  0.00     0.272 C 
HETATM   35  N1  UNL     1      26.415  26.849  17.703  1.00  0.00     0.088 N 
HETATM   36  C28 UNL     1      25.117  27.039  18.326  1.00  0.00     0.272 C 
HETATM   37  C27 UNL     1      24.044  26.206  17.637  1.00  0.00     0.036 C 
BRANCH  35  38
HETATM   38  C6  UNL     1      27.318  26.116  18.558  1.00  0.00     0.279 C 
BRANCH  38  39
HETATM   39  C5  UNL     1      27.347  24.641  18.330  1.00  0.00     0.108 C 
BRANCH  39  40
HETATM   40  C4  UNL     1      26.722  23.840  19.410  1.00  0.00     0.128 C 
HETATM   41  O1  UNL     1      26.306  24.441  20.401  1.00  0.00    -0.298 OA
BRANCH  40  42
HETATM   42  C3  UNL     1      26.581  22.381  19.338  1.00  0.00     0.078 C 
BRANCH  42  43
HETATM   43  C2  UNL     1      25.308  22.007  18.576  1.00  0.00     0.003 C 
HETATM   44  C1  UNL     1      25.438  20.534  18.190  1.00  0.00     0.005 C 
ENDBRANCH  42  43
ENDBRANCH  40  42
ENDBRANCH  39  40
ENDBRANCH  38  39
ENDBRANCH  35  38
ENDBRANCH  31  32
ENDBRANCH  28  31
ENDBRANCH   1  28
TORSDOF 13
ENDMDL
MODEL 2
REMARK VINA RESULT: -8.822801048      4.421     13.127
REMARK  13 active torsions:
REMARK  status: ('A' for Active; 'I' for Inactive)
REMARK    1  A    between atoms: C2_2  and  C3_3 
REMARK    2  A    between atoms: C3_3  and  C4_4 
REMARK    3  A    between atoms: C4_4  and  C5_6 
REMARK    4  A    between atoms: C5_6  and  C6_7 
REMARK    5  A    between atoms: C6_7  and  N1_8 
REMARK    6  A    between atoms: C9_11  and  C10_12 
REMARK    7  A    between atoms: C10_12  and  S1_13 
REMARK    8  A    between atoms: S1_13  and  N2_16 
REMARK       I    between atoms: N2_16  and  C11_18 
REMARK       I    between atoms: C11_18  and  N3_20 
REMARK    9  A    between atoms: N3_20  and  C12_22 
REMARK   10  A    between atoms: N5_26  and  C14_27 
REMARK   11  A    between atoms: C14_27  and  C15_28 
REMARK   12  A    between atoms: C15_28  and  C16_29 
REMARK       I    between atoms: C16_29  and  N6_31 
REMARK   13  A    between atoms: C22_37  and  N7_38 
ROOT
HETATM    1  N2  UNL     1      12.647  18.674  17.784  1.00  0.00    -0.236 N 
ATOM      2  H2  UNL     1      12.963  17.838  17.293  1.00  0.00     0.183 HD
HETATM    3  C11 UNL     1      13.532  19.780  17.829  1.00  0.00     0.334 C 
HETATM    4  O4  UNL     1      13.201  20.820  18.404  1.00  0.00    -0.246 OA
HETATM    5  N3  UNL     1      14.786  19.647  17.204  1.00  0.00    -0.304 N 
ATOM      6  H3  UNL     1      14.989  18.758  16.747  1.00  0.00     0.171 HD
ENDROOT
BRANCH   5   7
HETATM    7  C12 UNL     1      15.790  20.646  17.157  1.00  0.00     0.099 A 
HETATM    8  C13 UNL     1      16.892  20.841  17.957  1.00  0.00     0.141 A 
HETATM    9  N4  UNL     1      17.566  21.921  17.534  1.00  0.00    -0.306 N 
HETATM   10  N5  UNL     1      16.950  22.440  16.491  1.00  0.00    -0.275 N 
ATOM     11  H4  UNL     1      18.422  22.284  17.954  1.00  0.00     0.186 HD
HETATM   12  C22 UNL     1      15.860  21.698  16.221  1.00  0.00     0.149 A 
BRANCH  10  13
HETATM   13  C14 UNL     1      17.314  23.612  15.705  1.00  0.00     0.160 C 
BRANCH  13  14
HETATM   14  C15 UNL     1      17.251  24.888  16.513  1.00  0.00     0.125 C 
BRANCH  14  15
HETATM   15  C16 UNL     1      18.631  25.165  17.013  1.00  0.00     0.221 C 
HETATM   16  O5  UNL     1      19.032  24.691  18.124  1.00  0.00    -0.273 OA
HETATM   17  N6  UNL     1      19.483  25.969  16.220  1.00  0.00    -0.352 N 
HETATM   18  C17 UNL     1      19.008  26.457  14.953  1.00  0.00     0.125 C 
HETATM   19  C21 UNL     1      20.795  26.281  16.745  1.00  0.00     0.125 C 
HETATM   20  C18 UNL     1      19.825  27.651  14.488  1.00  0.00     0.020 C 
HETATM   21  C19 UNL     1      21.265  27.130  14.418  1.00  0.00     0.003 C 
HETATM   22  C20 UNL     1      21.745  26.907  15.806  1.00  0.00     0.020 C 
ENDBRANCH  14  15
ENDBRANCH  13  14
ENDBRANCH  10  13
BRANCH  12  23
HETATM   23  N7  UNL     1      14.908  21.867  15.206  1.00  0.00    -0.364 N 
HETATM   24  C23 UNL     1      13.709  22.661  15.304  1.00  0.00     0.124 C 
HETATM   25  C24 UNL     1      12.664  21.949  14.460  1.00  0.00     0.021 C 
HETATM   26  C25 UNL     1      13.484  21.146  13.499  1.00  0.00     0.021 C 
HETATM   27  C26 UNL     1      14.935  21.295  13.893  1.00  0.00     0.124 C 
ENDBRANCH  12  23
ENDBRANCH   5   7
BRANCH   1  28
HETATM   28  S1  UNL     1      11.078  18.636  18.495  1.00  0.00     0.234 S 
HETATM   29  O2  UNL     1      10.269  19.754  17.988  1.00  0.00    -0.206 OA
HETATM   30  O3  UNL     1      11.214  18.820  20.011  1.00  0.00    -0.206 OA
BRANCH  28  31
HETATM   31  C10 UNL     1      10.399  17.042  18.156  1.00  0.00     0.168 C 
BRANCH  31  32
HETATM   32  C9  UNL     1      10.997  16.322  16.997  1.00  0.00     0.004 C 
HETATM   33  C8  UNL     1      10.483  14.864  17.042  1.00  0.00     0.036 C 
HETATM   34  C7  UNL     1      10.473  14.386  15.607  1.00  0.00     0.272 C 
HETATM   35  N1  UNL     1       9.319  14.998  14.961  1.00  0.00     0.088 N 
HETATM   36  C28 UNL     1       9.344  16.439  15.135  1.00  0.00     0.272 C 
HETATM   37  C27 UNL     1      10.694  16.910  15.663  1.00  0.00     0.036 C 
BRANCH  35  38
HETATM   38  C6  UNL     1       9.292  14.627  13.566  1.00  0.00     0.279 C 
BRANCH  38  39
HETATM   39  C5  UNL     1      10.629  14.372  12.954  1.00  0.00     0.108 C 
BRANCH  39  40
HETATM   40  C4  UNL     1      11.143  15.481  12.116  1.00  0.00     0.128 C 
HETATM   41  O1  UNL     1      10.351  16.036  11.353  1.00  0.00    -0.298 OA
BRANCH  40  42
HETATM   42  C3  UNL     1      12.537  15.936  12.166  1.00  0.00     0.078 C 
BRANCH  42  43
HETATM   43  C2  UNL     1      13.346  15.301  11.033  1.00  0.00     0.003 C 
HETATM   44  C1  UNL     1      14.811  15.321  11.467  1.00  0.00     0.005 C 
ENDBRANCH  42  43
ENDBRANCH  40  42
ENDBRANCH  39  40
ENDBRANCH  38  39
ENDBRANCH  35  38
ENDBRANCH  31  32
ENDBRANCH  28  31
ENDBRANCH   1  28
TORSDOF 13
ENDMDL
MODEL 3
REMARK VINA RESULT: -8.750690324      1.167      1.551
REMARK  13 active torsions:
REMARK  status: ('A' for Active; 'I' for Inactive)
REMARK    1  A    between atoms: C2_2  and  C3_3 
REMARK    2  A    between atoms: C3_3  and  C4_4 
REMARK    3  A    between atoms: C4_4  and  C5_6 
REMARK    4  A    between atoms: C5_6  and  C6_7 
REMARK    5  A    between atoms: C6_7  and  N1_8 
REMARK    6  A    between atoms: C9_11  and  C10_12 
REMARK    7  A    between atoms: C10_12  and  S1_13 
REMARK    8  A    between atoms: S1_13  and  N2_16 
REMARK       I    between atoms: N2_16  and  C11_18 
REMARK       I    between atoms: C11_18  and  N3_20 
REMARK    9  A    between atoms: N3_20  and  C12_22 
REMARK   10  A    between atoms: N5_26  and  C14_27 
REMARK   11  A    between atoms: C14_27  and  C15_28 
REMARK   12  A    between atoms: C15_28  and  C16_29 
REMARK       I    between atoms: C16_29  and  N6_31 
REMARK   13  A    between atoms: C22_37  and  N7_38 
ROOT
HETATM    1  N2  UNL     1      21.057  26.067  15.391  1.00  0.00    -0.236 N 
ATOM      2  H2  UNL     1      21.812  25.383  15.432  1.00  0.00     0.183 HD
HETATM    3  C11 UNL     1      19.742  25.606  15.644  1.00  0.00     0.334 C 
HETATM    4  O4  UNL     1      18.789  26.389  15.615  1.00  0.00    -0.246 OA
HETATM    5  N3  UNL     1      19.565  24.237  15.925  1.00  0.00    -0.304 N 
ATOM      6  H3  UNL     1      20.399  23.651  15.935  1.00  0.00     0.171 HD
ENDROOT
BRANCH   5   7
HETATM    7  C12 UNL     1      18.325  23.608  16.196  1.00  0.00     0.099 A 
HETATM    8  C13 UNL     1      17.294  23.269  15.351  1.00  0.00     0.141 A 
HETATM    9  N4  UNL     1      16.313  22.684  16.055  1.00  0.00    -0.306 N 
HETATM   10  N5  UNL     1      16.660  22.628  17.325  1.00  0.00    -0.275 N 
ATOM     11  H4  UNL     1      15.436  22.336  15.667  1.00  0.00     0.186 HD
HETATM   12  C22 UNL     1      17.880  23.179  17.463  1.00  0.00     0.149 A 
BRANCH  10  13
HETATM   13  C14 UNL     1      15.915  22.082  18.452  1.00  0.00     0.160 C 
BRANCH  13  14
HETATM   14  C15 UNL     1      15.736  20.584  18.351  1.00  0.00     0.125 C 
BRANCH  14  15
HETATM   15  C16 UNL     1      14.337  20.334  17.892  1.00  0.00     0.221 C 
HETATM   16  O5  UNL     1      13.933  20.759  16.762  1.00  0.00    -0.273 OA
HETATM   17  N6  UNL     1      13.469  19.612  18.745  1.00  0.00    -0.352 N 
HETATM   18  C17 UNL     1      13.971  19.116  19.998  1.00  0.00     0.125 C 
HETATM   19  C21 UNL     1      12.100  19.431  18.315  1.00  0.00     0.125 C 
HETATM   20  C18 UNL     1      12.834  18.813  20.959  1.00  0.00     0.020 C 
HETATM   21  C19 UNL     1      11.967  17.786  20.222  1.00  0.00     0.003 C 
HETATM   22  C20 UNL     1      11.289  18.476  19.095  1.00  0.00     0.020 C 
ENDBRANCH  14  15
ENDBRANCH  13  14
ENDBRANCH  10  13
BRANCH  12  23
HETATM   23  N7  UNL     1      18.648  23.338  18.625  1.00  0.00    -0.364 N 
HETATM   24  C23 UNL     1      19.604  22.389  19.137  1.00  0.00     0.124 C 
HETATM   25  C24 UNL     1      19.542  22.506  20.651  1.00  0.00     0.021 C 
HETATM   26  C25 UNL     1      19.001  23.885  20.870  1.00  0.00     0.021 C 
HETATM   27  C26 UNL     1      18.638  24.458  19.519  1.00  0.00     0.124 C 
ENDBRANCH  12  23
ENDBRANCH   5   7
BRANCH   1  28
HETATM   28  S1  UNL     1      21.477  27.696  15.020  1.00  0.00     0.234 S 
HETATM   29  O2  UNL     1      20.531  28.619  15.665  1.00  0.00    -0.206 OA
HETATM   30  O3  UNL     1      21.362  27.908  13.506  1.00  0.00    -0.206 OA
BRANCH  28  31
HETATM   31  C10 UNL     1      23.156  27.921  15.518  1.00  0.00     0.168 C 
BRANCH  31  32
HETATM   32  C9  UNL     1      23.918  26.669  15.790  1.00  0.00     0.004 C 
HETATM   33  C8  UNL     1      25.418  26.985  15.579  1.00  0.00     0.036 C 
HETATM   34  C7  UNL     1      26.169  26.041  16.490  1.00  0.00     0.272 C 
HETATM   35  N1  UNL     1      26.033  26.559  17.846  1.00  0.00     0.088 N 
HETATM   36  C28 UNL     1      24.633  26.756  18.176  1.00  0.00     0.272 C 
HETATM   37  C27 UNL     1      23.723  26.093  17.149  1.00  0.00     0.036 C 
BRANCH  35  38
HETATM   38  C6  UNL     1      26.680  25.662  18.774  1.00  0.00     0.279 C 
BRANCH  38  39
HETATM   39  C5  UNL     1      26.824  24.255  18.298  1.00  0.00     0.108 C 
BRANCH  39  40
HETATM   40  C4  UNL     1      25.799  23.321  18.820  1.00  0.00     0.128 C 
HETATM   41  O1  UNL     1      25.611  22.273  18.201  1.00  0.00    -0.298 OA
BRANCH  40  42
HETATM   42  C3  UNL     1      25.017  23.594  20.031  1.00  0.00     0.078 C 
BRANCH  42  43
HETATM   43  C2  UNL     1      23.520  23.479  19.736  1.00  0.00     0.003 C 
HETATM   44  C1  UNL     1      22.806  24.456  20.669  1.00  0.00     0.005 C 
ENDBRANCH  42  43
ENDBRANCH  40  42
ENDBRANCH  39  40
ENDBRANCH  38  39
ENDBRANCH  35  38
ENDBRANCH  31  32
ENDBRANCH  28  31
ENDBRANCH   1  28
TORSDOF 13
ENDMDL
MODEL 4
REMARK VINA RESULT: -8.748077729      4.518     13.014
REMARK  13 active torsions:
REMARK  status: ('A' for Active; 'I' for Inactive)
REMARK    1  A    between atoms: C2_2  and  C3_3 
REMARK    2  A    between atoms: C3_3  and  C4_4 
REMARK    3  A    between atoms: C4_4  and  C5_6 
REMARK    4  A    between atoms: C5_6  and  C6_7 
REMARK    5  A    between atoms: C6_7  and  N1_8 
REMARK    6  A    between atoms: C9_11  and  C10_12 
REMARK    7  A    between atoms: C10_12  and  S1_13 
REMARK    8  A    between atoms: S1_13  and  N2_16 
REMARK       I    between atoms: N2_16  and  C11_18 
REMARK       I    between atoms: C11_18  and  N3_20 
REMARK    9  A    between atoms: N3_20  and  C12_22 
REMARK   10  A    between atoms: N5_26  and  C14_27 
REMARK   11  A    between atoms: C14_27  and  C15_28 
REMARK   12  A    between atoms: C15_28  and  C16_29 
REMARK       I    between atoms: C16_29  and  N6_31 
REMARK   13  A    between atoms: C22_37  and  N7_38 
ROOT
HETATM    1  N2  UNL     1      12.978  18.860  17.753  1.00  0.00    -0.236 N 
ATOM      2  H2  UNL     1      13.408  18.083  17.251  1.00  0.00     0.183 HD
HETATM    3  C11 UNL     1      13.762  20.022  17.956  1.00  0.00     0.334 C 
HETATM    4  O4  UNL     1      13.292  20.996  18.550  1.00  0.00    -0.246 OA
HETATM    5  N3  UNL     1      15.081  20.023  17.461  1.00  0.00    -0.304 N 
ATOM      6  H3  UNL     1      15.399  19.184  16.979  1.00  0.00     0.171 HD
ENDROOT
BRANCH   5   7
HETATM    7  C12 UNL     1      16.001  21.094  17.580  1.00  0.00     0.099 A 
HETATM    8  C13 UNL     1      17.011  21.305  18.488  1.00  0.00     0.141 A 
HETATM    9  N4  UNL     1      17.629  22.463  18.209  1.00  0.00    -0.306 N 
HETATM   10  N5  UNL     1      17.063  23.018  17.155  1.00  0.00    -0.275 N 
ATOM     11  H4  UNL     1      18.415  22.853  18.729  1.00  0.00     0.186 HD
HETATM   12  C22 UNL     1      16.064  22.221  16.734  1.00  0.00     0.149 A 
BRANCH  10  13
HETATM   13  C14 UNL     1      17.396  24.273  16.495  1.00  0.00     0.160 C 
BRANCH  13  14
HETATM   14  C15 UNL     1      18.755  24.232  15.834  1.00  0.00     0.125 C 
BRANCH  14  15
HETATM   15  C16 UNL     1      19.677  25.063  16.664  1.00  0.00     0.221 C 
HETATM   16  O5  UNL     1      19.919  24.760  17.876  1.00  0.00    -0.273 OA
HETATM   17  N6  UNL     1      20.277  26.198  16.068  1.00  0.00    -0.352 N 
HETATM   18  C17 UNL     1      20.009  26.488  14.685  1.00  0.00     0.125 C 
HETATM   19  C21 UNL     1      21.119  27.029  16.901  1.00  0.00     0.125 C 
HETATM   20  C18 UNL     1      20.318  27.940  14.364  1.00  0.00     0.020 C 
HETATM   21  C19 UNL     1      21.798  28.110  14.726  1.00  0.00     0.003 C 
HETATM   22  C20 UNL     1      21.921  28.054  16.206  1.00  0.00     0.020 C 
ENDBRANCH  14  15
ENDBRANCH  13  14
ENDBRANCH  10  13
BRANCH  12  23
HETATM   23  N7  UNL     1      15.190  22.401  15.653  1.00  0.00    -0.364 N 
HETATM   24  C23 UNL     1      13.950  23.135  15.689  1.00  0.00     0.124 C 
HETATM   25  C24 UNL     1      13.012  22.422  14.728  1.00  0.00     0.021 C 
HETATM   26  C25 UNL     1      13.945  21.707  13.800  1.00  0.00     0.021 C 
HETATM   27  C26 UNL     1      15.351  21.900  14.320  1.00  0.00     0.124 C 
ENDBRANCH  12  23
ENDBRANCH   5   7
BRANCH   1  28
HETATM   28  S1  UNL     1      11.353  18.660  18.288  1.00  0.00     0.234 S 
HETATM   29  O2  UNL     1      10.537  19.805  17.859  1.00  0.00    -0.206 OA
HETATM   30  O3  UNL     1      11.333  18.633  19.821  1.00  0.00    -0.206 OA
BRANCH  28  31
HETATM   31  C10 UNL     1      10.794  17.104  17.668  1.00  0.00     0.168 C 
BRANCH  31  32
HETATM   32  C9  UNL     1       9.910  17.171  16.470  1.00  0.00     0.004 C 
HETATM   33  C8  UNL     1      10.742  17.775  15.313  1.00  0.00     0.036 C 
HETATM   34  C7  UNL     1      10.156  17.201  14.043  1.00  0.00     0.272 C 
HETATM   35  N1  UNL     1      10.622  15.824  13.941  1.00  0.00     0.088 N 
HETATM   36  C28 UNL     1      10.308  15.092  15.155  1.00  0.00     0.272 C 
HETATM   37  C27 UNL     1       9.337  15.867  16.035  1.00  0.00     0.036 C 
BRANCH  35  38
HETATM   38  C6  UNL     1      10.043  15.202  12.774  1.00  0.00     0.279 C 
BRANCH  38  39
HETATM   39  C5  UNL     1      11.023  14.566  11.845  1.00  0.00     0.108 C 
BRANCH  39  40
HETATM   40  C4  UNL     1      11.721  15.515  10.945  1.00  0.00     0.128 C 
HETATM   41  O1  UNL     1      11.096  16.503  10.559  1.00  0.00    -0.298 OA
BRANCH  40  42
HETATM   42  C3  UNL     1      13.109  15.322  10.509  1.00  0.00     0.078 C 
BRANCH  42  43
HETATM   43  C2  UNL     1      14.078  15.748  11.614  1.00  0.00     0.003 C 
HETATM   44  C1  UNL     1      15.396  15.019  11.354  1.00  0.00     0.005 C 
ENDBRANCH  42  43
ENDBRANCH  40  42
ENDBRANCH  39  40
ENDBRANCH  38  39
ENDBRANCH  35  38
ENDBRANCH  31  32
ENDBRANCH  28  31
ENDBRANCH   1  28
TORSDOF 13
ENDMDL
MODEL 5
REMARK VINA RESULT: -8.653297056      4.519     13.293
REMARK  13 active torsions:
REMARK  status: ('A' for Active; 'I' for Inactive)
REMARK    1  A    between atoms: C2_2  and  C3_3 
REMARK    2  A    between atoms: C3_3  and  C4_4 
REMARK    3  A    between atoms: C4_4  and  C5_6 
REMARK    4  A    between atoms: C5_6  and  C6_7 
REMARK    5  A    between atoms: C6_7  and  N1_8 
REMARK    6  A    between atoms: C9_11  and  C10_12 
REMARK    7  A    between atoms: C10_12  and  S1_13 
REMARK    8  A    between atoms: S1_13  and  N2_16 
REMARK       I    between atoms: N2_16  and  C11_18 
REMARK       I    between atoms: C11_18  and  N3_20 
REMARK    9  A    between atoms: N3_20  and  C12_22 
REMARK   10  A    between atoms: N5_26  and  C14_27 
REMARK   11  A    between atoms: C14_27  and  C15_28 
REMARK   12  A    between atoms: C15_28  and  C16_29 
REMARK       I    between atoms: C16_29  and  N6_31 
REMARK   13  A    between atoms: C22_37  and  N7_38 
ROOT
HETATM    1  N2  UNL     1      12.153  19.430  18.350  1.00  0.00    -0.236 N 
ATOM      2  H2  UNL     1      11.617  19.560  17.492  1.00  0.00     0.183 HD
HETATM    3  C11 UNL     1      13.232  20.316  18.589  1.00  0.00     0.334 C 
HETATM    4  O4  UNL     1      13.912  20.210  19.613  1.00  0.00    -0.246 OA
HETATM    5  N3  UNL     1      13.497  21.308  17.625  1.00  0.00    -0.304 N 
ATOM      6  H3  UNL     1      12.892  21.336  16.804  1.00  0.00     0.171 HD
ENDROOT
BRANCH   5   7
HETATM    7  C12 UNL     1      14.535  22.269  17.700  1.00  0.00     0.099 A 
HETATM    8  C13 UNL     1      15.221  22.758  18.787  1.00  0.00     0.141 A 
HETATM    9  N4  UNL     1      16.126  23.659  18.376  1.00  0.00    -0.306 N 
HETATM   10  N5  UNL     1      16.059  23.780  17.065  1.00  0.00    -0.275 N 
ATOM     11  H4  UNL     1      16.767  24.170  18.983  1.00  0.00     0.186 HD
HETATM   12  C22 UNL     1      15.103  22.952  16.605  1.00  0.00     0.149 A 
BRANCH  10  13
HETATM   13  C14 UNL     1      16.843  24.637  16.186  1.00  0.00     0.160 C 
BRANCH  13  14
HETATM   14  C15 UNL     1      18.276  24.172  16.059  1.00  0.00     0.125 C 
BRANCH  14  15
HETATM   15  C16 UNL     1      19.109  25.058  16.925  1.00  0.00     0.221 C 
HETATM   16  O5  UNL     1      19.153  24.889  18.185  1.00  0.00    -0.273 OA
HETATM   17  N6  UNL     1      19.851  26.094  16.308  1.00  0.00    -0.352 N 
HETATM   18  C17 UNL     1      19.806  26.232  14.877  1.00  0.00     0.125 C 
HETATM   19  C21 UNL     1      20.605  26.984  17.164  1.00  0.00     0.125 C 
HETATM   20  C18 UNL     1      20.237  27.625  14.450  1.00  0.00     0.020 C 
HETATM   21  C19 UNL     1      21.654  27.781  15.014  1.00  0.00     0.003 C 
HETATM   22  C20 UNL     1      21.555  27.891  16.492  1.00  0.00     0.020 C 
ENDBRANCH  14  15
ENDBRANCH  13  14
ENDBRANCH  10  13
BRANCH  12  23
HETATM   23  N7  UNL     1      14.681  22.742  15.285  1.00  0.00    -0.364 N 
HETATM   24  C23 UNL     1      13.431  23.188  14.721  1.00  0.00     0.124 C 
HETATM   25  C24 UNL     1      13.026  22.128  13.709  1.00  0.00     0.021 C 
HETATM   26  C25 UNL     1      14.325  21.474  13.354  1.00  0.00     0.021 C 
HETATM   27  C26 UNL     1      15.395  22.054  14.250  1.00  0.00     0.124 C 
ENDBRANCH  12  23
ENDBRANCH   5   7
BRANCH   1  28
HETATM   28  S1  UNL     1      11.677  18.149  19.400  1.00  0.00     0.234 S 
HETATM   29  O2  UNL     1      11.220  18.696  20.685  1.00  0.00    -0.206 OA
HETATM   30  O3  UNL     1      12.895  17.262  19.687  1.00  0.00    -0.206 OA
BRANCH  28  31
HETATM   31  C10 UNL     1      10.455  17.208  18.541  1.00  0.00     0.168 C 
BRANCH  31  32
HETATM   32  C9  UNL     1      10.979  16.235  17.541  1.00  0.00     0.004 C 
HETATM   33  C8  UNL     1      10.180  14.921  17.709  1.00  0.00     0.036 C 
HETATM   34  C7  UNL     1      10.180  14.262  16.348  1.00  0.00     0.272 C 
HETATM   35  N1  UNL     1       9.222  14.988  15.523  1.00  0.00     0.088 N 
HETATM   36  C28 UNL     1       9.525  16.408  15.525  1.00  0.00     0.272 C 
HETATM   37  C27 UNL     1      10.899  16.682  16.123  1.00  0.00     0.036 C 
BRANCH  35  38
HETATM   38  C6  UNL     1       9.223  14.442  14.186  1.00  0.00     0.279 C 
BRANCH  38  39
HETATM   39  C5  UNL     1      10.570  14.090  13.648  1.00  0.00     0.108 C 
BRANCH  39  40
HETATM   40  C4  UNL     1      10.983  14.877  12.462  1.00  0.00     0.128 C 
HETATM   41  O1  UNL     1      10.430  14.629  11.389  1.00  0.00    -0.298 OA
BRANCH  40  42
HETATM   42  C3  UNL     1      12.006  15.927  12.520  1.00  0.00     0.078 C 
BRANCH  42  43
HETATM   43  C2  UNL     1      11.403  17.281  12.140  1.00  0.00     0.003 C 
HETATM   44  C1  UNL     1      12.265  18.354  12.804  1.00  0.00     0.005 C 
ENDBRANCH  42  43
ENDBRANCH  40  42
ENDBRANCH  39  40
ENDBRANCH  38  39
ENDBRANCH  35  38
ENDBRANCH  31  32
ENDBRANCH  28  31
ENDBRANCH   1  28
TORSDOF 13
ENDMDL
