MODEL 1
REMARK VINA RESULT: -6.555469344      0.000      0.000
REMARK  2 active torsions:
REMARK  status: ('A' for Active; 'I' for Inactive)
REMARK    1  A    between atoms: C1_2  and  N1_3 
REMARK    2  A    between atoms: N1_3  and  C2_5 
ROOT
HETATM    1  C2  UNL     1      12.428  43.443  83.698  1.00  0.00     0.182 A 
HETATM    2  N2  UNL     1      11.529  43.634  82.716  1.00  0.00    -0.289 N 
ATOM      3  H2  UNL     1      11.815  44.087  81.848  1.00  0.00     0.172 HD
HETATM    4  C3  UNL     1      10.249  43.230  82.874  1.00  0.00     0.340 A 
HETATM    5  O2  UNL     1       9.418  43.417  81.943  1.00  0.00    -0.245 OA
HETATM    6  N3  UNL     1       9.806  42.628  83.990  1.00  0.00    -0.248 N 
ATOM      7  H3  UNL     1       8.835  42.333  84.081  1.00  0.00     0.192 HD
HETATM    8  N4  UNL     1      10.678  42.433  84.965  1.00  0.00    -0.259 N 
ATOM      9  H4  UNL     1      10.372  41.978  85.826  1.00  0.00     0.190 HD
HETATM   10  C4  UNL     1      11.975  42.826  84.845  1.00  0.00     0.304 A 
HETATM   11  O3  UNL     1      12.808  42.640  85.772  1.00  0.00    -0.263 OA
ENDROOT
BRANCH   1  12
HETATM   12  N1  UNL     1      13.651  43.834  83.538  1.00  0.00    -0.316 N 
ATOM     13  H1  UNL     1      14.210  44.101  84.349  1.00  0.00     0.170 HD
BRANCH  12  14
HETATM   14  C1  UNL     1      14.219  43.892  82.234  1.00  0.00     0.354 C 
HETATM   15  O1  UNL     1      15.388  44.294  82.132  1.00  0.00    -0.283 OA
ENDBRANCH  12  14
ENDBRANCH   1  12
TORSDOF 2
ENDMDL
MODEL 2
REMARK VINA RESULT: -6.443220732      1.471      2.918
REMARK  2 active torsions:
REMARK  status: ('A' for Active; 'I' for Inactive)
REMARK    1  A    between atoms: C1_2  and  N1_3 
REMARK    2  A    between atoms: N1_3  and  C2_5 
ROOT
HETATM    1  C2  UNL     1      12.475  43.911  82.436  1.00  0.00     0.182 A 
HETATM    2  N2  UNL     1      12.998  43.251  83.484  1.00  0.00    -0.289 N 
ATOM      3  H2  UNL     1      13.840  42.688  83.360  1.00  0.00     0.172 HD
HETATM    4  C3  UNL     1      12.414  43.329  84.701  1.00  0.00     0.340 A 
HETATM    5  O2  UNL     1      12.918  42.704  85.675  1.00  0.00    -0.245 OA
HETATM    6  N3  UNL     1      11.307  44.051  84.934  1.00  0.00    -0.248 N 
ATOM      7  H3  UNL     1      10.888  44.093  85.862  1.00  0.00     0.192 HD
HETATM    8  N4  UNL     1      10.779  44.707  83.913  1.00  0.00    -0.259 N 
ATOM      9  H4  UNL     1       9.937  45.264  84.058  1.00  0.00     0.190 HD
HETATM   10  C4  UNL     1      11.336  44.652  82.673  1.00  0.00     0.304 A 
HETATM   11  O3  UNL     1      10.837  45.277  81.699  1.00  0.00    -0.263 OA
ENDROOT
BRANCH   1  12
HETATM   12  N1  UNL     1      13.040  43.830  81.275  1.00  0.00    -0.316 N 
ATOM     13  H1  UNL     1      12.485  43.961  80.429  1.00  0.00     0.170 HD
BRANCH  12  14
HETATM   14  C1  UNL     1      14.434  43.559  81.176  1.00  0.00     0.354 C 
HETATM   15  O1  UNL     1      15.201  44.220  81.892  1.00  0.00    -0.283 OA
ENDBRANCH  12  14
ENDBRANCH   1  12
TORSDOF 2
ENDMDL
MODEL 3
REMARK VINA RESULT: -6.380601097      1.874      1.922
REMARK  2 active torsions:
REMARK  status: ('A' for Active; 'I' for Inactive)
REMARK    1  A    between atoms: C1_2  and  N1_3 
REMARK    2  A    between atoms: N1_3  and  C2_5 
ROOT
HETATM    1  C2  UNL     1      13.019  43.191  82.919  1.00  0.00     0.182 A 
HETATM    2  N2  UNL     1      11.904  43.846  82.550  1.00  0.00    -0.289 N 
ATOM      3  H2  UNL     1      11.560  43.761  81.594  1.00  0.00     0.172 HD
HETATM    4  C3  UNL     1      11.238  44.616  83.439  1.00  0.00     0.340 A 
HETATM    5  O2  UNL     1      10.193  45.224  83.076  1.00  0.00    -0.245 OA
HETATM    6  N3  UNL     1      11.635  44.770  84.712  1.00  0.00    -0.248 N 
ATOM      7  H3  UNL     1      11.112  45.358  85.362  1.00  0.00     0.192 HD
HETATM    8  N4  UNL     1      12.730  44.133  85.092  1.00  0.00    -0.259 N 
ATOM      9  H4  UNL     1      13.057  44.231  86.053  1.00  0.00     0.190 HD
HETATM   10  C4  UNL     1      13.429  43.350  84.227  1.00  0.00     0.304 A 
HETATM   11  O3  UNL     1      14.472  42.740  84.586  1.00  0.00    -0.263 OA
ENDROOT
BRANCH   1  12
HETATM   12  N1  UNL     1      13.650  42.456  82.062  1.00  0.00    -0.316 N 
ATOM     13  H1  UNL     1      13.758  41.456  82.231  1.00  0.00     0.170 HD
BRANCH  12  14
HETATM   14  C1  UNL     1      14.194  43.041  80.883  1.00  0.00     0.354 C 
HETATM   15  O1  UNL     1      14.653  44.190  80.970  1.00  0.00    -0.283 OA
ENDBRANCH  12  14
ENDBRANCH   1  12
TORSDOF 2
ENDMDL
MODEL 4
REMARK VINA RESULT: -6.366788369      1.613      2.191
REMARK  2 active torsions:
REMARK  status: ('A' for Active; 'I' for Inactive)
REMARK    1  A    between atoms: C1_2  and  N1_3 
REMARK    2  A    between atoms: N1_3  and  C2_5 
ROOT
HETATM    1  C2  UNL     1      12.305  43.631  83.532  1.00  0.00     0.182 A 
HETATM    2  N2  UNL     1      12.156  42.360  83.945  1.00  0.00    -0.289 N 
ATOM      3  H2  UNL     1      12.980  41.787  84.128  1.00  0.00     0.172 HD
HETATM    4  C3  UNL     1      10.921  41.837  84.119  1.00  0.00     0.340 A 
HETATM    5  O2  UNL     1      10.800  40.643  84.508  1.00  0.00    -0.245 OA
HETATM    6  N3  UNL     1       9.796  42.535  83.897  1.00  0.00    -0.248 N 
ATOM      7  H3  UNL     1       8.877  42.115  84.037  1.00  0.00     0.192 HD
HETATM    8  N4  UNL     1       9.924  43.787  83.489  1.00  0.00    -0.259 N 
ATOM      9  H4  UNL     1       9.087  44.343  83.312  1.00  0.00     0.190 HD
HETATM   10  C4  UNL     1      11.149  44.349  83.302  1.00  0.00     0.304 A 
HETATM   11  O3  UNL     1      11.274  45.542  82.915  1.00  0.00    -0.263 OA
ENDROOT
BRANCH   1  12
HETATM   12  N1  UNL     1      13.490  44.122  83.368  1.00  0.00    -0.316 N 
ATOM     13  H1  UNL     1      13.895  44.724  84.085  1.00  0.00     0.170 HD
BRANCH  12  14
HETATM   14  C1  UNL     1      14.230  43.825  82.189  1.00  0.00     0.354 C 
HETATM   15  O1  UNL     1      15.401  44.230  82.127  1.00  0.00    -0.283 OA
ENDBRANCH  12  14
ENDBRANCH   1  12
TORSDOF 2
ENDMDL
MODEL 5
REMARK VINA RESULT: -6.343895762      1.361      3.647
REMARK  2 active torsions:
REMARK  status: ('A' for Active; 'I' for Inactive)
REMARK    1  A    between atoms: C1_2  and  N1_3 
REMARK    2  A    between atoms: N1_3  and  C2_5 
ROOT
HETATM    1  C2  UNL     1      12.124  43.604  83.333  1.00  0.00     0.182 A 
HETATM    2  N2  UNL     1      13.097  43.794  82.424  1.00  0.00    -0.289 N 
ATOM      3  H2  UNL     1      12.871  43.775  81.429  1.00  0.00     0.172 HD
HETATM    4  C3  UNL     1      14.371  44.010  82.821  1.00  0.00     0.340 A 
HETATM    5  O2  UNL     1      15.271  44.187  81.954  1.00  0.00    -0.245 OA
HETATM    6  N3  UNL     1      14.736  44.048  84.112  1.00  0.00    -0.248 N 
ATOM      7  H3  UNL     1      15.705  44.214  84.383  1.00  0.00     0.192 HD
HETATM    8  N4  UNL     1      13.792  43.863  85.020  1.00  0.00    -0.259 N 
ATOM      9  H4  UNL     1      14.038  43.886  86.009  1.00  0.00     0.190 HD
HETATM   10  C4  UNL     1      12.498  43.642  84.660  1.00  0.00     0.304 A 
HETATM   11  O3  UNL     1      11.596  43.467  85.523  1.00  0.00    -0.263 OA
ENDROOT
BRANCH   1  12
HETATM   12  N1  UNL     1      10.908  43.398  82.944  1.00  0.00    -0.316 N 
ATOM     13  H1  UNL     1      10.524  42.453  82.953  1.00  0.00     0.170 HD
BRANCH  12  14
HETATM   14  C1  UNL     1      10.103  44.487  82.505  1.00  0.00     0.354 C 
HETATM   15  O1  UNL     1      10.573  45.235  81.633  1.00  0.00    -0.283 OA
ENDBRANCH  12  14
ENDBRANCH   1  12
TORSDOF 2
ENDMDL
