MODEL 1
REMARK VINA RESULT: -5.651332111      0.000      0.000
REMARK  3 active torsions:
REMARK  status: ('A' for Active; 'I' for Inactive)
REMARK    1  A    between atoms: C3_6  and  N3_7 
REMARK    2  A    between atoms: N3_7  and  C4_9 
REMARK    3  A    between atoms: C5_15  and  N6_16 
ROOT
HETATM    1  C1  UNL     1       3.760  45.201  83.299  1.00  0.00     0.176 C 
HETATM    2  N1  UNL     1       5.092  44.682  82.993  1.00  0.00    -0.183 N 
HETATM    3  C2  UNL     1       6.196  45.427  83.183  1.00  0.00     0.217 A 
HETATM    4  N2  UNL     1       7.427  44.963  82.906  1.00  0.00    -0.186 N 
ATOM      5  H2  UNL     1       8.236  45.563  83.065  1.00  0.00     0.185 HD
HETATM    6  C3  UNL     1       7.610  43.721  82.422  1.00  0.00     0.698 A 
HETATM    7  N5  UNL     1       6.504  42.981  82.234  1.00  0.00    -0.022 N 
ATOM      8  H5  UNL     1       6.605  42.033  81.868  1.00  0.00     0.203 HD
HETATM    9  C5  UNL     1       5.270  43.439  82.509  1.00  0.00     0.693 A 
ENDROOT
BRANCH   6  10
HETATM   10  N3  UNL     1       8.790  43.251  82.147  1.00  0.00    -0.188 N 
ATOM     11  H3  UNL     1       8.989  42.972  81.186  1.00  0.00     0.185 HD
BRANCH  10  12
HETATM   12  C4  UNL     1       9.805  43.108  83.111  1.00  0.00     0.191 C 
HETATM   13  N4  UNL     1       9.607  42.353  84.125  1.00  0.00    -0.395 N 
ATOM     14  H42 UNL     1       8.715  41.866  84.218  1.00  0.00     0.156 HD
ATOM     15  H41 UNL     1      10.342  42.249  84.823  1.00  0.00     0.156 HD
ENDBRANCH  10  12
ENDBRANCH   6  10
BRANCH   9  16
HETATM   16  N6  UNL     1       4.212  42.725  82.328  1.00  0.00    -0.234 N 
ATOM     17  H62 UNL     1       3.368  43.099  81.895  1.00  0.00     0.174 HD
ATOM     18  H61 UNL     1       4.250  41.754  82.638  1.00  0.00     0.174 HD
ENDBRANCH   9  16
TORSDOF 3
ENDMDL
MODEL 2
REMARK VINA RESULT: -5.436160427      1.809      5.230
REMARK  3 active torsions:
REMARK  status: ('A' for Active; 'I' for Inactive)
REMARK    1  A    between atoms: C3_6  and  N3_7 
REMARK    2  A    between atoms: N3_7  and  C4_9 
REMARK    3  A    between atoms: C5_15  and  N6_16 
ROOT
HETATM    1  C1  UNL     1      12.701  43.134  85.434  1.00  0.00     0.176 C 
HETATM    2  N1  UNL     1      11.537  43.205  84.553  1.00  0.00    -0.183 N 
HETATM    3  C2  UNL     1      11.221  44.337  83.897  1.00  0.00     0.217 A 
HETATM    4  N2  UNL     1      10.153  44.417  83.083  1.00  0.00    -0.186 N 
ATOM      5  H2  UNL     1       9.952  45.296  82.606  1.00  0.00     0.185 HD
HETATM    6  C3  UNL     1       9.347  43.358  82.887  1.00  0.00     0.698 A 
HETATM    7  N5  UNL     1       9.666  42.230  83.545  1.00  0.00    -0.022 N 
ATOM      8  H5  UNL     1       9.077  41.407  83.420  1.00  0.00     0.203 HD
HETATM    9  C5  UNL     1      10.733  42.144  84.360  1.00  0.00     0.693 A 
ENDROOT
BRANCH   6  10
HETATM   10  N3  UNL     1       8.310  43.412  82.106  1.00  0.00    -0.188 N 
ATOM     11  H3  UNL     1       8.437  43.199  81.116  1.00  0.00     0.185 HD
BRANCH  10  12
HETATM   12  C4  UNL     1       7.021  43.750  82.559  1.00  0.00     0.191 C 
HETATM   13  N4  UNL     1       6.076  42.894  82.456  1.00  0.00    -0.395 N 
ATOM     14  H42 UNL     1       6.271  41.981  82.046  1.00  0.00     0.156 HD
ATOM     15  H41 UNL     1       5.141  43.138  82.784  1.00  0.00     0.156 HD
ENDBRANCH  10  12
ENDBRANCH   6  10
BRANCH   9  16
HETATM   16  N6  UNL     1      11.035  41.059  84.988  1.00  0.00    -0.234 N 
ATOM     17  H62 UNL     1      11.670  41.049  85.787  1.00  0.00     0.174 HD
ATOM     18  H61 UNL     1      10.610  40.195  84.651  1.00  0.00     0.174 HD
ENDBRANCH   9  16
TORSDOF 3
ENDMDL
MODEL 3
REMARK VINA RESULT: -5.405792734      1.292      4.517
REMARK  3 active torsions:
REMARK  status: ('A' for Active; 'I' for Inactive)
REMARK    1  A    between atoms: C3_6  and  N3_7 
REMARK    2  A    between atoms: N3_7  and  C4_9 
REMARK    3  A    between atoms: C5_15  and  N6_16 
ROOT
HETATM    1  C1  UNL     1      11.436  43.860  82.500  1.00  0.00     0.176 C 
HETATM    2  N1  UNL     1       9.980  43.997  82.477  1.00  0.00    -0.183 N 
HETATM    3  C2  UNL     1       9.374  44.910  81.696  1.00  0.00     0.217 A 
HETATM    4  N2  UNL     1       8.036  45.047  81.665  1.00  0.00    -0.186 N 
ATOM      5  H2  UNL     1       7.619  45.753  81.058  1.00  0.00     0.185 HD
HETATM    6  C3  UNL     1       7.239  44.269  82.419  1.00  0.00     0.698 A 
HETATM    7  N5  UNL     1       7.850  43.358  83.197  1.00  0.00    -0.022 N 
ATOM      8  H5  UNL     1       7.277  42.751  83.783  1.00  0.00     0.203 HD
HETATM    9  C5  UNL     1       9.187  43.217  83.233  1.00  0.00     0.693 A 
ENDROOT
BRANCH   6  10
HETATM   10  N3  UNL     1       5.945  44.383  82.405  1.00  0.00    -0.188 N 
ATOM     11  H3  UNL     1       5.540  45.319  82.407  1.00  0.00     0.185 HD
BRANCH  10  12
HETATM   12  C4  UNL     1       5.075  43.277  82.389  1.00  0.00     0.191 C 
HETATM   13  N4  UNL     1       3.852  43.446  82.050  1.00  0.00    -0.395 N 
ATOM     14  H42 UNL     1       3.528  44.379  81.798  1.00  0.00     0.156 HD
ATOM     15  H41 UNL     1       3.221  42.645  82.039  1.00  0.00     0.156 HD
ENDBRANCH  10  12
ENDBRANCH   6  10
BRANCH   9  16
HETATM   16  N6  UNL     1       9.768  42.341  83.980  1.00  0.00    -0.234 N 
ATOM     17  H62 UNL     1      10.416  41.647  83.606  1.00  0.00     0.174 HD
ATOM     18  H61 UNL     1       9.554  42.368  84.977  1.00  0.00     0.174 HD
ENDBRANCH   9  16
TORSDOF 3
ENDMDL
MODEL 4
REMARK VINA RESULT: -5.335184141      2.115      5.595
REMARK  3 active torsions:
REMARK  status: ('A' for Active; 'I' for Inactive)
REMARK    1  A    between atoms: C3_6  and  N3_7 
REMARK    2  A    between atoms: N3_7  and  C4_9 
REMARK    3  A    between atoms: C5_15  and  N6_16 
ROOT
HETATM    1  C1  UNL     1      13.027  43.346  85.013  1.00  0.00     0.176 C 
HETATM    2  N1  UNL     1      11.788  43.327  84.236  1.00  0.00    -0.183 N 
HETATM    3  C2  UNL     1      10.757  42.534  84.580  1.00  0.00     0.217 A 
HETATM    4  N2  UNL     1       9.612  42.506  83.875  1.00  0.00    -0.186 N 
ATOM      5  H2  UNL     1       8.855  41.890  84.172  1.00  0.00     0.185 HD
HETATM    6  C3  UNL     1       9.447  43.278  82.785  1.00  0.00     0.698 A 
HETATM    7  N5  UNL     1      10.480  44.068  82.446  1.00  0.00    -0.022 N 
ATOM      8  H5  UNL     1      10.390  44.667  81.625  1.00  0.00     0.203 HD
HETATM    9  C5  UNL     1      11.628  44.100  83.147  1.00  0.00     0.693 A 
ENDROOT
BRANCH   6  10
HETATM   10  N3  UNL     1       8.350  43.268  82.089  1.00  0.00    -0.188 N 
ATOM     11  H3  UNL     1       8.392  42.950  81.121  1.00  0.00     0.185 HD
BRANCH  10  12
HETATM   12  C4  UNL     1       7.106  43.675  82.606  1.00  0.00     0.191 C 
HETATM   13  N4  UNL     1       6.086  42.916  82.459  1.00  0.00    -0.395 N 
ATOM     14  H42 UNL     1       6.192  42.028  81.969  1.00  0.00     0.156 HD
ATOM     15  H41 UNL     1       5.184  43.211  82.833  1.00  0.00     0.156 HD
ENDBRANCH  10  12
ENDBRANCH   6  10
BRANCH   9  16
HETATM   16  N6  UNL     1      12.616  44.860  82.818  1.00  0.00    -0.234 N 
ATOM     17  H62 UNL     1      13.303  45.188  83.497  1.00  0.00     0.174 HD
ATOM     18  H61 UNL     1      12.688  45.126  81.836  1.00  0.00     0.174 HD
ENDBRANCH   9  16
TORSDOF 3
ENDMDL
MODEL 5
REMARK VINA RESULT: -5.334422912      2.464      6.010
REMARK  3 active torsions:
REMARK  status: ('A' for Active; 'I' for Inactive)
REMARK    1  A    between atoms: C3_6  and  N3_7 
REMARK    2  A    between atoms: N3_7  and  C4_9 
REMARK    3  A    between atoms: C5_15  and  N6_16 
ROOT
HETATM    1  C1  UNL     1      14.111  43.292  83.953  1.00  0.00     0.176 C 
HETATM    2  N1  UNL     1      12.666  43.241  83.737  1.00  0.00    -0.183 N 
HETATM    3  C2  UNL     1      12.123  43.556  82.546  1.00  0.00     0.217 A 
HETATM    4  N2  UNL     1      10.796  43.514  82.333  1.00  0.00    -0.186 N 
ATOM      5  H2  UNL     1      10.428  43.761  81.415  1.00  0.00     0.185 HD
HETATM    6  C3  UNL     1       9.946  43.151  83.311  1.00  0.00     0.698 A 
HETATM    7  N5  UNL     1      10.493  42.838  84.498  1.00  0.00    -0.022 N 
ATOM      8  H5  UNL     1       9.878  42.558  85.262  1.00  0.00     0.203 HD
HETATM    9  C5  UNL     1      11.819  42.878  84.717  1.00  0.00     0.693 A 
ENDROOT
BRANCH   6  10
HETATM   10  N3  UNL     1       8.660  43.103  83.128  1.00  0.00    -0.188 N 
ATOM     11  H3  UNL     1       8.140  42.325  83.536  1.00  0.00     0.185 HD
BRANCH  10  12
HETATM   12  C4  UNL     1       7.950  44.072  82.394  1.00  0.00     0.191 C 
HETATM   13  N4  UNL     1       7.711  45.211  82.926  1.00  0.00    -0.395 N 
ATOM     14  H42 UNL     1       8.038  45.398  83.874  1.00  0.00     0.156 HD
ATOM     15  H41 UNL     1       7.196  45.913  82.395  1.00  0.00     0.156 HD
ENDBRANCH  10  12
ENDBRANCH   6  10
BRANCH   9  16
HETATM   16  N6  UNL     1      12.339  42.575  85.857  1.00  0.00    -0.234 N 
ATOM     17  H62 UNL     1      12.886  43.243  86.403  1.00  0.00     0.174 HD
ATOM     18  H61 UNL     1      12.182  41.628  86.201  1.00  0.00     0.174 HD
ENDBRANCH   9  16
TORSDOF 3
ENDMDL
