MODEL 1
REMARK VINA RESULT: -6.554915802      0.000      0.000
REMARK  4 active torsions:
REMARK  status: ('A' for Active; 'I' for Inactive)
REMARK    1  A    between atoms: N1_1  and  N2_4 
REMARK    2  A    between atoms: N2_4  and  C1_6 
REMARK    3  A    between atoms: C3_15  and  N6_16 
REMARK    4  A    between atoms: N6_16  and  C4_18 
ROOT
HETATM    1  C1  UNL     1      10.887  42.194  84.478  1.00  0.00     0.179 A 
HETATM    2  N3  UNL     1       9.646  42.596  84.163  1.00  0.00    -0.277 N 
ATOM      3  H3  UNL     1       8.843  42.112  84.566  1.00  0.00     0.189 HD
HETATM    4  N4  UNL     1       9.447  43.625  83.327  1.00  0.00    -0.250 N 
ATOM      5  H4  UNL     1       8.501  43.926  83.093  1.00  0.00     0.192 HD
HETATM    6  C2  UNL     1      10.511  44.252  82.805  1.00  0.00     0.340 A 
HETATM    7  O1  UNL     1      10.290  45.210  82.026  1.00  0.00    -0.245 OA
HETATM    8  N5  UNL     1      11.775  43.903  83.075  1.00  0.00    -0.290 N 
ATOM      9  H5  UNL     1      12.567  44.396  82.664  1.00  0.00     0.172 HD
HETATM   10  C3  UNL     1      11.945  42.870  83.916  1.00  0.00     0.159 A 
ENDROOT
BRANCH   1  11
HETATM   11  N2  UNL     1      11.098  41.215  85.274  1.00  0.00    -0.288 N 
ATOM     12  H2  UNL     1      11.898  41.232  85.906  1.00  0.00     0.188 HD
BRANCH  11  13
HETATM   13  N1  UNL     1      10.234  40.131  85.275  1.00  0.00    -0.343 N 
ATOM     14  H12 UNL     1       9.927  39.741  86.166  1.00  0.00     0.176 HD
ATOM     15  H11 UNL     1       9.916  39.737  84.389  1.00  0.00     0.176 HD
ENDBRANCH  11  13
ENDBRANCH   1  11
BRANCH  10  16
HETATM   16  N6  UNL     1      13.134  42.491  84.211  1.00  0.00    -0.317 N 
ATOM     17  H6  UNL     1      13.212  41.627  84.746  1.00  0.00     0.169 HD
BRANCH  16  18
HETATM   18  C4  UNL     1      14.335  43.126  83.884  1.00  0.00     0.354 C 
HETATM   19  O2  UNL     1      14.774  43.127  82.689  1.00  0.00    -0.283 OA
ENDBRANCH  16  18
ENDBRANCH  10  16
TORSDOF 4
ENDMDL
MODEL 2
REMARK VINA RESULT: -6.129702097      2.397      2.925
REMARK  4 active torsions:
REMARK  status: ('A' for Active; 'I' for Inactive)
REMARK    1  A    between atoms: N1_1  and  N2_4 
REMARK    2  A    between atoms: N2_4  and  C1_6 
REMARK    3  A    between atoms: C3_15  and  N6_16 
REMARK    4  A    between atoms: N6_16  and  C4_18 
ROOT
HETATM    1  C1  UNL     1      13.177  43.904  84.413  1.00  0.00     0.179 A 
HETATM    2  N3  UNL     1      12.379  44.690  85.151  1.00  0.00    -0.277 N 
ATOM      3  H3  UNL     1      12.663  44.952  86.095  1.00  0.00     0.189 HD
HETATM    4  N4  UNL     1      11.212  45.135  84.664  1.00  0.00    -0.250 N 
ATOM      5  H4  UNL     1      10.610  45.733  85.230  1.00  0.00     0.192 HD
HETATM    6  C2  UNL     1      10.849  44.783  83.422  1.00  0.00     0.340 A 
HETATM    7  O1  UNL     1       9.752  45.216  82.998  1.00  0.00    -0.245 OA
HETATM    8  N5  UNL     1      11.598  44.002  82.633  1.00  0.00    -0.290 N 
ATOM      9  H5  UNL     1      11.299  43.748  81.691  1.00  0.00     0.172 HD
HETATM   10  C3  UNL     1      12.762  43.570  83.145  1.00  0.00     0.159 A 
ENDROOT
BRANCH   1  11
HETATM   11  N2  UNL     1      14.295  43.469  84.859  1.00  0.00    -0.288 N 
ATOM     12  H2  UNL     1      14.394  42.488  85.123  1.00  0.00     0.188 HD
BRANCH  11  13
HETATM   13  N1  UNL     1      15.370  44.334  84.983  1.00  0.00    -0.343 N 
ATOM     14  H12 UNL     1      15.218  45.260  85.384  1.00  0.00     0.176 HD
ATOM     15  H11 UNL     1      16.296  44.039  84.674  1.00  0.00     0.176 HD
ENDBRANCH  11  13
ENDBRANCH   1  11
BRANCH  10  16
HETATM   16  N6  UNL     1      13.519  42.820  82.434  1.00  0.00    -0.317 N 
ATOM     17  H6  UNL     1      13.389  41.814  82.545  1.00  0.00     0.169 HD
BRANCH  16  18
HETATM   18  C4  UNL     1      14.503  43.219  81.525  1.00  0.00     0.354 C 
HETATM   19  O2  UNL     1      15.451  43.990  81.880  1.00  0.00    -0.283 OA
ENDBRANCH  16  18
ENDBRANCH  10  16
TORSDOF 4
ENDMDL
MODEL 3
REMARK VINA RESULT: -6.083182284      1.281      3.299
REMARK  4 active torsions:
REMARK  status: ('A' for Active; 'I' for Inactive)
REMARK    1  A    between atoms: N1_1  and  N2_4 
REMARK    2  A    between atoms: N2_4  and  C1_6 
REMARK    3  A    between atoms: C3_15  and  N6_16 
REMARK    4  A    between atoms: N6_16  and  C4_18 
ROOT
HETATM    1  C1  UNL     1      10.986  42.219  84.712  1.00  0.00     0.179 A 
HETATM    2  N3  UNL     1      12.312  42.249  84.914  1.00  0.00    -0.277 N 
ATOM      3  H3  UNL     1      12.724  41.662  85.641  1.00  0.00     0.189 HD
HETATM    4  N4  UNL     1      13.103  43.039  84.175  1.00  0.00    -0.250 N 
ATOM      5  H4  UNL     1      14.110  43.057  84.333  1.00  0.00     0.192 HD
HETATM    6  C2  UNL     1      12.549  43.805  83.224  1.00  0.00     0.340 A 
HETATM    7  O1  UNL     1      13.317  44.533  82.550  1.00  0.00    -0.245 OA
HETATM    8  N5  UNL     1      11.235  43.823  82.970  1.00  0.00    -0.290 N 
ATOM      9  H5  UNL     1      10.837  44.416  82.240  1.00  0.00     0.172 HD
HETATM   10  C3  UNL     1      10.465  43.022  83.725  1.00  0.00     0.159 A 
ENDROOT
BRANCH   1  11
HETATM   11  N2  UNL     1      10.215  41.471  85.407  1.00  0.00    -0.288 N 
ATOM     12  H2  UNL     1       9.557  41.886  86.068  1.00  0.00     0.188 HD
BRANCH  11  13
HETATM   13  N1  UNL     1      10.275  40.095  85.260  1.00  0.00    -0.343 N 
ATOM     14  H12 UNL     1      10.677  39.703  84.408  1.00  0.00     0.176 HD
ATOM     15  H11 UNL     1       9.919  39.490  86.001  1.00  0.00     0.176 HD
ENDBRANCH  11  13
ENDBRANCH   1  11
BRANCH  10  16
HETATM   16  N6  UNL     1       9.200  42.999  83.526  1.00  0.00    -0.317 N 
ATOM     17  H6  UNL     1       8.663  42.355  84.107  1.00  0.00     0.169 HD
BRANCH  16  18
HETATM   18  C4  UNL     1       8.468  43.755  82.605  1.00  0.00     0.354 C 
HETATM   19  O2  UNL     1       8.806  43.803  81.379  1.00  0.00    -0.283 OA
ENDBRANCH  16  18
ENDBRANCH  10  16
TORSDOF 4
ENDMDL
MODEL 4
REMARK VINA RESULT: -6.067896538      2.867      3.816
REMARK  4 active torsions:
REMARK  status: ('A' for Active; 'I' for Inactive)
REMARK    1  A    between atoms: N1_1  and  N2_4 
REMARK    2  A    between atoms: N2_4  and  C1_6 
REMARK    3  A    between atoms: C3_15  and  N6_16 
REMARK    4  A    between atoms: N6_16  and  C4_18 
ROOT
HETATM    1  C1  UNL     1      12.198  44.325  83.442  1.00  0.00     0.179 A 
HETATM    2  N3  UNL     1      12.312  44.740  84.713  1.00  0.00    -0.277 N 
ATOM      3  H3  UNL     1      11.559  45.286  85.133  1.00  0.00     0.189 HD
HETATM    4  N4  UNL     1      13.400  44.448  85.438  1.00  0.00    -0.250 N 
ATOM      5  H4  UNL     1      13.480  44.767  86.404  1.00  0.00     0.192 HD
HETATM    6  C2  UNL     1      14.383  43.730  84.874  1.00  0.00     0.340 A 
HETATM    7  O1  UNL     1      15.387  43.475  85.579  1.00  0.00    -0.245 OA
HETATM    8  N5  UNL     1      14.335  43.285  83.613  1.00  0.00    -0.290 N 
ATOM      9  H5  UNL     1      15.096  42.740  83.206  1.00  0.00     0.172 HD
HETATM   10  C3  UNL     1      13.232  43.592  82.909  1.00  0.00     0.159 A 
ENDROOT
BRANCH   1  11
HETATM   11  N2  UNL     1      11.167  44.593  82.734  1.00  0.00    -0.288 N 
ATOM     12  H2  UNL     1      11.251  44.687  81.722  1.00  0.00     0.188 HD
BRANCH  11  13
HETATM   13  N1  UNL     1       9.935  44.755  83.347  1.00  0.00    -0.343 N 
ATOM     14  H12 UNL     1       9.548  45.694  83.444  1.00  0.00     0.176 HD
ATOM     15  H11 UNL     1       9.430  43.939  83.694  1.00  0.00     0.176 HD
ENDBRANCH  11  13
ENDBRANCH   1  11
BRANCH  10  16
HETATM   16  N6  UNL     1      13.132  43.192  81.696  1.00  0.00    -0.317 N 
ATOM     17  H6  UNL     1      12.221  42.831  81.413  1.00  0.00     0.169 HD
BRANCH  16  18
HETATM   18  C4  UNL     1      14.127  43.192  80.714  1.00  0.00     0.354 C 
HETATM   19  O2  UNL     1      15.351  43.017  81.018  1.00  0.00    -0.283 OA
ENDBRANCH  16  18
ENDBRANCH  10  16
TORSDOF 4
ENDMDL
MODEL 5
REMARK VINA RESULT: -6.063215372      1.398      3.615
REMARK  4 active torsions:
REMARK  status: ('A' for Active; 'I' for Inactive)
REMARK    1  A    between atoms: N1_1  and  N2_4 
REMARK    2  A    between atoms: N2_4  and  C1_6 
REMARK    3  A    between atoms: C3_15  and  N6_16 
REMARK    4  A    between atoms: N6_16  and  C4_18 
ROOT
HETATM    1  C1  UNL     1      12.509  43.296  84.729  1.00  0.00     0.179 A 
HETATM    2  N3  UNL     1      13.736  43.362  85.268  1.00  0.00    -0.277 N 
ATOM      3  H3  UNL     1      13.866  43.126  86.253  1.00  0.00     0.189 HD
HETATM    4  N4  UNL     1      14.792  43.733  84.532  1.00  0.00    -0.250 N 
ATOM      5  H4  UNL     1      15.722  43.781  84.949  1.00  0.00     0.192 HD
HETATM    6  C2  UNL     1      14.608  44.040  83.240  1.00  0.00     0.340 A 
HETATM    7  O1  UNL     1      15.617  44.385  82.580  1.00  0.00    -0.245 OA
HETATM    8  N5  UNL     1      13.413  43.996  82.639  1.00  0.00    -0.290 N 
ATOM      9  H5  UNL     1      13.298  44.235  81.654  1.00  0.00     0.172 HD
HETATM   10  C3  UNL     1      12.371  43.621  83.400  1.00  0.00     0.159 A 
ENDROOT
BRANCH   1  11
HETATM   11  N2  UNL     1      11.489  42.943  85.415  1.00  0.00    -0.288 N 
ATOM     12  H2  UNL     1      10.956  43.640  85.935  1.00  0.00     0.188 HD
BRANCH  11  13
HETATM   13  N1  UNL     1      11.109  41.611  85.448  1.00  0.00    -0.343 N 
ATOM     14  H12 UNL     1      11.740  40.925  85.863  1.00  0.00     0.176 HD
ATOM     15  H11 UNL     1      10.208  41.331  85.060  1.00  0.00     0.176 HD
ENDBRANCH  11  13
ENDBRANCH   1  11
BRANCH  10  16
HETATM   16  N6  UNL     1      11.203  43.561  82.877  1.00  0.00    -0.317 N 
ATOM     17  H6  UNL     1      10.788  42.632  82.805  1.00  0.00     0.169 HD
BRANCH  16  18
HETATM   18  C4  UNL     1      10.431  44.621  82.393  1.00  0.00     0.354 C 
HETATM   19  O2  UNL     1      10.929  45.492  81.609  1.00  0.00    -0.283 OA
ENDBRANCH  16  18
ENDBRANCH  10  16
TORSDOF 4
ENDMDL
