MODEL 1
REMARK VINA RESULT: -7.079159592      0.000      0.000
REMARK  3 active torsions:
REMARK  status: ('A' for Active; 'I' for Inactive)
REMARK    1  A    between atoms: C10_11  and  O1_12 
REMARK    2  A    between atoms: C10_11  and  C11_14 
REMARK    3  A    between atoms: C11_14  and  N2_15 
ROOT
HETATM    1  C1  UNL     1      42.444  54.026  18.194  1.00  0.00     0.310 C 
HETATM    2  N1  UNL     1      41.283  53.390  18.786  1.00  0.00     0.090 N 
HETATM    3  C2  UNL     1      41.717  52.645  19.988  1.00  0.00     0.272 C 
HETATM    4  C3  UNL     1      40.581  52.057  20.727  1.00  0.00     0.031 C 
HETATM    5  C4  UNL     1      39.312  51.880  19.999  1.00  0.00     0.013 C 
HETATM    6  C5  UNL     1      39.341  52.084  18.537  1.00  0.00    -0.009 C 
HETATM    7  C6  UNL     1      38.616  53.390  18.175  1.00  0.00     0.012 C 
HETATM    8  C7  UNL     1      39.105  53.617  16.739  1.00  0.00     0.010 C 
HETATM    9  C8  UNL     1      40.325  52.815  16.564  1.00  0.00     0.056 C 
HETATM   10  C9  UNL     1      40.709  52.381  17.950  1.00  0.00     0.238 C 
HETATM   11  C10 UNL     1      40.139  51.501  15.772  1.00  0.00     0.090 C 
HETATM   12  C17 UNL     1      39.577  50.430  16.685  1.00  0.00     0.041 C 
HETATM   13  C18 UNL     1      38.647  50.989  17.743  1.00  0.00     0.014 C 
ENDROOT
BRANCH  11  14
HETATM   14  O1  UNL     1      41.428  51.117  15.408  1.00  0.00    -0.388 OA
ATOM     15  H1  UNL     1      41.830  51.905  15.062  1.00  0.00     0.210 HD
ENDBRANCH  11  14
BRANCH  11  16
HETATM   16  C11 UNL     1      39.311  51.765  14.588  1.00  0.00     0.310 C 
BRANCH  16  17
HETATM   17  N2  UNL     1      38.272  50.780  14.274  1.00  0.00     0.091 N 
HETATM   18  C12 UNL     1      37.037  51.626  14.275  1.00  0.00     0.272 C 
HETATM   19  C13 UNL     1      35.857  50.796  13.885  1.00  0.00     0.030 C 
HETATM   20  C14 UNL     1      36.026  50.508  12.383  1.00  0.00     0.003 C 
HETATM   21  C15 UNL     1      37.294  49.742  12.234  1.00  0.00     0.030 C 
HETATM   22  C16 UNL     1      38.479  50.393  12.875  1.00  0.00     0.272 C 
ENDBRANCH  16  17
ENDBRANCH  11  16
TORSDOF 3
ENDMDL
MODEL 2
REMARK VINA RESULT: -6.891960177      1.710      2.159
REMARK  3 active torsions:
REMARK  status: ('A' for Active; 'I' for Inactive)
REMARK    1  A    between atoms: C10_11  and  O1_12 
REMARK    2  A    between atoms: C10_11  and  C11_14 
REMARK    3  A    between atoms: C11_14  and  N2_15 
ROOT
HETATM    1  C1  UNL     1      40.351  55.337  19.269  1.00  0.00     0.310 C 
HETATM    2  N1  UNL     1      39.605  54.112  19.482  1.00  0.00     0.090 N 
HETATM    3  C2  UNL     1      40.046  53.510  20.760  1.00  0.00     0.272 C 
HETATM    4  C3  UNL     1      39.258  52.315  21.121  1.00  0.00     0.031 C 
HETATM    5  C4  UNL     1      38.516  51.635  20.045  1.00  0.00     0.013 C 
HETATM    6  C5  UNL     1      38.804  52.058  18.659  1.00  0.00    -0.009 C 
HETATM    7  C6  UNL     1      37.614  52.850  18.094  1.00  0.00     0.012 C 
HETATM    8  C7  UNL     1      38.253  53.522  16.873  1.00  0.00     0.010 C 
HETATM    9  C8  UNL     1      39.709  53.496  17.075  1.00  0.00     0.056 C 
HETATM   10  C9  UNL     1      39.897  53.102  18.513  1.00  0.00     0.238 C 
HETATM   11  C10 UNL     1      40.465  52.419  16.265  1.00  0.00     0.090 C 
HETATM   12  C17 UNL     1      40.352  51.080  16.965  1.00  0.00     0.041 C 
HETATM   13  C18 UNL     1      39.034  50.907  17.693  1.00  0.00     0.014 C 
ENDROOT
BRANCH  11  14
HETATM   14  O1  UNL     1      41.802  52.811  16.308  1.00  0.00    -0.388 OA
ATOM     15  H1  UNL     1      42.225  52.176  16.875  1.00  0.00     0.210 HD
ENDBRANCH  11  14
BRANCH  11  16
HETATM   16  C11 UNL     1      39.959  52.410  14.886  1.00  0.00     0.310 C 
BRANCH  16  17
HETATM   17  N2  UNL     1      40.105  51.160  14.135  1.00  0.00     0.091 N 
HETATM   18  C12 UNL     1      38.987  51.266  13.144  1.00  0.00     0.272 C 
HETATM   19  C13 UNL     1      39.025  50.096  12.215  1.00  0.00     0.030 C 
HETATM   20  C14 UNL     1      40.252  50.317  11.313  1.00  0.00     0.003 C 
HETATM   21  C15 UNL     1      41.444  50.332  12.206  1.00  0.00     0.030 C 
HETATM   22  C16 UNL     1      41.337  51.291  13.350  1.00  0.00     0.272 C 
ENDBRANCH  16  17
ENDBRANCH  11  16
TORSDOF 3
ENDMDL
MODEL 3
REMARK VINA RESULT: -6.870757563      1.692      2.379
REMARK  3 active torsions:
REMARK  status: ('A' for Active; 'I' for Inactive)
REMARK    1  A    between atoms: C10_11  and  O1_12 
REMARK    2  A    between atoms: C10_11  and  C11_14 
REMARK    3  A    between atoms: C11_14  and  N2_15 
ROOT
HETATM    1  C1  UNL     1      41.488  52.705  20.512  1.00  0.00     0.310 C 
HETATM    2  N1  UNL     1      40.064  52.714  20.240  1.00  0.00     0.090 N 
HETATM    3  C2  UNL     1      39.375  51.972  21.319  1.00  0.00     0.272 C 
HETATM    4  C3  UNL     1      37.905  52.027  21.189  1.00  0.00     0.031 C 
HETATM    5  C4  UNL     1      37.348  52.367  19.868  1.00  0.00     0.013 C 
HETATM    6  C5  UNL     1      38.289  52.396  18.729  1.00  0.00    -0.009 C 
HETATM    7  C6  UNL     1      38.526  53.847  18.282  1.00  0.00     0.012 C 
HETATM    8  C7  UNL     1      39.786  53.694  17.421  1.00  0.00     0.010 C 
HETATM    9  C8  UNL     1      40.415  52.419  17.796  1.00  0.00     0.056 C 
HETATM   10  C9  UNL     1      39.716  51.994  19.055  1.00  0.00     0.238 C 
HETATM   11  C10 UNL     1      40.190  51.258  16.802  1.00  0.00     0.090 C 
HETATM   12  C17 UNL     1      38.825  50.643  17.037  1.00  0.00     0.041 C 
HETATM   13  C18 UNL     1      37.795  51.657  17.496  1.00  0.00     0.014 C 
ENDROOT
BRANCH  11  14
HETATM   14  O1  UNL     1      41.149  50.305  17.139  1.00  0.00    -0.388 OA
ATOM     15  H1  UNL     1      40.785  49.845  17.886  1.00  0.00     0.210 HD
ENDBRANCH  11  14
BRANCH  11  16
HETATM   16  C11 UNL     1      40.389  51.750  15.433  1.00  0.00     0.310 C 
BRANCH  16  17
HETATM   17  N2  UNL     1      40.350  50.753  14.358  1.00  0.00     0.091 N 
HETATM   18  C12 UNL     1      39.263  51.291  13.481  1.00  0.00     0.272 C 
HETATM   19  C13 UNL     1      39.129  50.436  12.263  1.00  0.00     0.030 C 
HETATM   20  C14 UNL     1      40.377  50.724  11.410  1.00  0.00     0.003 C 
HETATM   21  C15 UNL     1      41.556  50.317  12.224  1.00  0.00     0.030 C 
HETATM   22  C16 UNL     1      41.590  50.922  13.593  1.00  0.00     0.272 C 
ENDBRANCH  16  17
ENDBRANCH  11  16
TORSDOF 3
ENDMDL
MODEL 4
REMARK VINA RESULT: -6.619541920      1.773      2.747
REMARK  3 active torsions:
REMARK  status: ('A' for Active; 'I' for Inactive)
REMARK    1  A    between atoms: C10_11  and  O1_12 
REMARK    2  A    between atoms: C10_11  and  C11_14 
REMARK    3  A    between atoms: C11_14  and  N2_15 
ROOT
HETATM    1  C1  UNL     1      41.054  52.051  20.544  1.00  0.00     0.310 C 
HETATM    2  N1  UNL     1      40.000  52.961  20.142  1.00  0.00     0.090 N 
HETATM    3  C2  UNL     1      38.850  52.781  21.056  1.00  0.00     0.272 C 
HETATM    4  C3  UNL     1      37.767  53.750  20.795  1.00  0.00     0.031 C 
HETATM    5  C4  UNL     1      37.741  54.408  19.477  1.00  0.00     0.013 C 
HETATM    6  C5  UNL     1      38.654  53.877  18.443  1.00  0.00    -0.009 C 
HETATM    7  C6  UNL     1      39.799  54.872  18.194  1.00  0.00     0.012 C 
HETATM    8  C7  UNL     1      40.804  53.990  17.444  1.00  0.00     0.010 C 
HETATM    9  C8  UNL     1      40.449  52.591  17.724  1.00  0.00     0.056 C 
HETATM   10  C9  UNL     1      39.460  52.658  18.853  1.00  0.00     0.238 C 
HETATM   11  C10 UNL     1      39.703  51.862  16.583  1.00  0.00     0.090 C 
HETATM   12  C17 UNL     1      38.234  52.233  16.615  1.00  0.00     0.041 C 
HETATM   13  C18 UNL     1      37.997  53.653  17.091  1.00  0.00     0.014 C 
ENDROOT
BRANCH  11  14
HETATM   14  O1  UNL     1      39.807  50.508  16.895  1.00  0.00    -0.388 OA
ATOM     15  H1  UNL     1      39.498  50.439  17.790  1.00  0.00     0.210 HD
ENDBRANCH  11  14
BRANCH  11  16
HETATM   16  C11 UNL     1      40.363  52.165  15.306  1.00  0.00     0.310 C 
BRANCH  16  17
HETATM   17  N2  UNL     1      40.445  51.076  14.328  1.00  0.00     0.091 N 
HETATM   18  C12 UNL     1      39.321  51.416  13.398  1.00  0.00     0.272 C 
HETATM   19  C13 UNL     1      39.296  50.444  12.264  1.00  0.00     0.030 C 
HETATM   20  C14 UNL     1      40.520  50.781  11.396  1.00  0.00     0.003 C 
HETATM   21  C15 UNL     1      41.722  50.576  12.251  1.00  0.00     0.030 C 
HETATM   22  C16 UNL     1      41.672  51.303  13.559  1.00  0.00     0.272 C 
ENDBRANCH  16  17
ENDBRANCH  11  16
TORSDOF 3
ENDMDL
MODEL 5
REMARK VINA RESULT: -6.600575791      2.156      3.481
REMARK  3 active torsions:
REMARK  status: ('A' for Active; 'I' for Inactive)
REMARK    1  A    between atoms: C10_11  and  O1_12 
REMARK    2  A    between atoms: C10_11  and  C11_14 
REMARK    3  A    between atoms: C11_14  and  N2_15 
ROOT
HETATM    1  C1  UNL     1      39.902  52.085  20.168  1.00  0.00     0.310 C 
HETATM    2  N1  UNL     1      40.341  52.262  18.798  1.00  0.00     0.090 N 
HETATM    3  C2  UNL     1      41.148  53.500  18.719  1.00  0.00     0.272 C 
HETATM    4  C3  UNL     1      41.738  53.703  17.381  1.00  0.00     0.031 C 
HETATM    5  C4  UNL     1      41.127  52.984  16.249  1.00  0.00     0.013 C 
HETATM    6  C5  UNL     1      39.839  52.306  16.500  1.00  0.00    -0.009 C 
HETATM    7  C6  UNL     1      40.042  50.783  16.516  1.00  0.00     0.012 C 
HETATM    8  C7  UNL     1      38.741  50.314  17.177  1.00  0.00     0.010 C 
HETATM    9  C8  UNL     1      38.169  51.472  17.881  1.00  0.00     0.056 C 
HETATM   10  C9  UNL     1      39.262  52.502  17.890  1.00  0.00     0.238 C 
HETATM   11  C10 UNL     1      36.983  52.155  17.164  1.00  0.00     0.090 C 
HETATM   12  C17 UNL     1      37.505  53.080  16.083  1.00  0.00     0.041 C 
HETATM   13  C18 UNL     1      38.781  52.573  15.441  1.00  0.00     0.014 C 
ENDROOT
BRANCH  11  14
HETATM   14  O1  UNL     1      36.378  52.942  18.142  1.00  0.00    -0.388 OA
ATOM     15  H1  UNL     1      35.580  53.263  17.739  1.00  0.00     0.210 HD
ENDBRANCH  11  14
BRANCH  11  16
HETATM   16  C11 UNL     1      36.062  51.125  16.667  1.00  0.00     0.310 C 
BRANCH  16  17
HETATM   17  N2  UNL     1      35.355  51.415  15.416  1.00  0.00     0.091 N 
HETATM   18  C12 UNL     1      35.602  50.167  14.627  1.00  0.00     0.272 C 
HETATM   19  C13 UNL     1      34.876  50.242  13.324  1.00  0.00     0.030 C 
HETATM   20  C14 UNL     1      33.383  50.093  13.668  1.00  0.00     0.003 C 
HETATM   21  C15 UNL     1      33.029  51.242  14.546  1.00  0.00     0.030 C 
HETATM   22  C16 UNL     1      33.924  51.399  15.736  1.00  0.00     0.272 C 
ENDBRANCH  16  17
ENDBRANCH  11  16
TORSDOF 3
ENDMDL
