MODEL 1
REMARK VINA RESULT: -9.279830712      0.000      0.000
REMARK  7 active torsions:
REMARK  status: ('A' for Active; 'I' for Inactive)
REMARK       I    between atoms: N2_3  and  C2_5 
REMARK       I    between atoms: C2_5  and  N3_6 
REMARK       I    between atoms: C2_5  and  N7_26 
REMARK    1  A    between atoms: N3_6  and  C3_7 
REMARK    2  A    between atoms: C6_10  and  N4_11 
REMARK    3  A    between atoms: N4_11  and  C7_13 
REMARK    4  A    between atoms: C7_13  and  N5_15 
REMARK    5  A    between atoms: N5_15  and  C8_17 
REMARK    6  A    between atoms: N7_26  and  C15_28 
REMARK    7  A    between atoms: C15_28  and  C16_29 
ROOT
HETATM    1  N1  UNL     1     -16.259  -1.463 -15.618  1.00  0.00    -0.172 NA
HETATM    2  C1  UNL     1     -15.465  -0.669 -15.402  1.00  0.00     0.185 C 
HETATM    3  N2  UNL     1     -14.477   0.274 -15.112  1.00  0.00    -0.253 N 
ATOM      4  H2  UNL     1     -14.578   1.244 -15.410  1.00  0.00     0.182 HD
HETATM    5  C2  UNL     1     -13.299  -0.156 -14.376  1.00  0.00     0.264 C 
HETATM    6  N3  UNL     1     -12.635  -0.972 -14.899  1.00  0.00    -0.371 NA
HETATM    7  N7  UNL     1     -13.080   0.454 -13.132  1.00  0.00    -0.344 N 
ATOM      8  H7  UNL     1     -12.321   1.133 -13.077  1.00  0.00     0.164 HD
ENDROOT
BRANCH   6   9
HETATM    9  C3  UNL     1     -11.831  -1.890 -15.410  1.00  0.00     0.111 A 
HETATM   10  C4  UNL     1     -10.933  -2.615 -14.618  1.00  0.00     0.047 A 
HETATM   11  C5  UNL     1     -10.117  -3.528 -15.124  1.00  0.00     0.033 A 
HETATM   12  C6  UNL     1     -10.083  -3.857 -16.519  1.00  0.00     0.034 A 
HETATM   13  C13 UNL     1     -10.936  -3.163 -17.268  1.00  0.00     0.033 A 
HETATM   14  C14 UNL     1     -11.812  -2.195 -16.755  1.00  0.00     0.047 A 
BRANCH  12  15
HETATM   15  N4  UNL     1      -9.203  -4.881 -16.833  1.00  0.00    -0.333 N 
ATOM     16  H4  UNL     1      -9.669  -5.787 -16.886  1.00  0.00     0.168 HD
BRANCH  15  17
HETATM   17  C7  UNL     1      -7.839  -4.975 -17.094  1.00  0.00     0.177 C 
HETATM   18  S1  UNL     1      -7.142  -6.399 -16.910  1.00  0.00    -0.040 SA
BRANCH  17  19
HETATM   19  N5  UNL     1      -7.067  -3.775 -17.467  1.00  0.00    -0.319 N 
ATOM     20  H5  UNL     1      -6.975  -3.377 -18.401  1.00  0.00     0.169 HD
BRANCH  19  21
HETATM   21  C8  UNL     1      -6.529  -3.326 -16.379  1.00  0.00     0.106 A 
HETATM   22  C9  UNL     1      -5.993  -2.930 -15.333  1.00  0.00     0.048 A 
HETATM   23  C10 UNL     1      -5.087  -2.125 -14.777  1.00  0.00     0.005 A 
HETATM   24  C11 UNL     1      -4.355  -1.335 -15.687  1.00  0.00     0.017 A 
HETATM   25  C12 UNL     1      -4.764  -1.586 -16.991  1.00  0.00     0.089 A 
HETATM   26  N6  UNL     1      -5.641  -2.378 -17.418  1.00  0.00    -0.352 N 
ATOM     27  H6  UNL     1      -5.811  -2.440 -18.422  1.00  0.00     0.166 HD
ENDBRANCH  19  21
ENDBRANCH  17  19
ENDBRANCH  15  17
ENDBRANCH  12  15
ENDBRANCH   6   9
BRANCH   7  28
HETATM   28  C15 UNL     1     -13.827   0.212 -11.927  1.00  0.00     0.180 C 
BRANCH  28  29
HETATM   29  C16 UNL     1     -12.878  -0.038 -10.810  1.00  0.00     0.026 A 
HETATM   30  C17 UNL     1     -12.524  -1.348 -10.574  1.00  0.00     0.027 A 
HETATM   31  C18 UNL     1     -11.581  -1.678  -9.602  1.00  0.00     0.003 A 
HETATM   32  C19 UNL     1     -11.007  -0.649  -8.887  1.00  0.00     0.017 A 
HETATM   33  C20 UNL     1     -11.378   0.618  -9.149  1.00  0.00     0.088 A 
HETATM   34  N8  UNL     1     -12.297   0.890 -10.096  1.00  0.00    -0.368 N 
ATOM     35  H8  UNL     1     -12.550   1.863 -10.262  1.00  0.00     0.165 HD
ENDBRANCH  28  29
ENDBRANCH   7  28
TORSDOF 7
ENDMDL
MODEL 2
REMARK VINA RESULT: -9.061369956      2.451      3.988
REMARK  7 active torsions:
REMARK  status: ('A' for Active; 'I' for Inactive)
REMARK       I    between atoms: N2_3  and  C2_5 
REMARK       I    between atoms: C2_5  and  N3_6 
REMARK       I    between atoms: C2_5  and  N7_26 
REMARK    1  A    between atoms: N3_6  and  C3_7 
REMARK    2  A    between atoms: C6_10  and  N4_11 
REMARK    3  A    between atoms: N4_11  and  C7_13 
REMARK    4  A    between atoms: C7_13  and  N5_15 
REMARK    5  A    between atoms: N5_15  and  C8_17 
REMARK    6  A    between atoms: N7_26  and  C15_28 
REMARK    7  A    between atoms: C15_28  and  C16_29 
ROOT
HETATM    1  N1  UNL     1     -16.173  -1.513 -15.493  1.00  0.00    -0.172 NA
HETATM    2  C1  UNL     1     -15.368  -0.713 -15.348  1.00  0.00     0.185 C 
HETATM    3  N2  UNL     1     -14.366   0.239 -15.146  1.00  0.00    -0.253 N 
ATOM      4  H2  UNL     1     -14.486   1.199 -15.469  1.00  0.00     0.182 HD
HETATM    5  C2  UNL     1     -13.148  -0.168 -14.465  1.00  0.00     0.264 C 
HETATM    6  N3  UNL     1     -12.514  -1.002 -14.999  1.00  0.00    -0.371 NA
HETATM    7  N7  UNL     1     -12.859   0.482 -13.257  1.00  0.00    -0.344 N 
ATOM      8  H7  UNL     1     -12.098   1.161 -13.267  1.00  0.00     0.164 HD
ENDROOT
BRANCH   6   9
HETATM    9  C3  UNL     1     -11.740  -1.936 -15.525  1.00  0.00     0.111 A 
HETATM   10  C4  UNL     1     -11.575  -2.071 -16.909  1.00  0.00     0.047 A 
HETATM   11  C5  UNL     1     -10.811  -3.011 -17.444  1.00  0.00     0.033 A 
HETATM   12  C6  UNL     1     -10.084  -3.967 -16.661  1.00  0.00     0.034 A 
HETATM   13  C13 UNL     1     -10.247  -3.836 -15.346  1.00  0.00     0.033 A 
HETATM   14  C14 UNL     1     -11.047  -2.847 -14.756  1.00  0.00     0.047 A 
BRANCH  12  15
HETATM   15  N4  UNL     1      -9.296  -4.825 -17.410  1.00  0.00    -0.333 N 
ATOM     16  H4  UNL     1      -9.799  -5.210 -18.211  1.00  0.00     0.168 HD
BRANCH  15  17
HETATM   17  C7  UNL     1      -7.987  -5.291 -17.339  1.00  0.00     0.177 C 
HETATM   18  S1  UNL     1      -6.820  -4.215 -17.169  1.00  0.00    -0.040 SA
BRANCH  17  19
HETATM   19  N5  UNL     1      -7.699  -6.731 -17.481  1.00  0.00    -0.319 N 
ATOM     20  H5  UNL     1      -7.074  -7.162 -18.162  1.00  0.00     0.169 HD
BRANCH  19  21
HETATM   21  C8  UNL     1      -8.392  -7.340 -16.574  1.00  0.00     0.106 A 
HETATM   22  C9  UNL     1      -9.089  -7.907 -15.719  1.00  0.00     0.048 A 
HETATM   23  C10 UNL     1      -9.644  -9.048 -15.306  1.00  0.00     0.005 A 
HETATM   24  C11 UNL     1      -9.398 -10.161 -16.134  1.00  0.00     0.017 A 
HETATM   25  C12 UNL     1      -8.609  -9.801 -17.219  1.00  0.00     0.089 A 
HETATM   26  N6  UNL     1      -8.129  -8.681 -17.524  1.00  0.00    -0.352 N 
ATOM     27  H6  UNL     1      -7.567  -8.591 -18.370  1.00  0.00     0.166 HD
ENDBRANCH  19  21
ENDBRANCH  17  19
ENDBRANCH  15  17
ENDBRANCH  12  15
ENDBRANCH   6   9
BRANCH   7  28
HETATM   28  C15 UNL     1     -13.536   0.280 -12.003  1.00  0.00     0.180 C 
BRANCH  28  29
HETATM   29  C16 UNL     1     -13.084   1.316 -11.036  1.00  0.00     0.026 A 
HETATM   30  C17 UNL     1     -12.317   2.344 -11.538  1.00  0.00     0.027 A 
HETATM   31  C18 UNL     1     -11.911   3.404 -10.728  1.00  0.00     0.003 A 
HETATM   32  C19 UNL     1     -12.309   3.394  -9.408  1.00  0.00     0.017 A 
HETATM   33  C20 UNL     1     -13.061   2.372  -8.958  1.00  0.00     0.088 A 
HETATM   34  N8  UNL     1     -13.426   1.367  -9.776  1.00  0.00    -0.368 N 
ATOM     35  H8  UNL     1     -13.995   0.612  -9.394  1.00  0.00     0.165 HD
ENDBRANCH  28  29
ENDBRANCH   7  28
TORSDOF 7
ENDMDL
MODEL 3
REMARK VINA RESULT: -9.025105172      2.119      3.669
REMARK  7 active torsions:
REMARK  status: ('A' for Active; 'I' for Inactive)
REMARK       I    between atoms: N2_3  and  C2_5 
REMARK       I    between atoms: C2_5  and  N3_6 
REMARK       I    between atoms: C2_5  and  N7_26 
REMARK    1  A    between atoms: N3_6  and  C3_7 
REMARK    2  A    between atoms: C6_10  and  N4_11 
REMARK    3  A    between atoms: N4_11  and  C7_13 
REMARK    4  A    between atoms: C7_13  and  N5_15 
REMARK    5  A    between atoms: N5_15  and  C8_17 
REMARK    6  A    between atoms: N7_26  and  C15_28 
REMARK    7  A    between atoms: C15_28  and  C16_29 
ROOT
HETATM    1  N1  UNL     1     -16.253  -1.483 -15.596  1.00  0.00    -0.172 NA
HETATM    2  C1  UNL     1     -15.454  -0.694 -15.375  1.00  0.00     0.185 C 
HETATM    3  N2  UNL     1     -14.460   0.242 -15.080  1.00  0.00    -0.253 N 
ATOM      4  H2  UNL     1     -14.562   1.216 -15.362  1.00  0.00     0.182 HD
HETATM    5  C2  UNL     1     -13.277  -0.203 -14.361  1.00  0.00     0.264 C 
HETATM    6  N3  UNL     1     -12.620  -1.013 -14.903  1.00  0.00    -0.371 NA
HETATM    7  N7  UNL     1     -13.045   0.387 -13.111  1.00  0.00    -0.344 N 
ATOM      8  H7  UNL     1     -12.283   1.062 -13.052  1.00  0.00     0.164 HD
ENDROOT
BRANCH   6   9
HETATM    9  C3  UNL     1     -11.824  -1.925 -15.435  1.00  0.00     0.111 A 
HETATM   10  C4  UNL     1     -11.674  -2.063 -16.821  1.00  0.00     0.047 A 
HETATM   11  C5  UNL     1     -10.887  -2.980 -17.362  1.00  0.00     0.033 A 
HETATM   12  C6  UNL     1     -10.120  -3.908 -16.585  1.00  0.00     0.034 A 
HETATM   13  C13 UNL     1     -10.269  -3.776 -15.268  1.00  0.00     0.033 A 
HETATM   14  C14 UNL     1     -11.092  -2.810 -14.672  1.00  0.00     0.047 A 
BRANCH  12  15
HETATM   15  N4  UNL     1      -9.316  -4.745 -17.341  1.00  0.00    -0.333 N 
ATOM     16  H4  UNL     1      -9.784  -5.068 -18.188  1.00  0.00     0.168 HD
BRANCH  15  17
HETATM   17  C7  UNL     1      -8.025  -5.254 -17.227  1.00  0.00     0.177 C 
HETATM   18  S1  UNL     1      -6.843  -4.226 -16.923  1.00  0.00    -0.040 SA
BRANCH  17  19
HETATM   19  N5  UNL     1      -7.767  -6.690 -17.447  1.00  0.00    -0.319 N 
ATOM     20  H5  UNL     1      -7.183  -7.098 -18.177  1.00  0.00     0.169 HD
BRANCH  19  21
HETATM   21  C8  UNL     1      -8.425  -7.329 -16.535  1.00  0.00     0.106 A 
HETATM   22  C9  UNL     1      -9.089  -7.926 -15.674  1.00  0.00     0.048 A 
HETATM   23  C10 UNL     1      -9.605  -9.087 -15.267  1.00  0.00     0.005 A 
HETATM   24  C11 UNL     1      -9.347 -10.182 -16.115  1.00  0.00     0.017 A 
HETATM   25  C12 UNL     1      -8.590  -9.786 -17.210  1.00  0.00     0.089 A 
HETATM   26  N6  UNL     1      -8.147  -8.650 -17.509  1.00  0.00    -0.352 N 
ATOM     27  H6  UNL     1      -7.605  -8.534 -18.365  1.00  0.00     0.166 HD
ENDBRANCH  19  21
ENDBRANCH  17  19
ENDBRANCH  15  17
ENDBRANCH  12  15
ENDBRANCH   6   9
BRANCH   7  28
HETATM   28  C15 UNL     1     -13.782   0.129 -11.902  1.00  0.00     0.180 C 
BRANCH  28  29
HETATM   29  C16 UNL     1     -12.823  -0.097 -10.789  1.00  0.00     0.026 A 
HETATM   30  C17 UNL     1     -12.460  -1.401 -10.533  1.00  0.00     0.027 A 
HETATM   31  C18 UNL     1     -11.507  -1.710  -9.563  1.00  0.00     0.003 A 
HETATM   32  C19 UNL     1     -10.934  -0.665  -8.870  1.00  0.00     0.017 A 
HETATM   33  C20 UNL     1     -11.314   0.595  -9.151  1.00  0.00     0.088 A 
HETATM   34  N8  UNL     1     -12.241   0.846 -10.095  1.00  0.00    -0.368 N 
ATOM     35  H8  UNL     1     -12.501   1.815 -10.276  1.00  0.00     0.165 HD
ENDBRANCH  28  29
ENDBRANCH   7  28
TORSDOF 7
ENDMDL
MODEL 4
REMARK VINA RESULT: -8.963501368      2.052      2.562
REMARK  7 active torsions:
REMARK  status: ('A' for Active; 'I' for Inactive)
REMARK       I    between atoms: N2_3  and  C2_5 
REMARK       I    between atoms: C2_5  and  N3_6 
REMARK       I    between atoms: C2_5  and  N7_26 
REMARK    1  A    between atoms: N3_6  and  C3_7 
REMARK    2  A    between atoms: C6_10  and  N4_11 
REMARK    3  A    between atoms: N4_11  and  C7_13 
REMARK    4  A    between atoms: C7_13  and  N5_15 
REMARK    5  A    between atoms: N5_15  and  C8_17 
REMARK    6  A    between atoms: N7_26  and  C15_28 
REMARK    7  A    between atoms: C15_28  and  C16_29 
ROOT
HETATM    1  N1  UNL     1     -16.322  -1.407 -15.579  1.00  0.00    -0.172 NA
HETATM    2  C1  UNL     1     -15.501  -0.631 -15.396  1.00  0.00     0.185 C 
HETATM    3  N2  UNL     1     -14.482   0.290 -15.146  1.00  0.00    -0.253 N 
ATOM      4  H2  UNL     1     -14.552   1.249 -15.485  1.00  0.00     0.182 HD
HETATM    5  C2  UNL     1     -13.318  -0.148 -14.393  1.00  0.00     0.264 C 
HETATM    6  N3  UNL     1     -12.682  -1.007 -14.881  1.00  0.00    -0.371 NA
HETATM    7  N7  UNL     1     -13.078   0.507 -13.176  1.00  0.00    -0.344 N 
ATOM      8  H7  UNL     1     -12.296   1.162 -13.149  1.00  0.00     0.164 HD
ENDROOT
BRANCH   6   9
HETATM    9  C3  UNL     1     -11.910  -1.971 -15.353  1.00  0.00     0.111 A 
HETATM   10  C4  UNL     1     -11.084  -2.736 -14.521  1.00  0.00     0.047 A 
HETATM   11  C5  UNL     1     -10.300  -3.696 -14.987  1.00  0.00     0.033 A 
HETATM   12  C6  UNL     1     -10.228  -4.041 -16.377  1.00  0.00     0.034 A 
HETATM   13  C13 UNL     1     -11.012  -3.308 -17.164  1.00  0.00     0.033 A 
HETATM   14  C14 UNL     1     -11.854  -2.289 -16.694  1.00  0.00     0.047 A 
BRANCH  12  15
HETATM   15  N4  UNL     1      -9.394  -5.113 -16.648  1.00  0.00    -0.333 N 
ATOM     16  H4  UNL     1      -9.912  -5.934 -16.962  1.00  0.00     0.168 HD
BRANCH  15  17
HETATM   17  C7  UNL     1      -8.022  -5.343 -16.599  1.00  0.00     0.177 C 
HETATM   18  S1  UNL     1      -7.078  -4.416 -17.493  1.00  0.00    -0.040 SA
BRANCH  17  19
HETATM   19  N5  UNL     1      -7.481  -6.452 -15.791  1.00  0.00    -0.319 N 
ATOM     20  H5  UNL     1      -6.713  -7.072 -16.046  1.00  0.00     0.169 HD
BRANCH  19  21
HETATM   21  C8  UNL     1      -8.168  -6.484 -14.695  1.00  0.00     0.106 A 
HETATM   22  C9  UNL     1      -8.815  -6.552 -13.639  1.00  0.00     0.048 A 
HETATM   23  C10 UNL     1      -8.912  -6.178 -12.362  1.00  0.00     0.005 A 
HETATM   24  C11 UNL     1      -7.874  -5.339 -11.907  1.00  0.00     0.017 A 
HETATM   25  C12 UNL     1      -6.965  -5.088 -12.927  1.00  0.00     0.089 A 
HETATM   26  N6  UNL     1      -6.962  -5.495 -14.116  1.00  0.00    -0.352 N 
ATOM     27  H6  UNL     1      -6.204  -5.213 -14.738  1.00  0.00     0.166 HD
ENDBRANCH  19  21
ENDBRANCH  17  19
ENDBRANCH  15  17
ENDBRANCH  12  15
ENDBRANCH   6   9
BRANCH   7  28
HETATM   28  C15 UNL     1     -13.831   0.341 -11.962  1.00  0.00     0.180 C 
BRANCH  28  29
HETATM   29  C16 UNL     1     -12.894   0.033 -10.849  1.00  0.00     0.026 A 
HETATM   30  C17 UNL     1     -12.608  -1.295 -10.623  1.00  0.00     0.027 A 
HETATM   31  C18 UNL     1     -11.681  -1.681  -9.656  1.00  0.00     0.003 A 
HETATM   32  C19 UNL     1     -11.054  -0.689  -8.934  1.00  0.00     0.017 A 
HETATM   33  C20 UNL     1     -11.360   0.598  -9.185  1.00  0.00     0.088 A 
HETATM   34  N8  UNL     1     -12.264   0.924 -10.128  1.00  0.00    -0.368 N 
ATOM     35  H8  UNL     1     -12.467   1.911 -10.287  1.00  0.00     0.165 HD
ENDBRANCH  28  29
ENDBRANCH   7  28
TORSDOF 7
ENDMDL
MODEL 5
REMARK VINA RESULT: -8.928013805      3.056      7.519
REMARK  7 active torsions:
REMARK  status: ('A' for Active; 'I' for Inactive)
REMARK       I    between atoms: N2_3  and  C2_5 
REMARK       I    between atoms: C2_5  and  N3_6 
REMARK       I    between atoms: C2_5  and  N7_26 
REMARK    1  A    between atoms: N3_6  and  C3_7 
REMARK    2  A    between atoms: C6_10  and  N4_11 
REMARK    3  A    between atoms: N4_11  and  C7_13 
REMARK    4  A    between atoms: C7_13  and  N5_15 
REMARK    5  A    between atoms: N5_15  and  C8_17 
REMARK    6  A    between atoms: N7_26  and  C15_28 
REMARK    7  A    between atoms: C15_28  and  C16_29 
ROOT
HETATM    1  N1  UNL     1      -5.856  -2.113 -14.712  1.00  0.00    -0.172 NA
HETATM    2  C1  UNL     1      -6.201  -3.022 -15.315  1.00  0.00     0.185 C 
HETATM    3  N2  UNL     1      -6.648  -4.141 -16.021  1.00  0.00    -0.253 N 
ATOM      4  H2  UNL     1      -6.133  -4.487 -16.830  1.00  0.00     0.182 HD
HETATM    5  C2  UNL     1      -7.866  -4.801 -15.579  1.00  0.00     0.264 C 
HETATM    6  N3  UNL     1      -8.845  -4.151 -15.612  1.00  0.00    -0.371 NA
HETATM    7  N7  UNL     1      -7.742  -6.137 -15.173  1.00  0.00    -0.344 N 
ATOM      8  H7  UNL     1      -8.113  -6.849 -15.802  1.00  0.00     0.164 HD
ENDROOT
BRANCH   6   9
HETATM    9  C3  UNL     1      -9.993  -3.495 -15.613  1.00  0.00     0.111 A 
HETATM   10  C4  UNL     1     -10.646  -3.140 -14.426  1.00  0.00     0.047 A 
HETATM   11  C5  UNL     1     -11.802  -2.493 -14.419  1.00  0.00     0.033 A 
HETATM   12  C6  UNL     1     -12.482  -2.095 -15.616  1.00  0.00     0.034 A 
HETATM   13  C13 UNL     1     -11.859  -2.437 -16.741  1.00  0.00     0.033 A 
HETATM   14  C14 UNL     1     -10.634  -3.119 -16.775  1.00  0.00     0.047 A 
BRANCH  12  15
HETATM   15  N4  UNL     1     -13.644  -1.375 -15.389  1.00  0.00    -0.333 N 
ATOM     16  H4  UNL     1     -14.480  -1.903 -15.644  1.00  0.00     0.168 HD
BRANCH  15  17
HETATM   17  C7  UNL     1     -13.951  -0.109 -14.899  1.00  0.00     0.177 C 
HETATM   18  S1  UNL     1     -13.801   1.131 -15.892  1.00  0.00    -0.040 SA
BRANCH  17  19
HETATM   19  N5  UNL     1     -14.338   0.070 -13.487  1.00  0.00    -0.319 N 
ATOM     20  H5  UNL     1     -15.282   0.016 -13.103  1.00  0.00     0.169 HD
BRANCH  19  21
HETATM   21  C8  UNL     1     -13.250   0.309 -12.830  1.00  0.00     0.106 A 
HETATM   22  C9  UNL     1     -12.209   0.576 -12.209  1.00  0.00     0.048 A 
HETATM   23  C10 UNL     1     -11.625   0.728 -11.019  1.00  0.00     0.005 A 
HETATM   24  C11 UNL     1     -12.472   0.522  -9.912  1.00  0.00     0.017 A 
HETATM   25  C12 UNL     1     -13.756   0.196 -10.330  1.00  0.00     0.089 A 
HETATM   26  N6  UNL     1     -14.213   0.077 -11.494  1.00  0.00    -0.352 N 
ATOM     27  H6  UNL     1     -15.196  -0.167 -11.622  1.00  0.00     0.166 HD
ENDBRANCH  19  21
ENDBRANCH  17  19
ENDBRANCH  15  17
ENDBRANCH  12  15
ENDBRANCH   6   9
BRANCH   7  28
HETATM   28  C15 UNL     1      -7.140  -6.598 -13.951  1.00  0.00     0.180 C 
BRANCH  28  29
HETATM   29  C16 UNL     1      -7.655  -5.784 -12.818  1.00  0.00     0.026 A 
HETATM   30  C17 UNL     1      -8.966  -5.990 -12.448  1.00  0.00     0.027 A 
HETATM   31  C18 UNL     1      -9.518  -5.333 -11.349  1.00  0.00     0.003 A 
HETATM   32  C19 UNL     1      -8.708  -4.473 -10.640  1.00  0.00     0.017 A 
HETATM   33  C20 UNL     1      -7.432  -4.300 -11.033  1.00  0.00     0.088 A 
HETATM   34  N8  UNL     1      -6.942  -4.954 -12.103  1.00  0.00    -0.368 N 
ATOM     35  H8  UNL     1      -5.970  -4.794 -12.368  1.00  0.00     0.165 HD
ENDBRANCH  28  29
ENDBRANCH   7  28
TORSDOF 7
ENDMDL
