MODEL 1
REMARK VINA RESULT: -6.928440342      0.000      0.000
REMARK  6 active torsions:
REMARK  status: ('A' for Active; 'I' for Inactive)
REMARK    1  A    between atoms: O1_1  and  C1_3 
REMARK    2  A    between atoms: C3_10  and  C4_11 
REMARK    3  A    between atoms: C4_11  and  C5_12 
REMARK    4  A    between atoms: C5_12  and  C6_13 
REMARK    5  A    between atoms: C6_13  and  O2_14 
REMARK    6  A    between atoms: O2_14  and  C7_15 
ROOT
HETATM    1  C1  UNL     1      24.982  -3.573  31.992  1.00  0.00     0.165 A 
HETATM    2  N1  UNL     1      25.528  -2.678  32.839  1.00  0.00    -0.312 N 
ATOM      3  H1  UNL     1      25.027  -2.146  33.550  1.00  0.00     0.170 HD
HETATM    4  C2  UNL     1      26.838  -2.610  32.586  1.00  0.00     0.178 A 
HETATM    5  S1  UNL     1      27.943  -1.667  33.348  1.00  0.00    -0.040 SA
HETATM    6  N2  UNL     1      27.129  -3.458  31.579  1.00  0.00    -0.333 N 
ATOM      7  H2  UNL     1      28.054  -3.612  31.178  1.00  0.00     0.168 HD
HETATM    8  C3  UNL     1      25.994  -4.070  31.190  1.00  0.00     0.062 A 
ENDROOT
BRANCH   8   9
HETATM    9  C4  UNL     1      25.771  -5.074  30.140  1.00  0.00     0.064 C 
BRANCH   9  10
HETATM   10  C5  UNL     1      25.541  -6.468  30.685  1.00  0.00     0.032 C 
BRANCH  10  11
HETATM   11  C6  UNL     1      26.847  -7.228  30.477  1.00  0.00     0.168 C 
BRANCH  11  12
HETATM   12  O2  UNL     1      27.512  -7.229  31.674  1.00  0.00    -0.386 OA
BRANCH  12  13
HETATM   13  C7  UNL     1      28.799  -6.695  31.591  1.00  0.00     0.121 C 
HETATM   14  C8  UNL     1      29.266  -6.845  30.189  1.00  0.00     0.032 C 
HETATM   15  C9  UNL     1      30.737  -6.780  29.974  1.00  0.00     0.002 C 
HETATM   16  C10 UNL     1      31.584  -7.203  31.112  1.00  0.00     0.000 C 
HETATM   17  C11 UNL     1      30.844  -8.067  32.099  1.00  0.00     0.002 C 
HETATM   18  C12 UNL     1      29.632  -7.360  32.636  1.00  0.00     0.032 C 
ENDBRANCH  12  13
ENDBRANCH  11  12
ENDBRANCH  10  11
ENDBRANCH   9  10
ENDBRANCH   8   9
BRANCH   1  19
HETATM   19  O1  UNL     1      23.639  -3.915  31.952  1.00  0.00    -0.345 OA
ATOM     20  H1  UNL     1      23.297  -4.796  32.049  1.00  0.00     0.219 HD
ENDBRANCH   1  19
TORSDOF 6
ENDMDL
MODEL 2
REMARK VINA RESULT: -6.852543908      2.463      3.562
REMARK  6 active torsions:
REMARK  status: ('A' for Active; 'I' for Inactive)
REMARK    1  A    between atoms: O1_1  and  C1_3 
REMARK    2  A    between atoms: C3_10  and  C4_11 
REMARK    3  A    between atoms: C4_11  and  C5_12 
REMARK    4  A    between atoms: C5_12  and  C6_13 
REMARK    5  A    between atoms: C6_13  and  O2_14 
REMARK    6  A    between atoms: O2_14  and  C7_15 
ROOT
HETATM    1  C1  UNL     1      25.953  -6.004  30.919  1.00  0.00     0.165 A 
HETATM    2  N1  UNL     1      25.544  -4.899  30.264  1.00  0.00    -0.312 N 
ATOM      3  H1  UNL     1      24.582  -4.569  30.192  1.00  0.00     0.170 HD
HETATM    4  C2  UNL     1      26.618  -4.312  29.726  1.00  0.00     0.178 A 
HETATM    5  S1  UNL     1      26.647  -2.937  28.833  1.00  0.00    -0.040 SA
HETATM    6  N2  UNL     1      27.710  -5.041  30.036  1.00  0.00    -0.333 N 
ATOM      7  H2  UNL     1      28.667  -4.826  29.757  1.00  0.00     0.168 HD
HETATM    8  C3  UNL     1      27.327  -6.098  30.777  1.00  0.00     0.062 A 
ENDROOT
BRANCH   8   9
HETATM    9  C4  UNL     1      28.124  -7.185  31.361  1.00  0.00     0.064 C 
BRANCH   9  10
HETATM   10  C5  UNL     1      29.359  -6.695  32.090  1.00  0.00     0.032 C 
BRANCH  10  11
HETATM   11  C6  UNL     1      30.551  -7.101  31.231  1.00  0.00     0.168 C 
BRANCH  11  12
HETATM   12  O2  UNL     1      30.631  -6.207  30.197  1.00  0.00    -0.386 OA
BRANCH  12  13
HETATM   13  C7  UNL     1      31.836  -6.280  29.495  1.00  0.00     0.121 C 
HETATM   14  C8  UNL     1      31.537  -6.073  28.055  1.00  0.00     0.032 C 
HETATM   15  C9  UNL     1      32.562  -6.561  27.092  1.00  0.00     0.002 C 
HETATM   16  C10 UNL     1      33.397  -7.696  27.546  1.00  0.00     0.000 C 
HETATM   17  C11 UNL     1      32.768  -8.467  28.676  1.00  0.00     0.002 C 
HETATM   18  C12 UNL     1      32.489  -7.574  29.852  1.00  0.00     0.032 C 
ENDBRANCH  12  13
ENDBRANCH  11  12
ENDBRANCH  10  11
ENDBRANCH   9  10
ENDBRANCH   8   9
BRANCH   1  19
HETATM   19  O1  UNL     1      25.122  -6.876  31.606  1.00  0.00    -0.345 OA
ATOM     20  H1  UNL     1      24.765  -6.721  32.472  1.00  0.00     0.219 HD
ENDBRANCH   1  19
TORSDOF 6
ENDMDL
MODEL 3
REMARK VINA RESULT: -6.825842184      2.637      3.387
REMARK  6 active torsions:
REMARK  status: ('A' for Active; 'I' for Inactive)
REMARK    1  A    between atoms: O1_1  and  C1_3 
REMARK    2  A    between atoms: C3_10  and  C4_11 
REMARK    3  A    between atoms: C4_11  and  C5_12 
REMARK    4  A    between atoms: C5_12  and  C6_13 
REMARK    5  A    between atoms: C6_13  and  O2_14 
REMARK    6  A    between atoms: O2_14  and  C7_15 
ROOT
HETATM    1  C1  UNL     1      25.047  -5.710  31.039  1.00  0.00     0.165 A 
HETATM    2  N1  UNL     1      24.334  -4.712  30.479  1.00  0.00    -0.312 N 
ATOM      3  H1  UNL     1      23.359  -4.492  30.675  1.00  0.00     0.170 HD
HETATM    4  C2  UNL     1      25.128  -4.063  29.621  1.00  0.00     0.178 A 
HETATM    5  S1  UNL     1      24.730  -2.772  28.691  1.00  0.00    -0.040 SA
HETATM    6  N2  UNL     1      26.345  -4.645  29.633  1.00  0.00    -0.333 N 
ATOM      7  H2  UNL     1      27.148  -4.356  29.075  1.00  0.00     0.168 HD
HETATM    8  C3  UNL     1      26.324  -5.671  30.505  1.00  0.00     0.062 A 
ENDROOT
BRANCH   8   9
HETATM    9  C4  UNL     1      27.383  -6.615  30.883  1.00  0.00     0.064 C 
BRANCH   9  10
HETATM   10  C5  UNL     1      28.339  -6.927  29.750  1.00  0.00     0.032 C 
BRANCH  10  11
HETATM   11  C6  UNL     1      29.744  -6.819  30.335  1.00  0.00     0.168 C 
BRANCH  11  12
HETATM   12  O2  UNL     1      30.372  -5.784  29.696  1.00  0.00    -0.386 OA
BRANCH  12  13
HETATM   13  C7  UNL     1      31.677  -6.089  29.302  1.00  0.00     0.121 C 
HETATM   14  C8  UNL     1      31.713  -6.102  27.817  1.00  0.00     0.032 C 
HETATM   15  C9  UNL     1      32.843  -6.841  27.191  1.00  0.00     0.002 C 
HETATM   16  C10 UNL     1      33.412  -7.956  27.981  1.00  0.00     0.000 C 
HETATM   17  C11 UNL     1      32.468  -8.461  29.040  1.00  0.00     0.002 C 
HETATM   18  C12 UNL     1      32.069  -7.359  29.981  1.00  0.00     0.032 C 
ENDBRANCH  12  13
ENDBRANCH  11  12
ENDBRANCH  10  11
ENDBRANCH   9  10
ENDBRANCH   8   9
BRANCH   1  19
HETATM   19  O1  UNL     1      24.562  -6.603  31.982  1.00  0.00    -0.345 OA
ATOM     20  H1  UNL     1      23.702  -7.006  31.960  1.00  0.00     0.219 HD
ENDBRANCH   1  19
TORSDOF 6
ENDMDL
MODEL 4
REMARK VINA RESULT: -6.752898359      5.809      8.138
REMARK  6 active torsions:
REMARK  status: ('A' for Active; 'I' for Inactive)
REMARK    1  A    between atoms: O1_1  and  C1_3 
REMARK    2  A    between atoms: C3_10  and  C4_11 
REMARK    3  A    between atoms: C4_11  and  C5_12 
REMARK    4  A    between atoms: C5_12  and  C6_13 
REMARK    5  A    between atoms: C6_13  and  O2_14 
REMARK    6  A    between atoms: O2_14  and  C7_15 
ROOT
HETATM    1  C1  UNL     1      33.756  -7.263  26.652  1.00  0.00     0.165 A 
HETATM    2  N1  UNL     1      34.990  -7.272  26.109  1.00  0.00    -0.312 N 
ATOM      3  H1  UNL     1      35.271  -6.791  25.255  1.00  0.00     0.170 HD
HETATM    4  C2  UNL     1      35.782  -8.019  26.885  1.00  0.00     0.178 A 
HETATM    5  S1  UNL     1      37.373  -8.339  26.654  1.00  0.00    -0.040 SA
HETATM    6  N2  UNL     1      35.055  -8.487  27.920  1.00  0.00    -0.333 N 
ATOM      7  H2  UNL     1      35.403  -9.085  28.669  1.00  0.00     0.168 HD
HETATM    8  C3  UNL     1      33.793  -8.033  27.802  1.00  0.00     0.062 A 
ENDROOT
BRANCH   8   9
HETATM    9  C4  UNL     1      32.622  -8.253  28.661  1.00  0.00     0.064 C 
BRANCH   9  10
HETATM   10  C5  UNL     1      32.754  -7.615  30.028  1.00  0.00     0.032 C 
BRANCH  10  11
HETATM   11  C6  UNL     1      31.668  -6.547  30.108  1.00  0.00     0.168 C 
BRANCH  11  12
HETATM   12  O2  UNL     1      30.856  -6.871  31.160  1.00  0.00    -0.386 OA
BRANCH  12  13
HETATM   13  C7  UNL     1      29.547  -6.408  31.011  1.00  0.00     0.121 C 
HETATM   14  C8  UNL     1      28.646  -7.345  31.730  1.00  0.00     0.032 C 
HETATM   15  C9  UNL     1      27.214  -7.322  31.328  1.00  0.00     0.002 C 
HETATM   16  C10 UNL     1      26.931  -6.905  29.936  1.00  0.00     0.000 C 
HETATM   17  C11 UNL     1      28.129  -7.040  29.033  1.00  0.00     0.002 C 
HETATM   18  C12 UNL     1      29.291  -6.240  29.550  1.00  0.00     0.032 C 
ENDBRANCH  12  13
ENDBRANCH  11  12
ENDBRANCH  10  11
ENDBRANCH   9  10
ENDBRANCH   8   9
BRANCH   1  19
HETATM   19  O1  UNL     1      32.662  -6.592  26.130  1.00  0.00    -0.345 OA
ATOM     20  H1  UNL     1      31.766  -6.691  26.432  1.00  0.00     0.219 HD
ENDBRANCH   1  19
TORSDOF 6
ENDMDL
MODEL 5
REMARK VINA RESULT: -6.709358970      2.476      3.590
REMARK  6 active torsions:
REMARK  status: ('A' for Active; 'I' for Inactive)
REMARK    1  A    between atoms: O1_1  and  C1_3 
REMARK    2  A    between atoms: C3_10  and  C4_11 
REMARK    3  A    between atoms: C4_11  and  C5_12 
REMARK    4  A    between atoms: C5_12  and  C6_13 
REMARK    5  A    between atoms: C6_13  and  O2_14 
REMARK    6  A    between atoms: O2_14  and  C7_15 
ROOT
HETATM    1  C1  UNL     1      27.598  -4.443  29.495  1.00  0.00     0.165 A 
HETATM    2  N1  UNL     1      26.962  -3.256  29.521  1.00  0.00    -0.312 N 
ATOM      3  H1  UNL     1      26.913  -2.587  28.753  1.00  0.00     0.170 HD
HETATM    4  C2  UNL     1      26.407  -3.106  30.728  1.00  0.00     0.178 A 
HETATM    5  S1  UNL     1      25.524  -1.830  31.257  1.00  0.00    -0.040 SA
HETATM    6  N2  UNL     1      26.688  -4.196  31.471  1.00  0.00    -0.333 N 
ATOM      7  H2  UNL     1      26.391  -4.352  32.434  1.00  0.00     0.168 HD
HETATM    8  C3  UNL     1      27.427  -5.044  30.731  1.00  0.00     0.062 A 
ENDROOT
BRANCH   8   9
HETATM    9  C4  UNL     1      27.987  -6.359  31.072  1.00  0.00     0.064 C 
BRANCH   9  10
HETATM   10  C5  UNL     1      29.321  -6.274  31.785  1.00  0.00     0.032 C 
BRANCH  10  11
HETATM   11  C6  UNL     1      30.347  -6.903  30.849  1.00  0.00     0.168 C 
BRANCH  11  12
HETATM   12  O2  UNL     1      30.635  -5.979  29.881  1.00  0.00    -0.386 OA
BRANCH  12  13
HETATM   13  C7  UNL     1      31.881  -6.175  29.283  1.00  0.00     0.121 C 
HETATM   14  C8  UNL     1      31.707  -6.048  27.813  1.00  0.00     0.032 C 
HETATM   15  C9  UNL     1      32.765  -6.664  26.968  1.00  0.00     0.002 C 
HETATM   16  C10 UNL     1      33.485  -7.815  27.557  1.00  0.00     0.000 C 
HETATM   17  C11 UNL     1      32.722  -8.467  28.680  1.00  0.00     0.002 C 
HETATM   18  C12 UNL     1      32.416  -7.480  29.771  1.00  0.00     0.032 C 
ENDBRANCH  12  13
ENDBRANCH  11  12
ENDBRANCH  10  11
ENDBRANCH   9  10
ENDBRANCH   8   9
BRANCH   1  19
HETATM   19  O1  UNL     1      28.294  -4.950  28.409  1.00  0.00    -0.345 OA
ATOM     20  H1  UNL     1      28.142  -4.710  27.503  1.00  0.00     0.219 HD
ENDBRANCH   1  19
TORSDOF 6
ENDMDL
