MODEL 1
REMARK VINA RESULT: -6.282947405      0.000      0.000
REMARK  1 active torsions:
REMARK  status: ('A' for Active; 'I' for Inactive)
REMARK    1  A    between atoms: C4_6  and  N2_7 
ROOT
HETATM    1  C1  UNL     1       4.932  12.961  12.362  1.00  0.00     0.002 C 
HETATM    2  C2  UNL     1       6.112  12.049  12.140  1.00  0.00     0.020 C 
HETATM    3  C3  UNL     1       5.860  10.978  11.130  1.00  0.00     0.121 C 
HETATM    4  N1  UNL     1       4.989   9.968  11.709  1.00  0.00    -0.380 N 
ATOM      5  H1  UNL     1       5.382   9.028  11.745  1.00  0.00     0.160 HD
HETATM    6  C4  UNL     1       3.793  10.077  12.187  1.00  0.00     0.075 C 
HETATM    7  C9  UNL     1       3.030  11.345  12.237  1.00  0.00     0.076 C 
HETATM    8  C10 UNL     1       3.804  12.310  13.099  1.00  0.00     0.007 C 
ENDROOT
BRANCH   6   9
HETATM    9  N2  UNL     1       3.195   8.890  12.689  1.00  0.00    -0.367 N 
HETATM   10  C5  UNL     1       1.763   8.964  12.945  1.00  0.00     0.150 C 
HETATM   11  C6  UNL     1       1.127   7.646  13.177  1.00  0.00     0.187 C 
HETATM   12  O1  UNL     1       1.911   6.553  12.921  1.00  0.00    -0.388 OA
HETATM   13  C7  UNL     1       3.086   6.700  13.693  1.00  0.00     0.187 C 
HETATM   14  C8  UNL     1       3.956   7.680  12.932  1.00  0.00     0.150 C 
ENDBRANCH   6   9
TORSDOF 1
ENDMDL
MODEL 2
REMARK VINA RESULT: -6.267889135      2.235      5.220
REMARK  1 active torsions:
REMARK  status: ('A' for Active; 'I' for Inactive)
REMARK    1  A    between atoms: C4_6  and  N2_7 
ROOT
HETATM    1  C1  UNL     1       1.513   6.624  13.146  1.00  0.00     0.002 C 
HETATM    2  C2  UNL     1       0.548   7.667  13.649  1.00  0.00     0.020 C 
HETATM    3  C3  UNL     1       0.268   8.751  12.661  1.00  0.00     0.121 C 
HETATM    4  N1  UNL     1       1.421   9.633  12.576  1.00  0.00    -0.380 N 
ATOM      5  H1  UNL     1       1.236  10.607  12.815  1.00  0.00     0.160 HD
HETATM    6  C4  UNL     1       2.642   9.373  12.246  1.00  0.00     0.075 C 
HETATM    7  C9  UNL     1       3.133   8.029  11.864  1.00  0.00     0.076 C 
HETATM    8  C10 UNL     1       2.922   7.114  13.043  1.00  0.00     0.007 C 
ENDROOT
BRANCH   6   9
HETATM    9  N2  UNL     1       3.553  10.464  12.258  1.00  0.00    -0.367 N 
HETATM   10  C5  UNL     1       4.899  10.168  11.788  1.00  0.00     0.150 C 
HETATM   11  C6  UNL     1       5.723  11.373  11.533  1.00  0.00     0.187 C 
HETATM   12  O1  UNL     1       5.058  12.569  11.577  1.00  0.00    -0.388 OA
HETATM   13  C7  UNL     1       4.419  12.640  12.835  1.00  0.00     0.187 C 
HETATM   14  C8  UNL     1       3.172  11.789  12.710  1.00  0.00     0.150 C 
ENDBRANCH   6   9
TORSDOF 1
ENDMDL
MODEL 3
REMARK VINA RESULT: -6.265200379      0.541      1.339
REMARK  1 active torsions:
REMARK  status: ('A' for Active; 'I' for Inactive)
REMARK    1  A    between atoms: C4_6  and  N2_7 
ROOT
HETATM    1  C1  UNL     1       4.910  12.976  12.503  1.00  0.00     0.002 C 
HETATM    2  C2  UNL     1       6.093  12.072  12.272  1.00  0.00     0.020 C 
HETATM    3  C3  UNL     1       5.890  11.090  11.165  1.00  0.00     0.121 C 
HETATM    4  N1  UNL     1       4.980  10.047  11.610  1.00  0.00    -0.380 N 
ATOM      5  H1  UNL     1       5.365   9.102  11.589  1.00  0.00     0.160 HD
HETATM    6  C4  UNL     1       3.761  10.131  12.028  1.00  0.00     0.075 C 
HETATM    7  C9  UNL     1       3.006  11.400  12.141  1.00  0.00     0.076 C 
HETATM    8  C10 UNL     1       3.738  12.281  13.121  1.00  0.00     0.007 C 
ENDROOT
BRANCH   6   9
HETATM    9  N2  UNL     1       3.127   8.913  12.397  1.00  0.00    -0.367 N 
HETATM   10  C5  UNL     1       3.746   7.699  11.883  1.00  0.00     0.150 C 
HETATM   11  C6  UNL     1       3.249   6.457  12.521  1.00  0.00     0.187 C 
HETATM   12  O1  UNL     1       2.449   6.631  13.618  1.00  0.00    -0.388 OA
HETATM   13  C7  UNL     1       1.382   7.468  13.222  1.00  0.00     0.187 C 
HETATM   14  C8  UNL     1       1.941   8.876  13.230  1.00  0.00     0.150 C 
ENDBRANCH   6   9
TORSDOF 1
ENDMDL
MODEL 4
REMARK VINA RESULT: -6.228664750      2.339      4.976
REMARK  1 active torsions:
REMARK  status: ('A' for Active; 'I' for Inactive)
REMARK    1  A    between atoms: C4_6  and  N2_7 
ROOT
HETATM    1  C1  UNL     1       1.014   7.849  13.808  1.00  0.00     0.002 C 
HETATM    2  C2  UNL     1       0.911   9.019  14.751  1.00  0.00     0.020 C 
HETATM    3  C3  UNL     1       0.752  10.334  14.061  1.00  0.00     0.121 C 
HETATM    4  N1  UNL     1       2.022  10.722  13.470  1.00  0.00    -0.380 N 
ATOM      5  H1  UNL     1       2.401  11.607  13.805  1.00  0.00     0.160 HD
HETATM    6  C4  UNL     1       2.745  10.118  12.585  1.00  0.00     0.075 C 
HETATM    7  C9  UNL     1       2.389   8.823  11.963  1.00  0.00     0.076 C 
HETATM    8  C10 UNL     1       2.310   7.795  13.062  1.00  0.00     0.007 C 
ENDROOT
BRANCH   6   9
HETATM    9  N2  UNL     1       3.954  10.760  12.203  1.00  0.00    -0.367 N 
HETATM   10  C5  UNL     1       4.029  12.187  12.489  1.00  0.00     0.150 C 
HETATM   11  C6  UNL     1       5.392  12.753  12.357  1.00  0.00     0.187 C 
HETATM   12  O1  UNL     1       6.401  11.844  12.189  1.00  0.00    -0.388 OA
HETATM   13  C7  UNL     1       6.062  11.053  11.068  1.00  0.00     0.187 C 
HETATM   14  C8  UNL     1       5.045  10.047  11.569  1.00  0.00     0.150 C 
ENDBRANCH   6   9
TORSDOF 1
ENDMDL
MODEL 5
REMARK VINA RESULT: -6.086311545      2.156      5.043
REMARK  1 active torsions:
REMARK  status: ('A' for Active; 'I' for Inactive)
REMARK    1  A    between atoms: C4_6  and  N2_7 
ROOT
HETATM    1  C1  UNL     1       1.577   6.646  13.159  1.00  0.00     0.002 C 
HETATM    2  C2  UNL     1       0.698   7.755  13.677  1.00  0.00     0.020 C 
HETATM    3  C3  UNL     1       0.426   8.825  12.672  1.00  0.00     0.121 C 
HETATM    4  N1  UNL     1       1.620   9.638  12.503  1.00  0.00    -0.380 N 
ATOM      5  H1  UNL     1       1.501  10.628  12.721  1.00  0.00     0.160 HD
HETATM    6  C4  UNL     1       2.807   9.302  12.121  1.00  0.00     0.075 C 
HETATM    7  C9  UNL     1       3.203   7.923  11.756  1.00  0.00     0.076 C 
HETATM    8  C10 UNL     1       3.004   7.054  12.971  1.00  0.00     0.007 C 
ENDROOT
BRANCH   6   9
HETATM    9  N2  UNL     1       3.775  10.340  12.054  1.00  0.00    -0.367 N 
HETATM   10  C5  UNL     1       3.312  11.661  12.459  1.00  0.00     0.150 C 
HETATM   11  C6  UNL     1       4.404  12.642  12.663  1.00  0.00     0.187 C 
HETATM   12  O1  UNL     1       5.674  12.131  12.644  1.00  0.00    -0.388 OA
HETATM   13  C7  UNL     1       5.823  11.443  11.419  1.00  0.00     0.187 C 
HETATM   14  C8  UNL     1       5.136  10.107  11.613  1.00  0.00     0.150 C 
ENDBRANCH   6   9
TORSDOF 1
ENDMDL
