MODEL 1
REMARK VINA RESULT: -6.971500514      0.000      0.000
REMARK  0 active torsions:
REMARK  status: ('A' for Active; 'I' for Inactive)
ROOT
HETATM    1  C1  UNL     1      -0.181 -20.616  11.991  1.00  0.00     0.015 C 
HETATM    2  C2  UNL     1       1.155 -21.264  12.026  1.00  0.00    -0.048 C 
HETATM    3  C3  UNL     1       0.699 -22.698  11.481  1.00  0.00     0.015 C 
HETATM    4  C4  UNL     1       1.658 -21.695  13.364  1.00  0.00     0.011 C 
HETATM    5  C5  UNL     1       1.756 -20.645  14.451  1.00  0.00     0.036 C 
HETATM    6  C6  UNL     1       2.504 -19.502  13.868  1.00  0.00     0.160 C 
HETATM    7  C7  UNL     1       2.584 -18.209  14.634  1.00  0.00     0.035 C 
HETATM    8  C8  UNL     1       2.470 -17.127  13.539  1.00  0.00     0.008 C 
HETATM    9  C9  UNL     1       3.657 -16.864  12.748  1.00  0.00     0.058 C 
HETATM   10  C10 UNL     1       4.196 -17.905  11.842  1.00  0.00     0.047 A 
HETATM   11  N1  UNL     1       5.300 -17.525  11.228  1.00  0.00    -0.333 N 
ATOM     12  H1  UNL     1       5.754 -16.619  11.346  1.00  0.00     0.168 HD
HETATM   13  C11 UNL     1       5.761 -18.551  10.391  1.00  0.00     0.191 A 
HETATM   14  N2  UNL     1       6.959 -18.451   9.571  1.00  0.00    -0.063 NA
HETATM   15  N3  UNL     1       4.984 -19.543  10.466  1.00  0.00    -0.326 N 
ATOM     16  H3  UNL     1       5.093 -20.420   9.957  1.00  0.00     0.165 HD
HETATM   17  C12 UNL     1       3.914 -19.236  11.392  1.00  0.00     0.209 A 
HETATM   18  C13 UNL     1       2.574 -19.520  10.720  1.00  0.00     0.071 C 
HETATM   19  C14 UNL     1       2.137 -20.899  10.991  1.00  0.00     0.014 C 
HETATM   20  O1  UNL     1       4.043 -20.215  12.382  1.00  0.00    -0.201 OA
HETATM   21  O2  UNL     1       3.785 -19.840  13.556  1.00  0.00    -0.233 OA
ENDROOT
TORSDOF 0
ENDMDL
MODEL 2
REMARK VINA RESULT: -5.943287423      2.702      5.317
REMARK  0 active torsions:
REMARK  status: ('A' for Active; 'I' for Inactive)
ROOT
HETATM    1  C1  UNL     1       6.924 -20.560   7.263  1.00  0.00     0.015 C 
HETATM    2  C2  UNL     1       7.665 -20.013   8.428  1.00  0.00    -0.048 C 
HETATM    3  C3  UNL     1       9.065 -19.784   7.687  1.00  0.00     0.015 C 
HETATM    4  C4  UNL     1       8.125 -20.995   9.453  1.00  0.00     0.011 C 
HETATM    5  C5  UNL     1       7.080 -21.883  10.096  1.00  0.00     0.036 C 
HETATM    6  C6  UNL     1       5.996 -20.985  10.569  1.00  0.00     0.160 C 
HETATM    7  C7  UNL     1       4.708 -21.586  11.065  1.00  0.00     0.035 C 
HETATM    8  C8  UNL     1       3.626 -20.622  10.536  1.00  0.00     0.008 C 
HETATM    9  C9  UNL     1       3.451 -19.372  11.251  1.00  0.00     0.058 C 
HETATM   10  C10 UNL     1       4.532 -18.358  11.257  1.00  0.00     0.047 A 
HETATM   11  N1  UNL     1       4.234 -17.300  11.987  1.00  0.00    -0.333 N 
ATOM     12  H1  UNL     1       3.362 -17.168  12.499  1.00  0.00     0.168 HD
HETATM   13  C11 UNL     1       5.293 -16.382  11.955  1.00  0.00     0.191 A 
HETATM   14  N2  UNL     1       5.282 -15.108  12.658  1.00  0.00    -0.063 NA
HETATM   15  N3  UNL     1       6.227 -16.835  11.237  1.00  0.00    -0.326 N 
ATOM     16  H3  UNL     1       7.112 -16.363  11.049  1.00  0.00     0.165 HD
HETATM   17  C12 UNL     1       5.841 -18.132  10.721  1.00  0.00     0.209 A 
HETATM   18  C13 UNL     1       6.032 -18.146   9.208  1.00  0.00     0.071 C 
HETATM   19  C14 UNL     1       7.375 -18.634   8.857  1.00  0.00     0.014 C 
HETATM   20  O1  UNL     1       6.822 -18.992  11.223  1.00  0.00    -0.201 OA
HETATM   21  O2  UNL     1       6.425 -20.142  11.547  1.00  0.00    -0.233 OA
ENDROOT
TORSDOF 0
ENDMDL
MODEL 3
REMARK VINA RESULT: -5.571263354      2.854      4.869
REMARK  0 active torsions:
REMARK  status: ('A' for Active; 'I' for Inactive)
ROOT
HETATM    1  C1  UNL     1       3.172 -19.676  10.131  1.00  0.00     0.015 C 
HETATM    2  C2  UNL     1       4.161 -19.845  11.226  1.00  0.00    -0.048 C 
HETATM    3  C3  UNL     1       3.178 -20.537  12.282  1.00  0.00     0.015 C 
HETATM    4  C4  UNL     1       4.502 -18.627  12.018  1.00  0.00     0.011 C 
HETATM    5  C5  UNL     1       5.024 -17.421  11.266  1.00  0.00     0.036 C 
HETATM    6  C6  UNL     1       6.133 -17.907  10.406  1.00  0.00     0.160 C 
HETATM    7  C7  UNL     1       6.721 -16.984   9.373  1.00  0.00     0.035 C 
HETATM    8  C8  UNL     1       6.995 -17.907   8.169  1.00  0.00     0.008 C 
HETATM    9  C9  UNL     1       8.169 -18.757   8.243  1.00  0.00     0.058 C 
HETATM   10  C10 UNL     1       8.244 -19.839   9.253  1.00  0.00     0.047 A 
HETATM   11  N1  UNL     1       9.391 -20.489   9.218  1.00  0.00    -0.333 N 
ATOM     12  H1  UNL     1      10.158 -20.290   8.576  1.00  0.00     0.168 HD
HETATM   13  C11 UNL     1       9.402 -21.494  10.195  1.00  0.00     0.191 A 
HETATM   14  N2  UNL     1      10.524 -22.394  10.419  1.00  0.00    -0.063 NA
HETATM   15  N3  UNL     1       8.309 -21.486  10.826  1.00  0.00    -0.326 N 
ATOM     16  H3  UNL     1       8.061 -22.117  11.589  1.00  0.00     0.165 HD
HETATM   17  C12 UNL     1       7.464 -20.438  10.295  1.00  0.00     0.209 A 
HETATM   18  C13 UNL     1       6.098 -21.022   9.950  1.00  0.00     0.071 C 
HETATM   19  C14 UNL     1       5.177 -20.903  11.093  1.00  0.00     0.014 C 
HETATM   20  O1  UNL     1       7.240 -19.604  11.394  1.00  0.00    -0.201 OA
HETATM   21  O2  UNL     1       7.179 -18.373  11.141  1.00  0.00    -0.233 OA
ENDROOT
TORSDOF 0
ENDMDL
MODEL 4
REMARK VINA RESULT: -5.536732329      2.237      5.182
REMARK  0 active torsions:
REMARK  status: ('A' for Active; 'I' for Inactive)
ROOT
HETATM    1  C1  UNL     1       6.613 -19.981   7.613  1.00  0.00     0.015 C 
HETATM    2  C2  UNL     1       7.070 -19.406   8.904  1.00  0.00    -0.048 C 
HETATM    3  C3  UNL     1       8.370 -18.659   8.344  1.00  0.00     0.015 C 
HETATM    4  C4  UNL     1       7.751 -20.337   9.851  1.00  0.00     0.011 C 
HETATM    5  C5  UNL     1       7.000 -21.582  10.276  1.00  0.00     0.036 C 
HETATM    6  C6  UNL     1       5.661 -21.133  10.734  1.00  0.00     0.160 C 
HETATM    7  C7  UNL     1       4.600 -22.161  11.021  1.00  0.00     0.035 C 
HETATM    8  C8  UNL     1       3.305 -21.507  10.497  1.00  0.00     0.008 C 
HETATM    9  C9  UNL     1       2.700 -20.484  11.330  1.00  0.00     0.058 C 
HETATM   10  C10 UNL     1       3.404 -19.201  11.565  1.00  0.00     0.047 A 
HETATM   11  N1  UNL     1       2.743 -18.398  12.376  1.00  0.00    -0.333 N 
ATOM     12  H1  UNL     1       1.843 -18.612  12.807  1.00  0.00     0.168 HD
HETATM   13  C11 UNL     1       3.459 -17.207  12.561  1.00  0.00     0.191 A 
HETATM   14  N2  UNL     1       3.002 -16.110  13.401  1.00  0.00    -0.063 NA
HETATM   15  N3  UNL     1       4.531 -17.248  11.896  1.00  0.00    -0.326 N 
ATOM     16  H3  UNL     1       5.232 -16.508  11.857  1.00  0.00     0.165 HD
HETATM   17  C12 UNL     1       4.607 -18.514  11.197  1.00  0.00     0.209 A 
HETATM   18  C13 UNL     1       4.886 -18.254   9.720  1.00  0.00     0.071 C 
HETATM   19  C14 UNL     1       6.334 -18.256   9.456  1.00  0.00     0.014 C 
HETATM   20  O1  UNL     1       5.775 -19.097  11.696  1.00  0.00    -0.201 OA
HETATM   21  O2  UNL     1       5.741 -20.347  11.842  1.00  0.00    -0.233 OA
ENDROOT
TORSDOF 0
ENDMDL
MODEL 5
REMARK VINA RESULT: -5.532385154      2.552      4.963
REMARK  0 active torsions:
REMARK  status: ('A' for Active; 'I' for Inactive)
ROOT
HETATM    1  C1  UNL     1       7.735 -20.035  11.411  1.00  0.00     0.015 C 
HETATM    2  C2  UNL     1       6.777 -20.367  10.326  1.00  0.00    -0.048 C 
HETATM    3  C3  UNL     1       7.808 -21.138   9.376  1.00  0.00     0.015 C 
HETATM    4  C4  UNL     1       6.411 -19.262   9.391  1.00  0.00     0.011 C 
HETATM    5  C5  UNL     1       5.830 -17.997   9.989  1.00  0.00     0.036 C 
HETATM    6  C6  UNL     1       4.720 -18.423  10.878  1.00  0.00     0.160 C 
HETATM    7  C7  UNL     1       4.076 -17.409  11.786  1.00  0.00     0.035 C 
HETATM    8  C8  UNL     1       3.808 -18.198  13.084  1.00  0.00     0.008 C 
HETATM    9  C9  UNL     1       2.666 -19.094  13.087  1.00  0.00     0.058 C 
HETATM   10  C10 UNL     1       2.653 -20.287  12.209  1.00  0.00     0.047 A 
HETATM   11  N1  UNL     1       1.529 -20.972  12.297  1.00  0.00    -0.333 N 
ATOM     12  H1  UNL     1       0.741 -20.730  12.897  1.00  0.00     0.168 HD
HETATM   13  C11 UNL     1       1.576 -22.083  11.443  1.00  0.00     0.191 A 
HETATM   14  N2  UNL     1       0.492 -23.045  11.305  1.00  0.00    -0.063 NA
HETATM   15  N3  UNL     1       2.682 -22.106  10.836  1.00  0.00    -0.326 N 
ATOM     16  H3  UNL     1       2.970 -22.811  10.157  1.00  0.00     0.165 HD
HETATM   17  C12 UNL     1       3.477 -20.973  11.258  1.00  0.00     0.209 A 
HETATM   18  C13 UNL     1       4.855 -21.461  11.693  1.00  0.00     0.071 C 
HETATM   19  C14 UNL     1       5.797 -21.440  10.562  1.00  0.00     0.014 C 
HETATM   20  O1  UNL     1       3.696 -20.263  10.073  1.00  0.00    -0.201 OA
HETATM   21  O2  UNL     1       3.708 -19.009  10.183  1.00  0.00    -0.233 OA
ENDROOT
TORSDOF 0
ENDMDL
