MODEL 1
REMARK VINA RESULT: -6.107534116      0.000      0.000
REMARK  10 active torsions:
REMARK  status: ('A' for Active; 'I' for Inactive)
REMARK    1  A    between atoms: C3_3  and  N1_4 
REMARK    2  A    between atoms: N1_4  and  C4_5 
REMARK    3  A    between atoms: C4_5  and  C5_6 
REMARK    4  A    between atoms: C6_7  and  C7_8 
REMARK    5  A    between atoms: C8_9  and  C9_10 
REMARK    6  A    between atoms: C10_11  and  S1_12 
REMARK    7  A    between atoms: S1_12  and  N2_14 
REMARK    8  A    between atoms: S1_12  and  N3_20 
REMARK    9  A    between atoms: N2_14  and  C11_16 
REMARK   10  A    between atoms: C11_16  and  C12_17 
ROOT
HETATM    1  C1  UNL     1      20.840 -12.075  25.821  1.00  0.00     0.013 C 
HETATM    2  C2  UNL     1      21.278 -13.121  26.221  1.00  0.00    -0.089 C 
HETATM    3  C3  UNL     1      21.836 -14.396  26.718  1.00  0.00     0.331 C 
ENDROOT
BRANCH   3   4
HETATM    4  N1  UNL     1      21.801 -15.378  25.625  1.00  0.00    -0.044 N 
HETATM    5  C16 UNL     1      23.106 -16.090  25.394  1.00  0.00     0.267 A 
HETATM    6  C17 UNL     1      22.590 -15.140  24.452  1.00  0.00     0.267 A 
BRANCH   4   7
HETATM    7  C4  UNL     1      20.621 -16.195  25.538  1.00  0.00     0.332 C 
BRANCH   7   8
HETATM    8  C5  UNL     1      19.523 -15.504  24.857  1.00  0.00    -0.074 C 
HETATM    9  C6  UNL     1      18.630 -14.921  24.282  1.00  0.00    -0.076 C 
BRANCH   9  10
HETATM   10  C7  UNL     1      17.593 -14.214  23.592  1.00  0.00     0.073 C 
HETATM   11  C8  UNL     1      17.819 -13.167  22.809  1.00  0.00     0.074 C 
BRANCH  11  12
HETATM   12  C9  UNL     1      16.743 -12.498  22.144  1.00  0.00    -0.062 C 
HETATM   13  C10 UNL     1      15.810 -11.946  21.585  1.00  0.00     0.026 C 
BRANCH  13  14
HETATM   14  S1  UNL     1      14.228 -11.062  20.646  1.00  0.00     0.164 S 
HETATM   15  O1  UNL     1      14.823 -11.256  19.143  1.00  0.00    -0.220 OA
BRANCH  14  16
HETATM   16  N2  UNL     1      12.956 -12.355  20.228  1.00  0.00    -0.304 N 
ATOM     17  H2  UNL     1      11.997 -12.252  20.560  1.00  0.00     0.176 HD
BRANCH  16  18
HETATM   18  C11 UNL     1      13.311 -13.457  19.464  1.00  0.00     0.117 C 
BRANCH  18  19
HETATM   19  C12 UNL     1      13.736 -14.589  20.351  1.00  0.00     0.017 C 
HETATM   20  C13 UNL     1      12.967 -15.003  21.353  1.00  0.00     0.033 C 
HETATM   21 BR1  UNL     1      15.410 -15.442  20.030  1.00  0.00    -0.051 Br
ENDBRANCH  18  19
ENDBRANCH  16  18
ENDBRANCH  14  16
BRANCH  14  22
HETATM   22  N3  UNL     1      13.313 -10.754  22.137  1.00  0.00    -0.226 NA
HETATM   23  C14 UNL     1      12.957  -9.378  22.452  1.00  0.00     0.128 C 
HETATM   24  C15 UNL     1      12.106 -11.500  22.456  1.00  0.00     0.128 C 
ENDBRANCH  14  22
ENDBRANCH  13  14
ENDBRANCH  11  12
ENDBRANCH   9  10
ENDBRANCH   7   8
ENDBRANCH   4   7
ENDBRANCH   3   4
TORSDOF 10
ENDMDL
MODEL 2
REMARK VINA RESULT: -5.684498037      1.341      2.242
REMARK  10 active torsions:
REMARK  status: ('A' for Active; 'I' for Inactive)
REMARK    1  A    between atoms: C3_3  and  N1_4 
REMARK    2  A    between atoms: N1_4  and  C4_5 
REMARK    3  A    between atoms: C4_5  and  C5_6 
REMARK    4  A    between atoms: C6_7  and  C7_8 
REMARK    5  A    between atoms: C8_9  and  C9_10 
REMARK    6  A    between atoms: C10_11  and  S1_12 
REMARK    7  A    between atoms: S1_12  and  N2_14 
REMARK    8  A    between atoms: S1_12  and  N3_20 
REMARK    9  A    between atoms: N2_14  and  C11_16 
REMARK   10  A    between atoms: C11_16  and  C12_17 
ROOT
HETATM    1  C1  UNL     1      21.061 -17.326  22.009  1.00  0.00     0.013 C 
HETATM    2  C2  UNL     1      21.801 -16.943  22.875  1.00  0.00    -0.089 C 
HETATM    3  C3  UNL     1      22.714 -16.495  23.948  1.00  0.00     0.331 C 
ENDROOT
BRANCH   3   4
HETATM    4  N1  UNL     1      22.009 -15.506  24.776  1.00  0.00    -0.044 N 
HETATM    5  C16 UNL     1      22.162 -15.722  26.257  1.00  0.00     0.267 A 
HETATM    6  C17 UNL     1      20.912 -15.938  25.591  1.00  0.00     0.267 A 
BRANCH   4   7
HETATM    7  C4  UNL     1      22.076 -14.139  24.335  1.00  0.00     0.332 C 
BRANCH   7   8
HETATM    8  C5  UNL     1      20.797 -13.674  23.792  1.00  0.00    -0.074 C 
HETATM    9  C6  UNL     1      19.730 -13.299  23.360  1.00  0.00    -0.076 C 
BRANCH   9  10
HETATM   10  C7  UNL     1      18.454 -12.875  22.866  1.00  0.00     0.073 C 
HETATM   11  C8  UNL     1      18.305 -12.089  21.807  1.00  0.00     0.074 C 
BRANCH  11  12
HETATM   12  C9  UNL     1      17.005 -11.696  21.358  1.00  0.00    -0.062 C 
HETATM   13  C10 UNL     1      15.886 -11.381  20.988  1.00  0.00     0.026 C 
BRANCH  13  14
HETATM   14  S1  UNL     1      14.001 -10.894  20.377  1.00  0.00     0.164 S 
HETATM   15  O1  UNL     1      14.328 -11.012  18.786  1.00  0.00    -0.220 OA
BRANCH  14  16
HETATM   16  N2  UNL     1      12.986 -12.445  20.207  1.00  0.00    -0.304 N 
ATOM     17  H2  UNL     1      12.055 -12.493  20.621  1.00  0.00     0.176 HD
BRANCH  16  18
HETATM   18  C11 UNL     1      13.495 -13.537  19.518  1.00  0.00     0.117 C 
BRANCH  18  19
HETATM   19  C12 UNL     1      13.939 -14.597  20.479  1.00  0.00     0.017 C 
HETATM   20  C13 UNL     1      13.094 -15.125  21.359  1.00  0.00     0.033 C 
HETATM   21 BR1  UNL     1      15.749 -15.195  20.433  1.00  0.00    -0.051 Br
ENDBRANCH  18  19
ENDBRANCH  16  18
ENDBRANCH  14  16
BRANCH  14  22
HETATM   22  N3  UNL     1      13.340 -10.733  22.018  1.00  0.00    -0.226 NA
HETATM   23  C14 UNL     1      12.934  -9.410  22.467  1.00  0.00     0.128 C 
HETATM   24  C15 UNL     1      12.274 -11.599  22.496  1.00  0.00     0.128 C 
ENDBRANCH  14  22
ENDBRANCH  13  14
ENDBRANCH  11  12
ENDBRANCH   9  10
ENDBRANCH   7   8
ENDBRANCH   4   7
ENDBRANCH   3   4
TORSDOF 10
ENDMDL
MODEL 3
REMARK VINA RESULT: -5.578247116      1.129      1.456
REMARK  10 active torsions:
REMARK  status: ('A' for Active; 'I' for Inactive)
REMARK    1  A    between atoms: C3_3  and  N1_4 
REMARK    2  A    between atoms: N1_4  and  C4_5 
REMARK    3  A    between atoms: C4_5  and  C5_6 
REMARK    4  A    between atoms: C6_7  and  C7_8 
REMARK    5  A    between atoms: C8_9  and  C9_10 
REMARK    6  A    between atoms: C10_11  and  S1_12 
REMARK    7  A    between atoms: S1_12  and  N2_14 
REMARK    8  A    between atoms: S1_12  and  N3_20 
REMARK    9  A    between atoms: N2_14  and  C11_16 
REMARK   10  A    between atoms: C11_16  and  C12_17 
ROOT
HETATM    1  C1  UNL     1      21.013 -12.373  26.669  1.00  0.00     0.013 C 
HETATM    2  C2  UNL     1      21.136 -13.499  26.266  1.00  0.00    -0.089 C 
HETATM    3  C3  UNL     1      21.296 -14.889  25.792  1.00  0.00     0.331 C 
ENDROOT
BRANCH   3   4
HETATM    4  N1  UNL     1      22.191 -14.884  24.625  1.00  0.00    -0.044 N 
HETATM    5  C16 UNL     1      22.190 -16.168  23.842  1.00  0.00     0.267 A 
HETATM    6  C17 UNL     1      23.325 -15.761  24.616  1.00  0.00     0.267 A 
BRANCH   4   7
HETATM    7  C4  UNL     1      22.214 -13.677  23.844  1.00  0.00     0.332 C 
BRANCH   7   8
HETATM    8  C5  UNL     1      20.889 -13.338  23.318  1.00  0.00    -0.074 C 
HETATM    9  C6  UNL     1      19.786 -13.059  22.904  1.00  0.00    -0.076 C 
BRANCH   9  10
HETATM   10  C7  UNL     1      18.469 -12.738  22.438  1.00  0.00     0.073 C 
HETATM   11  C8  UNL     1      18.216 -11.753  21.587  1.00  0.00     0.074 C 
BRANCH  11  12
HETATM   12  C9  UNL     1      16.880 -11.477  21.155  1.00  0.00    -0.062 C 
HETATM   13  C10 UNL     1      15.733 -11.247  20.811  1.00  0.00     0.026 C 
BRANCH  13  14
HETATM   14  S1  UNL     1      13.798 -10.887  20.267  1.00  0.00     0.164 S 
HETATM   15  O1  UNL     1      14.055 -11.089  18.673  1.00  0.00    -0.220 OA
BRANCH  14  16
HETATM   16  N2  UNL     1      12.855 -12.492  20.242  1.00  0.00    -0.304 N 
ATOM     17  H2  UNL     1      11.989 -12.582  20.773  1.00  0.00     0.176 HD
BRANCH  16  18
HETATM   18  C11 UNL     1      13.330 -13.565  19.501  1.00  0.00     0.117 C 
BRANCH  18  19
HETATM   19  C12 UNL     1      13.709 -14.696  20.409  1.00  0.00     0.017 C 
HETATM   20  C13 UNL     1      12.781 -15.429  21.018  1.00  0.00     0.033 C 
HETATM   21 BR1  UNL     1      15.554 -15.084  20.690  1.00  0.00    -0.051 Br
ENDBRANCH  18  19
ENDBRANCH  16  18
ENDBRANCH  14  16
BRANCH  14  22
HETATM   22  N3  UNL     1      13.209 -10.656  21.927  1.00  0.00    -0.226 NA
HETATM   23  C14 UNL     1      12.752  -9.330  22.315  1.00  0.00     0.128 C 
HETATM   24  C15 UNL     1      12.216 -11.544  22.512  1.00  0.00     0.128 C 
ENDBRANCH  14  22
ENDBRANCH  13  14
ENDBRANCH  11  12
ENDBRANCH   9  10
ENDBRANCH   7   8
ENDBRANCH   4   7
ENDBRANCH   3   4
TORSDOF 10
ENDMDL
MODEL 4
REMARK VINA RESULT: -5.574569564      1.272      1.531
REMARK  10 active torsions:
REMARK  status: ('A' for Active; 'I' for Inactive)
REMARK    1  A    between atoms: C3_3  and  N1_4 
REMARK    2  A    between atoms: N1_4  and  C4_5 
REMARK    3  A    between atoms: C4_5  and  C5_6 
REMARK    4  A    between atoms: C6_7  and  C7_8 
REMARK    5  A    between atoms: C8_9  and  C9_10 
REMARK    6  A    between atoms: C10_11  and  S1_12 
REMARK    7  A    between atoms: S1_12  and  N2_14 
REMARK    8  A    between atoms: S1_12  and  N3_20 
REMARK    9  A    between atoms: N2_14  and  C11_16 
REMARK   10  A    between atoms: C11_16  and  C12_17 
ROOT
HETATM    1  C1  UNL     1      21.154 -13.020  26.097  1.00  0.00     0.013 C 
HETATM    2  C2  UNL     1      21.549 -14.142  26.273  1.00  0.00    -0.089 C 
HETATM    3  C3  UNL     1      22.051 -15.512  26.502  1.00  0.00     0.331 C 
ENDROOT
BRANCH   3   4
HETATM    4  N1  UNL     1      22.388 -16.110  25.202  1.00  0.00    -0.044 N 
HETATM    5  C16 UNL     1      23.764 -16.713  25.138  1.00  0.00     0.267 A 
HETATM    6  C17 UNL     1      23.432 -15.521  24.416  1.00  0.00     0.267 A 
BRANCH   4   7
HETATM    7  C4  UNL     1      21.347 -16.863  24.557  1.00  0.00     0.332 C 
BRANCH   7   8
HETATM    8  C5  UNL     1      20.371 -15.995  23.892  1.00  0.00    -0.074 C 
HETATM    9  C6  UNL     1      19.571 -15.286  23.323  1.00  0.00    -0.076 C 
BRANCH   9  10
HETATM   10  C7  UNL     1      18.635 -14.455  22.625  1.00  0.00     0.073 C 
HETATM   11  C8  UNL     1      17.810 -13.613  23.235  1.00  0.00     0.074 C 
BRANCH  11  12
HETATM   12  C9  UNL     1      16.896 -12.807  22.486  1.00  0.00    -0.062 C 
HETATM   13  C10 UNL     1      16.133 -12.101  21.846  1.00  0.00     0.026 C 
BRANCH  13  14
HETATM   14  S1  UNL     1      14.881 -10.886  20.788  1.00  0.00     0.164 S 
HETATM   15  O1  UNL     1      15.976 -10.511  19.643  1.00  0.00    -0.220 OA
BRANCH  14  16
HETATM   16  N2  UNL     1      13.988 -11.889  19.499  1.00  0.00    -0.304 N 
ATOM     17  H2  UNL     1      13.001 -12.115  19.622  1.00  0.00     0.176 HD
BRANCH  16  18
HETATM   18  C11 UNL     1      14.665 -12.330  18.370  1.00  0.00     0.117 C 
BRANCH  18  19
HETATM   19  C12 UNL     1      14.681 -13.828  18.325  1.00  0.00     0.017 C 
HETATM   20  C13 UNL     1      14.855 -14.480  17.179  1.00  0.00     0.033 C 
HETATM   21 BR1  UNL     1      14.445 -14.809  19.943  1.00  0.00    -0.051 Br
ENDBRANCH  18  19
ENDBRANCH  16  18
ENDBRANCH  14  16
BRANCH  14  22
HETATM   22  N3  UNL     1      13.479 -11.142  21.848  1.00  0.00    -0.226 NA
HETATM   23  C14 UNL     1      12.781  -9.971  22.358  1.00  0.00     0.128 C 
HETATM   24  C15 UNL     1      12.403 -12.048  21.479  1.00  0.00     0.128 C 
ENDBRANCH  14  22
ENDBRANCH  13  14
ENDBRANCH  11  12
ENDBRANCH   9  10
ENDBRANCH   7   8
ENDBRANCH   4   7
ENDBRANCH   3   4
TORSDOF 10
ENDMDL
MODEL 5
REMARK VINA RESULT: -5.529327032      1.060      1.885
REMARK  10 active torsions:
REMARK  status: ('A' for Active; 'I' for Inactive)
REMARK    1  A    between atoms: C3_3  and  N1_4 
REMARK    2  A    between atoms: N1_4  and  C4_5 
REMARK    3  A    between atoms: C4_5  and  C5_6 
REMARK    4  A    between atoms: C6_7  and  C7_8 
REMARK    5  A    between atoms: C8_9  and  C9_10 
REMARK    6  A    between atoms: C10_11  and  S1_12 
REMARK    7  A    between atoms: S1_12  and  N2_14 
REMARK    8  A    between atoms: S1_12  and  N3_20 
REMARK    9  A    between atoms: N2_14  and  C11_16 
REMARK   10  A    between atoms: C11_16  and  C12_17 
ROOT
HETATM    1  C1  UNL     1      18.686 -16.402  25.510  1.00  0.00     0.013 C 
HETATM    2  C2  UNL     1      19.770 -16.488  24.995  1.00  0.00    -0.089 C 
HETATM    3  C3  UNL     1      21.101 -16.616  24.366  1.00  0.00     0.331 C 
ENDROOT
BRANCH   3   4
HETATM    4  N1  UNL     1      22.043 -15.750  25.089  1.00  0.00    -0.044 N 
HETATM    5  C16 UNL     1      23.171 -16.488  25.757  1.00  0.00     0.267 A 
HETATM    6  C17 UNL     1      22.131 -15.857  26.515  1.00  0.00     0.267 A 
BRANCH   4   7
HETATM    7  C4  UNL     1      22.402 -14.517  24.441  1.00  0.00     0.332 C 
BRANCH   7   8
HETATM    8  C5  UNL     1      21.269 -13.920  23.730  1.00  0.00    -0.074 C 
HETATM    9  C6  UNL     1      20.327 -13.416  23.160  1.00  0.00    -0.076 C 
BRANCH   9  10
HETATM   10  C7  UNL     1      19.201 -12.812  22.511  1.00  0.00     0.073 C 
HETATM   11  C8  UNL     1      17.945 -13.167  22.748  1.00  0.00     0.074 C 
BRANCH  11  12
HETATM   12  C9  UNL     1      16.859 -12.528  22.069  1.00  0.00    -0.062 C 
HETATM   13  C10 UNL     1      15.927 -11.972  21.512  1.00  0.00     0.026 C 
BRANCH  13  14
HETATM   14  S1  UNL     1      14.349 -11.035  20.619  1.00  0.00     0.164 S 
HETATM   15  O1  UNL     1      14.934 -11.174  19.107  1.00  0.00    -0.220 OA
BRANCH  14  16
HETATM   16  N2  UNL     1      13.061 -12.298  20.157  1.00  0.00    -0.304 N 
ATOM     17  H2  UNL     1      12.097 -12.181  20.470  1.00  0.00     0.176 HD
BRANCH  16  18
HETATM   18  C11 UNL     1      13.412 -13.397  19.386  1.00  0.00     0.117 C 
BRANCH  18  19
HETATM   19  C12 UNL     1      13.754 -14.561  20.266  1.00  0.00     0.017 C 
HETATM   20  C13 UNL     1      12.920 -14.973  21.217  1.00  0.00     0.033 C 
HETATM   21 BR1  UNL     1      15.415 -15.462  20.013  1.00  0.00    -0.051 Br
ENDBRANCH  18  19
ENDBRANCH  16  18
ENDBRANCH  14  16
BRANCH  14  22
HETATM   22  N3  UNL     1      13.445 -10.779  22.127  1.00  0.00    -0.226 NA
HETATM   23  C14 UNL     1      13.041  -9.421  22.462  1.00  0.00     0.128 C 
HETATM   24  C15 UNL     1      12.273 -11.574  22.455  1.00  0.00     0.128 C 
ENDBRANCH  14  22
ENDBRANCH  13  14
ENDBRANCH  11  12
ENDBRANCH   9  10
ENDBRANCH   7   8
ENDBRANCH   4   7
ENDBRANCH   3   4
TORSDOF 10
ENDMDL
