MODEL 1
REMARK VINA RESULT: -8.200003045      0.000      0.000
REMARK  14 active torsions:
REMARK  status: ('A' for Active; 'I' for Inactive)
REMARK       I    between atoms: C1_2  and  N1_3 
REMARK    1  A    between atoms: C1_2  and  O2_12 
REMARK    2  A    between atoms: N1_3  and  C2_5 
REMARK    3  A    between atoms: O2_12  and  C9_13 
REMARK    4  A    between atoms: C9_13  and  C10_14 
REMARK    5  A    between atoms: C10_14  and  C11_15 
REMARK    6  A    between atoms: C11_15  and  C12_16 
REMARK    7  A    between atoms: C12_16  and  C13_17 
REMARK    8  A    between atoms: C13_17  and  N2_18 
REMARK    9  A    between atoms: C15_20  and  C16_21 
REMARK   10  A    between atoms: C17_23  and  C18_24 
REMARK   11  A    between atoms: C18_24  and  O4_25 
REMARK   12  A    between atoms: C19_27  and  O5_28 
REMARK   13  A    between atoms: C20_30  and  O6_31 
REMARK   14  A    between atoms: C21_33  and  O7_34 
ROOT
HETATM    1  N2  UNL     1     -15.071  14.437 -27.277  1.00  0.00    -0.285 N 
HETATM    2  C14 UNL     1     -14.268  13.710 -26.481  1.00  0.00     0.136 A 
HETATM    3  C15 UNL     1     -14.048  12.460 -27.022  1.00  0.00     0.072 A 
HETATM    4  N3  UNL     1     -14.752  12.474 -28.174  1.00  0.00    -0.284 N 
ATOM      5  H3  UNL     1     -14.811  11.698 -28.835  1.00  0.00     0.184 HD
HETATM    6  N4  UNL     1     -15.353  13.641 -28.319  1.00  0.00    -0.020 NA
ENDROOT
BRANCH   1   7
HETATM    7  C13 UNL     1     -15.510  15.778 -27.031  1.00  0.00     0.146 C 
BRANCH   7   8
HETATM    8  C12 UNL     1     -16.226  16.400 -28.198  1.00  0.00     0.022 C 
BRANCH   8   9
HETATM    9  C11 UNL     1     -17.511  17.005 -27.759  1.00  0.00     0.004 C 
BRANCH   9  10
HETATM   10  C10 UNL     1     -18.715  16.446 -28.478  1.00  0.00     0.027 C 
BRANCH  10  11
HETATM   11  C9  UNL     1     -18.426  15.236 -29.285  1.00  0.00     0.180 C 
BRANCH  11  12
HETATM   12  O2  UNL     1     -19.504  14.707 -30.009  1.00  0.00    -0.304 OA
BRANCH  12  13
HETATM   13  C1  UNL     1     -19.737  13.377 -30.165  1.00  0.00     0.360 C 
HETATM   14  O1  UNL     1     -18.802  12.523 -29.986  1.00  0.00    -0.239 OA
HETATM   15  N1  UNL     1     -20.995  12.821 -30.528  1.00  0.00    -0.332 N 
ATOM     16  H1  UNL     1     -21.782  13.450 -30.685  1.00  0.00     0.165 HD
BRANCH  15  17
HETATM   17  C2  UNL     1     -21.203  11.382 -30.685  1.00  0.00     0.087 C 
HETATM   18  C3  UNL     1     -22.352  11.025 -29.905  1.00  0.00     0.026 C 
HETATM   19  C4  UNL     1     -22.573   9.633 -29.304  1.00  0.00     0.013 C 
HETATM   20  C5  UNL     1     -22.619   8.532 -30.420  1.00  0.00     0.080 C 
HETATM   21  C6  UNL     1     -22.021   9.111 -31.550  1.00  0.00    -0.183 C 
HETATM   22  C7  UNL     1     -21.420   9.742 -32.646  1.00  0.00     0.082 C 
HETATM   23  C8  UNL     1     -21.145  11.218 -32.202  1.00  0.00     0.036 C 
ENDBRANCH  15  17
ENDBRANCH  12  13
ENDBRANCH  11  12
ENDBRANCH  10  11
ENDBRANCH   9  10
ENDBRANCH   8   9
ENDBRANCH   7   8
ENDBRANCH   1   7
BRANCH   3  24
HETATM   24  C16 UNL     1     -13.232  11.333 -26.494  1.00  0.00     0.205 C 
HETATM   25  O3  UNL     1     -12.731  11.716 -25.268  1.00  0.00    -0.367 OA
HETATM   26  C17 UNL     1     -11.984  10.738 -24.640  1.00  0.00     0.177 C 
HETATM   27  C19 UNL     1     -11.609   9.589 -25.502  1.00  0.00     0.180 C 
HETATM   28  C20 UNL     1     -11.237   9.956 -26.908  1.00  0.00     0.181 C 
HETATM   29  C21 UNL     1     -12.058  11.109 -27.439  1.00  0.00     0.184 C 
BRANCH  26  30
HETATM   30  C18 UNL     1     -10.807  11.410 -23.967  1.00  0.00     0.198 C 
BRANCH  30  31
HETATM   31  O4  UNL     1      -9.905  11.853 -24.941  1.00  0.00    -0.398 OA
ATOM     32  H4  UNL     1     -10.205  12.682 -25.295  1.00  0.00     0.209 HD
ENDBRANCH  30  31
ENDBRANCH  26  30
BRANCH  27  33
HETATM   33  O5  UNL     1     -12.586   8.573 -25.463  1.00  0.00    -0.390 OA
ATOM     34  H5  UNL     1     -12.548   8.021 -26.236  1.00  0.00     0.210 HD
ENDBRANCH  27  33
BRANCH  28  35
HETATM   35  O6  UNL     1      -9.894  10.194 -27.090  1.00  0.00    -0.390 OA
ATOM     36  H6  UNL     1      -9.678  11.108 -27.236  1.00  0.00     0.210 HD
ENDBRANCH  28  35
BRANCH  29  37
HETATM   37  O7  UNL     1     -11.278  12.273 -27.435  1.00  0.00    -0.390 OA
ATOM     38  H7  UNL     1     -10.445  12.062 -27.027  1.00  0.00     0.210 HD
ENDBRANCH  29  37
ENDBRANCH   3  24
TORSDOF 14
ENDMDL
MODEL 2
REMARK VINA RESULT: -8.117525760      1.503      2.515
REMARK  14 active torsions:
REMARK  status: ('A' for Active; 'I' for Inactive)
REMARK       I    between atoms: C1_2  and  N1_3 
REMARK    1  A    between atoms: C1_2  and  O2_12 
REMARK    2  A    between atoms: N1_3  and  C2_5 
REMARK    3  A    between atoms: O2_12  and  C9_13 
REMARK    4  A    between atoms: C9_13  and  C10_14 
REMARK    5  A    between atoms: C10_14  and  C11_15 
REMARK    6  A    between atoms: C11_15  and  C12_16 
REMARK    7  A    between atoms: C12_16  and  C13_17 
REMARK    8  A    between atoms: C13_17  and  N2_18 
REMARK    9  A    between atoms: C15_20  and  C16_21 
REMARK   10  A    between atoms: C17_23  and  C18_24 
REMARK   11  A    between atoms: C18_24  and  O4_25 
REMARK   12  A    between atoms: C19_27  and  O5_28 
REMARK   13  A    between atoms: C20_30  and  O6_31 
REMARK   14  A    between atoms: C21_33  and  O7_34 
ROOT
HETATM    1  N2  UNL     1     -14.978  13.182 -27.929  1.00  0.00    -0.285 N 
HETATM    2  C14 UNL     1     -14.210  12.754 -26.912  1.00  0.00     0.136 A 
HETATM    3  C15 UNL     1     -13.935  11.408 -27.042  1.00  0.00     0.072 A 
HETATM    4  N3  UNL     1     -14.573  11.052 -28.178  1.00  0.00    -0.284 N 
ATOM      5  H3  UNL     1     -14.580  10.113 -28.578  1.00  0.00     0.184 HD
HETATM    6  N4  UNL     1     -15.186  12.102 -28.696  1.00  0.00    -0.020 NA
ENDROOT
BRANCH   1   7
HETATM    7  C13 UNL     1     -15.455  14.520 -28.119  1.00  0.00     0.146 C 
BRANCH   7   8
HETATM    8  C12 UNL     1     -15.366  15.371 -26.883  1.00  0.00     0.022 C 
BRANCH   8   9
HETATM    9  C11 UNL     1     -16.150  16.622 -27.054  1.00  0.00     0.004 C 
BRANCH   9  10
HETATM   10  C10 UNL     1     -16.917  16.679 -28.351  1.00  0.00     0.027 C 
BRANCH  10  11
HETATM   11  C9  UNL     1     -18.353  16.331 -28.218  1.00  0.00     0.180 C 
BRANCH  11  12
HETATM   12  O2  UNL     1     -19.011  15.965 -29.401  1.00  0.00    -0.304 OA
BRANCH  12  13
HETATM   13  C1  UNL     1     -19.190  14.680 -29.806  1.00  0.00     0.360 C 
HETATM   14  O1  UNL     1     -18.244  13.825 -29.710  1.00  0.00    -0.239 OA
HETATM   15  N1  UNL     1     -20.401  14.174 -30.356  1.00  0.00    -0.332 N 
ATOM     16  H1  UNL     1     -21.195  14.807 -30.459  1.00  0.00     0.165 HD
BRANCH  15  17
HETATM   17  C2  UNL     1     -20.552  12.783 -30.780  1.00  0.00     0.087 C 
HETATM   18  C3  UNL     1     -21.731  12.266 -30.149  1.00  0.00     0.026 C 
HETATM   19  C4  UNL     1     -21.941  10.784 -29.822  1.00  0.00     0.013 C 
HETATM   20  C5  UNL     1     -21.885   9.901 -31.117  1.00  0.00     0.080 C 
HETATM   21  C6  UNL     1     -21.242  10.687 -32.085  1.00  0.00    -0.183 C 
HETATM   22  C7  UNL     1     -20.600  11.518 -33.011  1.00  0.00     0.082 C 
HETATM   23  C8  UNL     1     -20.400  12.896 -32.295  1.00  0.00     0.036 C 
ENDBRANCH  15  17
ENDBRANCH  12  13
ENDBRANCH  11  12
ENDBRANCH  10  11
ENDBRANCH   9  10
ENDBRANCH   8   9
ENDBRANCH   7   8
ENDBRANCH   1   7
BRANCH   3  24
HETATM   24  C16 UNL     1     -13.131  10.519 -26.160  1.00  0.00     0.205 C 
HETATM   25  O3  UNL     1     -12.218   9.857 -26.953  1.00  0.00    -0.367 OA
HETATM   26  C17 UNL     1     -11.369   9.024 -26.252  1.00  0.00     0.177 C 
HETATM   27  C19 UNL     1     -11.772   8.762 -24.847  1.00  0.00     0.180 C 
HETATM   28  C20 UNL     1     -13.248   8.590 -24.641  1.00  0.00     0.181 C 
HETATM   29  C21 UNL     1     -14.065   9.485 -25.545  1.00  0.00     0.184 C 
BRANCH  26  30
HETATM   30  C18 UNL     1     -11.160   7.771 -27.073  1.00  0.00     0.198 C 
BRANCH  30  31
HETATM   31  O4  UNL     1     -12.402   7.263 -27.471  1.00  0.00    -0.398 OA
ATOM     32  H4  UNL     1     -12.311   6.344 -27.695  1.00  0.00     0.209 HD
ENDBRANCH  30  31
ENDBRANCH  26  30
BRANCH  27  33
HETATM   33  O5  UNL     1     -11.224   9.717 -23.965  1.00  0.00    -0.390 OA
ATOM     34  H5  UNL     1     -11.307   9.443 -23.059  1.00  0.00     0.210 HD
ENDBRANCH  27  33
BRANCH  28  35
HETATM   35  O6  UNL     1     -13.679   7.286 -24.732  1.00  0.00    -0.390 OA
ATOM     36  H6  UNL     1     -13.568   6.899 -25.593  1.00  0.00     0.210 HD
ENDBRANCH  28  35
BRANCH  29  37
HETATM   37  O7  UNL     1     -14.603   8.720 -26.588  1.00  0.00    -0.390 OA
ATOM     38  H7  UNL     1     -14.975   7.932 -26.209  1.00  0.00     0.210 HD
ENDBRANCH  29  37
ENDBRANCH   3  24
TORSDOF 14
ENDMDL
MODEL 3
REMARK VINA RESULT: -8.066909239      1.157      2.215
REMARK  14 active torsions:
REMARK  status: ('A' for Active; 'I' for Inactive)
REMARK       I    between atoms: C1_2  and  N1_3 
REMARK    1  A    between atoms: C1_2  and  O2_12 
REMARK    2  A    between atoms: N1_3  and  C2_5 
REMARK    3  A    between atoms: O2_12  and  C9_13 
REMARK    4  A    between atoms: C9_13  and  C10_14 
REMARK    5  A    between atoms: C10_14  and  C11_15 
REMARK    6  A    between atoms: C11_15  and  C12_16 
REMARK    7  A    between atoms: C12_16  and  C13_17 
REMARK    8  A    between atoms: C13_17  and  N2_18 
REMARK    9  A    between atoms: C15_20  and  C16_21 
REMARK   10  A    between atoms: C17_23  and  C18_24 
REMARK   11  A    between atoms: C18_24  and  O4_25 
REMARK   12  A    between atoms: C19_27  and  O5_28 
REMARK   13  A    between atoms: C20_30  and  O6_31 
REMARK   14  A    between atoms: C21_33  and  O7_34 
ROOT
HETATM    1  N2  UNL     1     -15.550  13.480 -28.426  1.00  0.00    -0.285 N 
HETATM    2  C14 UNL     1     -14.637  13.265 -27.464  1.00  0.00     0.136 A 
HETATM    3  C15 UNL     1     -14.269  11.936 -27.430  1.00  0.00     0.072 A 
HETATM    4  N3  UNL     1     -15.001  11.368 -28.414  1.00  0.00    -0.284 N 
ATOM      5  H3  UNL     1     -14.976  10.381 -28.668  1.00  0.00     0.184 HD
HETATM    6  N4  UNL     1     -15.755  12.284 -28.996  1.00  0.00    -0.020 NA
ENDROOT
BRANCH   1   7
HETATM    7  C13 UNL     1     -16.155  14.739 -28.746  1.00  0.00     0.146 C 
BRANCH   7   8
HETATM    8  C12 UNL     1     -16.184  15.703 -27.593  1.00  0.00     0.022 C 
BRANCH   8   9
HETATM    9  C11 UNL     1     -17.458  16.469 -27.585  1.00  0.00     0.004 C 
BRANCH   9  10
HETATM   10  C10 UNL     1     -18.107  16.570 -28.943  1.00  0.00     0.027 C 
BRANCH  10  11
HETATM   11  C9  UNL     1     -19.321  15.732 -29.095  1.00  0.00     0.180 C 
BRANCH  11  12
HETATM   12  O2  UNL     1     -19.424  15.007 -30.291  1.00  0.00    -0.304 OA
BRANCH  12  13
HETATM   13  C1  UNL     1     -19.659  13.670 -30.352  1.00  0.00     0.360 C 
HETATM   14  O1  UNL     1     -18.759  12.830 -30.006  1.00  0.00    -0.239 OA
HETATM   15  N1  UNL     1     -20.883  13.090 -30.791  1.00  0.00    -0.332 N 
ATOM     16  H1  UNL     1     -21.641  13.708 -31.080  1.00  0.00     0.165 HD
BRANCH  15  17
HETATM   17  C2  UNL     1     -21.094  11.645 -30.842  1.00  0.00     0.087 C 
HETATM   18  C3  UNL     1     -22.238  11.347 -30.030  1.00  0.00     0.026 C 
HETATM   19  C4  UNL     1     -22.457  10.003 -29.328  1.00  0.00     0.013 C 
HETATM   20  C5  UNL     1     -22.512   8.824 -30.362  1.00  0.00     0.080 C 
HETATM   21  C6  UNL     1     -21.922   9.319 -31.534  1.00  0.00    -0.183 C 
HETATM   22  C7  UNL     1     -21.328   9.867 -32.677  1.00  0.00     0.082 C 
HETATM   23  C8  UNL     1     -21.047  11.371 -32.343  1.00  0.00     0.036 C 
ENDBRANCH  15  17
ENDBRANCH  12  13
ENDBRANCH  11  12
ENDBRANCH  10  11
ENDBRANCH   9  10
ENDBRANCH   8   9
ENDBRANCH   7   8
ENDBRANCH   1   7
BRANCH   3  24
HETATM   24  C16 UNL     1     -13.297  11.246 -26.538  1.00  0.00     0.205 C 
HETATM   25  O3  UNL     1     -12.751  10.196 -27.245  1.00  0.00    -0.367 OA
HETATM   26  C17 UNL     1     -11.792   9.491 -26.545  1.00  0.00     0.177 C 
HETATM   27  C19 UNL     1     -11.734   9.790 -25.091  1.00  0.00     0.180 C 
HETATM   28  C20 UNL     1     -13.071   9.986 -24.440  1.00  0.00     0.181 C 
HETATM   29  C21 UNL     1     -14.061  10.675 -25.350  1.00  0.00     0.184 C 
BRANCH  26  30
HETATM   30  C18 UNL     1     -11.967   8.022 -26.863  1.00  0.00     0.198 C 
BRANCH  30  31
HETATM   31  O4  UNL     1     -13.329   7.701 -26.843  1.00  0.00    -0.398 OA
ATOM     32  H4  UNL     1     -13.477   6.989 -26.231  1.00  0.00     0.209 HD
ENDBRANCH  30  31
ENDBRANCH  26  30
BRANCH  27  33
HETATM   33  O5  UNL     1     -10.851  10.854 -24.817  1.00  0.00    -0.390 OA
ATOM     34  H5  UNL     1     -11.309  11.600 -24.446  1.00  0.00     0.210 HD
ENDBRANCH  27  33
BRANCH  28  35
HETATM   35  O6  UNL     1     -13.615   8.835 -23.915  1.00  0.00    -0.390 OA
ATOM     36  H6  UNL     1     -13.267   8.594 -23.064  1.00  0.00     0.210 HD
ENDBRANCH  28  35
BRANCH  29  37
HETATM   37  O7  UNL     1     -14.972   9.730 -25.842  1.00  0.00    -0.390 OA
ATOM     38  H7  UNL     1     -14.948   8.976 -25.265  1.00  0.00     0.210 HD
ENDBRANCH  29  37
ENDBRANCH   3  24
TORSDOF 14
ENDMDL
MODEL 4
REMARK VINA RESULT: -8.029963303      0.918      1.237
REMARK  14 active torsions:
REMARK  status: ('A' for Active; 'I' for Inactive)
REMARK       I    between atoms: C1_2  and  N1_3 
REMARK    1  A    between atoms: C1_2  and  O2_12 
REMARK    2  A    between atoms: N1_3  and  C2_5 
REMARK    3  A    between atoms: O2_12  and  C9_13 
REMARK    4  A    between atoms: C9_13  and  C10_14 
REMARK    5  A    between atoms: C10_14  and  C11_15 
REMARK    6  A    between atoms: C11_15  and  C12_16 
REMARK    7  A    between atoms: C12_16  and  C13_17 
REMARK    8  A    between atoms: C13_17  and  N2_18 
REMARK    9  A    between atoms: C15_20  and  C16_21 
REMARK   10  A    between atoms: C17_23  and  C18_24 
REMARK   11  A    between atoms: C18_24  and  O4_25 
REMARK   12  A    between atoms: C19_27  and  O5_28 
REMARK   13  A    between atoms: C20_30  and  O6_31 
REMARK   14  A    between atoms: C21_33  and  O7_34 
ROOT
HETATM    1  N2  UNL     1     -15.206  14.809 -27.238  1.00  0.00    -0.285 N 
HETATM    2  C14 UNL     1     -14.471  14.143 -26.330  1.00  0.00     0.136 A 
HETATM    3  C15 UNL     1     -14.235  12.850 -26.748  1.00  0.00     0.072 A 
HETATM    4  N3  UNL     1     -14.860  12.773 -27.943  1.00  0.00    -0.284 N 
ATOM      5  H3  UNL     1     -14.887  11.945 -28.539  1.00  0.00     0.184 HD
HETATM    6  N4  UNL     1     -15.431  13.931 -28.226  1.00  0.00    -0.020 NA
ENDROOT
BRANCH   1   7
HETATM    7  C13 UNL     1     -15.639  16.171 -27.136  1.00  0.00     0.146 C 
BRANCH   7   8
HETATM    8  C12 UNL     1     -16.422  16.644 -28.328  1.00  0.00     0.022 C 
BRANCH   8   9
HETATM    9  C11 UNL     1     -17.757  17.147 -27.908  1.00  0.00     0.004 C 
BRANCH   9  10
HETATM   10  C10 UNL     1     -18.906  16.438 -28.582  1.00  0.00     0.027 C 
BRANCH  10  11
HETATM   11  C9  UNL     1     -18.507  15.224 -29.334  1.00  0.00     0.180 C 
BRANCH  11  12
HETATM   12  O2  UNL     1     -19.487  14.663 -30.165  1.00  0.00    -0.304 OA
BRANCH  12  13
HETATM   13  C1  UNL     1     -19.736  13.330 -30.256  1.00  0.00     0.360 C 
HETATM   14  O1  UNL     1     -18.846  12.474 -29.927  1.00  0.00    -0.239 OA
HETATM   15  N1  UNL     1     -20.965  12.774 -30.710  1.00  0.00    -0.332 N 
ATOM     16  H1  UNL     1     -21.716  13.405 -30.989  1.00  0.00     0.165 HD
BRANCH  15  17
HETATM   17  C2  UNL     1     -21.192  11.332 -30.794  1.00  0.00     0.087 C 
HETATM   18  C3  UNL     1     -22.337  11.028 -29.986  1.00  0.00     0.026 C 
HETATM   19  C4  UNL     1     -22.569   9.671 -29.314  1.00  0.00     0.013 C 
HETATM   20  C5  UNL     1     -22.639   8.516 -30.374  1.00  0.00     0.080 C 
HETATM   21  C6  UNL     1     -22.045   9.031 -31.536  1.00  0.00    -0.183 C 
HETATM   22  C7  UNL     1     -21.449   9.599 -32.668  1.00  0.00     0.082 C 
HETATM   23  C8  UNL     1     -21.151  11.092 -32.301  1.00  0.00     0.036 C 
ENDBRANCH  15  17
ENDBRANCH  12  13
ENDBRANCH  11  12
ENDBRANCH  10  11
ENDBRANCH   9  10
ENDBRANCH   8   9
ENDBRANCH   7   8
ENDBRANCH   1   7
BRANCH   3  24
HETATM   24  C16 UNL     1     -13.475  11.763 -26.073  1.00  0.00     0.205 C 
HETATM   25  O3  UNL     1     -12.133  12.056 -26.188  1.00  0.00    -0.367 OA
HETATM   26  C17 UNL     1     -11.306  11.144 -25.561  1.00  0.00     0.177 C 
HETATM   27  C19 UNL     1     -11.971   9.882 -25.146  1.00  0.00     0.180 C 
HETATM   28  C20 UNL     1     -12.979   9.355 -26.124  1.00  0.00     0.181 C 
HETATM   29  C21 UNL     1     -13.742  10.460 -26.817  1.00  0.00     0.184 C 
BRANCH  26  30
HETATM   30  C18 UNL     1     -10.090  10.937 -26.436  1.00  0.00     0.198 C 
BRANCH  30  31
HETATM   31  O4  UNL     1     -10.338  11.464 -27.709  1.00  0.00    -0.398 OA
ATOM     32  H4  UNL     1      -9.660  11.174 -28.309  1.00  0.00     0.209 HD
ENDBRANCH  30  31
ENDBRANCH  26  30
BRANCH  27  33
HETATM   33  O5  UNL     1     -12.500   9.981 -23.843  1.00  0.00    -0.390 OA
ATOM     34  H5  UNL     1     -11.903  10.431 -23.257  1.00  0.00     0.210 HD
ENDBRANCH  27  33
BRANCH  28  35
HETATM   35  O6  UNL     1     -12.461   8.473 -27.044  1.00  0.00    -0.390 OA
ATOM     36  H6  UNL     1     -12.068   7.697 -26.660  1.00  0.00     0.210 HD
ENDBRANCH  28  35
BRANCH  29  37
HETATM   37  O7  UNL     1     -13.258  10.607 -28.124  1.00  0.00    -0.390 OA
ATOM     38  H7  UNL     1     -13.610  11.416 -28.475  1.00  0.00     0.210 HD
ENDBRANCH  29  37
ENDBRANCH   3  24
TORSDOF 14
ENDMDL
MODEL 5
REMARK VINA RESULT: -7.973334661      1.415      2.301
REMARK  14 active torsions:
REMARK  status: ('A' for Active; 'I' for Inactive)
REMARK       I    between atoms: C1_2  and  N1_3 
REMARK    1  A    between atoms: C1_2  and  O2_12 
REMARK    2  A    between atoms: N1_3  and  C2_5 
REMARK    3  A    between atoms: O2_12  and  C9_13 
REMARK    4  A    between atoms: C9_13  and  C10_14 
REMARK    5  A    between atoms: C10_14  and  C11_15 
REMARK    6  A    between atoms: C11_15  and  C12_16 
REMARK    7  A    between atoms: C12_16  and  C13_17 
REMARK    8  A    between atoms: C13_17  and  N2_18 
REMARK    9  A    between atoms: C15_20  and  C16_21 
REMARK   10  A    between atoms: C17_23  and  C18_24 
REMARK   11  A    between atoms: C18_24  and  O4_25 
REMARK   12  A    between atoms: C19_27  and  O5_28 
REMARK   13  A    between atoms: C20_30  and  O6_31 
REMARK   14  A    between atoms: C21_33  and  O7_34 
ROOT
HETATM    1  N2  UNL     1     -14.711  13.389 -27.389  1.00  0.00    -0.285 N 
HETATM    2  C14 UNL     1     -14.126  12.742 -26.366  1.00  0.00     0.136 A 
HETATM    3  C15 UNL     1     -13.819  11.445 -26.721  1.00  0.00     0.072 A 
HETATM    4  N3  UNL     1     -14.244  11.346 -28.000  1.00  0.00    -0.284 N 
ATOM      5  H3  UNL     1     -14.171  10.510 -28.580  1.00  0.00     0.184 HD
HETATM    6  N4  UNL     1     -14.770  12.495 -28.387  1.00  0.00    -0.020 NA
ENDROOT
BRANCH   1   7
HETATM    7  C13 UNL     1     -15.162  14.749 -27.377  1.00  0.00     0.146 C 
BRANCH   7   8
HETATM    8  C12 UNL     1     -16.256  15.027 -28.370  1.00  0.00     0.022 C 
BRANCH   8   9
HETATM    9  C11 UNL     1     -17.159  16.095 -27.864  1.00  0.00     0.004 C 
BRANCH   9  10
HETATM   10  C10 UNL     1     -18.490  16.143 -28.573  1.00  0.00     0.027 C 
BRANCH  10  11
HETATM   11  C9  UNL     1     -18.618  15.166 -29.681  1.00  0.00     0.180 C 
BRANCH  11  12
HETATM   12  O2  UNL     1     -19.862  14.532 -29.803  1.00  0.00    -0.304 OA
BRANCH  12  13
HETATM   13  C1  UNL     1     -20.019  13.202 -30.037  1.00  0.00     0.360 C 
HETATM   14  O1  UNL     1     -19.016  12.409 -30.005  1.00  0.00    -0.239 OA
HETATM   15  N1  UNL     1     -21.265  12.581 -30.332  1.00  0.00    -0.332 N 
ATOM     16  H1  UNL     1     -22.104  13.161 -30.372  1.00  0.00     0.165 HD
BRANCH  15  17
HETATM   17  C2  UNL     1     -21.390  11.146 -30.579  1.00  0.00     0.087 C 
HETATM   18  C3  UNL     1     -22.548  10.686 -29.868  1.00  0.00     0.026 C 
HETATM   19  C4  UNL     1     -22.718   9.251 -29.357  1.00  0.00     0.013 C 
HETATM   20  C5  UNL     1     -22.661   8.216 -30.534  1.00  0.00     0.080 C 
HETATM   21  C6  UNL     1     -22.051   8.891 -31.603  1.00  0.00    -0.183 C 
HETATM   22  C7  UNL     1     -21.443   9.614 -32.636  1.00  0.00     0.082 C 
HETATM   23  C8  UNL     1     -21.264  11.074 -32.098  1.00  0.00     0.036 C 
ENDBRANCH  15  17
ENDBRANCH  12  13
ENDBRANCH  11  12
ENDBRANCH  10  11
ENDBRANCH   9  10
ENDBRANCH   8   9
ENDBRANCH   7   8
ENDBRANCH   1   7
BRANCH   3  24
HETATM   24  C16 UNL     1     -13.170  10.373 -25.918  1.00  0.00     0.205 C 
HETATM   25  O3  UNL     1     -12.188   9.800 -26.698  1.00  0.00    -0.367 OA
HETATM   26  C17 UNL     1     -11.470   8.811 -26.055  1.00  0.00     0.177 C 
HETATM   27  C19 UNL     1     -12.062   8.342 -24.776  1.00  0.00     0.180 C 
HETATM   28  C20 UNL     1     -13.557   8.227 -24.783  1.00  0.00     0.181 C 
HETATM   29  C21 UNL     1     -14.215   9.309 -25.609  1.00  0.00     0.184 C 
BRANCH  26  30
HETATM   30  C18 UNL     1     -11.205   7.704 -27.050  1.00  0.00     0.198 C 
BRANCH  30  31
HETATM   31  O4  UNL     1     -12.420   7.254 -27.580  1.00  0.00    -0.398 OA
ATOM     32  H4  UNL     1     -12.326   6.353 -27.865  1.00  0.00     0.209 HD
ENDBRANCH  30  31
ENDBRANCH  26  30
BRANCH  27  33
HETATM   33  O5  UNL     1     -11.595   9.100 -23.682  1.00  0.00    -0.390 OA
ATOM     34  H5  UNL     1     -11.197   9.915 -23.966  1.00  0.00     0.210 HD
ENDBRANCH  27  33
BRANCH  28  35
HETATM   35  O6  UNL     1     -14.023   6.985 -25.151  1.00  0.00    -0.390 OA
ATOM     36  H6  UNL     1     -14.955   6.863 -25.009  1.00  0.00     0.210 HD
ENDBRANCH  28  35
BRANCH  29  37
HETATM   37  O7  UNL     1     -14.643   8.764 -26.827  1.00  0.00    -0.390 OA
ATOM     38  H7  UNL     1     -15.184   9.412 -27.261  1.00  0.00     0.210 HD
ENDBRANCH  29  37
ENDBRANCH   3  24
TORSDOF 14
ENDMDL
