MODEL 1
REMARK VINA RESULT: -5.867318019      0.000      0.000
REMARK  4 active torsions:
REMARK  status: ('A' for Active; 'I' for Inactive)
REMARK    1  A    between atoms: C2_2  and  N1_3 
REMARK    2  A    between atoms: C4_5  and  N2_6 
REMARK       I    between atoms: N2_6  and  C5_8 
REMARK    3  A    between atoms: C5_8  and  O2_10 
REMARK    4  A    between atoms: O2_10  and  C6_11 
ROOT
HETATM    1  N1  UNL     1      54.825  33.886  85.410  1.00  0.00    -0.299 N 
HETATM    2  C3  UNL     1      55.024  34.481  86.625  1.00  0.00     0.144 A 
HETATM    3  C4  UNL     1      54.026  34.092  87.472  1.00  0.00     0.112 A 
HETATM    4  C10 UNL     1      53.224  33.240  86.711  1.00  0.00     0.231 A 
HETATM    5  F1  UNL     1      52.119  32.641  87.199  1.00  0.00    -0.182 F 
HETATM    6  N3  UNL     1      53.752  33.157  85.493  1.00  0.00    -0.272 N 
ATOM      7  H3  UNL     1      53.368  32.599  84.730  1.00  0.00     0.189 HD
ENDROOT
BRANCH   3   8
HETATM    8  N2  UNL     1      53.835  34.461  88.819  1.00  0.00    -0.297 N 
HETATM    9  C5  UNL     1      54.084  33.605  89.898  1.00  0.00     0.366 C 
HETATM   10  O1  UNL     1      54.499  32.432  89.800  1.00  0.00    -0.238 OA
ATOM     11  H2  UNL     1      53.496  35.403  89.018  1.00  0.00     0.171 HD
BRANCH   9  12
HETATM   12  O2  UNL     1      53.877  34.021  91.229  1.00  0.00    -0.294 OA
BRANCH  12  13
HETATM   13  C6  UNL     1      52.603  34.287  91.749  1.00  0.00     0.061 C 
HETATM   14  C7  UNL     1      52.089  35.654  91.357  1.00  0.00     0.046 C 
HETATM   15  C8  UNL     1      52.724  34.305  93.277  1.00  0.00     0.046 C 
HETATM   16  C9  UNL     1      51.568  33.265  91.412  1.00  0.00     0.046 C 
ENDBRANCH  12  13
ENDBRANCH   9  12
ENDBRANCH   3   8
BRANCH   1  17
HETATM   17  C2  UNL     1      55.642  34.018  84.221  1.00  0.00     0.143 C 
HETATM   18  C1  UNL     1      55.594  35.390  83.633  1.00  0.00     0.028 C 
ENDBRANCH   1  17
TORSDOF 4
ENDMDL
MODEL 2
REMARK VINA RESULT: -5.761841252      2.329      6.192
REMARK  4 active torsions:
REMARK  status: ('A' for Active; 'I' for Inactive)
REMARK    1  A    between atoms: C2_2  and  N1_3 
REMARK    2  A    between atoms: C4_5  and  N2_6 
REMARK       I    between atoms: N2_6  and  C5_8 
REMARK    3  A    between atoms: C5_8  and  O2_10 
REMARK    4  A    between atoms: O2_10  and  C6_11 
ROOT
HETATM    1  N1  UNL     1      52.880  33.789  89.654  1.00  0.00    -0.299 N 
HETATM    2  C3  UNL     1      53.888  34.487  89.048  1.00  0.00     0.144 A 
HETATM    3  C4  UNL     1      53.952  34.114  87.736  1.00  0.00     0.112 A 
HETATM    4  C10 UNL     1      52.940  33.165  87.585  1.00  0.00     0.231 A 
HETATM    5  F1  UNL     1      52.679  32.549  86.415  1.00  0.00    -0.182 F 
HETATM    6  N3  UNL     1      52.338  33.015  88.762  1.00  0.00    -0.272 N 
ATOM      7  H3  UNL     1      51.558  32.381  88.939  1.00  0.00     0.189 HD
ENDROOT
BRANCH   3   8
HETATM    8  N2  UNL     1      54.838  34.576  86.743  1.00  0.00    -0.297 N 
HETATM    9  C5  UNL     1      55.095  35.932  86.506  1.00  0.00     0.366 C 
HETATM   10  O1  UNL     1      54.579  36.879  87.136  1.00  0.00    -0.238 OA
ATOM     11  H2  UNL     1      55.318  33.886  86.165  1.00  0.00     0.171 HD
BRANCH   9  12
HETATM   12  O2  UNL     1      55.990  36.345  85.499  1.00  0.00    -0.294 OA
BRANCH  12  13
HETATM   13  C6  UNL     1      55.638  36.386  84.143  1.00  0.00     0.061 C 
HETATM   14  C7  UNL     1      55.366  35.011  83.571  1.00  0.00     0.046 C 
HETATM   15  C8  UNL     1      56.843  36.932  83.370  1.00  0.00     0.046 C 
HETATM   16  C9  UNL     1      54.484  37.279  83.827  1.00  0.00     0.046 C 
ENDBRANCH  12  13
ENDBRANCH   9  12
ENDBRANCH   3   8
BRANCH   1  17
HETATM   17  C2  UNL     1      52.462  33.871  91.038  1.00  0.00     0.143 C 
HETATM   18  C1  UNL     1      52.235  35.274  91.496  1.00  0.00     0.028 C 
ENDBRANCH   1  17
TORSDOF 4
ENDMDL
MODEL 3
REMARK VINA RESULT: -5.708643082      2.163      2.979
REMARK  4 active torsions:
REMARK  status: ('A' for Active; 'I' for Inactive)
REMARK    1  A    between atoms: C2_2  and  N1_3 
REMARK    2  A    between atoms: C4_5  and  N2_6 
REMARK       I    between atoms: N2_6  and  C5_8 
REMARK    3  A    between atoms: C5_8  and  O2_10 
REMARK    4  A    between atoms: O2_10  and  C6_11 
ROOT
HETATM    1  N1  UNL     1      55.218  36.034  84.332  1.00  0.00    -0.299 N 
HETATM    2  C3  UNL     1      54.748  35.903  85.609  1.00  0.00     0.144 A 
HETATM    3  C4  UNL     1      54.752  34.579  85.943  1.00  0.00     0.112 A 
HETATM    4  C10 UNL     1      55.244  33.927  84.811  1.00  0.00     0.231 A 
HETATM    5  F1  UNL     1      55.401  32.590  84.745  1.00  0.00    -0.182 F 
HETATM    6  N3  UNL     1      55.504  34.847  83.887  1.00  0.00    -0.272 N 
ATOM      7  H3  UNL     1      55.875  34.649  82.958  1.00  0.00     0.189 HD
ENDROOT
BRANCH   3   8
HETATM    8  N2  UNL     1      54.351  33.987  87.157  1.00  0.00    -0.297 N 
HETATM    9  C5  UNL     1      53.085  33.427  87.364  1.00  0.00     0.366 C 
HETATM   10  O1  UNL     1      52.173  33.384  86.511  1.00  0.00    -0.238 OA
ATOM     11  H2  UNL     1      55.019  33.965  87.928  1.00  0.00     0.171 HD
BRANCH   9  12
HETATM   12  O2  UNL     1      52.730  32.845  88.598  1.00  0.00    -0.294 OA
BRANCH  12  13
HETATM   13  C6  UNL     1      53.306  33.240  89.813  1.00  0.00     0.061 C 
HETATM   14  C7  UNL     1      54.710  32.705  89.992  1.00  0.00     0.046 C 
HETATM   15  C8  UNL     1      52.473  32.620  90.941  1.00  0.00     0.046 C 
HETATM   16  C9  UNL     1      53.316  34.714  90.047  1.00  0.00     0.046 C 
ENDBRANCH  12  13
ENDBRANCH   9  12
ENDBRANCH   3   8
BRANCH   1  17
HETATM   17  C2  UNL     1      55.383  37.260  83.577  1.00  0.00     0.143 C 
HETATM   18  C1  UNL     1      54.249  38.214  83.761  1.00  0.00     0.028 C 
ENDBRANCH   1  17
TORSDOF 4
ENDMDL
MODEL 4
REMARK VINA RESULT: -5.687753600      2.344      6.145
REMARK  4 active torsions:
REMARK  status: ('A' for Active; 'I' for Inactive)
REMARK    1  A    between atoms: C2_2  and  N1_3 
REMARK    2  A    between atoms: C4_5  and  N2_6 
REMARK       I    between atoms: N2_6  and  C5_8 
REMARK    3  A    between atoms: C5_8  and  O2_10 
REMARK    4  A    between atoms: O2_10  and  C6_11 
ROOT
HETATM    1  N1  UNL     1      52.870  33.812  89.614  1.00  0.00    -0.299 N 
HETATM    2  C3  UNL     1      53.875  34.533  89.032  1.00  0.00     0.144 A 
HETATM    3  C4  UNL     1      53.971  34.171  87.719  1.00  0.00     0.112 A 
HETATM    4  C10 UNL     1      52.980  33.204  87.543  1.00  0.00     0.231 A 
HETATM    5  F1  UNL     1      52.752  32.592  86.364  1.00  0.00    -0.182 F 
HETATM    6  N3  UNL     1      52.359  33.035  88.707  1.00  0.00    -0.272 N 
ATOM      7  H3  UNL     1      51.589  32.385  88.866  1.00  0.00     0.189 HD
ENDROOT
BRANCH   3   8
HETATM    8  N2  UNL     1      54.866  34.657  86.745  1.00  0.00    -0.297 N 
HETATM    9  C5  UNL     1      55.098  36.019  86.519  1.00  0.00     0.366 C 
HETATM   10  O1  UNL     1      54.550  36.952  87.143  1.00  0.00    -0.238 OA
ATOM     11  H2  UNL     1      55.372  33.980  86.174  1.00  0.00     0.171 HD
BRANCH   9  12
HETATM   12  O2  UNL     1      56.004  36.456  85.533  1.00  0.00    -0.294 OA
BRANCH  12  13
HETATM   13  C6  UNL     1      55.737  36.352  84.161  1.00  0.00     0.061 C 
HETATM   14  C7  UNL     1      56.861  36.895  83.306  1.00  0.00     0.046 C 
HETATM   15  C8  UNL     1      54.518  37.234  83.861  1.00  0.00     0.046 C 
HETATM   16  C9  UNL     1      55.395  34.976  83.696  1.00  0.00     0.046 C 
ENDBRANCH  12  13
ENDBRANCH   9  12
ENDBRANCH   3   8
BRANCH   1  17
HETATM   17  C2  UNL     1      52.425  33.876  90.991  1.00  0.00     0.143 C 
HETATM   18  C1  UNL     1      52.245  35.276  91.481  1.00  0.00     0.028 C 
ENDBRANCH   1  17
TORSDOF 4
ENDMDL
MODEL 5
REMARK VINA RESULT: -5.648002067      2.116      3.211
REMARK  4 active torsions:
REMARK  status: ('A' for Active; 'I' for Inactive)
REMARK    1  A    between atoms: C2_2  and  N1_3 
REMARK    2  A    between atoms: C4_5  and  N2_6 
REMARK       I    between atoms: N2_6  and  C5_8 
REMARK    3  A    between atoms: C5_8  and  O2_10 
REMARK    4  A    between atoms: O2_10  and  C6_11 
ROOT
HETATM    1  N1  UNL     1      56.326  35.008  83.193  1.00  0.00    -0.299 N 
HETATM    2  C3  UNL     1      55.707  35.595  84.262  1.00  0.00     0.144 A 
HETATM    3  C4  UNL     1      55.101  34.624  85.005  1.00  0.00     0.112 A 
HETATM    4  C10 UNL     1      55.385  33.433  84.334  1.00  0.00     0.231 A 
HETATM    5  F1  UNL     1      54.954  32.229  84.762  1.00  0.00    -0.182 F 
HETATM    6  N3  UNL     1      56.118  33.728  83.264  1.00  0.00    -0.272 N 
ATOM      7  H3  UNL     1      56.467  33.043  82.593  1.00  0.00     0.189 HD
ENDROOT
BRANCH   3   8
HETATM    8  N2  UNL     1      54.352  34.774  86.189  1.00  0.00    -0.297 N 
HETATM    9  C5  UNL     1      54.875  34.556  87.468  1.00  0.00     0.366 C 
HETATM   10  O1  UNL     1      56.049  34.208  87.712  1.00  0.00    -0.238 OA
ATOM     11  H2  UNL     1      53.375  35.058  86.109  1.00  0.00     0.171 HD
BRANCH   9  12
HETATM   12  O2  UNL     1      54.085  34.720  88.624  1.00  0.00    -0.294 OA
BRANCH  12  13
HETATM   13  C6  UNL     1      53.418  33.653  89.242  1.00  0.00     0.061 C 
HETATM   14  C7  UNL     1      54.370  32.610  89.786  1.00  0.00     0.046 C 
HETATM   15  C8  UNL     1      52.588  32.943  88.166  1.00  0.00     0.046 C 
HETATM   16  C9  UNL     1      52.470  34.054  90.322  1.00  0.00     0.046 C 
ENDBRANCH  12  13
ENDBRANCH   9  12
ENDBRANCH   3   8
BRANCH   1  17
HETATM   17  C2  UNL     1      57.087  35.663  82.148  1.00  0.00     0.143 C 
HETATM   18  C1  UNL     1      57.256  34.813  80.932  1.00  0.00     0.028 C 
ENDBRANCH   1  17
TORSDOF 4
ENDMDL
