MODEL 1
REMARK VINA RESULT: -5.549950129      0.000      0.000
REMARK  5 active torsions:
REMARK  status: ('A' for Active; 'I' for Inactive)
REMARK    1  A    between atoms: C3_3  and  C4_4 
REMARK    2  A    between atoms: C4_4  and  N1_5 
REMARK    3  A    between atoms: C5_6  and  N2_7 
REMARK    4  A    between atoms: N2_7  and  N3_9 
REMARK    5  A    between atoms: N3_9  and  O1_11 
ROOT
HETATM    1  C1  UNL     1      57.229  35.948  82.453  1.00  0.00     0.112 C 
HETATM    2  C2  UNL     1      56.393  36.305  83.623  1.00  0.00    -0.109 C 
HETATM    3  C3  UNL     1      55.724  36.582  84.586  1.00  0.00    -0.087 C 
ENDROOT
BRANCH   3   4
HETATM    4  C4  UNL     1      54.902  36.898  85.784  1.00  0.00     0.226 C 
BRANCH   4   5
HETATM    5  N1  UNL     1      55.175  36.016  86.886  1.00  0.00    -0.296 N 
HETATM    6  C5  UNL     1      54.873  34.717  87.036  1.00  0.00     0.151 A 
HETATM    7  C7  UNL     1      55.359  34.390  88.312  1.00  0.00     0.053 A 
HETATM    8  C8  UNL     1      55.267  33.036  88.955  1.00  0.00     0.072 C 
HETATM    9  N4  UNL     1      55.921  35.471  88.868  1.00  0.00    -0.333 N 
HETATM   10  C9  UNL     1      55.817  36.480  88.007  1.00  0.00     0.180 A 
ATOM     11  H4  UNL     1      56.353  35.513  89.791  1.00  0.00     0.168 HD
HETATM   12  S1  UNL     1      56.357  38.012  88.233  1.00  0.00    -0.040 SA
BRANCH   6  13
HETATM   13  N2  UNL     1      54.232  33.843  86.137  1.00  0.00    -0.260 N 
HETATM   14  C6  UNL     1      54.806  33.103  85.056  1.00  0.00     0.181 C 
BRANCH  13  15
HETATM   15  N3  UNL     1      52.828  33.673  86.329  1.00  0.00    -0.207 N 
ATOM     16  H3  UNL     1      52.208  34.465  86.158  1.00  0.00     0.216 HD
BRANCH  15  17
HETATM   17  O1  UNL     1      52.343  32.606  86.692  1.00  0.00    -0.274 OA
ATOM     18  H1  UNL     1      51.807  32.072  86.117  1.00  0.00     0.246 HD
ENDBRANCH  15  17
ENDBRANCH  13  15
ENDBRANCH   6  13
ENDBRANCH   4   5
ENDBRANCH   3   4
TORSDOF 5
ENDMDL
MODEL 2
REMARK VINA RESULT: -5.393030349      1.651      4.421
REMARK  5 active torsions:
REMARK  status: ('A' for Active; 'I' for Inactive)
REMARK    1  A    between atoms: C3_3  and  C4_4 
REMARK    2  A    between atoms: C4_4  and  N1_5 
REMARK    3  A    between atoms: C5_6  and  N2_7 
REMARK    4  A    between atoms: N2_7  and  N3_9 
REMARK    5  A    between atoms: N3_9  and  O1_11 
ROOT
HETATM    1  C1  UNL     1      51.977  32.922  91.162  1.00  0.00     0.112 C 
HETATM    2  C2  UNL     1      53.204  32.994  90.335  1.00  0.00    -0.109 C 
HETATM    3  C3  UNL     1      54.213  33.054  89.680  1.00  0.00    -0.087 C 
ENDROOT
BRANCH   3   4
HETATM    4  C4  UNL     1      55.469  33.145  88.890  1.00  0.00     0.226 C 
BRANCH   4   5
HETATM    5  N1  UNL     1      55.545  34.354  88.114  1.00  0.00    -0.296 N 
HETATM    6  C5  UNL     1      55.050  34.620  86.895  1.00  0.00     0.151 A 
HETATM    7  C7  UNL     1      55.450  35.941  86.636  1.00  0.00     0.053 A 
HETATM    8  C8  UNL     1      55.139  36.712  85.387  1.00  0.00     0.072 C 
HETATM    9  N4  UNL     1      56.149  36.410  87.678  1.00  0.00    -0.333 N 
HETATM   10  C9  UNL     1      56.218  35.449  88.596  1.00  0.00     0.180 A 
ATOM     11  H4  UNL     1      56.557  37.342  87.754  1.00  0.00     0.168 HD
HETATM   12  S1  UNL     1      56.972  35.544  90.049  1.00  0.00    -0.040 SA
BRANCH   6  13
HETATM   13  N2  UNL     1      54.286  33.796  86.047  1.00  0.00    -0.260 N 
HETATM   14  C6  UNL     1      54.723  33.041  84.913  1.00  0.00     0.181 C 
BRANCH  13  15
HETATM   15  N3  UNL     1      52.897  33.701  86.358  1.00  0.00    -0.207 N 
ATOM     16  H3  UNL     1      52.333  34.551  86.363  1.00  0.00     0.216 HD
BRANCH  15  17
HETATM   17  O1  UNL     1      52.358  32.629  86.620  1.00  0.00    -0.274 OA
ATOM     18  H1  UNL     1      52.380  32.252  87.492  1.00  0.00     0.246 HD
ENDBRANCH  15  17
ENDBRANCH  13  15
ENDBRANCH   6  13
ENDBRANCH   4   5
ENDBRANCH   3   4
TORSDOF 5
ENDMDL
MODEL 3
REMARK VINA RESULT: -5.311506744      1.462      4.094
REMARK  5 active torsions:
REMARK  status: ('A' for Active; 'I' for Inactive)
REMARK    1  A    between atoms: C3_3  and  C4_4 
REMARK    2  A    between atoms: C4_4  and  N1_5 
REMARK    3  A    between atoms: C5_6  and  N2_7 
REMARK    4  A    between atoms: N2_7  and  N3_9 
REMARK    5  A    between atoms: N3_9  and  O1_11 
ROOT
HETATM    1  C1  UNL     1      52.777  33.025  90.319  1.00  0.00     0.112 C 
HETATM    2  C2  UNL     1      53.981  33.530  89.620  1.00  0.00    -0.109 C 
HETATM    3  C3  UNL     1      54.953  33.935  89.034  1.00  0.00    -0.087 C 
ENDROOT
BRANCH   3   4
HETATM    4  C4  UNL     1      56.147  34.417  88.291  1.00  0.00     0.226 C 
BRANCH   4   5
HETATM    5  N1  UNL     1      55.859  35.561  87.469  1.00  0.00    -0.296 N 
HETATM    6  C5  UNL     1      55.292  35.620  86.254  1.00  0.00     0.151 A 
HETATM    7  C7  UNL     1      55.288  36.987  85.935  1.00  0.00     0.053 A 
HETATM    8  C8  UNL     1      54.751  37.581  84.666  1.00  0.00     0.072 C 
HETATM    9  N4  UNL     1      55.836  37.683  86.940  1.00  0.00    -0.333 N 
HETATM   10  C9  UNL     1      56.193  36.824  87.891  1.00  0.00     0.180 A 
ATOM     11  H4  UNL     1      55.958  38.695  86.971  1.00  0.00     0.168 HD
HETATM   12  S1  UNL     1      56.907  37.195  89.321  1.00  0.00    -0.040 SA
BRANCH   6  13
HETATM   13  N2  UNL     1      54.787  34.574  85.457  1.00  0.00    -0.260 N 
HETATM   14  C6  UNL     1      55.452  33.850  84.418  1.00  0.00     0.181 C 
BRANCH  13  15
HETATM   15  N3  UNL     1      53.441  34.185  85.720  1.00  0.00    -0.207 N 
ATOM     16  H3  UNL     1      52.699  34.879  85.622  1.00  0.00     0.216 HD
BRANCH  15  17
HETATM   17  O1  UNL     1      53.144  33.044  86.062  1.00  0.00    -0.274 OA
ATOM     18  H1  UNL     1      52.878  32.834  86.949  1.00  0.00     0.246 HD
ENDBRANCH  15  17
ENDBRANCH  13  15
ENDBRANCH   6  13
ENDBRANCH   4   5
ENDBRANCH   3   4
TORSDOF 5
ENDMDL
MODEL 4
REMARK VINA RESULT: -5.257411888      2.595      2.987
REMARK  5 active torsions:
REMARK  status: ('A' for Active; 'I' for Inactive)
REMARK    1  A    between atoms: C3_3  and  C4_4 
REMARK    2  A    between atoms: C4_4  and  N1_5 
REMARK    3  A    between atoms: C5_6  and  N2_7 
REMARK    4  A    between atoms: N2_7  and  N3_9 
REMARK    5  A    between atoms: N3_9  and  O1_11 
ROOT
HETATM    1  C1  UNL     1      54.257  38.236  83.917  1.00  0.00     0.112 C 
HETATM    2  C2  UNL     1      54.581  38.404  85.353  1.00  0.00    -0.109 C 
HETATM    3  C3  UNL     1      54.842  38.521  86.523  1.00  0.00    -0.087 C 
ENDROOT
BRANCH   3   4
HETATM    4  C4  UNL     1      55.148  38.643  87.973  1.00  0.00     0.226 C 
BRANCH   4   5
HETATM    5  N1  UNL     1      56.058  37.627  88.431  1.00  0.00    -0.296 N 
HETATM    6  C5  UNL     1      55.879  36.300  88.526  1.00  0.00     0.151 A 
HETATM    7  C7  UNL     1      57.088  35.821  89.056  1.00  0.00     0.053 A 
HETATM    8  C8  UNL     1      57.396  34.383  89.352  1.00  0.00     0.072 C 
HETATM    9  N4  UNL     1      57.927  36.846  89.253  1.00  0.00    -0.333 N 
HETATM   10  C9  UNL     1      57.312  37.964  88.875  1.00  0.00     0.180 A 
ATOM     11  H4  UNL     1      58.874  36.781  89.628  1.00  0.00     0.168 HD
HETATM   12  S1  UNL     1      57.931  39.481  88.926  1.00  0.00    -0.040 SA
BRANCH   6  13
HETATM   13  N2  UNL     1      54.757  35.526  88.171  1.00  0.00    -0.260 N 
HETATM   14  C6  UNL     1      54.445  34.946  86.902  1.00  0.00     0.181 C 
BRANCH  13  15
HETATM   15  N3  UNL     1      53.811  35.287  89.212  1.00  0.00    -0.207 N 
ATOM     16  H3  UNL     1      53.430  34.348  89.325  1.00  0.00     0.216 HD
BRANCH  15  17
HETATM   17  O1  UNL     1      53.442  36.174  89.975  1.00  0.00    -0.274 OA
ATOM     18  H1  UNL     1      52.972  35.986  90.780  1.00  0.00     0.246 HD
ENDBRANCH  15  17
ENDBRANCH  13  15
ENDBRANCH   6  13
ENDBRANCH   4   5
ENDBRANCH   3   4
TORSDOF 5
ENDMDL
MODEL 5
REMARK VINA RESULT: -5.226924374      2.282      3.941
REMARK  5 active torsions:
REMARK  status: ('A' for Active; 'I' for Inactive)
REMARK    1  A    between atoms: C3_3  and  C4_4 
REMARK    2  A    between atoms: C4_4  and  N1_5 
REMARK    3  A    between atoms: C5_6  and  N2_7 
REMARK    4  A    between atoms: N2_7  and  N3_9 
REMARK    5  A    between atoms: N3_9  and  O1_11 
ROOT
HETATM    1  C1  UNL     1      58.755  37.513  89.968  1.00  0.00     0.112 C 
HETATM    2  C2  UNL     1      57.411  37.291  89.387  1.00  0.00    -0.109 C 
HETATM    3  C3  UNL     1      56.318  37.130  88.906  1.00  0.00    -0.087 C 
ENDROOT
BRANCH   3   4
HETATM    4  C4  UNL     1      54.963  36.958  88.319  1.00  0.00     0.226 C 
BRANCH   4   5
HETATM    5  N1  UNL     1      54.983  36.181  87.109  1.00  0.00    -0.296 N 
HETATM    6  C5  UNL     1      55.018  34.849  86.949  1.00  0.00     0.151 A 
HETATM    7  C7  UNL     1      55.048  34.664  85.558  1.00  0.00     0.053 A 
HETATM    8  C8  UNL     1      55.090  33.336  84.859  1.00  0.00     0.072 C 
HETATM    9  N4  UNL     1      55.028  35.856  84.947  1.00  0.00    -0.333 N 
HETATM   10  C9  UNL     1      54.989  36.800  85.884  1.00  0.00     0.180 A 
ATOM     11  H4  UNL     1      55.042  36.013  83.939  1.00  0.00     0.168 HD
HETATM   12  S1  UNL     1      54.954  38.421  85.633  1.00  0.00    -0.040 SA
BRANCH   6  13
HETATM   13  N2  UNL     1      55.010  33.836  87.927  1.00  0.00    -0.260 N 
HETATM   14  C6  UNL     1      53.885  33.226  88.565  1.00  0.00     0.181 C 
BRANCH  13  15
HETATM   15  N3  UNL     1      56.290  33.353  88.332  1.00  0.00    -0.207 N 
ATOM     16  H3  UNL     1      57.126  33.831  87.997  1.00  0.00     0.216 HD
BRANCH  15  17
HETATM   17  O1  UNL     1      56.418  32.380  89.070  1.00  0.00    -0.274 OA
ATOM     18  H1  UNL     1      57.042  31.686  88.889  1.00  0.00     0.246 HD
ENDBRANCH  15  17
ENDBRANCH  13  15
ENDBRANCH   6  13
ENDBRANCH   4   5
ENDBRANCH   3   4
TORSDOF 5
ENDMDL
