MODEL 1
REMARK VINA RESULT: -7.565649991      0.000      0.000
REMARK  6 active torsions:
REMARK  status: ('A' for Active; 'I' for Inactive)
REMARK    1  A    between atoms: C2_2  and  C4_4 
REMARK    2  A    between atoms: C4_4  and  C5_5 
REMARK    3  A    between atoms: C5_5  and  C13_23 
REMARK    4  A    between atoms: N1_6  and  O1_8 
REMARK    5  A    between atoms: O1_8  and  C6_9 
REMARK       I    between atoms: C6_9  and  N2_11 
REMARK    6  A    between atoms: N2_11  and  C7_13 
ROOT
HETATM    1  C13 UNL     1      13.205   0.072  50.289  1.00  0.00     0.136 C 
HETATM    2  C14 UNL     1      12.899  -0.493  48.897  1.00  0.00     0.032 C 
HETATM    3  C15 UNL     1      14.027   1.297  50.132  1.00  0.00     0.069 C 
HETATM    4  N3  UNL     1      14.671   2.246  49.990  1.00  0.00    -0.197 NA
ENDROOT
BRANCH   1   5
HETATM    5  C5  UNL     1      14.005  -0.967  50.985  1.00  0.00     0.028 C 
HETATM    6  N1  UNL     1      13.673  -1.332  52.162  1.00  0.00    -0.263 N 
ATOM      7  H1  UNL     1      14.213  -2.045  52.651  1.00  0.00     0.194 HD
BRANCH   5   8
HETATM    8  C4  UNL     1      15.164  -1.526  50.244  1.00  0.00     0.060 C 
BRANCH   8   9
HETATM    9  C2  UNL     1      16.459  -1.404  50.991  1.00  0.00    -0.017 C 
HETATM   10  C1  UNL     1      17.116  -2.712  51.286  1.00  0.00     0.010 C 
HETATM   11  C3  UNL     1      17.402  -0.592  50.113  1.00  0.00     0.010 C 
ENDBRANCH   8   9
ENDBRANCH   5   8
BRANCH   6  12
HETATM   12  O1  UNL     1      12.585  -0.756  52.762  1.00  0.00    -0.181 OA
BRANCH  12  13
HETATM   13  C6  UNL     1      11.580  -1.437  53.391  1.00  0.00     0.387 C 
HETATM   14  O2  UNL     1      10.600  -1.817  52.739  1.00  0.00    -0.236 OA
HETATM   15  N2  UNL     1      11.669  -1.704  54.787  1.00  0.00    -0.296 N 
ATOM     16  H2  UNL     1      12.488  -1.380  55.299  1.00  0.00     0.171 HD
BRANCH  15  17
HETATM   17  C7  UNL     1      10.652  -2.409  55.491  1.00  0.00     0.121 A 
HETATM   18  C8  UNL     1       9.455  -1.829  55.867  1.00  0.00     0.184 A 
HETATM   19  F1  UNL     1       9.238  -0.539  55.553  1.00  0.00    -0.200 F 
HETATM   20  C9  UNL     1       8.478  -2.531  56.553  1.00  0.00     0.160 A 
HETATM   21  F2  UNL     1       7.325  -1.874  56.883  1.00  0.00    -0.203 F 
HETATM   22  C10 UNL     1       8.680  -3.845  56.881  1.00  0.00     0.091 A 
HETATM   23  C11 UNL     1       9.859  -4.454  56.524  1.00  0.00     0.160 A 
HETATM   24  F3  UNL     1      10.021  -5.757  56.867  1.00  0.00    -0.203 F 
HETATM   25  C12 UNL     1      10.825  -3.742  55.839  1.00  0.00     0.184 A 
HETATM   26  F4  UNL     1      11.982  -4.389  55.504  1.00  0.00    -0.200 F 
ENDBRANCH  15  17
ENDBRANCH  12  13
ENDBRANCH   6  12
ENDBRANCH   1   5
TORSDOF 6
ENDMDL
MODEL 2
REMARK VINA RESULT: -7.556352952      0.182      2.165
REMARK  6 active torsions:
REMARK  status: ('A' for Active; 'I' for Inactive)
REMARK    1  A    between atoms: C2_2  and  C4_4 
REMARK    2  A    between atoms: C4_4  and  C5_5 
REMARK    3  A    between atoms: C5_5  and  C13_23 
REMARK    4  A    between atoms: N1_6  and  O1_8 
REMARK    5  A    between atoms: O1_8  and  C6_9 
REMARK       I    between atoms: C6_9  and  N2_11 
REMARK    6  A    between atoms: N2_11  and  C7_13 
ROOT
HETATM    1  C13 UNL     1      13.215   0.011  50.374  1.00  0.00     0.136 C 
HETATM    2  C14 UNL     1      12.905  -0.617  49.010  1.00  0.00     0.032 C 
HETATM    3  C15 UNL     1      13.999   1.251  50.156  1.00  0.00     0.069 C 
HETATM    4  N3  UNL     1      14.614   2.211  49.968  1.00  0.00    -0.197 NA
ENDROOT
BRANCH   1   5
HETATM    5  C5  UNL     1      14.053  -0.977  51.098  1.00  0.00     0.028 C 
HETATM    6  N1  UNL     1      13.726  -1.333  52.279  1.00  0.00    -0.263 N 
ATOM      7  H1  UNL     1      14.293  -2.012  52.787  1.00  0.00     0.194 HD
BRANCH   5   8
HETATM    8  C4  UNL     1      15.244  -1.496  50.379  1.00  0.00     0.060 C 
BRANCH   8   9
HETATM    9  C2  UNL     1      16.541  -1.121  51.033  1.00  0.00    -0.017 C 
HETATM   10  C1  UNL     1      17.241  -2.262  51.696  1.00  0.00     0.010 C 
HETATM   11  C3  UNL     1      17.452  -0.586  49.936  1.00  0.00     0.010 C 
ENDBRANCH   8   9
ENDBRANCH   5   8
BRANCH   6  12
HETATM   12  O1  UNL     1      12.607  -0.796  52.857  1.00  0.00    -0.181 OA
BRANCH  12  13
HETATM   13  C6  UNL     1      11.618  -1.512  53.473  1.00  0.00     0.387 C 
HETATM   14  O2  UNL     1      10.666  -1.936  52.806  1.00  0.00    -0.236 OA
HETATM   15  N2  UNL     1      11.690  -1.764  54.872  1.00  0.00    -0.296 N 
ATOM     16  H2  UNL     1      12.486  -1.403  55.397  1.00  0.00     0.171 HD
BRANCH  15  17
HETATM   17  C7  UNL     1      10.689  -2.503  55.564  1.00  0.00     0.121 A 
HETATM   18  C8  UNL     1      10.833  -3.834  55.902  1.00  0.00     0.184 A 
HETATM   19  F1  UNL     1      11.974  -4.465  55.563  1.00  0.00    -0.200 F 
HETATM   20  C9  UNL     1       9.848  -4.537  56.575  1.00  0.00     0.160 A 
HETATM   21  F2  UNL     1      10.080  -5.852  56.868  1.00  0.00    -0.203 F 
HETATM   22  C10 UNL     1       8.681  -3.914  56.929  1.00  0.00     0.091 A 
HETATM   23  C11 UNL     1       8.503  -2.589  56.608  1.00  0.00     0.160 A 
HETATM   24  F3  UNL     1       7.333  -2.007  56.976  1.00  0.00    -0.203 F 
HETATM   25  C12 UNL     1       9.495  -1.900  55.937  1.00  0.00     0.184 A 
HETATM   26  F4  UNL     1       9.273  -0.584  55.639  1.00  0.00    -0.200 F 
ENDBRANCH  15  17
ENDBRANCH  12  13
ENDBRANCH   6  12
ENDBRANCH   1   5
TORSDOF 6
ENDMDL
MODEL 3
REMARK VINA RESULT: -7.432982623      0.943      2.388
REMARK  6 active torsions:
REMARK  status: ('A' for Active; 'I' for Inactive)
REMARK    1  A    between atoms: C2_2  and  C4_4 
REMARK    2  A    between atoms: C4_4  and  C5_5 
REMARK    3  A    between atoms: C5_5  and  C13_23 
REMARK    4  A    between atoms: N1_6  and  O1_8 
REMARK    5  A    between atoms: O1_8  and  C6_9 
REMARK       I    between atoms: C6_9  and  N2_11 
REMARK    6  A    between atoms: N2_11  and  C7_13 
ROOT
HETATM    1  C13 UNL     1      13.336  -0.096  50.106  1.00  0.00     0.136 C 
HETATM    2  C14 UNL     1      13.101  -0.496  48.644  1.00  0.00     0.032 C 
HETATM    3  C15 UNL     1      14.026   1.217  50.130  1.00  0.00     0.069 C 
HETATM    4  N3  UNL     1      14.568   2.238  50.130  1.00  0.00    -0.197 NA
ENDROOT
BRANCH   1   5
HETATM    5  C5  UNL     1      14.235  -1.131  50.675  1.00  0.00     0.028 C 
HETATM    6  N1  UNL     1      14.173  -1.400  51.920  1.00  0.00    -0.263 N 
ATOM      7  H1  UNL     1      14.784  -2.109  52.324  1.00  0.00     0.194 HD
BRANCH   5   8
HETATM    8  C4  UNL     1      15.165  -1.800  49.731  1.00  0.00     0.060 C 
BRANCH   8   9
HETATM    9  C2  UNL     1      16.572  -1.881  50.243  1.00  0.00    -0.017 C 
HETATM   10  C1  UNL     1      17.330  -3.073  49.756  1.00  0.00     0.010 C 
HETATM   11  C3  UNL     1      17.295  -0.633  49.752  1.00  0.00     0.010 C 
ENDBRANCH   8   9
ENDBRANCH   5   8
BRANCH   6  12
HETATM   12  O1  UNL     1      13.280  -0.726  52.710  1.00  0.00    -0.181 OA
BRANCH  12  13
HETATM   13  C6  UNL     1      12.676  -1.235  53.827  1.00  0.00     0.387 C 
HETATM   14  O2  UNL     1      13.129  -0.959  54.945  1.00  0.00    -0.236 OA
HETATM   15  N2  UNL     1      11.534  -2.076  53.697  1.00  0.00    -0.296 N 
ATOM     16  H2  UNL     1      11.183  -2.286  52.763  1.00  0.00     0.171 HD
BRANCH  15  17
HETATM   17  C7  UNL     1      10.868  -2.632  54.825  1.00  0.00     0.121 A 
HETATM   18  C8  UNL     1      11.244  -3.826  55.409  1.00  0.00     0.184 A 
HETATM   19  F1  UNL     1      12.290  -4.496  54.891  1.00  0.00    -0.200 F 
HETATM   20  C9  UNL     1      10.582  -4.352  56.506  1.00  0.00     0.160 A 
HETATM   21  F2  UNL     1      11.027  -5.540  57.018  1.00  0.00    -0.203 F 
HETATM   22  C10 UNL     1       9.517  -3.685  57.050  1.00  0.00     0.091 A 
HETATM   23  C11 UNL     1       9.115  -2.495  56.493  1.00  0.00     0.160 A 
HETATM   24  F3  UNL     1       8.055  -1.864  57.060  1.00  0.00    -0.203 F 
HETATM   25  C12 UNL     1       9.784  -1.981  55.399  1.00  0.00     0.184 A 
HETATM   26  F4  UNL     1       9.348  -0.794  54.880  1.00  0.00    -0.200 F 
ENDBRANCH  15  17
ENDBRANCH  12  13
ENDBRANCH   6  12
ENDBRANCH   1   5
TORSDOF 6
ENDMDL
MODEL 4
REMARK VINA RESULT: -7.396187637      5.217      7.802
REMARK  6 active torsions:
REMARK  status: ('A' for Active; 'I' for Inactive)
REMARK    1  A    between atoms: C2_2  and  C4_4 
REMARK    2  A    between atoms: C4_4  and  C5_5 
REMARK    3  A    between atoms: C5_5  and  C13_23 
REMARK    4  A    between atoms: N1_6  and  O1_8 
REMARK    5  A    between atoms: O1_8  and  C6_9 
REMARK       I    between atoms: C6_9  and  N2_11 
REMARK    6  A    between atoms: N2_11  and  C7_13 
ROOT
HETATM    1  C13 UNL     1      16.827  -6.313  52.545  1.00  0.00     0.136 C 
HETATM    2  C14 UNL     1      15.862  -6.409  53.734  1.00  0.00     0.032 C 
HETATM    3  C15 UNL     1      17.520  -7.616  52.394  1.00  0.00     0.069 C 
HETATM    4  N3  UNL     1      18.055  -8.636  52.295  1.00  0.00    -0.197 NA
ENDROOT
BRANCH   1   5
HETATM    5  C5  UNL     1      17.818  -5.270  52.906  1.00  0.00     0.028 C 
HETATM    6  N1  UNL     1      18.129  -4.376  52.051  1.00  0.00    -0.263 N 
ATOM      7  H1  UNL     1      18.808  -3.653  52.286  1.00  0.00     0.194 HD
BRANCH   5   8
HETATM    8  C4  UNL     1      18.393  -5.340  54.273  1.00  0.00     0.060 C 
BRANCH   8   9
HETATM    9  C2  UNL     1      18.958  -4.033  54.746  1.00  0.00    -0.017 C 
HETATM   10  C1  UNL     1      17.940  -3.101  55.318  1.00  0.00     0.010 C 
HETATM   11  C3  UNL     1      19.967  -4.356  55.840  1.00  0.00     0.010 C 
ENDBRANCH   8   9
ENDBRANCH   5   8
BRANCH   6  12
HETATM   12  O1  UNL     1      17.542  -4.397  50.813  1.00  0.00    -0.181 OA
BRANCH  12  13
HETATM   13  C6  UNL     1      16.737  -3.415  50.307  1.00  0.00     0.387 C 
HETATM   14  O2  UNL     1      16.640  -3.277  49.081  1.00  0.00    -0.236 OA
HETATM   15  N2  UNL     1      16.018  -2.561  51.190  1.00  0.00    -0.296 N 
ATOM     16  H2  UNL     1      16.116  -2.697  52.195  1.00  0.00     0.171 HD
BRANCH  15  17
HETATM   17  C7  UNL     1      15.166  -1.522  50.717  1.00  0.00     0.121 A 
HETATM   18  C8  UNL     1      13.793  -1.654  50.632  1.00  0.00     0.184 A 
HETATM   19  F1  UNL     1      13.232  -2.816  51.013  1.00  0.00    -0.200 F 
HETATM   20  C9  UNL     1      12.981  -0.632  50.168  1.00  0.00     0.160 A 
HETATM   21  F2  UNL     1      11.632  -0.853  50.120  1.00  0.00    -0.203 F 
HETATM   22  C10 UNL     1      13.532   0.559  49.776  1.00  0.00     0.091 A 
HETATM   23  C11 UNL     1      14.894   0.724  49.847  1.00  0.00     0.160 A 
HETATM   24  F3  UNL     1      15.403   1.918  49.449  1.00  0.00    -0.203 F 
HETATM   25  C12 UNL     1      15.693  -0.304  50.311  1.00  0.00     0.184 A 
HETATM   26  F4  UNL     1      17.043  -0.093  50.364  1.00  0.00    -0.200 F 
ENDBRANCH  15  17
ENDBRANCH  12  13
ENDBRANCH   6  12
ENDBRANCH   1   5
TORSDOF 6
ENDMDL
MODEL 5
REMARK VINA RESULT: -7.392332368      5.271      7.739
REMARK  6 active torsions:
REMARK  status: ('A' for Active; 'I' for Inactive)
REMARK    1  A    between atoms: C2_2  and  C4_4 
REMARK    2  A    between atoms: C4_4  and  C5_5 
REMARK    3  A    between atoms: C5_5  and  C13_23 
REMARK    4  A    between atoms: N1_6  and  O1_8 
REMARK    5  A    between atoms: O1_8  and  C6_9 
REMARK       I    between atoms: C6_9  and  N2_11 
REMARK    6  A    between atoms: N2_11  and  C7_13 
ROOT
HETATM    1  C13 UNL     1      18.183  -4.284  53.367  1.00  0.00     0.136 C 
HETATM    2  C14 UNL     1      19.368  -4.856  54.155  1.00  0.00     0.032 C 
HETATM    3  C15 UNL     1      17.191  -3.747  54.330  1.00  0.00     0.069 C 
HETATM    4  N3  UNL     1      16.426  -3.338  55.095  1.00  0.00    -0.197 NA
ENDROOT
BRANCH   1   5
HETATM    5  C5  UNL     1      17.585  -5.430  52.637  1.00  0.00     0.028 C 
HETATM    6  N1  UNL     1      17.391  -5.341  51.380  1.00  0.00    -0.263 N 
ATOM      7  H1  UNL     1      16.982  -6.120  50.866  1.00  0.00     0.194 HD
BRANCH   5   8
HETATM    8  C4  UNL     1      17.248  -6.631  53.442  1.00  0.00     0.060 C 
BRANCH   8   9
HETATM    9  C2  UNL     1      17.072  -7.869  52.613  1.00  0.00    -0.017 C 
HETATM   10  C1  UNL     1      18.301  -8.711  52.507  1.00  0.00     0.010 C 
HETATM   11  C3  UNL     1      15.988  -8.701  53.284  1.00  0.00     0.010 C 
ENDBRANCH   8   9
ENDBRANCH   5   8
BRANCH   6  12
HETATM   12  O1  UNL     1      17.737  -4.188  50.726  1.00  0.00    -0.181 OA
BRANCH  12  13
HETATM   13  C6  UNL     1      16.854  -3.261  50.244  1.00  0.00     0.387 C 
HETATM   14  O2  UNL     1      16.612  -3.222  49.031  1.00  0.00    -0.236 OA
HETATM   15  N2  UNL     1      16.221  -2.351  51.138  1.00  0.00    -0.296 N 
ATOM     16  H2  UNL     1      16.439  -2.406  52.132  1.00  0.00     0.171 HD
BRANCH  15  17
HETATM   17  C7  UNL     1      15.295  -1.367  50.690  1.00  0.00     0.121 A 
HETATM   18  C8  UNL     1      13.930  -1.581  50.646  1.00  0.00     0.184 A 
HETATM   19  F1  UNL     1      13.452  -2.774  51.044  1.00  0.00    -0.200 F 
HETATM   20  C9  UNL     1      13.044  -0.611  50.206  1.00  0.00     0.160 A 
HETATM   21  F2  UNL     1      11.711  -0.913  50.198  1.00  0.00    -0.203 F 
HETATM   22  C10 UNL     1      13.511   0.610  49.797  1.00  0.00     0.091 A 
HETATM   23  C11 UNL     1      14.862   0.857  49.828  1.00  0.00     0.160 A 
HETATM   24  F3  UNL     1      15.286   2.079  49.415  1.00  0.00    -0.203 F 
HETATM   25  C12 UNL     1      15.735  -0.119  50.269  1.00  0.00     0.184 A 
HETATM   26  F4  UNL     1      17.071   0.172  50.281  1.00  0.00    -0.200 F 
ENDBRANCH  15  17
ENDBRANCH  12  13
ENDBRANCH   6  12
ENDBRANCH   1   5
TORSDOF 6
ENDMDL
