MODEL 1
REMARK VINA RESULT: -8.665102360      0.000      0.000
REMARK  9 active torsions:
REMARK  status: ('A' for Active; 'I' for Inactive)
REMARK    1  A    between atoms: C4_5  and  C5_6 
REMARK    2  A    between atoms: C9_12  and  N2_13 
REMARK       I    between atoms: N2_13  and  C10_15 
REMARK    3  A    between atoms: C10_15  and  C11_17 
REMARK    4  A    between atoms: C13_21  and  O3_22 
REMARK    5  A    between atoms: O3_22  and  C14_23 
REMARK    6  A    between atoms: C16_28  and  C17_29 
REMARK    7  A    between atoms: C21_33  and  N4_34 
REMARK    8  A    between atoms: C23_40  and  N5_41 
REMARK    9  A    between atoms: N5_41  and  O4_43 
ROOT
HETATM    1  C5  UNL     1      13.527  -3.803  55.665  1.00  0.00     0.000 A 
HETATM    2  C6  UNL     1      13.047  -4.788  56.483  1.00  0.00     0.029 A 
HETATM    3  C7  UNL     1      13.534  -6.098  56.440  1.00  0.00     0.088 A 
HETATM    4  N1  UNL     1      14.489  -6.337  55.557  1.00  0.00    -0.373 N 
ATOM      5  H1  UNL     1      14.860  -7.285  55.504  1.00  0.00     0.164 HD
HETATM    6  C8  UNL     1      15.011  -5.401  54.712  1.00  0.00     0.117 A 
HETATM    7  C9  UNL     1      14.541  -4.130  54.753  1.00  0.00     0.059 A 
ENDROOT
BRANCH   7   8
HETATM    8  N2  UNL     1      15.021  -3.092  53.912  1.00  0.00    -0.320 N 
HETATM    9  C10 UNL     1      14.810  -2.913  52.545  1.00  0.00     0.273 C 
HETATM   10  O2  UNL     1      14.068  -3.781  51.929  1.00  0.00    -0.266 OA
ATOM     11  H2  UNL     1      15.595  -2.383  54.368  1.00  0.00     0.169 HD
BRANCH   9  12
HETATM   12  C11 UNL     1      15.284  -1.882  51.640  1.00  0.00     0.110 A 
HETATM   13  N3  UNL     1      14.453  -0.797  51.422  1.00  0.00    -0.358 N 
HETATM   14  C12 UNL     1      14.768   0.154  50.552  1.00  0.00     0.128 A 
ATOM     15  H3  UNL     1      13.578  -0.726  51.942  1.00  0.00     0.165 HD
HETATM   16  C13 UNL     1      15.924   0.135  49.814  1.00  0.00     0.129 A 
HETATM   17  C15 UNL     1      16.765  -0.952  50.026  1.00  0.00     0.160 A 
HETATM   18  F3  UNL     1      17.933  -0.991  49.360  1.00  0.00    -0.202 F 
HETATM   19  C16 UNL     1      16.456  -1.974  50.939  1.00  0.00     0.020 A 
BRANCH  16  20
HETATM   20  O3  UNL     1      16.312   1.087  48.896  1.00  0.00    -0.286 OA
BRANCH  20  21
HETATM   21  C14 UNL     1      16.574   2.426  49.090  1.00  0.00     0.505 C 
HETATM   22  F1  UNL     1      16.906   3.081  47.902  1.00  0.00    -0.184 F 
HETATM   23  F2  UNL     1      15.486   3.086  49.681  1.00  0.00    -0.184 F 
ENDBRANCH  20  21
ENDBRANCH  16  20
BRANCH  19  24
HETATM   24  C17 UNL     1      17.411  -3.081  51.149  1.00  0.00     0.024 A 
HETATM   25  C18 UNL     1      17.672  -3.979  49.930  1.00  0.00     0.010 A 
HETATM   26  C19 UNL     1      17.072  -4.509  51.219  1.00  0.00     0.010 A 
ENDBRANCH  19  24
ENDBRANCH   9  12
ENDBRANCH   7   8
BRANCH   1  27
HETATM   27  C4  UNL     1      12.981  -2.397  55.713  1.00  0.00     0.160 C 
HETATM   28  O1  UNL     1      12.307  -2.220  54.550  1.00  0.00    -0.369 OA
HETATM   29  C2  UNL     1      11.707  -1.039  54.273  1.00  0.00     0.079 C 
HETATM   30  C1  UNL     1      12.289   0.197  54.868  1.00  0.00     0.048 C 
HETATM   31  C3  UNL     1      11.807  -0.869  52.738  1.00  0.00     0.048 C 
HETATM   32  C23 UNL     1      10.195  -1.084  54.514  1.00  0.00     0.175 C 
HETATM   33  C22 UNL     1       9.853  -1.321  55.937  1.00  0.00     0.228 C 
HETATM   34  C21 UNL     1      10.579  -2.518  56.523  1.00  0.00     0.222 C 
HETATM   35  F4  UNL     1       8.481  -1.610  55.972  1.00  0.00    -0.245 F 
HETATM   36  C20 UNL     1      12.016  -2.224  56.865  1.00  0.00     0.072 C 
BRANCH  32  37
HETATM   37  N5  UNL     1       9.633  -2.062  53.633  1.00  0.00    -0.294 N 
ATOM     38  H5  UNL     1      10.047  -2.989  53.538  1.00  0.00     0.188 HD
BRANCH  37  39
HETATM   39  O4  UNL     1       8.660  -1.752  53.014  1.00  0.00    -0.294 OA
ATOM     40  H4  UNL     1       7.902  -1.456  53.505  1.00  0.00     0.244 HD
ENDBRANCH  37  39
ENDBRANCH  32  37
BRANCH  34  41
HETATM   41  N4  UNL     1       9.901  -2.843  57.801  1.00  0.00    -0.072 N 
ATOM     42  H43 UNL     1       9.819  -2.044  58.430  1.00  0.00     0.274 HD
ATOM     43  H42 UNL     1       8.903  -3.023  57.695  1.00  0.00     0.274 HD
ATOM     44  H41 UNL     1      10.413  -3.627  58.208  1.00  0.00     0.274 HD
ENDBRANCH  34  41
ENDBRANCH   1  27
TORSDOF 9
ENDMDL
MODEL 2
REMARK VINA RESULT: -8.623824622      3.588      8.296
REMARK  9 active torsions:
REMARK  status: ('A' for Active; 'I' for Inactive)
REMARK    1  A    between atoms: C4_5  and  C5_6 
REMARK    2  A    between atoms: C9_12  and  N2_13 
REMARK       I    between atoms: N2_13  and  C10_15 
REMARK    3  A    between atoms: C10_15  and  C11_17 
REMARK    4  A    between atoms: C13_21  and  O3_22 
REMARK    5  A    between atoms: O3_22  and  C14_23 
REMARK    6  A    between atoms: C16_28  and  C17_29 
REMARK    7  A    between atoms: C21_33  and  N4_34 
REMARK    8  A    between atoms: C23_40  and  N5_41 
REMARK    9  A    between atoms: N5_41  and  O4_43 
ROOT
HETATM    1  C5  UNL     1      14.820  -1.793  52.770  1.00  0.00     0.000 A 
HETATM    2  C6  UNL     1      15.851  -1.346  51.993  1.00  0.00     0.029 A 
HETATM    3  C7  UNL     1      15.651  -0.483  50.911  1.00  0.00     0.088 A 
HETATM    4  N1  UNL     1      14.401  -0.121  50.676  1.00  0.00    -0.373 N 
ATOM      5  H1  UNL     1      14.227   0.506  49.892  1.00  0.00     0.164 HD
HETATM    6  C8  UNL     1      13.327  -0.531  51.413  1.00  0.00     0.117 A 
HETATM    7  C9  UNL     1      13.520  -1.367  52.463  1.00  0.00     0.059 A 
ENDROOT
BRANCH   7   8
HETATM    8  N2  UNL     1      12.466  -1.847  53.284  1.00  0.00    -0.320 N 
HETATM    9  C10 UNL     1      11.870  -1.229  54.383  1.00  0.00     0.273 C 
HETATM   10  O2  UNL     1      12.298  -0.052  54.721  1.00  0.00    -0.266 OA
ATOM     11  H2  UNL     1      12.095  -2.764  53.036  1.00  0.00     0.169 HD
BRANCH   9  12
HETATM   12  C11 UNL     1      10.804  -1.678  55.260  1.00  0.00     0.110 A 
HETATM   13  N3  UNL     1       9.587  -1.023  55.167  1.00  0.00    -0.358 N 
HETATM   14  C12 UNL     1       8.581  -1.313  55.981  1.00  0.00     0.128 A 
ATOM     15  H3  UNL     1       9.462  -0.302  54.456  1.00  0.00     0.165 HD
HETATM   16  C13 UNL     1       8.667  -2.267  56.962  1.00  0.00     0.129 A 
HETATM   17  C15 UNL     1       9.885  -2.930  57.063  1.00  0.00     0.160 A 
HETATM   18  F3  UNL     1      10.002  -3.909  57.979  1.00  0.00    -0.202 F 
HETATM   19  C16 UNL     1      10.968  -2.644  56.216  1.00  0.00     0.020 A 
BRANCH  16  20
HETATM   20  O3  UNL     1       7.663  -2.617  57.840  1.00  0.00    -0.286 OA
BRANCH  20  21
HETATM   21  C14 UNL     1       6.358  -2.969  57.572  1.00  0.00     0.505 C 
HETATM   22  F1  UNL     1       5.553  -1.862  57.295  1.00  0.00    -0.184 F 
HETATM   23  F2  UNL     1       6.274  -3.869  56.499  1.00  0.00    -0.184 F 
ENDBRANCH  20  21
ENDBRANCH  16  20
BRANCH  19  24
HETATM   24  C17 UNL     1      12.223  -3.412  56.346  1.00  0.00     0.024 A 
HETATM   25  C18 UNL     1      12.270  -4.748  55.589  1.00  0.00     0.010 A 
HETATM   26  C19 UNL     1      12.394  -4.662  57.098  1.00  0.00     0.010 A 
ENDBRANCH  19  24
ENDBRANCH   9  12
ENDBRANCH   7   8
BRANCH   1  27
HETATM   27  C4  UNL     1      15.051  -2.736  53.926  1.00  0.00     0.160 C 
HETATM   28  O1  UNL     1      16.222  -3.367  53.662  1.00  0.00    -0.369 OA
HETATM   29  C2  UNL     1      16.707  -4.304  54.511  1.00  0.00     0.079 C 
HETATM   30  C1  UNL     1      15.730  -5.083  55.324  1.00  0.00     0.048 C 
HETATM   31  C3  UNL     1      17.446  -5.332  53.620  1.00  0.00     0.048 C 
HETATM   32  C23 UNL     1      17.826  -3.758  55.402  1.00  0.00     0.175 C 
HETATM   33  C22 UNL     1      17.357  -2.681  56.308  1.00  0.00     0.228 C 
HETATM   34  C21 UNL     1      16.600  -1.588  55.575  1.00  0.00     0.222 C 
HETATM   35  F4  UNL     1      18.508  -2.094  56.855  1.00  0.00    -0.245 F 
HETATM   36  C20 UNL     1      15.188  -1.981  55.230  1.00  0.00     0.072 C 
BRANCH  32  37
HETATM   37  N5  UNL     1      18.907  -3.348  54.560  1.00  0.00    -0.294 N 
ATOM     38  H5  UNL     1      19.776  -3.881  54.517  1.00  0.00     0.188 HD
BRANCH  37  39
HETATM   39  O4  UNL     1      18.755  -2.358  53.909  1.00  0.00    -0.294 OA
ATOM     40  H4  UNL     1      18.553  -1.554  54.373  1.00  0.00     0.244 HD
ENDBRANCH  37  39
ENDBRANCH  32  37
BRANCH  34  41
HETATM   41  N4  UNL     1      16.500  -0.441  56.509  1.00  0.00    -0.072 N 
ATOM     42  H43 UNL     1      15.674   0.137  56.352  1.00  0.00     0.274 HD
ATOM     43  H42 UNL     1      16.281  -0.717  57.466  1.00  0.00     0.274 HD
ATOM     44  H41 UNL     1      17.376   0.076  56.427  1.00  0.00     0.274 HD
ENDBRANCH  34  41
ENDBRANCH   1  27
TORSDOF 9
ENDMDL
MODEL 3
REMARK VINA RESULT: -8.597964623      3.167      4.491
REMARK  9 active torsions:
REMARK  status: ('A' for Active; 'I' for Inactive)
REMARK    1  A    between atoms: C4_5  and  C5_6 
REMARK    2  A    between atoms: C9_12  and  N2_13 
REMARK       I    between atoms: N2_13  and  C10_15 
REMARK    3  A    between atoms: C10_15  and  C11_17 
REMARK    4  A    between atoms: C13_21  and  O3_22 
REMARK    5  A    between atoms: O3_22  and  C14_23 
REMARK    6  A    between atoms: C16_28  and  C17_29 
REMARK    7  A    between atoms: C21_33  and  N4_34 
REMARK    8  A    between atoms: C23_40  and  N5_41 
REMARK    9  A    between atoms: N5_41  and  O4_43 
ROOT
HETATM    1  C5  UNL     1      17.350  -4.623  53.557  1.00  0.00     0.000 A 
HETATM    2  C6  UNL     1      17.663  -5.913  53.884  1.00  0.00     0.029 A 
HETATM    3  C7  UNL     1      17.670  -6.942  52.938  1.00  0.00     0.088 A 
HETATM    4  N1  UNL     1      17.355  -6.600  51.701  1.00  0.00    -0.373 N 
ATOM      5  H1  UNL     1      17.351  -7.333  50.991  1.00  0.00     0.164 HD
HETATM    6  C8  UNL     1      17.033  -5.333  51.308  1.00  0.00     0.117 A 
HETATM    7  C9  UNL     1      17.026  -4.334  52.224  1.00  0.00     0.059 A 
ENDROOT
BRANCH   7   8
HETATM    8  N2  UNL     1      16.702  -2.988  51.909  1.00  0.00    -0.320 N 
HETATM    9  C10 UNL     1      16.638  -2.380  50.655  1.00  0.00     0.273 C 
HETATM   10  O2  UNL     1      16.884  -3.113  49.614  1.00  0.00    -0.266 OA
ATOM     11  H2  UNL     1      16.488  -2.387  52.705  1.00  0.00     0.169 HD
BRANCH   9  12
HETATM   12  C11 UNL     1      16.326  -1.013  50.280  1.00  0.00     0.110 A 
HETATM   13  N3  UNL     1      17.362  -0.239  49.783  1.00  0.00    -0.358 N 
HETATM   14  C12 UNL     1      17.189   1.043  49.487  1.00  0.00     0.128 A 
ATOM     15  H3  UNL     1      18.278  -0.664  49.640  1.00  0.00     0.165 HD
HETATM   16  C13 UNL     1      15.990   1.689  49.649  1.00  0.00     0.129 A 
HETATM   17  C15 UNL     1      14.945   0.920  50.148  1.00  0.00     0.160 A 
HETATM   18  F3  UNL     1      13.737   1.498  50.278  1.00  0.00    -0.202 F 
HETATM   19  C16 UNL     1      15.099  -0.438  50.471  1.00  0.00     0.020 A 
BRANCH  16  20
HETATM   20  O3  UNL     1      15.742   3.015  49.363  1.00  0.00    -0.286 OA
BRANCH  20  21
HETATM   21  C14 UNL     1      16.410   3.857  48.500  1.00  0.00     0.505 C 
HETATM   22  F1  UNL     1      16.919   3.186  47.387  1.00  0.00    -0.184 F 
HETATM   23  F2  UNL     1      15.587   4.905  48.060  1.00  0.00    -0.184 F 
ENDBRANCH  20  21
ENDBRANCH  16  20
BRANCH  19  24
HETATM   24  C17 UNL     1      13.939  -1.211  50.958  1.00  0.00     0.024 A 
HETATM   25  C18 UNL     1      12.770  -1.355  49.971  1.00  0.00     0.010 A 
HETATM   26  C19 UNL     1      12.624  -0.661  51.312  1.00  0.00     0.010 A 
ENDBRANCH  19  24
ENDBRANCH   9  12
ENDBRANCH   7   8
BRANCH   1  27
HETATM   27  C4  UNL     1      17.331  -3.526  54.593  1.00  0.00     0.160 C 
HETATM   28  O1  UNL     1      16.053  -3.076  54.635  1.00  0.00    -0.369 OA
HETATM   29  C2  UNL     1      15.704  -2.064  55.464  1.00  0.00     0.079 C 
HETATM   30  C1  UNL     1      16.746  -1.059  55.816  1.00  0.00     0.048 C 
HETATM   31  C3  UNL     1      14.584  -1.289  54.728  1.00  0.00     0.048 C 
HETATM   32  C23 UNL     1      14.999  -2.565  56.728  1.00  0.00     0.175 C 
HETATM   33  C22 UNL     1      15.876  -3.414  57.570  1.00  0.00     0.228 C 
HETATM   34  C21 UNL     1      16.539  -4.531  56.784  1.00  0.00     0.222 C 
HETATM   35  F4  UNL     1      15.045  -4.017  58.526  1.00  0.00    -0.245 F 
HETATM   36  C20 UNL     1      17.706  -4.056  55.959  1.00  0.00     0.072 C 
BRANCH  32  37
HETATM   37  N5  UNL     1      13.792  -3.225  56.334  1.00  0.00    -0.294 N 
ATOM     38  H5  UNL     1      13.787  -3.912  55.581  1.00  0.00     0.188 HD
BRANCH  37  39
HETATM   39  O4  UNL     1      12.791  -2.941  56.920  1.00  0.00    -0.294 OA
ATOM     40  H4  UNL     1      11.965  -3.204  56.532  1.00  0.00     0.244 HD
ENDBRANCH  37  39
ENDBRANCH  32  37
BRANCH  34  41
HETATM   41  N4  UNL     1      17.088  -5.483  57.779  1.00  0.00    -0.072 N 
ATOM     42  H43 UNL     1      16.496  -6.300  57.927  1.00  0.00     0.274 HD
ATOM     43  H42 UNL     1      17.913  -5.984  57.447  1.00  0.00     0.274 HD
ATOM     44  H41 UNL     1      17.257  -4.946  58.630  1.00  0.00     0.274 HD
ENDBRANCH  34  41
ENDBRANCH   1  27
TORSDOF 9
ENDMDL
MODEL 4
REMARK VINA RESULT: -8.592513256      2.481      3.444
REMARK  9 active torsions:
REMARK  status: ('A' for Active; 'I' for Inactive)
REMARK    1  A    between atoms: C4_5  and  C5_6 
REMARK    2  A    between atoms: C9_12  and  N2_13 
REMARK       I    between atoms: N2_13  and  C10_15 
REMARK    3  A    between atoms: C10_15  and  C11_17 
REMARK    4  A    between atoms: C13_21  and  O3_22 
REMARK    5  A    between atoms: O3_22  and  C14_23 
REMARK    6  A    between atoms: C16_28  and  C17_29 
REMARK    7  A    between atoms: C21_33  and  N4_34 
REMARK    8  A    between atoms: C23_40  and  N5_41 
REMARK    9  A    between atoms: N5_41  and  O4_43 
ROOT
HETATM    1  C5  UNL     1      15.199  -4.519  54.664  1.00  0.00     0.000 A 
HETATM    2  C6  UNL     1      15.319  -5.432  55.674  1.00  0.00     0.029 A 
HETATM    3  C7  UNL     1      16.317  -6.412  55.680  1.00  0.00     0.088 A 
HETATM    4  N1  UNL     1      17.144  -6.409  54.648  1.00  0.00    -0.373 N 
ATOM      5  H1  UNL     1      17.881  -7.114  54.628  1.00  0.00     0.164 HD
HETATM    6  C8  UNL     1      17.079  -5.526  53.609  1.00  0.00     0.117 A 
HETATM    7  C9  UNL     1      16.112  -4.576  53.601  1.00  0.00     0.059 A 
ENDROOT
BRANCH   7   8
HETATM    8  N2  UNL     1      15.966  -3.619  52.563  1.00  0.00    -0.320 N 
HETATM    9  C10 UNL     1      16.633  -2.405  52.400  1.00  0.00     0.273 C 
HETATM   10  O2  UNL     1      17.526  -2.082  53.284  1.00  0.00    -0.266 OA
ATOM     11  H2  UNL     1      15.282  -3.849  51.843  1.00  0.00     0.169 HD
BRANCH   9  12
HETATM   12  C11 UNL     1      16.513  -1.388  51.371  1.00  0.00     0.110 A 
HETATM   13  N3  UNL     1      17.662  -1.050  50.676  1.00  0.00    -0.358 N 
HETATM   14  C12 UNL     1      17.665  -0.078  49.773  1.00  0.00     0.128 A 
ATOM     15  H3  UNL     1      18.526  -1.559  50.862  1.00  0.00     0.165 HD
HETATM   16  C13 UNL     1      16.547   0.654  49.464  1.00  0.00     0.129 A 
HETATM   17  C15 UNL     1      15.389   0.321  50.157  1.00  0.00     0.160 A 
HETATM   18  F3  UNL     1      14.255   0.979  49.853  1.00  0.00    -0.202 F 
HETATM   19  C16 UNL     1      15.357  -0.701  51.118  1.00  0.00     0.020 A 
BRANCH  16  20
HETATM   20  O3  UNL     1      16.480   1.674  48.538  1.00  0.00    -0.286 OA
BRANCH  20  21
HETATM   21  C14 UNL     1      16.601   3.033  48.733  1.00  0.00     0.505 C 
HETATM   22  F1  UNL     1      16.716   3.735  47.531  1.00  0.00    -0.184 F 
HETATM   23  F2  UNL     1      15.517   3.551  49.457  1.00  0.00    -0.184 F 
ENDBRANCH  20  21
ENDBRANCH  16  20
BRANCH  19  24
HETATM   24  C17 UNL     1      14.085  -1.035  51.791  1.00  0.00     0.024 A 
HETATM   25  C18 UNL     1      13.186  -2.044  51.058  1.00  0.00     0.010 A 
HETATM   26  C19 UNL     1      12.745  -0.623  51.353  1.00  0.00     0.010 A 
ENDBRANCH  19  24
ENDBRANCH   9  12
ENDBRANCH   7   8
BRANCH   1  27
HETATM   27  C4  UNL     1      14.107  -3.478  54.664  1.00  0.00     0.160 C 
HETATM   28  O1  UNL     1      13.205  -3.884  55.591  1.00  0.00    -0.369 OA
HETATM   29  C2  UNL     1      12.081  -3.166  55.823  1.00  0.00     0.079 C 
HETATM   30  C1  UNL     1      11.523  -2.360  54.700  1.00  0.00     0.048 C 
HETATM   31  C3  UNL     1      10.993  -4.201  56.196  1.00  0.00     0.048 C 
HETATM   32  C23 UNL     1      12.188  -2.312  57.089  1.00  0.00     0.175 C 
HETATM   33  C22 UNL     1      13.246  -1.277  56.990  1.00  0.00     0.228 C 
HETATM   34  C21 UNL     1      14.582  -1.846  56.548  1.00  0.00     0.222 C 
HETATM   35  F4  UNL     1      13.421  -0.763  58.284  1.00  0.00    -0.245 F 
HETATM   36  C20 UNL     1      14.643  -2.122  55.069  1.00  0.00     0.072 C 
BRANCH  32  37
HETATM   37  N5  UNL     1      12.368  -3.189  58.205  1.00  0.00    -0.294 N 
ATOM     38  H5  UNL     1      13.018  -3.974  58.162  1.00  0.00     0.188 HD
BRANCH  37  39
HETATM   39  O4  UNL     1      11.727  -2.969  59.189  1.00  0.00    -0.294 OA
ATOM     40  H4  UNL     1      12.151  -2.489  59.891  1.00  0.00     0.244 HD
ENDBRANCH  37  39
ENDBRANCH  32  37
BRANCH  34  41
HETATM   41  N4  UNL     1      15.600  -0.803  56.823  1.00  0.00    -0.072 N 
ATOM     42  H43 UNL     1      15.342  -0.178  57.586  1.00  0.00     0.274 HD
ATOM     43  H42 UNL     1      16.453  -1.172  57.244  1.00  0.00     0.274 HD
ATOM     44  H41 UNL     1      15.762  -0.319  55.939  1.00  0.00     0.274 HD
ENDBRANCH  34  41
ENDBRANCH   1  27
TORSDOF 9
ENDMDL
MODEL 5
REMARK VINA RESULT: -8.589054389      2.361      3.736
REMARK  9 active torsions:
REMARK  status: ('A' for Active; 'I' for Inactive)
REMARK    1  A    between atoms: C4_5  and  C5_6 
REMARK    2  A    between atoms: C9_12  and  N2_13 
REMARK       I    between atoms: N2_13  and  C10_15 
REMARK    3  A    between atoms: C10_15  and  C11_17 
REMARK    4  A    between atoms: C13_21  and  O3_22 
REMARK    5  A    between atoms: O3_22  and  C14_23 
REMARK    6  A    between atoms: C16_28  and  C17_29 
REMARK    7  A    between atoms: C21_33  and  N4_34 
REMARK    8  A    between atoms: C23_40  and  N5_41 
REMARK    9  A    between atoms: N5_41  and  O4_43 
ROOT
HETATM    1  C5  UNL     1      16.481  -4.760  53.559  1.00  0.00     0.000 A 
HETATM    2  C6  UNL     1      16.707  -6.066  53.893  1.00  0.00     0.029 A 
HETATM    3  C7  UNL     1      17.112  -7.018  52.953  1.00  0.00     0.088 A 
HETATM    4  N1  UNL     1      17.265  -6.585  51.713  1.00  0.00    -0.373 N 
ATOM      5  H1  UNL     1      17.558  -7.261  51.007  1.00  0.00     0.164 HD
HETATM    6  C8  UNL     1      17.055  -5.297  51.312  1.00  0.00     0.117 A 
HETATM    7  C9  UNL     1      16.663  -4.372  52.223  1.00  0.00     0.059 A 
ENDROOT
BRANCH   7   8
HETATM    8  N2  UNL     1      16.420  -3.012  51.899  1.00  0.00    -0.320 N 
HETATM    9  C10 UNL     1      16.409  -2.406  50.643  1.00  0.00     0.273 C 
HETATM   10  O2  UNL     1      16.630  -3.156  49.608  1.00  0.00    -0.266 OA
ATOM     11  H2  UNL     1      16.227  -2.397  52.690  1.00  0.00     0.169 HD
BRANCH   9  12
HETATM   12  C11 UNL     1      16.179  -1.025  50.259  1.00  0.00     0.110 A 
HETATM   13  N3  UNL     1      17.294  -0.228  50.059  1.00  0.00    -0.358 N 
HETATM   14  C12 UNL     1      17.181   1.065  49.783  1.00  0.00     0.128 A 
ATOM     15  H3  UNL     1      18.223  -0.644  50.126  1.00  0.00     0.165 HD
HETATM   16  C13 UNL     1      15.970   1.700  49.676  1.00  0.00     0.129 A 
HETATM   17  C15 UNL     1      14.845   0.908  49.875  1.00  0.00     0.160 A 
HETATM   18  F3  UNL     1      13.634   1.476  49.732  1.00  0.00    -0.202 F 
HETATM   19  C16 UNL     1      14.935  -0.462  50.170  1.00  0.00     0.020 A 
BRANCH  16  20
HETATM   20  O3  UNL     1      15.782   3.036  49.392  1.00  0.00    -0.286 OA
BRANCH  20  21
HETATM   21  C14 UNL     1      16.438   3.832  48.478  1.00  0.00     0.505 C 
HETATM   22  F1  UNL     1      16.898   3.109  47.376  1.00  0.00    -0.184 F 
HETATM   23  F2  UNL     1      15.622   4.879  48.023  1.00  0.00    -0.184 F 
ENDBRANCH  20  21
ENDBRANCH  16  20
BRANCH  19  24
HETATM   24  C17 UNL     1      13.701  -1.259  50.330  1.00  0.00     0.024 A 
HETATM   25  C18 UNL     1      12.789  -1.334  49.095  1.00  0.00     0.010 A 
HETATM   26  C19 UNL     1      12.335  -0.725  50.409  1.00  0.00     0.010 A 
ENDBRANCH  19  24
ENDBRANCH   9  12
ENDBRANCH   7   8
BRANCH   1  27
HETATM   27  C4  UNL     1      16.029  -3.747  54.582  1.00  0.00     0.160 C 
HETATM   28  O1  UNL     1      14.788  -3.359  54.198  1.00  0.00    -0.369 OA
HETATM   29  C2  UNL     1      14.105  -2.429  54.907  1.00  0.00     0.079 C 
HETATM   30  C1  UNL     1      14.889  -1.409  55.659  1.00  0.00     0.048 C 
HETATM   31  C3  UNL     1      13.261  -1.650  53.870  1.00  0.00     0.048 C 
HETATM   32  C23 UNL     1      13.041  -3.056  55.813  1.00  0.00     0.175 C 
HETATM   33  C22 UNL     1      13.626  -3.928  56.859  1.00  0.00     0.228 C 
HETATM   34  C21 UNL     1      14.595  -4.951  56.295  1.00  0.00     0.222 C 
HETATM   35  F4  UNL     1      12.558  -4.638  57.427  1.00  0.00    -0.245 F 
HETATM   36  C20 UNL     1      15.941  -4.364  55.961  1.00  0.00     0.072 C 
BRANCH  32  37
HETATM   37  N5  UNL     1      12.094  -3.736  54.983  1.00  0.00    -0.294 N 
ATOM     38  H5  UNL     1      12.397  -4.327  54.209  1.00  0.00     0.188 HD
BRANCH  37  39
HETATM   39  O4  UNL     1      10.935  -3.586  55.231  1.00  0.00    -0.294 OA
ATOM     40  H4  UNL     1      10.315  -4.162  54.799  1.00  0.00     0.244 HD
ENDBRANCH  37  39
ENDBRANCH  32  37
BRANCH  34  41
HETATM   41  N4  UNL     1      14.828  -5.952  57.364  1.00  0.00    -0.072 N 
ATOM     42  H43 UNL     1      14.211  -6.762  57.300  1.00  0.00     0.274 HD
ATOM     43  H42 UNL     1      15.709  -6.456  57.260  1.00  0.00     0.274 HD
ATOM     44  H41 UNL     1      14.749  -5.452  58.249  1.00  0.00     0.274 HD
ENDBRANCH  34  41
ENDBRANCH   1  27
TORSDOF 9
ENDMDL
