MODEL 1
REMARK VINA RESULT: -7.423119586      0.000      0.000
REMARK  8 active torsions:
REMARK  status: ('A' for Active; 'I' for Inactive)
REMARK    1  A    between atoms: C2_2  and  N1_3 
REMARK    2  A    between atoms: N1_3  and  C3_6 
REMARK    3  A    between atoms: C3_6  and  C4_7 
REMARK    4  A    between atoms: C4_7  and  C5_8 
REMARK    5  A    between atoms: C5_8  and  C6_9 
REMARK    6  A    between atoms: C6_9  and  N2_10 
REMARK    7  A    between atoms: N2_10  and  C7_12 
REMARK    8  A    between atoms: C9_19  and  N6_20 
ROOT
HETATM    1  C7  UNL     1     -31.833  20.638  35.188  1.00  0.00     0.695 A 
HETATM    2  N3  UNL     1     -30.756  20.072  35.790  1.00  0.00    -0.162 N 
ATOM      3  H3  UNL     1     -30.918  19.506  36.622  1.00  0.00     0.187 HD
HETATM    4  C8  UNL     1     -29.497  20.209  35.362  1.00  0.00     0.221 A 
HETATM    5  N4  UNL     1     -28.382  19.592  36.012  1.00  0.00    -0.062 NA
HETATM    6  N5  UNL     1     -29.300  20.963  34.261  1.00  0.00    -0.163 N 
ATOM      7  H5  UNL     1     -28.356  21.097  33.899  1.00  0.00     0.187 HD
HETATM    8  C9  UNL     1     -30.358  21.547  33.631  1.00  0.00     0.692 A 
HETATM    9  N7  UNL     1     -31.611  21.382  34.094  1.00  0.00    -0.023 N 
ATOM     10  H7  UNL     1     -32.393  21.824  33.612  1.00  0.00     0.203 HD
ENDROOT
BRANCH   1  11
HETATM   11  N2  UNL     1     -33.029  20.489  35.627  1.00  0.00    -0.225 N 
ATOM     12  H2  UNL     1     -33.703  19.934  35.099  1.00  0.00     0.177 HD
BRANCH  11  13
HETATM   13  C6  UNL     1     -33.413  21.107  36.861  1.00  0.00     0.138 C 
BRANCH  13  14
HETATM   14  C5  UNL     1     -33.657  20.126  37.986  1.00  0.00     0.022 C 
BRANCH  14  15
HETATM   15  C4  UNL     1     -34.563  20.760  39.006  1.00  0.00     0.029 C 
BRANCH  15  16
HETATM   16  C3  UNL     1     -36.006  20.770  38.538  1.00  0.00     0.232 C 
BRANCH  16  17
HETATM   17  N1  UNL     1     -36.373  19.555  37.849  1.00  0.00    -0.075 N 
ATOM     18  H12 UNL     1     -35.568  19.088  37.430  1.00  0.00     0.277 HD
ATOM     19  H11 UNL     1     -36.894  19.738  36.992  1.00  0.00     0.277 HD
BRANCH  17  20
HETATM   20  C2  UNL     1     -37.098  18.692  38.765  1.00  0.00     0.228 C 
HETATM   21  C1  UNL     1     -36.213  17.494  39.139  1.00  0.00     0.034 C 
ENDBRANCH  17  20
ENDBRANCH  16  17
ENDBRANCH  15  16
ENDBRANCH  14  15
ENDBRANCH  13  14
ENDBRANCH  11  13
ENDBRANCH   1  11
BRANCH   8  22
HETATM   22  N6  UNL     1     -30.158  22.268  32.579  1.00  0.00    -0.234 N 
ATOM     23  H62 UNL     1     -30.335  23.272  32.617  1.00  0.00     0.174 HD
ATOM     24  H61 UNL     1     -29.826  21.829  31.720  1.00  0.00     0.174 HD
ENDBRANCH   8  22
TORSDOF 8
ENDMDL
MODEL 2
REMARK VINA RESULT: -7.307758063      2.189      6.461
REMARK  8 active torsions:
REMARK  status: ('A' for Active; 'I' for Inactive)
REMARK    1  A    between atoms: C2_2  and  N1_3 
REMARK    2  A    between atoms: N1_3  and  C3_6 
REMARK    3  A    between atoms: C3_6  and  C4_7 
REMARK    4  A    between atoms: C4_7  and  C5_8 
REMARK    5  A    between atoms: C5_8  and  C6_9 
REMARK    6  A    between atoms: C6_9  and  N2_10 
REMARK    7  A    between atoms: N2_10  and  C7_12 
REMARK    8  A    between atoms: C9_19  and  N6_20 
ROOT
HETATM    1  C7  UNL     1     -34.047  20.901  37.302  1.00  0.00     0.695 A 
HETATM    2  N3  UNL     1     -34.345  21.679  38.373  1.00  0.00    -0.162 N 
ATOM      3  H3  UNL     1     -34.249  22.689  38.270  1.00  0.00     0.187 HD
HETATM    4  C8  UNL     1     -34.755  21.207  39.554  1.00  0.00     0.221 A 
HETATM    5  N4  UNL     1     -35.071  22.052  40.665  1.00  0.00    -0.062 NA
HETATM    6  N5  UNL     1     -34.873  19.868  39.674  1.00  0.00    -0.163 N 
ATOM      7  H5  UNL     1     -35.181  19.462  40.557  1.00  0.00     0.187 HD
HETATM    8  C9  UNL     1     -34.583  19.057  38.619  1.00  0.00     0.692 A 
HETATM    9  N7  UNL     1     -34.174  19.574  37.445  1.00  0.00    -0.023 N 
ATOM     10  H7  UNL     1     -33.961  18.955  36.664  1.00  0.00     0.203 HD
ENDROOT
BRANCH   1  11
HETATM   11  N2  UNL     1     -33.653  21.387  36.181  1.00  0.00    -0.225 N 
ATOM     12  H2  UNL     1     -34.014  22.284  35.855  1.00  0.00     0.177 HD
BRANCH  11  13
HETATM   13  C6  UNL     1     -32.702  20.663  35.392  1.00  0.00     0.138 C 
BRANCH  13  14
HETATM   14  C5  UNL     1     -31.554  21.510  34.888  1.00  0.00     0.022 C 
BRANCH  14  15
HETATM   15  C4  UNL     1     -30.309  20.666  34.824  1.00  0.00     0.029 C 
BRANCH  15  16
HETATM   16  C3  UNL     1     -30.457  19.395  35.637  1.00  0.00     0.232 C 
BRANCH  16  17
HETATM   17  N1  UNL     1     -29.707  19.436  36.870  1.00  0.00    -0.075 N 
ATOM     18  H12 UNL     1     -29.909  18.638  37.474  1.00  0.00     0.277 HD
ATOM     19  H11 UNL     1     -30.028  20.174  37.496  1.00  0.00     0.277 HD
BRANCH  17  20
HETATM   20  C2  UNL     1     -28.292  19.549  36.561  1.00  0.00     0.228 C 
HETATM   21  C1  UNL     1     -27.484  19.511  37.866  1.00  0.00     0.034 C 
ENDBRANCH  17  20
ENDBRANCH  16  17
ENDBRANCH  15  16
ENDBRANCH  14  15
ENDBRANCH  13  14
ENDBRANCH  11  13
ENDBRANCH   1  11
BRANCH   8  22
HETATM   22  N6  UNL     1     -34.698  17.777  38.744  1.00  0.00    -0.234 N 
ATOM     23  H62 UNL     1     -34.383  17.326  39.603  1.00  0.00     0.174 HD
ATOM     24  H61 UNL     1     -35.103  17.229  37.986  1.00  0.00     0.174 HD
ENDBRANCH   8  22
TORSDOF 8
ENDMDL
MODEL 3
REMARK VINA RESULT: -7.274594974      3.386      6.146
REMARK  8 active torsions:
REMARK  status: ('A' for Active; 'I' for Inactive)
REMARK    1  A    between atoms: C2_2  and  N1_3 
REMARK    2  A    between atoms: N1_3  and  C3_6 
REMARK    3  A    between atoms: C3_6  and  C4_7 
REMARK    4  A    between atoms: C4_7  and  C5_8 
REMARK    5  A    between atoms: C5_8  and  C6_9 
REMARK    6  A    between atoms: C6_9  and  N2_10 
REMARK    7  A    between atoms: N2_10  and  C7_12 
REMARK    8  A    between atoms: C9_19  and  N6_20 
ROOT
HETATM    1  C7  UNL     1     -30.580  19.450  34.916  1.00  0.00     0.695 A 
HETATM    2  N3  UNL     1     -31.493  20.079  35.699  1.00  0.00    -0.162 N 
ATOM      3  H3  UNL     1     -31.832  19.586  36.525  1.00  0.00     0.187 HD
HETATM    4  C8  UNL     1     -31.976  21.301  35.458  1.00  0.00     0.221 A 
HETATM    5  N4  UNL     1     -32.932  21.944  36.307  1.00  0.00    -0.062 NA
HETATM    6  N5  UNL     1     -31.519  21.938  34.360  1.00  0.00    -0.163 N 
ATOM      7  H5  UNL     1     -31.860  22.872  34.135  1.00  0.00     0.187 HD
HETATM    8  C9  UNL     1     -30.602  21.337  33.551  1.00  0.00     0.692 A 
HETATM    9  N7  UNL     1     -30.139  20.105  33.831  1.00  0.00    -0.023 N 
ATOM     10  H7  UNL     1     -29.452  19.668  33.218  1.00  0.00     0.203 HD
ENDROOT
BRANCH   1  11
HETATM   11  N2  UNL     1     -30.138  18.273  35.175  1.00  0.00    -0.225 N 
ATOM     12  H2  UNL     1     -30.585  17.705  35.894  1.00  0.00     0.177 HD
BRANCH  11  13
HETATM   13  C6  UNL     1     -29.014  17.764  34.448  1.00  0.00     0.138 C 
BRANCH  13  14
HETATM   14  C5  UNL     1     -28.466  16.467  34.999  1.00  0.00     0.022 C 
BRANCH  14  15
HETATM   15  C4  UNL     1     -27.802  16.734  36.323  1.00  0.00     0.029 C 
BRANCH  15  16
HETATM   16  C3  UNL     1     -26.786  17.856  36.218  1.00  0.00     0.232 C 
BRANCH  16  17
HETATM   17  N1  UNL     1     -26.714  18.652  37.420  1.00  0.00    -0.075 N 
ATOM     18  H12 UNL     1     -25.754  18.896  37.667  1.00  0.00     0.277 HD
ATOM     19  H11 UNL     1     -26.945  18.115  38.256  1.00  0.00     0.277 HD
BRANCH  17  20
HETATM   20  C2  UNL     1     -27.559  19.824  37.264  1.00  0.00     0.228 C 
HETATM   21  C1  UNL     1     -27.169  20.561  35.975  1.00  0.00     0.034 C 
ENDBRANCH  17  20
ENDBRANCH  16  17
ENDBRANCH  15  16
ENDBRANCH  14  15
ENDBRANCH  13  14
ENDBRANCH  11  13
ENDBRANCH   1  11
BRANCH   8  22
HETATM   22  N6  UNL     1     -30.171  21.954  32.502  1.00  0.00    -0.234 N 
ATOM     23  H62 UNL     1     -30.558  22.867  32.262  1.00  0.00     0.174 HD
ATOM     24  H61 UNL     1     -29.448  21.526  31.923  1.00  0.00     0.174 HD
ENDBRANCH   8  22
TORSDOF 8
ENDMDL
MODEL 4
REMARK VINA RESULT: -7.242088377      3.379      6.192
REMARK  8 active torsions:
REMARK  status: ('A' for Active; 'I' for Inactive)
REMARK    1  A    between atoms: C2_2  and  N1_3 
REMARK    2  A    between atoms: N1_3  and  C3_6 
REMARK    3  A    between atoms: C3_6  and  C4_7 
REMARK    4  A    between atoms: C4_7  and  C5_8 
REMARK    5  A    between atoms: C5_8  and  C6_9 
REMARK    6  A    between atoms: C6_9  and  N2_10 
REMARK    7  A    between atoms: N2_10  and  C7_12 
REMARK    8  A    between atoms: C9_19  and  N6_20 
ROOT
HETATM    1  C7  UNL     1     -29.986  19.981  35.216  1.00  0.00     0.695 A 
HETATM    2  N3  UNL     1     -31.077  20.442  35.877  1.00  0.00    -0.162 N 
ATOM      3  H3  UNL     1     -31.309  20.012  36.773  1.00  0.00     0.187 HD
HETATM    4  C8  UNL     1     -31.869  21.421  35.431  1.00  0.00     0.221 A 
HETATM    5  N4  UNL     1     -33.010  21.893  36.155  1.00  0.00    -0.062 NA
HETATM    6  N5  UNL     1     -31.551  21.978  34.244  1.00  0.00    -0.163 N 
ATOM      7  H5  UNL     1     -32.127  22.727  33.863  1.00  0.00     0.187 HD
HETATM    8  C9  UNL     1     -30.462  21.541  33.552  1.00  0.00     0.692 A 
HETATM    9  N7  UNL     1     -29.689  20.552  34.038  1.00  0.00    -0.023 N 
ATOM     10  H7  UNL     1     -28.876  20.235  33.510  1.00  0.00     0.203 HD
ENDROOT
BRANCH   1  11
HETATM   11  N2  UNL     1     -29.247  19.036  35.671  1.00  0.00    -0.225 N 
ATOM     12  H2  UNL     1     -29.162  18.159  35.157  1.00  0.00     0.177 HD
BRANCH  11  13
HETATM   13  C6  UNL     1     -28.544  19.219  36.905  1.00  0.00     0.138 C 
BRANCH  13  14
HETATM   14  C5  UNL     1     -27.243  18.452  36.988  1.00  0.00     0.022 C 
BRANCH  14  15
HETATM   15  C4  UNL     1     -27.503  17.004  36.672  1.00  0.00     0.029 C 
BRANCH  15  16
HETATM   16  C3  UNL     1     -26.720  16.553  35.453  1.00  0.00     0.232 C 
BRANCH  16  17
HETATM   17  N1  UNL     1     -27.565  16.333  34.303  1.00  0.00    -0.075 N 
ATOM     18  H12 UNL     1     -27.052  15.935  33.515  1.00  0.00     0.277 HD
ATOM     19  H11 UNL     1     -27.853  17.205  33.861  1.00  0.00     0.277 HD
BRANCH  17  20
HETATM   20  C2  UNL     1     -28.697  15.511  34.696  1.00  0.00     0.228 C 
HETATM   21  C1  UNL     1     -28.349  14.032  34.478  1.00  0.00     0.034 C 
ENDBRANCH  17  20
ENDBRANCH  16  17
ENDBRANCH  15  16
ENDBRANCH  14  15
ENDBRANCH  13  14
ENDBRANCH  11  13
ENDBRANCH   1  11
BRANCH   8  22
HETATM   22  N6  UNL     1     -30.166  22.078  32.416  1.00  0.00    -0.234 N 
ATOM     23  H62 UNL     1     -30.724  22.859  32.069  1.00  0.00     0.174 HD
ATOM     24  H61 UNL     1     -29.378  21.720  31.876  1.00  0.00     0.174 HD
ENDBRANCH   8  22
TORSDOF 8
ENDMDL
MODEL 5
REMARK VINA RESULT: -7.228887851      0.213      2.031
REMARK  8 active torsions:
REMARK  status: ('A' for Active; 'I' for Inactive)
REMARK    1  A    between atoms: C2_2  and  N1_3 
REMARK    2  A    between atoms: N1_3  and  C3_6 
REMARK    3  A    between atoms: C3_6  and  C4_7 
REMARK    4  A    between atoms: C4_7  and  C5_8 
REMARK    5  A    between atoms: C5_8  and  C6_9 
REMARK    6  A    between atoms: C6_9  and  N2_10 
REMARK    7  A    between atoms: N2_10  and  C7_12 
REMARK    8  A    between atoms: C9_19  and  N6_20 
ROOT
HETATM    1  C7  UNL     1     -31.839  20.496  35.207  1.00  0.00     0.695 A 
HETATM    2  N3  UNL     1     -31.567  21.090  34.018  1.00  0.00    -0.162 N 
ATOM      3  H3  UNL     1     -32.349  21.469  33.484  1.00  0.00     0.187 HD
HETATM    4  C8  UNL     1     -30.341  21.209  33.500  1.00  0.00     0.221 A 
HETATM    5  N4  UNL     1     -30.083  21.850  32.246  1.00  0.00    -0.062 NA
HETATM    6  N5  UNL     1     -29.318  20.700  34.216  1.00  0.00    -0.163 N 
ATOM      7  H5  UNL     1     -28.365  20.766  33.860  1.00  0.00     0.187 HD
HETATM    8  C9  UNL     1     -29.554  20.097  35.415  1.00  0.00     0.692 A 
HETATM    9  N7  UNL     1     -30.805  19.999  35.902  1.00  0.00    -0.023 N 
ATOM     10  H7  UNL     1     -30.966  19.546  36.801  1.00  0.00     0.203 HD
ENDROOT
BRANCH   1  11
HETATM   11  N2  UNL     1     -33.030  20.395  35.675  1.00  0.00    -0.225 N 
ATOM     12  H2  UNL     1     -33.731  19.845  35.179  1.00  0.00     0.177 HD
BRANCH  11  13
HETATM   13  C6  UNL     1     -33.368  21.060  36.898  1.00  0.00     0.138 C 
BRANCH  13  14
HETATM   14  C5  UNL     1     -33.600  20.121  38.061  1.00  0.00     0.022 C 
BRANCH  14  15
HETATM   15  C4  UNL     1     -34.569  20.754  39.022  1.00  0.00     0.029 C 
BRANCH  15  16
HETATM   16  C3  UNL     1     -35.976  20.779  38.456  1.00  0.00     0.232 C 
BRANCH  16  17
HETATM   17  N1  UNL     1     -36.338  19.536  37.816  1.00  0.00    -0.075 N 
ATOM     18  H12 UNL     1     -35.529  19.047  37.433  1.00  0.00     0.277 HD
ATOM     19  H11 UNL     1     -36.845  19.682  36.943  1.00  0.00     0.277 HD
BRANCH  17  20
HETATM   20  C2  UNL     1     -37.084  18.719  38.758  1.00  0.00     0.228 C 
HETATM   21  C1  UNL     1     -36.240  17.496  39.146  1.00  0.00     0.034 C 
ENDBRANCH  17  20
ENDBRANCH  16  17
ENDBRANCH  15  16
ENDBRANCH  14  15
ENDBRANCH  13  14
ENDBRANCH  11  13
ENDBRANCH   1  11
BRANCH   8  22
HETATM   22  N6  UNL     1     -28.568  19.611  36.093  1.00  0.00    -0.234 N 
ATOM     23  H62 UNL     1     -27.627  19.638  35.700  1.00  0.00     0.174 HD
ATOM     24  H61 UNL     1     -28.738  19.206  37.014  1.00  0.00     0.174 HD
ENDBRANCH   8  22
TORSDOF 8
ENDMDL
