MODEL 1
REMARK VINA RESULT: -6.650291694      0.000      0.000
REMARK  9 active torsions:
REMARK  status: ('A' for Active; 'I' for Inactive)
REMARK    1  A    between atoms: C2_2  and  C4_4 
REMARK    2  A    between atoms: C6_8  and  N2_9 
REMARK    3  A    between atoms: C7_14  and  C8_15 
REMARK    4  A    between atoms: C9_16  and  C10_17 
REMARK    5  A    between atoms: C10_17  and  C11_18 
REMARK    6  A    between atoms: C11_18  and  O1_19 
REMARK    7  A    between atoms: C11_18  and  C12_21 
REMARK    8  A    between atoms: C12_21  and  N4_22 
REMARK    9  A    between atoms: N4_22  and  N5_23 
ROOT
HETATM    1  C4  UNL     1     -29.083 -19.626   8.549  1.00  0.00    -0.011 A 
HETATM    2  C5  UNL     1     -29.908 -19.014   7.614  1.00  0.00     0.116 A 
HETATM    3  N1  UNL     1     -29.775 -17.697   7.392  1.00  0.00    -0.202 N 
ATOM      4  H1  UNL     1     -30.395 -17.275   6.700  1.00  0.00     0.183 HD
HETATM    5  C6  UNL     1     -28.903 -16.896   7.998  1.00  0.00     0.676 A 
HETATM    6  N3  UNL     1     -28.099 -17.480   8.902  1.00  0.00    -0.192 N 
ATOM      7  H3  UNL     1     -27.410 -16.911   9.394  1.00  0.00     0.184 HD
HETATM    8  C7  UNL     1     -28.181 -18.819   9.181  1.00  0.00     0.057 A 
ENDROOT
BRANCH   8   9
HETATM    9  C8  UNL     1     -27.307 -19.356  10.226  1.00  0.00     0.027 C 
HETATM   10  C9  UNL     1     -26.443 -18.492  10.772  1.00  0.00    -0.022 C 
BRANCH  10  11
HETATM   11  C10 UNL     1     -25.538 -18.978  11.840  1.00  0.00     0.065 C 
BRANCH  11  12
HETATM   12  C11 UNL     1     -25.126 -17.839  12.772  1.00  0.00     0.175 C 
BRANCH  12  13
HETATM   13  O1  UNL     1     -26.325 -17.333  13.312  1.00  0.00    -0.389 OA
ATOM     14  H1  UNL     1     -26.336 -17.611  14.221  1.00  0.00     0.210 HD
ENDBRANCH  12  13
BRANCH  12  15
HETATM   15  C12 UNL     1     -24.299 -18.310  13.891  1.00  0.00     0.212 C 
BRANCH  15  16
HETATM   16  N4  UNL     1     -23.914 -19.494  13.982  1.00  0.00    -0.347 NA
BRANCH  16  17
HETATM   17  N5  UNL     1     -23.747 -20.695  14.244  1.00  0.00    -0.281 N 
ATOM     18  H52 UNL     1     -24.133 -20.972  13.342  1.00  0.00     0.191 HD
ATOM     19  H51 UNL     1     -23.527 -21.600  14.658  1.00  0.00     0.191 HD
ENDBRANCH  16  17
ENDBRANCH  15  16
ENDBRANCH  12  15
ENDBRANCH  11  12
ENDBRANCH  10  11
ENDBRANCH   8   9
BRANCH   1  20
HETATM   20  C2  UNL     1     -29.090 -21.086   8.756  1.00  0.00     0.014 C 
HETATM   21  C1  UNL     1     -30.404 -21.645   9.260  1.00  0.00     0.015 C 
HETATM   22  C3  UNL     1     -29.045 -21.685   7.290  1.00  0.00     0.015 C 
ENDBRANCH   1  20
BRANCH   5  23
HETATM   23  N2  UNL     1     -28.798 -15.619   7.743  1.00  0.00    -0.234 N 
ATOM     24  H22 UNL     1     -28.447 -15.298   6.841  1.00  0.00     0.174 HD
ATOM     25  H21 UNL     1     -29.062 -14.889   8.405  1.00  0.00     0.174 HD
ENDBRANCH   5  23
TORSDOF 9
ENDMDL
MODEL 2
REMARK VINA RESULT: -6.601563690      1.313      1.436
REMARK  9 active torsions:
REMARK  status: ('A' for Active; 'I' for Inactive)
REMARK    1  A    between atoms: C2_2  and  C4_4 
REMARK    2  A    between atoms: C6_8  and  N2_9 
REMARK    3  A    between atoms: C7_14  and  C8_15 
REMARK    4  A    between atoms: C9_16  and  C10_17 
REMARK    5  A    between atoms: C10_17  and  C11_18 
REMARK    6  A    between atoms: C11_18  and  O1_19 
REMARK    7  A    between atoms: C11_18  and  C12_21 
REMARK    8  A    between atoms: C12_21  and  N4_22 
REMARK    9  A    between atoms: N4_22  and  N5_23 
ROOT
HETATM    1  C4  UNL     1     -28.848 -18.555   9.085  1.00  0.00    -0.011 A 
HETATM    2  C5  UNL     1     -29.340 -17.987   7.916  1.00  0.00     0.116 A 
HETATM    3  N1  UNL     1     -29.363 -16.650   7.799  1.00  0.00    -0.202 N 
ATOM      4  H1  UNL     1     -29.730 -16.263   6.929  1.00  0.00     0.183 HD
HETATM    5  C6  UNL     1     -28.947 -15.789   8.722  1.00  0.00     0.676 A 
HETATM    6  N3  UNL     1     -28.467 -16.327   9.856  1.00  0.00    -0.192 N 
ATOM      7  H3  UNL     1     -28.132 -15.710  10.597  1.00  0.00     0.184 HD
HETATM    8  C7  UNL     1     -28.416 -17.684  10.043  1.00  0.00     0.057 A 
ENDROOT
BRANCH   8   9
HETATM    9  C8  UNL     1     -27.935 -18.179  11.335  1.00  0.00     0.027 C 
HETATM   10  C9  UNL     1     -26.893 -17.527  11.864  1.00  0.00    -0.022 C 
BRANCH  10  11
HETATM   11  C10 UNL     1     -26.367 -17.980  13.174  1.00  0.00     0.065 C 
BRANCH  11  12
HETATM   12  C11 UNL     1     -24.868 -18.268  13.095  1.00  0.00     0.175 C 
BRANCH  12  13
HETATM   13  O1  UNL     1     -24.381 -18.130  14.410  1.00  0.00    -0.389 OA
ATOM     14  H1  UNL     1     -23.534 -18.560  14.419  1.00  0.00     0.210 HD
ENDBRANCH  12  13
BRANCH  12  15
HETATM   15  C12 UNL     1     -24.590 -19.644  12.661  1.00  0.00     0.212 C 
BRANCH  15  16
HETATM   16  N4  UNL     1     -24.113 -20.502  13.432  1.00  0.00    -0.347 NA
BRANCH  16  17
HETATM   17  N5  UNL     1     -23.736 -21.184  14.396  1.00  0.00    -0.281 N 
ATOM     18  H52 UNL     1     -22.765 -20.911  14.244  1.00  0.00     0.191 HD
ATOM     19  H51 UNL     1     -23.649 -21.796  15.208  1.00  0.00     0.191 HD
ENDBRANCH  16  17
ENDBRANCH  15  16
ENDBRANCH  12  15
ENDBRANCH  11  12
ENDBRANCH  10  11
ENDBRANCH   8   9
BRANCH   1  20
HETATM   20  C2  UNL     1     -28.680 -20.012   9.233  1.00  0.00     0.014 C 
HETATM   21  C1  UNL     1     -29.816 -20.707   9.952  1.00  0.00     0.015 C 
HETATM   22  C3  UNL     1     -28.860 -20.574   7.762  1.00  0.00     0.015 C 
ENDBRANCH   1  20
BRANCH   5  23
HETATM   23  N2  UNL     1     -28.976 -14.492   8.565  1.00  0.00    -0.234 N 
ATOM     24  H22 UNL     1     -28.932 -14.083   7.631  1.00  0.00     0.174 HD
ATOM     25  H21 UNL     1     -29.052 -13.832   9.338  1.00  0.00     0.174 HD
ENDBRANCH   5  23
TORSDOF 9
ENDMDL
MODEL 3
REMARK VINA RESULT: -6.355266729      1.329      1.381
REMARK  9 active torsions:
REMARK  status: ('A' for Active; 'I' for Inactive)
REMARK    1  A    between atoms: C2_2  and  C4_4 
REMARK    2  A    between atoms: C6_8  and  N2_9 
REMARK    3  A    between atoms: C7_14  and  C8_15 
REMARK    4  A    between atoms: C9_16  and  C10_17 
REMARK    5  A    between atoms: C10_17  and  C11_18 
REMARK    6  A    between atoms: C11_18  and  O1_19 
REMARK    7  A    between atoms: C11_18  and  C12_21 
REMARK    8  A    between atoms: C12_21  and  N4_22 
REMARK    9  A    between atoms: N4_22  and  N5_23 
ROOT
HETATM    1  C4  UNL     1     -29.157 -19.790   8.504  1.00  0.00    -0.011 A 
HETATM    2  C5  UNL     1     -29.943 -19.166   7.544  1.00  0.00     0.116 A 
HETATM    3  N1  UNL     1     -29.807 -17.845   7.347  1.00  0.00    -0.202 N 
ATOM      4  H1  UNL     1     -30.398 -17.415   6.635  1.00  0.00     0.183 HD
HETATM    5  C6  UNL     1     -28.965 -17.051   8.002  1.00  0.00     0.676 A 
HETATM    6  N3  UNL     1     -28.198 -17.645   8.931  1.00  0.00    -0.192 N 
ATOM      7  H3  UNL     1     -27.532 -17.081   9.460  1.00  0.00     0.184 HD
HETATM    8  C7  UNL     1     -28.286 -18.989   9.185  1.00  0.00     0.057 A 
ENDROOT
BRANCH   8   9
HETATM    9  C8  UNL     1     -27.454 -19.539  10.258  1.00  0.00     0.027 C 
HETATM   10  C9  UNL     1     -26.260 -18.960  10.432  1.00  0.00    -0.022 C 
BRANCH  10  11
HETATM   11  C10 UNL     1     -25.378 -19.471  11.509  1.00  0.00     0.065 C 
BRANCH  11  12
HETATM   12  C11 UNL     1     -26.185 -19.832  12.756  1.00  0.00     0.175 C 
BRANCH  12  13
HETATM   13  O1  UNL     1     -25.570 -20.982  13.291  1.00  0.00    -0.389 OA
ATOM     14  H1  UNL     1     -24.672 -20.962  12.981  1.00  0.00     0.210 HD
ENDBRANCH  12  13
BRANCH  12  15
HETATM   15  C12 UNL     1     -26.123 -18.779  13.779  1.00  0.00     0.212 C 
BRANCH  15  16
HETATM   16  N4  UNL     1     -25.046 -18.254  14.130  1.00  0.00    -0.347 NA
BRANCH  16  17
HETATM   17  N5  UNL     1     -23.868 -17.898  14.283  1.00  0.00    -0.281 N 
ATOM     18  H52 UNL     1     -23.668 -18.716  14.858  1.00  0.00     0.191 HD
ATOM     19  H51 UNL     1     -22.963 -17.428  14.277  1.00  0.00     0.191 HD
ENDBRANCH  16  17
ENDBRANCH  15  16
ENDBRANCH  12  15
ENDBRANCH  11  12
ENDBRANCH  10  11
ENDBRANCH   8   9
BRANCH   1  20
HETATM   20  C2  UNL     1     -29.166 -21.253   8.688  1.00  0.00     0.014 C 
HETATM   21  C1  UNL     1     -30.475 -21.815   9.200  1.00  0.00     0.015 C 
HETATM   22  C3  UNL     1     -29.142 -21.828   7.212  1.00  0.00     0.015 C 
ENDBRANCH   1  20
BRANCH   5  23
HETATM   23  N2  UNL     1     -28.855 -15.770   7.771  1.00  0.00    -0.234 N 
ATOM     24  H22 UNL     1     -28.240 -15.428   7.032  1.00  0.00     0.174 HD
ATOM     25  H21 UNL     1     -29.367 -15.057   8.292  1.00  0.00     0.174 HD
ENDBRANCH   5  23
TORSDOF 9
ENDMDL
MODEL 4
REMARK VINA RESULT: -6.332475779      3.675      5.851
REMARK  9 active torsions:
REMARK  status: ('A' for Active; 'I' for Inactive)
REMARK    1  A    between atoms: C2_2  and  C4_4 
REMARK    2  A    between atoms: C6_8  and  N2_9 
REMARK    3  A    between atoms: C7_14  and  C8_15 
REMARK    4  A    between atoms: C9_16  and  C10_17 
REMARK    5  A    between atoms: C10_17  and  C11_18 
REMARK    6  A    between atoms: C11_18  and  O1_19 
REMARK    7  A    between atoms: C11_18  and  C12_21 
REMARK    8  A    between atoms: C12_21  and  N4_22 
REMARK    9  A    between atoms: N4_22  and  N5_23 
ROOT
HETATM    1  C4  UNL     1     -27.683 -18.032   9.534  1.00  0.00    -0.011 A 
HETATM    2  C5  UNL     1     -27.284 -16.815  10.070  1.00  0.00     0.116 A 
HETATM    3  N1  UNL     1     -27.842 -15.684   9.609  1.00  0.00    -0.202 N 
ATOM      4  H1  UNL     1     -27.529 -14.806  10.022  1.00  0.00     0.183 HD
HETATM    5  C6  UNL     1     -28.769 -15.615   8.658  1.00  0.00     0.676 A 
HETATM    6  N3  UNL     1     -29.164 -16.787   8.134  1.00  0.00    -0.192 N 
ATOM      7  H3  UNL     1     -29.875 -16.790   7.402  1.00  0.00     0.184 HD
HETATM    8  C7  UNL     1     -28.635 -17.979   8.556  1.00  0.00     0.057 A 
ENDROOT
BRANCH   8   9
HETATM    9  C8  UNL     1     -29.080 -19.202   7.885  1.00  0.00     0.027 C 
HETATM   10  C9  UNL     1     -30.397 -19.312   7.675  1.00  0.00    -0.022 C 
BRANCH  10  11
HETATM   11  C10 UNL     1     -30.906 -20.526   6.993  1.00  0.00     0.065 C 
BRANCH  11  12
HETATM   12  C11 UNL     1     -31.129 -21.664   7.989  1.00  0.00     0.175 C 
BRANCH  12  13
HETATM   13  O1  UNL     1     -32.448 -22.109   7.773  1.00  0.00    -0.389 OA
ATOM     14  H1  UNL     1     -33.003 -21.526   8.277  1.00  0.00     0.210 HD
ENDBRANCH  12  13
BRANCH  12  15
HETATM   15  C12 UNL     1     -30.231 -22.800   7.743  1.00  0.00     0.212 C 
BRANCH  15  16
HETATM   16  N4  UNL     1     -29.210 -22.699   7.031  1.00  0.00    -0.347 NA
BRANCH  16  17
HETATM   17  N5  UNL     1     -28.065 -22.681   6.556  1.00  0.00    -0.281 N 
ATOM     18  H52 UNL     1     -28.358 -22.054   5.807  1.00  0.00     0.191 HD
ATOM     19  H51 UNL     1     -27.076 -22.806   6.341  1.00  0.00     0.191 HD
ENDBRANCH  16  17
ENDBRANCH  15  16
ENDBRANCH  12  15
ENDBRANCH  11  12
ENDBRANCH  10  11
ENDBRANCH   8   9
BRANCH   1  20
HETATM   20  C2  UNL     1     -27.204 -19.317  10.075  1.00  0.00     0.014 C 
HETATM   21  C1  UNL     1     -25.889 -19.236  10.821  1.00  0.00     0.015 C 
HETATM   22  C3  UNL     1     -28.208 -19.635  11.260  1.00  0.00     0.015 C 
ENDBRANCH   1  20
BRANCH   5  23
HETATM   23  N2  UNL     1     -29.296 -14.493   8.245  1.00  0.00    -0.234 N 
ATOM     24  H22 UNL     1     -28.955 -14.044   7.394  1.00  0.00     0.174 HD
ATOM     25  H21 UNL     1     -30.060 -14.019   8.725  1.00  0.00     0.174 HD
ENDBRANCH   5  23
TORSDOF 9
ENDMDL
MODEL 5
REMARK VINA RESULT: -6.272529571      1.828      3.339
REMARK  9 active torsions:
REMARK  status: ('A' for Active; 'I' for Inactive)
REMARK    1  A    between atoms: C2_2  and  C4_4 
REMARK    2  A    between atoms: C6_8  and  N2_9 
REMARK    3  A    between atoms: C7_14  and  C8_15 
REMARK    4  A    between atoms: C9_16  and  C10_17 
REMARK    5  A    between atoms: C10_17  and  C11_18 
REMARK    6  A    between atoms: C11_18  and  O1_19 
REMARK    7  A    between atoms: C11_18  and  C12_21 
REMARK    8  A    between atoms: C12_21  and  N4_22 
REMARK    9  A    between atoms: N4_22  and  N5_23 
ROOT
HETATM    1  C4  UNL     1     -28.389 -17.736   9.092  1.00  0.00    -0.011 A 
HETATM    2  C5  UNL     1     -28.806 -18.268   7.878  1.00  0.00     0.116 A 
HETATM    3  N1  UNL     1     -28.852 -19.601   7.731  1.00  0.00    -0.202 N 
ATOM      4  H1  UNL     1     -29.161 -19.962   6.829  1.00  0.00     0.183 HD
HETATM    5  C6  UNL     1     -28.528 -20.491   8.665  1.00  0.00     0.676 A 
HETATM    6  N3  UNL     1     -28.126 -19.988   9.844  1.00  0.00    -0.192 N 
ATOM      7  H3  UNL     1     -27.869 -20.628  10.595  1.00  0.00     0.184 HD
HETATM    8  C7  UNL     1     -28.053 -18.637  10.062  1.00  0.00     0.057 A 
ENDROOT
BRANCH   8   9
HETATM    9  C8  UNL     1     -27.546 -18.179  11.358  1.00  0.00     0.027 C 
HETATM   10  C9  UNL     1     -26.216 -18.195  11.508  1.00  0.00    -0.022 C 
BRANCH  10  11
HETATM   11  C10 UNL     1     -25.644 -17.736  12.796  1.00  0.00     0.065 C 
BRANCH  11  12
HETATM   12  C11 UNL     1     -24.493 -18.638  13.240  1.00  0.00     0.175 C 
BRANCH  12  13
HETATM   13  O1  UNL     1     -24.373 -18.449  14.631  1.00  0.00    -0.389 OA
ATOM     14  H1  UNL     1     -23.591 -18.923  14.889  1.00  0.00     0.210 HD
ENDBRANCH  12  13
BRANCH  12  15
HETATM   15  C12 UNL     1     -24.783 -20.059  13.008  1.00  0.00     0.212 C 
BRANCH  15  16
HETATM   16  N4  UNL     1     -24.302 -20.962  13.725  1.00  0.00    -0.347 NA
BRANCH  16  17
HETATM   17  N5  UNL     1     -23.665 -21.653  14.533  1.00  0.00    -0.281 N 
ATOM     18  H52 UNL     1     -22.860 -21.688  13.908  1.00  0.00     0.191 HD
ATOM     19  H51 UNL     1     -23.331 -22.202  15.325  1.00  0.00     0.191 HD
ENDBRANCH  16  17
ENDBRANCH  15  16
ENDBRANCH  12  15
ENDBRANCH  11  12
ENDBRANCH  10  11
ENDBRANCH   8   9
BRANCH   1  20
HETATM   20  C2  UNL     1     -28.430 -16.288   9.365  1.00  0.00     0.014 C 
HETATM   21  C1  UNL     1     -27.160 -15.544   9.008  1.00  0.00     0.015 C 
HETATM   22  C3  UNL     1     -29.433 -15.719   8.277  1.00  0.00     0.015 C 
ENDBRANCH   1  20
BRANCH   5  23
HETATM   23  N2  UNL     1     -28.598 -21.783   8.485  1.00  0.00    -0.234 N 
ATOM     24  H22 UNL     1     -28.856 -22.166   7.575  1.00  0.00     0.174 HD
ATOM     25  H21 UNL     1     -28.397 -22.466   9.216  1.00  0.00     0.174 HD
ENDBRANCH   5  23
TORSDOF 9
ENDMDL
