MODEL 1
REMARK VINA RESULT: -6.667451720      0.000      0.000
REMARK  6 active torsions:
REMARK  status: ('A' for Active; 'I' for Inactive)
REMARK    1  A    between atoms: C2_2  and  C3_3 
REMARK    2  A    between atoms: C3_3  and  N1_4 
REMARK       I    between atoms: N1_4  and  C4_6 
REMARK       I    between atoms: C4_6  and  N3_10 
REMARK    3  A    between atoms: N3_10  and  C5_12 
REMARK    4  A    between atoms: C5_12  and  C6_13 
REMARK    5  A    between atoms: C6_13  and  O1_14 
REMARK    6  A    between atoms: O1_14  and  C7_15 
ROOT
HETATM    1  N1  UNL     1      17.936  27.719  -7.386  1.00  0.00    -0.223 N 
ATOM      2  H1  UNL     1      18.018  27.154  -6.540  1.00  0.00     0.178 HD
HETATM    3  C4  UNL     1      18.830  28.802  -7.580  1.00  0.00     0.667 C 
HETATM    4  N2  UNL     1      18.562  29.981  -7.109  1.00  0.00    -0.235 N 
ATOM      5  H21 UNL     1      19.205  30.760  -7.249  1.00  0.00     0.174 HD
ATOM      6  H22 UNL     1      17.692  30.119  -6.596  1.00  0.00     0.174 HD
HETATM    7  N3  UNL     1      20.050  28.608  -8.300  1.00  0.00    -0.225 N 
ATOM      8  H3  UNL     1      20.893  28.294  -7.819  1.00  0.00     0.177 HD
ENDROOT
BRANCH   7   9
HETATM    9  C5  UNL     1      20.063  28.864  -9.720  1.00  0.00     0.164 C 
BRANCH   9  10
HETATM   10  C6  UNL     1      20.211  27.635 -10.569  1.00  0.00     0.188 C 
BRANCH  10  11
HETATM   11  O1  UNL     1      19.455  26.587 -10.224  1.00  0.00    -0.384 OA
BRANCH  11  12
HETATM   12  C7  UNL     1      18.831  25.823 -11.137  1.00  0.00     0.121 C 
HETATM   13  C8  UNL     1      19.714  25.646 -12.342  1.00  0.00     0.032 C 
HETATM   14  C9  UNL     1      19.104  24.534 -13.174  1.00  0.00     0.002 C 
HETATM   15  C10 UNL     1      17.823  25.032 -13.730  1.00  0.00     0.000 C 
HETATM   16  C11 UNL     1      16.898  25.650 -12.734  1.00  0.00     0.002 C 
HETATM   17  C12 UNL     1      17.532  26.424 -11.651  1.00  0.00     0.032 C 
ENDBRANCH  11  12
ENDBRANCH  10  11
ENDBRANCH   9  10
ENDBRANCH   7   9
BRANCH   1  18
HETATM   18  C3  UNL     1      16.918  27.395  -8.344  1.00  0.00     0.164 C 
BRANCH  18  19
HETATM   19  C2  UNL     1      15.721  28.257  -8.125  1.00  0.00    -0.017 C 
HETATM   20  C1  UNL     1      15.351  29.117  -9.056  1.00  0.00     0.008 C 
ENDBRANCH  18  19
ENDBRANCH   1  18
TORSDOF 6
ENDMDL
MODEL 2
REMARK VINA RESULT: -6.522557468      1.504      3.241
REMARK  6 active torsions:
REMARK  status: ('A' for Active; 'I' for Inactive)
REMARK    1  A    between atoms: C2_2  and  C3_3 
REMARK    2  A    between atoms: C3_3  and  N1_4 
REMARK       I    between atoms: N1_4  and  C4_6 
REMARK       I    between atoms: C4_6  and  N3_10 
REMARK    3  A    between atoms: N3_10  and  C5_12 
REMARK    4  A    between atoms: C5_12  and  C6_13 
REMARK    5  A    between atoms: C6_13  and  O1_14 
REMARK    6  A    between atoms: O1_14  and  C7_15 
ROOT
HETATM    1  N1  UNL     1      18.490  29.379  -6.798  1.00  0.00    -0.223 N 
ATOM      2  H1  UNL     1      18.470  29.487  -5.784  1.00  0.00     0.178 HD
HETATM    3  C4  UNL     1      17.912  28.223  -7.378  1.00  0.00     0.667 C 
HETATM    4  N2  UNL     1      18.606  27.137  -7.535  1.00  0.00    -0.235 N 
ATOM      5  H21 UNL     1      18.190  26.305  -7.953  1.00  0.00     0.174 HD
ATOM      6  H22 UNL     1      19.580  27.129  -7.235  1.00  0.00     0.174 HD
HETATM    7  N3  UNL     1      16.546  28.234  -7.799  1.00  0.00    -0.225 N 
ATOM      8  H3  UNL     1      15.798  28.002  -7.145  1.00  0.00     0.177 HD
ENDROOT
BRANCH   7   9
HETATM    9  C5  UNL     1      16.245  28.582  -9.166  1.00  0.00     0.164 C 
BRANCH   9  10
HETATM   10  C6  UNL     1      17.226  28.050 -10.170  1.00  0.00     0.188 C 
BRANCH  10  11
HETATM   11  O1  UNL     1      16.721  27.266 -11.128  1.00  0.00    -0.384 OA
BRANCH  11  12
HETATM   12  C7  UNL     1      17.502  26.620 -12.011  1.00  0.00     0.121 C 
HETATM   13  C8  UNL     1      16.695  25.581 -12.740  1.00  0.00     0.032 C 
HETATM   14  C9  UNL     1      17.530  25.126 -13.921  1.00  0.00     0.002 C 
HETATM   15  C10 UNL     1      18.697  24.378 -13.393  1.00  0.00     0.000 C 
HETATM   16  C11 UNL     1      19.461  25.075 -12.315  1.00  0.00     0.002 C 
HETATM   17  C12 UNL     1      18.664  25.878 -11.370  1.00  0.00     0.032 C 
ENDBRANCH  11  12
ENDBRANCH  10  11
ENDBRANCH   9  10
ENDBRANCH   7   9
BRANCH   1  18
HETATM   18  C3  UNL     1      19.102  30.404  -7.595  1.00  0.00     0.164 C 
BRANCH  18  19
HETATM   19  C2  UNL     1      20.516  30.604  -7.166  1.00  0.00    -0.017 C 
HETATM   20  C1  UNL     1      21.354  29.583  -7.164  1.00  0.00     0.008 C 
ENDBRANCH  18  19
ENDBRANCH   1  18
TORSDOF 6
ENDMDL
MODEL 3
REMARK VINA RESULT: -6.467030379      0.499      1.323
REMARK  6 active torsions:
REMARK  status: ('A' for Active; 'I' for Inactive)
REMARK    1  A    between atoms: C2_2  and  C3_3 
REMARK    2  A    between atoms: C3_3  and  N1_4 
REMARK       I    between atoms: N1_4  and  C4_6 
REMARK       I    between atoms: C4_6  and  N3_10 
REMARK    3  A    between atoms: N3_10  and  C5_12 
REMARK    4  A    between atoms: C5_12  and  C6_13 
REMARK    5  A    between atoms: C6_13  and  O1_14 
REMARK    6  A    between atoms: O1_14  and  C7_15 
ROOT
HETATM    1  N1  UNL     1      17.904  27.443  -7.633  1.00  0.00    -0.223 N 
ATOM      2  H1  UNL     1      17.964  26.804  -6.841  1.00  0.00     0.178 HD
HETATM    3  C4  UNL     1      18.801  28.538  -7.704  1.00  0.00     0.667 C 
HETATM    4  N2  UNL     1      18.518  29.670  -7.135  1.00  0.00    -0.235 N 
ATOM      5  H21 UNL     1      19.164  30.458  -7.186  1.00  0.00     0.174 HD
ATOM      6  H22 UNL     1      17.635  29.762  -6.635  1.00  0.00     0.174 HD
HETATM    7  N3  UNL     1      20.041  28.410  -8.405  1.00  0.00    -0.225 N 
ATOM      8  H3  UNL     1      20.871  28.053  -7.932  1.00  0.00     0.177 HD
ENDROOT
BRANCH   7   9
HETATM    9  C5  UNL     1      20.093  28.794  -9.794  1.00  0.00     0.164 C 
BRANCH   9  10
HETATM   10  C6  UNL     1      20.396  27.666 -10.738  1.00  0.00     0.188 C 
BRANCH  10  11
HETATM   11  O1  UNL     1      19.469  26.707 -10.826  1.00  0.00    -0.384 OA
BRANCH  11  12
HETATM   12  C7  UNL     1      19.043  26.230 -12.008  1.00  0.00     0.121 C 
HETATM   13  C8  UNL     1      17.564  25.961 -11.946  1.00  0.00     0.032 C 
HETATM   14  C9  UNL     1      17.096  25.744 -13.372  1.00  0.00     0.002 C 
HETATM   15  C10 UNL     1      17.680  24.469 -13.853  1.00  0.00     0.000 C 
HETATM   16  C11 UNL     1      19.153  24.329 -13.648  1.00  0.00     0.002 C 
HETATM   17  C12 UNL     1      19.695  24.917 -12.409  1.00  0.00     0.032 C 
ENDBRANCH  11  12
ENDBRANCH  10  11
ENDBRANCH   9  10
ENDBRANCH   7   9
BRANCH   1  18
HETATM   18  C3  UNL     1      16.914  27.208  -8.645  1.00  0.00     0.164 C 
BRANCH  18  19
HETATM   19  C2  UNL     1      15.664  27.953  -8.315  1.00  0.00    -0.017 C 
HETATM   20  C1  UNL     1      15.329  29.019  -9.019  1.00  0.00     0.008 C 
ENDBRANCH  18  19
ENDBRANCH   1  18
TORSDOF 6
ENDMDL
MODEL 4
REMARK VINA RESULT: -6.411157131      1.617      3.034
REMARK  6 active torsions:
REMARK  status: ('A' for Active; 'I' for Inactive)
REMARK    1  A    between atoms: C2_2  and  C3_3 
REMARK    2  A    between atoms: C3_3  and  N1_4 
REMARK       I    between atoms: N1_4  and  C4_6 
REMARK       I    between atoms: C4_6  and  N3_10 
REMARK    3  A    between atoms: N3_10  and  C5_12 
REMARK    4  A    between atoms: C5_12  and  C6_13 
REMARK    5  A    between atoms: C6_13  and  O1_14 
REMARK    6  A    between atoms: O1_14  and  C7_15 
ROOT
HETATM    1  N1  UNL     1      18.317  29.324  -6.915  1.00  0.00    -0.223 N 
ATOM      2  H1  UNL     1      18.139  29.422  -5.915  1.00  0.00     0.178 HD
HETATM    3  C4  UNL     1      17.944  28.122  -7.566  1.00  0.00     0.667 C 
HETATM    4  N2  UNL     1      18.754  27.109  -7.612  1.00  0.00    -0.235 N 
ATOM      5  H21 UNL     1      18.485  26.244  -8.081  1.00  0.00     0.174 HD
ATOM      6  H22 UNL     1      19.670  27.191  -7.172  1.00  0.00     0.174 HD
HETATM    7  N3  UNL     1      16.659  28.006  -8.183  1.00  0.00    -0.225 N 
ATOM      8  H3  UNL     1      15.850  27.698  -7.644  1.00  0.00     0.177 HD
ENDROOT
BRANCH   7   9
HETATM    9  C5  UNL     1      16.532  28.333  -9.582  1.00  0.00     0.164 C 
BRANCH   9  10
HETATM   10  C6  UNL     1      17.499  27.616 -10.477  1.00  0.00     0.188 C 
BRANCH  10  11
HETATM   11  O1  UNL     1      16.966  26.964 -11.517  1.00  0.00    -0.384 OA
BRANCH  11  12
HETATM   12  C7  UNL     1      17.541  25.871 -12.047  1.00  0.00     0.121 C 
HETATM   13  C8  UNL     1      18.993  26.146 -12.329  1.00  0.00     0.032 C 
HETATM   14  C9  UNL     1      19.647  24.806 -12.610  1.00  0.00     0.002 C 
HETATM   15  C10 UNL     1      19.113  24.301 -13.898  1.00  0.00     0.000 C 
HETATM   16  C11 UNL     1      17.624  24.309 -14.014  1.00  0.00     0.002 C 
HETATM   17  C12 UNL     1      16.929  25.438 -13.369  1.00  0.00     0.032 C 
ENDBRANCH  11  12
ENDBRANCH  10  11
ENDBRANCH   9  10
ENDBRANCH   7   9
BRANCH   1  18
HETATM   18  C3  UNL     1      18.939  30.408  -7.621  1.00  0.00     0.164 C 
BRANCH  18  19
HETATM   19  C2  UNL     1      20.301  30.659  -7.067  1.00  0.00    -0.017 C 
HETATM   20  C1  UNL     1      21.248  29.751  -7.215  1.00  0.00     0.008 C 
ENDBRANCH  18  19
ENDBRANCH   1  18
TORSDOF 6
ENDMDL
MODEL 5
REMARK VINA RESULT: -6.319082881      1.459      2.667
REMARK  6 active torsions:
REMARK  status: ('A' for Active; 'I' for Inactive)
REMARK    1  A    between atoms: C2_2  and  C3_3 
REMARK    2  A    between atoms: C3_3  and  N1_4 
REMARK       I    between atoms: N1_4  and  C4_6 
REMARK       I    between atoms: C4_6  and  N3_10 
REMARK    3  A    between atoms: N3_10  and  C5_12 
REMARK    4  A    between atoms: C5_12  and  C6_13 
REMARK    5  A    between atoms: C6_13  and  O1_14 
REMARK    6  A    between atoms: O1_14  and  C7_15 
ROOT
HETATM    1  N1  UNL     1      17.514  29.458  -7.650  1.00  0.00    -0.223 N 
ATOM      2  H1  UNL     1      17.582  30.469  -7.531  1.00  0.00     0.178 HD
HETATM    3  C4  UNL     1      16.366  28.915  -8.279  1.00  0.00     0.667 C 
HETATM    4  N2  UNL     1      15.306  28.619  -7.593  1.00  0.00    -0.235 N 
ATOM      5  H21 UNL     1      14.480  28.228  -8.046  1.00  0.00     0.174 HD
ATOM      6  H22 UNL     1      15.311  28.781  -6.586  1.00  0.00     0.174 HD
HETATM    7  N3  UNL     1      16.360  28.687  -9.691  1.00  0.00    -0.225 N 
ATOM      8  H3  UNL     1      16.083  29.427 -10.336  1.00  0.00     0.177 HD
ENDROOT
BRANCH   7   9
HETATM    9  C5  UNL     1      16.752  27.390 -10.184  1.00  0.00     0.164 C 
BRANCH   9  10
HETATM   10  C6  UNL     1      17.910  27.414 -11.139  1.00  0.00     0.188 C 
BRANCH  10  11
HETATM   11  O1  UNL     1      18.772  26.395 -11.045  1.00  0.00    -0.384 OA
BRANCH  11  12
HETATM   12  C7  UNL     1      18.843  25.430 -11.978  1.00  0.00     0.121 C 
HETATM   13  C8  UNL     1      20.020  25.681 -12.880  1.00  0.00     0.032 C 
HETATM   14  C9  UNL     1      20.234  24.413 -13.685  1.00  0.00     0.002 C 
HETATM   15  C10 UNL     1      19.087  24.264 -14.613  1.00  0.00     0.000 C 
HETATM   16  C11 UNL     1      17.740  24.386 -13.980  1.00  0.00     0.002 C 
HETATM   17  C12 UNL     1      17.624  25.364 -12.884  1.00  0.00     0.032 C 
ENDBRANCH  11  12
ENDBRANCH  10  11
ENDBRANCH   9  10
ENDBRANCH   7   9
BRANCH   1  18
HETATM   18  C3  UNL     1      18.583  28.627  -7.175  1.00  0.00     0.164 C 
BRANCH  18  19
HETATM   19  C2  UNL     1      19.747  28.718  -8.104  1.00  0.00    -0.017 C 
HETATM   20  C1  UNL     1      19.895  29.782  -8.871  1.00  0.00     0.008 C 
ENDBRANCH  18  19
ENDBRANCH   1  18
TORSDOF 6
ENDMDL
