MODEL 1
REMARK VINA RESULT: -6.887435175      0.000      0.000
REMARK  3 active torsions:
REMARK  status: ('A' for Active; 'I' for Inactive)
REMARK    1  A    between atoms: C2_2  and  O2_4 
REMARK    2  A    between atoms: O2_4  and  C3_5 
REMARK    3  A    between atoms: C9_12  and  O3_13 
ROOT
HETATM    1  C3  UNL     1     -26.277  18.256 -20.930  1.00  0.00     0.067 C 
HETATM    2  C4  UNL     1     -25.670  17.509 -22.081  1.00  0.00     0.047 C 
HETATM    3  C5  UNL     1     -27.362  19.160 -21.456  1.00  0.00     0.040 C 
HETATM    4  C6  UNL     1     -28.526  19.047 -20.489  1.00  0.00     0.023 C 
HETATM    5  C7  UNL     1     -29.169  17.672 -20.747  1.00  0.00     0.011 C 
HETATM    6  C8  UNL     1     -29.461  17.658 -22.247  1.00  0.00     0.027 C 
HETATM    7  S1  UNL     1     -30.708  17.683 -19.878  1.00  0.00    -0.128 SA
HETATM    8  C9  UNL     1     -31.394  16.129 -19.402  1.00  0.00     0.180 C 
HETATM    9  C10 UNL     1     -30.707  15.631 -18.152  1.00  0.00     0.042 C 
HETATM   10  C11 UNL     1     -29.308  16.261 -18.157  1.00  0.00     0.004 C 
HETATM   11  C12 UNL     1     -28.576  15.679 -19.312  1.00  0.00     0.006 C 
HETATM   12  C13 UNL     1     -28.169  16.661 -20.376  1.00  0.00     0.007 C 
HETATM   13  C14 UNL     1     -26.833  17.224 -19.965  1.00  0.00     0.044 C 
ENDROOT
BRANCH   1  14
HETATM   14  O2  UNL     1     -25.380  19.001 -20.181  1.00  0.00    -0.311 OA
BRANCH  14  15
HETATM   15  C2  UNL     1     -24.166  19.430 -20.669  1.00  0.00     0.255 C 
HETATM   16  C1  UNL     1     -24.120  20.642 -21.526  1.00  0.00     0.126 C 
HETATM   17  O1  UNL     1     -23.177  18.756 -20.348  1.00  0.00    -0.266 OA
ENDBRANCH  14  15
ENDBRANCH   1  14
BRANCH   8  18
HETATM   18  O3  UNL     1     -31.459  15.174 -20.405  1.00  0.00    -0.385 OA
ATOM     19  H3  UNL     1     -31.541  14.275 -20.108  1.00  0.00     0.211 HD
ENDBRANCH   8  18
TORSDOF 3
ENDMDL
MODEL 2
REMARK VINA RESULT: -6.848936361      2.002      3.005
REMARK  3 active torsions:
REMARK  status: ('A' for Active; 'I' for Inactive)
REMARK    1  A    between atoms: C2_2  and  O2_4 
REMARK    2  A    between atoms: O2_4  and  C3_5 
REMARK    3  A    between atoms: C9_12  and  O3_13 
ROOT
HETATM    1  C3  UNL     1     -26.532  18.975 -22.165  1.00  0.00     0.067 C 
HETATM    2  C4  UNL     1     -26.858  20.428 -22.353  1.00  0.00     0.047 C 
HETATM    3  C5  UNL     1     -26.936  18.562 -20.774  1.00  0.00     0.040 C 
HETATM    4  C6  UNL     1     -27.598  17.203 -20.901  1.00  0.00     0.023 C 
HETATM    5  C7  UNL     1     -28.984  17.454 -21.524  1.00  0.00     0.011 C 
HETATM    6  C8  UNL     1     -29.631  18.499 -20.616  1.00  0.00     0.027 C 
HETATM    7  S1  UNL     1     -29.877  15.938 -21.355  1.00  0.00    -0.128 SA
HETATM    8  C9  UNL     1     -31.196  15.630 -22.485  1.00  0.00     0.180 C 
HETATM    9  C10 UNL     1     -30.636  15.139 -23.799  1.00  0.00     0.042 C 
HETATM   10  C11 UNL     1     -29.216  15.711 -23.896  1.00  0.00     0.004 C 
HETATM   11  C12 UNL     1     -29.351  17.186 -24.009  1.00  0.00     0.006 C 
HETATM   12  C13 UNL     1     -28.751  17.976 -22.878  1.00  0.00     0.007 C 
HETATM   13  C14 UNL     1     -27.300  18.199 -23.220  1.00  0.00     0.044 C 
ENDROOT
BRANCH   1  14
HETATM   14  O2  UNL     1     -25.202  18.645 -22.375  1.00  0.00    -0.311 OA
BRANCH  14  15
HETATM   15  C2  UNL     1     -24.198  18.970 -21.491  1.00  0.00     0.255 C 
HETATM   16  C1  UNL     1     -23.824  20.397 -21.316  1.00  0.00     0.126 C 
HETATM   17  O1  UNL     1     -23.667  18.024 -20.893  1.00  0.00    -0.266 OA
ENDBRANCH  14  15
ENDBRANCH   1  14
BRANCH   8  18
HETATM   18  O3  UNL     1     -32.107  16.665 -22.633  1.00  0.00    -0.385 OA
ATOM     19  H3  UNL     1     -32.920  16.434 -23.065  1.00  0.00     0.211 HD
ENDBRANCH   8  18
TORSDOF 3
ENDMDL
MODEL 3
REMARK VINA RESULT: -6.590548771      2.625      6.008
REMARK  3 active torsions:
REMARK  status: ('A' for Active; 'I' for Inactive)
REMARK    1  A    between atoms: C2_2  and  O2_4 
REMARK    2  A    between atoms: O2_4  and  C3_5 
REMARK    3  A    between atoms: C9_12  and  O3_13 
ROOT
HETATM    1  C3  UNL     1     -30.888  18.280 -20.070  1.00  0.00     0.067 C 
HETATM    2  C4  UNL     1     -31.176  16.807 -20.107  1.00  0.00     0.047 C 
HETATM    3  C5  UNL     1     -30.310  18.628 -18.723  1.00  0.00     0.040 C 
HETATM    4  C6  UNL     1     -29.164  19.588 -18.979  1.00  0.00     0.023 C 
HETATM    5  C7  UNL     1     -28.013  18.744 -19.557  1.00  0.00     0.011 C 
HETATM    6  C8  UNL     1     -27.812  17.619 -18.542  1.00  0.00     0.027 C 
HETATM    7  S1  UNL     1     -26.584  19.783 -19.531  1.00  0.00    -0.128 SA
HETATM    8  C9  UNL     1     -25.286  19.424 -20.671  1.00  0.00     0.180 C 
HETATM    9  C10 UNL     1     -25.641  19.969 -22.034  1.00  0.00     0.042 C 
HETATM   10  C11 UNL     1     -27.174  20.009 -22.089  1.00  0.00     0.004 C 
HETATM   11  C12 UNL     1     -27.645  18.600 -22.052  1.00  0.00     0.006 C 
HETATM   12  C13 UNL     1     -28.477  18.231 -20.854  1.00  0.00     0.007 C 
HETATM   13  C14 UNL     1     -29.905  18.576 -21.189  1.00  0.00     0.044 C 
ENDROOT
BRANCH   1  14
HETATM   14  O2  UNL     1     -31.979  19.093 -20.327  1.00  0.00    -0.311 OA
BRANCH  14  15
HETATM   15  C2  UNL     1     -32.703  19.718 -19.336  1.00  0.00     0.255 C 
HETATM   16  C1  UNL     1     -32.498  21.170 -19.098  1.00  0.00     0.126 C 
HETATM   17  O1  UNL     1     -33.491  19.004 -18.701  1.00  0.00    -0.266 OA
ENDBRANCH  14  15
ENDBRANCH   1  14
BRANCH   8  18
HETATM   18  O3  UNL     1     -24.871  18.101 -20.704  1.00  0.00    -0.385 OA
ATOM     19  H3  UNL     1     -24.798  17.718 -21.570  1.00  0.00     0.211 HD
ENDBRANCH   8  18
TORSDOF 3
ENDMDL
MODEL 4
REMARK VINA RESULT: -6.569767555      1.036      1.139
REMARK  3 active torsions:
REMARK  status: ('A' for Active; 'I' for Inactive)
REMARK    1  A    between atoms: C2_2  and  O2_4 
REMARK    2  A    between atoms: O2_4  and  C3_5 
REMARK    3  A    between atoms: C9_12  and  O3_13 
ROOT
HETATM    1  C3  UNL     1     -26.559  18.425 -21.242  1.00  0.00     0.067 C 
HETATM    2  C4  UNL     1     -25.773  17.514 -22.139  1.00  0.00     0.047 C 
HETATM    3  C5  UNL     1     -27.851  18.787 -21.929  1.00  0.00     0.040 C 
HETATM    4  C6  UNL     1     -28.938  18.713 -20.872  1.00  0.00     0.023 C 
HETATM    5  C7  UNL     1     -29.181  17.216 -20.607  1.00  0.00     0.011 C 
HETATM    6  C8  UNL     1     -29.461  16.620 -21.987  1.00  0.00     0.027 C 
HETATM    7  S1  UNL     1     -30.663  17.124 -19.648  1.00  0.00    -0.128 SA
HETATM    8  C9  UNL     1     -30.897  15.703 -18.629  1.00  0.00     0.180 C 
HETATM    9  C10 UNL     1     -30.098  15.853 -17.357  1.00  0.00     0.042 C 
HETATM   10  C11 UNL     1     -28.924  16.780 -17.698  1.00  0.00     0.004 C 
HETATM   11  C12 UNL     1     -28.063  16.050 -18.665  1.00  0.00     0.006 C 
HETATM   12  C13 UNL     1     -27.942  16.683 -20.024  1.00  0.00     0.007 C 
HETATM   13  C14 UNL     1     -26.811  17.675 -19.946  1.00  0.00     0.044 C 
ENDROOT
BRANCH   1  14
HETATM   14  O2  UNL     1     -25.899  19.583 -20.864  1.00  0.00    -0.311 OA
BRANCH  14  15
HETATM   15  C2  UNL     1     -24.623  19.891 -21.279  1.00  0.00     0.255 C 
HETATM   16  C1  UNL     1     -23.466  19.320 -20.542  1.00  0.00     0.126 C 
HETATM   17  O1  UNL     1     -24.532  20.641 -22.261  1.00  0.00    -0.266 OA
ENDBRANCH  14  15
ENDBRANCH   1  14
BRANCH   8  18
HETATM   18  O3  UNL     1     -30.700  14.482 -19.257  1.00  0.00    -0.385 OA
ATOM     19  H3  UNL     1     -30.782  13.718 -18.698  1.00  0.00     0.211 HD
ENDBRANCH   8  18
TORSDOF 3
ENDMDL
MODEL 5
REMARK VINA RESULT: -6.567586302      1.421      1.957
REMARK  3 active torsions:
REMARK  status: ('A' for Active; 'I' for Inactive)
REMARK    1  A    between atoms: C2_2  and  O2_4 
REMARK    2  A    between atoms: O2_4  and  C3_5 
REMARK    3  A    between atoms: C9_12  and  O3_13 
ROOT
HETATM    1  C3  UNL     1     -26.429  19.375 -21.416  1.00  0.00     0.067 C 
HETATM    2  C4  UNL     1     -27.120  20.160 -22.493  1.00  0.00     0.047 C 
HETATM    3  C5  UNL     1     -26.588  20.104 -20.107  1.00  0.00     0.040 C 
HETATM    4  C6  UNL     1     -26.904  19.051 -19.061  1.00  0.00     0.023 C 
HETATM    5  C7  UNL     1     -28.360  18.618 -19.309  1.00  0.00     0.011 C 
HETATM    6  C8  UNL     1     -29.158  19.921 -19.298  1.00  0.00     0.027 C 
HETATM    7  S1  UNL     1     -28.832  17.661 -17.901  1.00  0.00    -0.128 SA
HETATM    8  C9  UNL     1     -30.135  16.488 -18.102  1.00  0.00     0.180 C 
HETATM    9  C10 UNL     1     -29.596  15.237 -18.755  1.00  0.00     0.042 C 
HETATM   10  C11 UNL     1     -28.375  15.677 -19.574  1.00  0.00     0.004 C 
HETATM   11  C12 UNL     1     -28.879  16.550 -20.666  1.00  0.00     0.006 C 
HETATM   12  C13 UNL     1     -28.390  17.972 -20.630  1.00  0.00     0.007 C 
HETATM   13  C14 UNL     1     -27.078  18.003 -21.370  1.00  0.00     0.044 C 
ENDROOT
BRANCH   1  14
HETATM   14  O2  UNL     1     -25.085  19.129 -21.645  1.00  0.00    -0.311 OA
BRANCH  14  15
HETATM   15  C2  UNL     1     -24.076  19.884 -21.090  1.00  0.00     0.255 C 
HETATM   16  C1  UNL     1     -23.858  21.269 -21.582  1.00  0.00     0.126 C 
HETATM   17  O1  UNL     1     -23.409  19.339 -20.200  1.00  0.00    -0.266 OA
ENDBRANCH  14  15
ENDBRANCH   1  14
BRANCH   8  18
HETATM   18  O3  UNL     1     -31.282  16.971 -18.713  1.00  0.00    -0.385 OA
ATOM     19  H3  UNL     1     -32.018  17.128 -18.133  1.00  0.00     0.211 HD
ENDBRANCH   8  18
TORSDOF 3
ENDMDL
