MODEL 1
REMARK VINA RESULT: -6.642416909      0.000      0.000
REMARK  3 active torsions:
REMARK  status: ('A' for Active; 'I' for Inactive)
REMARK    1  A    between atoms: N1_5  and  C4_7 
REMARK    2  A    between atoms: C7_10  and  S2_11 
REMARK    3  A    between atoms: S2_11  and  C8_12 
ROOT
HETATM    1  C4  UNL     1      11.521  -2.397  55.271  1.00  0.00     0.034 A 
HETATM    2  C5  UNL     1      11.852  -3.396  54.368  1.00  0.00     0.031 A 
HETATM    3  C6  UNL     1      12.526  -3.110  53.196  1.00  0.00     0.021 A 
HETATM    4  C7  UNL     1      12.888  -1.822  52.895  1.00  0.00     0.005 A 
HETATM    5  C9  UNL     1      12.560  -0.836  53.787  1.00  0.00     0.021 A 
HETATM    6  C10 UNL     1      11.890  -1.102  54.957  1.00  0.00     0.031 A 
ENDROOT
BRANCH   1   7
HETATM    7  N1  UNL     1      10.839  -2.762  56.435  1.00  0.00    -0.337 N 
HETATM    8  C3  UNL     1       9.598  -2.778  56.637  1.00  0.00     0.148 C 
HETATM    9  S1  UNL     1       8.825  -3.263  58.165  1.00  0.00    -0.080 SA
HETATM   10  N2  UNL     1       8.563  -2.435  55.761  1.00  0.00    -0.306 N 
HETATM   11  C2  UNL     1       7.126  -2.736  57.682  1.00  0.00     0.143 C 
HETATM   12  C1  UNL     1       6.095  -3.666  58.221  1.00  0.00     0.031 C 
HETATM   13  C11 UNL     1       7.291  -2.845  56.209  1.00  0.00     0.237 C 
HETATM   14  O1  UNL     1       6.332  -3.276  55.482  1.00  0.00    -0.272 OA
ATOM     15  H2  UNL     1       8.714  -1.938  54.884  1.00  0.00     0.171 HD
ATOM     16  H1  UNL     1      11.423  -3.054  57.219  1.00  0.00     0.168 HD
ENDBRANCH   1   7
BRANCH   4  17
HETATM   17  S2  UNL     1      13.754  -1.417  51.398  1.00  0.00    -0.061 SA
BRANCH  17  18
HETATM   18  C8  UNL     1      12.619  -1.169  50.028  1.00  0.00     0.420 C 
HETATM   19  F1  UNL     1      11.357  -0.964  50.543  1.00  0.00    -0.202 F 
HETATM   20  F2  UNL     1      12.984  -0.041  49.289  1.00  0.00    -0.202 F 
ENDBRANCH  17  18
ENDBRANCH   4  17
TORSDOF 3
ENDMDL
MODEL 2
REMARK VINA RESULT: -6.514984191      0.147      1.118
REMARK  3 active torsions:
REMARK  status: ('A' for Active; 'I' for Inactive)
REMARK    1  A    between atoms: N1_5  and  C4_7 
REMARK    2  A    between atoms: C7_10  and  S2_11 
REMARK    3  A    between atoms: S2_11  and  C8_12 
ROOT
HETATM    1  C4  UNL     1      11.552  -2.498  55.299  1.00  0.00     0.034 A 
HETATM    2  C5  UNL     1      11.933  -1.174  55.140  1.00  0.00     0.031 A 
HETATM    3  C6  UNL     1      12.619  -0.754  54.016  1.00  0.00     0.021 A 
HETATM    4  C7  UNL     1      12.942  -1.642  53.022  1.00  0.00     0.005 A 
HETATM    5  C9  UNL     1      12.565  -2.950  53.181  1.00  0.00     0.021 A 
HETATM    6  C10 UNL     1      11.883  -3.386  54.292  1.00  0.00     0.031 A 
ENDROOT
BRANCH   1   7
HETATM    7  N1  UNL     1      10.860  -2.849  56.461  1.00  0.00    -0.337 N 
HETATM    8  C3  UNL     1       9.619  -2.837  56.662  1.00  0.00     0.148 C 
HETATM    9  S1  UNL     1       8.833  -3.306  58.188  1.00  0.00    -0.080 SA
HETATM   10  N2  UNL     1       8.593  -2.473  55.784  1.00  0.00    -0.306 N 
HETATM   11  C2  UNL     1       7.147  -2.742  57.703  1.00  0.00     0.143 C 
HETATM   12  C1  UNL     1       6.095  -3.649  58.241  1.00  0.00     0.031 C 
HETATM   13  C11 UNL     1       7.311  -2.855  56.230  1.00  0.00     0.237 C 
HETATM   14  O1  UNL     1       6.344  -3.266  55.502  1.00  0.00    -0.272 OA
ATOM     15  H2  UNL     1       8.756  -1.979  54.907  1.00  0.00     0.171 HD
ATOM     16  H1  UNL     1      11.436  -3.152  57.247  1.00  0.00     0.168 HD
ENDBRANCH   1   7
BRANCH   4  17
HETATM   17  S2  UNL     1      13.823  -1.139  51.565  1.00  0.00    -0.061 SA
BRANCH  17  18
HETATM   18  C8  UNL     1      12.743  -1.080  50.130  1.00  0.00     0.420 C 
HETATM   19  F1  UNL     1      11.441  -0.985  50.572  1.00  0.00    -0.202 F 
HETATM   20  F2  UNL     1      13.029   0.042  49.349  1.00  0.00    -0.202 F 
ENDBRANCH  17  18
ENDBRANCH   4  17
TORSDOF 3
ENDMDL
MODEL 3
REMARK VINA RESULT: -6.312267463      1.089      1.240
REMARK  3 active torsions:
REMARK  status: ('A' for Active; 'I' for Inactive)
REMARK    1  A    between atoms: N1_5  and  C4_7 
REMARK    2  A    between atoms: C7_10  and  S2_11 
REMARK    3  A    between atoms: S2_11  and  C8_12 
ROOT
HETATM    1  C4  UNL     1      11.734  -2.261  54.623  1.00  0.00     0.034 A 
HETATM    2  C5  UNL     1      13.069  -1.886  54.574  1.00  0.00     0.031 A 
HETATM    3  C6  UNL     1      13.595  -1.248  53.466  1.00  0.00     0.021 A 
HETATM    4  C7  UNL     1      12.805  -0.968  52.381  1.00  0.00     0.005 A 
HETATM    5  C9  UNL     1      11.488  -1.339  52.431  1.00  0.00     0.021 A 
HETATM    6  C10 UNL     1      10.947  -1.975  53.524  1.00  0.00     0.031 A 
ENDROOT
BRANCH   1   7
HETATM    7  N1  UNL     1      11.274  -2.902  55.777  1.00  0.00    -0.337 N 
HETATM    8  C3  UNL     1      10.114  -2.894  56.261  1.00  0.00     0.148 C 
HETATM    9  S1  UNL     1       9.627  -3.749  57.744  1.00  0.00    -0.080 SA
HETATM   10  N2  UNL     1       8.970  -2.245  55.784  1.00  0.00    -0.306 N 
HETATM   11  C2  UNL     1       7.948  -2.993  57.844  1.00  0.00     0.143 C 
HETATM   12  C1  UNL     1       6.942  -3.969  58.348  1.00  0.00     0.031 C 
HETATM   13  C11 UNL     1       7.780  -2.682  56.400  1.00  0.00     0.237 C 
HETATM   14  O1  UNL     1       6.640  -2.820  55.838  1.00  0.00    -0.272 OA
ATOM     15  H2  UNL     1       8.994  -1.526  55.061  1.00  0.00     0.171 HD
ATOM     16  H1  UNL     1      11.967  -3.446  56.290  1.00  0.00     0.168 HD
ENDBRANCH   1   7
BRANCH   4  17
HETATM   17  S2  UNL     1      13.446  -0.151  50.941  1.00  0.00    -0.061 SA
BRANCH  17  18
HETATM   18  C8  UNL     1      13.014  -1.032  49.436  1.00  0.00     0.420 C 
HETATM   19  F1  UNL     1      11.677  -0.817  49.178  1.00  0.00    -0.202 F 
HETATM   20  F2  UNL     1      13.756  -0.550  48.357  1.00  0.00    -0.202 F 
ENDBRANCH  17  18
ENDBRANCH   4  17
TORSDOF 3
ENDMDL
MODEL 4
REMARK VINA RESULT: -6.238467523      2.131      2.414
REMARK  3 active torsions:
REMARK  status: ('A' for Active; 'I' for Inactive)
REMARK    1  A    between atoms: N1_5  and  C4_7 
REMARK    2  A    between atoms: C7_10  and  S2_11 
REMARK    3  A    between atoms: S2_11  and  C8_12 
ROOT
HETATM    1  C4  UNL     1      11.412  -1.252  53.808  1.00  0.00     0.034 A 
HETATM    2  C5  UNL     1      11.131  -1.290  52.451  1.00  0.00     0.031 A 
HETATM    3  C6  UNL     1      12.142  -1.289  51.508  1.00  0.00     0.021 A 
HETATM    4  C7  UNL     1      13.457  -1.251  51.895  1.00  0.00     0.005 A 
HETATM    5  C9  UNL     1      13.733  -1.213  53.236  1.00  0.00     0.021 A 
HETATM    6  C10 UNL     1      12.741  -1.213  54.187  1.00  0.00     0.031 A 
ENDROOT
BRANCH   1   7
HETATM    7  N1  UNL     1      10.338  -1.256  54.702  1.00  0.00    -0.337 N 
HETATM    8  C3  UNL     1      10.002  -2.158  55.511  1.00  0.00     0.148 C 
HETATM    9  S1  UNL     1       8.608  -2.066  56.614  1.00  0.00    -0.080 SA
HETATM   10  N2  UNL     1      10.605  -3.400  55.740  1.00  0.00    -0.306 N 
HETATM   11  C2  UNL     1       8.704  -3.820  57.173  1.00  0.00     0.143 C 
HETATM   12  C1  UNL     1       8.349  -3.951  58.614  1.00  0.00     0.031 C 
HETATM   13  C11 UNL     1      10.151  -4.036  56.913  1.00  0.00     0.237 C 
HETATM   14  O1  UNL     1      10.854  -4.741  57.715  1.00  0.00    -0.272 OA
ATOM     15  H2  UNL     1      11.306  -3.804  55.119  1.00  0.00     0.171 HD
ATOM     16  H1  UNL     1       9.752  -0.422  54.697  1.00  0.00     0.168 HD
ENDBRANCH   1   7
BRANCH   4  17
HETATM   17  S2  UNL     1      14.782  -1.247  50.712  1.00  0.00    -0.061 SA
BRANCH  17  18
HETATM   18  C8  UNL     1      14.484  -0.063  49.394  1.00  0.00     0.420 C 
HETATM   19  F1  UNL     1      13.567  -0.608  48.522  1.00  0.00    -0.202 F 
HETATM   20  F2  UNL     1      13.953   1.121  49.912  1.00  0.00    -0.202 F 
ENDBRANCH  17  18
ENDBRANCH   4  17
TORSDOF 3
ENDMDL
MODEL 5
REMARK VINA RESULT: -6.145141777      2.325      2.913
REMARK  3 active torsions:
REMARK  status: ('A' for Active; 'I' for Inactive)
REMARK    1  A    between atoms: N1_5  and  C4_7 
REMARK    2  A    between atoms: C7_10  and  S2_11 
REMARK    3  A    between atoms: S2_11  and  C8_12 
ROOT
HETATM    1  C4  UNL     1      11.724  -1.217  53.377  1.00  0.00     0.034 A 
HETATM    2  C5  UNL     1      11.477  -1.236  52.012  1.00  0.00     0.031 A 
HETATM    3  C6  UNL     1      12.510  -1.297  51.096  1.00  0.00     0.021 A 
HETATM    4  C7  UNL     1      13.815  -1.341  51.516  1.00  0.00     0.005 A 
HETATM    5  C9  UNL     1      14.057  -1.321  52.864  1.00  0.00     0.021 A 
HETATM    6  C10 UNL     1      13.043  -1.261  53.790  1.00  0.00     0.031 A 
ENDROOT
BRANCH   1   7
HETATM    7  N1  UNL     1      10.629  -1.155  54.242  1.00  0.00    -0.337 N 
HETATM    8  C3  UNL     1      10.300  -1.971  55.141  1.00  0.00     0.148 C 
HETATM    9  S1  UNL     1       8.878  -1.799  56.197  1.00  0.00    -0.080 SA
HETATM   10  N2  UNL     1      10.934  -3.159  55.520  1.00  0.00    -0.306 N 
HETATM   11  C2  UNL     1       9.011  -3.475  56.952  1.00  0.00     0.143 C 
HETATM   12  C1  UNL     1       8.624  -3.455  58.390  1.00  0.00     0.031 C 
HETATM   13  C11 UNL     1      10.470  -3.674  56.748  1.00  0.00     0.237 C 
HETATM   14  O1  UNL     1      11.172  -4.263  57.639  1.00  0.00    -0.272 OA
ATOM     15  H2  UNL     1      11.660  -3.608  54.963  1.00  0.00     0.171 HD
ATOM     16  H1  UNL     1      10.020  -0.344  54.131  1.00  0.00     0.168 HD
ENDBRANCH   1   7
BRANCH   4  17
HETATM   17  S2  UNL     1      15.167  -1.418  50.368  1.00  0.00    -0.061 SA
BRANCH  17  18
HETATM   18  C8  UNL     1      15.610   0.214  49.761  1.00  0.00     0.420 C 
HETATM   19  F1  UNL     1      14.736   1.130  50.306  1.00  0.00    -0.202 F 
HETATM   20  F2  UNL     1      16.906   0.548  50.159  1.00  0.00    -0.202 F 
ENDBRANCH  17  18
ENDBRANCH   4  17
TORSDOF 3
ENDMDL
