MODEL 1
REMARK VINA RESULT: -7.609201597      0.000      0.000
REMARK  2 active torsions:
REMARK  status: ('A' for Active; 'I' for Inactive)
REMARK    1  A    between atoms: N1_3  and  C2_4 
REMARK    2  A    between atoms: C5_7  and  O2_8 
ROOT
HETATM    1  O1  UNL     1      12.261  -3.300  57.804  1.00  0.00    -0.269 OA
HETATM    2  C1  UNL     1      12.134  -2.823  56.626  1.00  0.00     0.263 A 
HETATM    3  N1  UNL     1      10.860  -2.724  56.008  1.00  0.00    -0.280 N 
HETATM    4  C8  UNL     1      11.101  -2.159  54.720  1.00  0.00     0.052 A 
HETATM    5  C9  UNL     1      10.219  -1.836  53.680  1.00  0.00     0.032 A 
HETATM    6  C10 UNL     1      10.719  -1.293  52.517  1.00  0.00     0.026 A 
HETATM    7  C11 UNL     1      12.058  -1.045  52.319  1.00  0.00     0.034 A 
HETATM    8 CL1  UNL     1      12.599  -0.344  50.786  1.00  0.00    -0.084 Cl
HETATM    9  C12 UNL     1      12.928  -1.356  53.330  1.00  0.00     0.036 A 
HETATM   10  C13 UNL     1      12.433  -1.908  54.514  1.00  0.00     0.009 A 
HETATM   11  C14 UNL     1      13.165  -2.318  55.724  1.00  0.00     0.167 A 
HETATM   12  S1  UNL     1      14.093  -0.932  56.429  1.00  0.00    -0.133 SA
HETATM   13  C15 UNL     1      15.750  -1.614  56.720  1.00  0.00     0.086 C 
HETATM   14  C16 UNL     1      15.996  -2.560  55.583  1.00  0.00     0.086 C 
HETATM   15  S2  UNL     1      14.458  -3.507  55.340  1.00  0.00    -0.133 SA
ENDROOT
BRANCH   3  16
HETATM   16  C2  UNL     1       9.575  -3.094  56.521  1.00  0.00     0.043 A 
HETATM   17  C3  UNL     1       9.295  -4.338  57.038  1.00  0.00     0.033 A 
HETATM   18  C4  UNL     1       8.013  -4.613  57.517  1.00  0.00     0.039 A 
HETATM   19  C5  UNL     1       7.011  -3.670  57.490  1.00  0.00     0.065 A 
HETATM   20  C6  UNL     1       7.285  -2.419  56.972  1.00  0.00     0.039 A 
HETATM   21  C7  UNL     1       8.544  -2.149  56.502  1.00  0.00     0.033 A 
BRANCH  19  22
HETATM   22  O2  UNL     1       5.723  -3.900  57.956  1.00  0.00    -0.361 OA
ATOM     23  H2  UNL     1       4.968  -3.388  57.692  1.00  0.00     0.217 HD
ENDBRANCH  19  22
ENDBRANCH   3  16
TORSDOF 2
ENDMDL
MODEL 2
REMARK VINA RESULT: -7.557377719      3.998      7.141
REMARK  2 active torsions:
REMARK  status: ('A' for Active; 'I' for Inactive)
REMARK    1  A    between atoms: N1_3  and  C2_4 
REMARK    2  A    between atoms: C5_7  and  O2_8 
ROOT
HETATM    1  O1  UNL     1      16.058  -3.181  54.392  1.00  0.00    -0.269 OA
HETATM    2  C1  UNL     1      14.890  -2.815  54.030  1.00  0.00     0.263 A 
HETATM    3  N1  UNL     1      14.662  -2.259  52.743  1.00  0.00    -0.280 N 
HETATM    4  C8  UNL     1      13.265  -1.970  52.692  1.00  0.00     0.052 A 
HETATM    5  C9  UNL     1      12.480  -1.413  51.674  1.00  0.00     0.032 A 
HETATM    6  C10 UNL     1      11.131  -1.235  51.884  1.00  0.00     0.026 A 
HETATM    7  C11 UNL     1      10.502  -1.581  53.058  1.00  0.00     0.034 A 
HETATM    8 CL1  UNL     1       8.761  -1.312  53.228  1.00  0.00    -0.084 Cl
HETATM    9  C12 UNL     1      11.260  -2.128  54.058  1.00  0.00     0.036 A 
HETATM   10  C13 UNL     1      12.630  -2.313  53.858  1.00  0.00     0.009 A 
HETATM   11  C14 UNL     1      13.636  -2.874  54.775  1.00  0.00     0.167 A 
HETATM   12  S1  UNL     1      13.198  -4.558  55.275  1.00  0.00    -0.133 SA
HETATM   13  C15 UNL     1      13.392  -4.547  57.079  1.00  0.00     0.086 C 
HETATM   14  C16 UNL     1      12.950  -3.184  57.518  1.00  0.00     0.086 C 
HETATM   15  S2  UNL     1      13.665  -1.991  56.340  1.00  0.00    -0.133 SA
ENDROOT
BRANCH   3  16
HETATM   16  C2  UNL     1      15.595  -2.018  51.684  1.00  0.00     0.043 A 
HETATM   17  C3  UNL     1      16.058  -0.766  51.352  1.00  0.00     0.033 A 
HETATM   18  C4  UNL     1      16.968  -0.622  50.303  1.00  0.00     0.039 A 
HETATM   19  C5  UNL     1      17.422  -1.704  49.584  1.00  0.00     0.065 A 
HETATM   20  C6  UNL     1      16.961  -2.965  49.912  1.00  0.00     0.039 A 
HETATM   21  C7  UNL     1      16.068  -3.105  50.941  1.00  0.00     0.033 A 
BRANCH  19  22
HETATM   22  O2  UNL     1      18.327  -1.609  48.535  1.00  0.00    -0.361 OA
ATOM     23  H2  UNL     1      18.559  -2.337  47.971  1.00  0.00     0.217 HD
ENDBRANCH  19  22
ENDBRANCH   3  16
TORSDOF 2
ENDMDL
MODEL 3
REMARK VINA RESULT: -7.552022834      3.973      7.041
REMARK  2 active torsions:
REMARK  status: ('A' for Active; 'I' for Inactive)
REMARK    1  A    between atoms: N1_3  and  C2_4 
REMARK    2  A    between atoms: C5_7  and  O2_8 
ROOT
HETATM    1  O1  UNL     1      16.063  -3.196  54.475  1.00  0.00    -0.269 OA
HETATM    2  C1  UNL     1      14.899  -2.828  54.107  1.00  0.00     0.263 A 
HETATM    3  N1  UNL     1      14.663  -2.347  52.791  1.00  0.00    -0.280 N 
HETATM    4  C8  UNL     1      13.272  -2.031  52.742  1.00  0.00     0.052 A 
HETATM    5  C9  UNL     1      12.484  -1.521  51.702  1.00  0.00     0.032 A 
HETATM    6  C10 UNL     1      11.142  -1.300  51.919  1.00  0.00     0.026 A 
HETATM    7  C11 UNL     1      10.523  -1.558  53.121  1.00  0.00     0.034 A 
HETATM    8 CL1  UNL     1       8.791  -1.240  53.299  1.00  0.00    -0.084 Cl
HETATM    9  C12 UNL     1      11.285  -2.059  54.144  1.00  0.00     0.036 A 
HETATM   10  C13 UNL     1      12.648  -2.286  53.936  1.00  0.00     0.009 A 
HETATM   11  C14 UNL     1      13.655  -2.812  54.872  1.00  0.00     0.167 A 
HETATM   12  S1  UNL     1      13.189  -4.451  55.483  1.00  0.00    -0.133 SA
HETATM   13  C15 UNL     1      13.411  -4.331  57.280  1.00  0.00     0.086 C 
HETATM   14  C16 UNL     1      13.005  -2.934  57.638  1.00  0.00     0.086 C 
HETATM   15  S2  UNL     1      13.727  -1.833  56.378  1.00  0.00    -0.133 SA
ENDROOT
BRANCH   3  16
HETATM   16  C2  UNL     1      15.584  -2.194  51.706  1.00  0.00     0.043 A 
HETATM   17  C3  UNL     1      16.066  -3.251  50.968  1.00  0.00     0.033 A 
HETATM   18  C4  UNL     1      16.964  -3.011  49.925  1.00  0.00     0.039 A 
HETATM   19  C5  UNL     1      17.385  -1.739  49.609  1.00  0.00     0.065 A 
HETATM   20  C6  UNL     1      16.905  -0.674  50.347  1.00  0.00     0.039 A 
HETATM   21  C7  UNL     1      16.025  -0.910  51.370  1.00  0.00     0.033 A 
BRANCH  19  22
HETATM   22  O2  UNL     1      18.274  -1.454  48.581  1.00  0.00    -0.361 OA
ATOM     23  H2  UNL     1      19.149  -1.818  48.525  1.00  0.00     0.217 HD
ENDBRANCH  19  22
ENDBRANCH   3  16
TORSDOF 2
ENDMDL
MODEL 4
REMARK VINA RESULT: -7.550195833      0.181      1.028
REMARK  2 active torsions:
REMARK  status: ('A' for Active; 'I' for Inactive)
REMARK    1  A    between atoms: N1_3  and  C2_4 
REMARK    2  A    between atoms: C5_7  and  O2_8 
ROOT
HETATM    1  O1  UNL     1      12.185  -3.181  57.703  1.00  0.00    -0.269 OA
HETATM    2  C1  UNL     1      12.097  -2.717  56.517  1.00  0.00     0.263 A 
HETATM    3  N1  UNL     1      10.841  -2.606  55.864  1.00  0.00    -0.280 N 
HETATM    4  C8  UNL     1      11.126  -2.061  54.576  1.00  0.00     0.052 A 
HETATM    5  C9  UNL     1      10.276  -1.738  53.509  1.00  0.00     0.032 A 
HETATM    6  C10 UNL     1      10.815  -1.218  52.353  1.00  0.00     0.026 A 
HETATM    7  C11 UNL     1      12.163  -0.994  52.186  1.00  0.00     0.034 A 
HETATM    8 CL1  UNL     1      12.755  -0.321  50.661  1.00  0.00    -0.084 Cl
HETATM    9  C12 UNL     1      13.000  -1.306  53.225  1.00  0.00     0.036 A 
HETATM   10  C13 UNL     1      12.466  -1.835  54.402  1.00  0.00     0.009 A 
HETATM   11  C14 UNL     1      13.159  -2.240  55.636  1.00  0.00     0.167 A 
HETATM   12  S1  UNL     1      14.091  -0.860  56.348  1.00  0.00    -0.133 SA
HETATM   13  C15 UNL     1      15.728  -1.564  56.691  1.00  0.00     0.086 C 
HETATM   14  C16 UNL     1      15.988  -2.528  55.574  1.00  0.00     0.086 C 
HETATM   15  S2  UNL     1      14.442  -3.453  55.302  1.00  0.00    -0.133 SA
ENDROOT
BRANCH   3  16
HETATM   16  C2  UNL     1       9.537  -2.949  56.347  1.00  0.00     0.043 A 
HETATM   17  C3  UNL     1       8.473  -2.077  56.337  1.00  0.00     0.033 A 
HETATM   18  C4  UNL     1       7.235  -2.495  56.828  1.00  0.00     0.039 A 
HETATM   19  C5  UNL     1       7.043  -3.763  57.327  1.00  0.00     0.065 A 
HETATM   20  C6  UNL     1       8.108  -4.643  57.341  1.00  0.00     0.039 A 
HETATM   21  C7  UNL     1       9.323  -4.233  56.859  1.00  0.00     0.033 A 
BRANCH  19  22
HETATM   22  O2  UNL     1       5.830  -4.222  57.825  1.00  0.00    -0.361 OA
ATOM     23  H2  UNL     1       5.643  -5.137  57.996  1.00  0.00     0.217 HD
ENDBRANCH  19  22
ENDBRANCH   3  16
TORSDOF 2
ENDMDL
MODEL 5
REMARK VINA RESULT: -7.475666097      4.291      7.359
REMARK  2 active torsions:
REMARK  status: ('A' for Active; 'I' for Inactive)
REMARK    1  A    between atoms: N1_3  and  C2_4 
REMARK    2  A    between atoms: C5_7  and  O2_8 
ROOT
HETATM    1  O1  UNL     1      16.446  -1.468  53.460  1.00  0.00    -0.269 OA
HETATM    2  C1  UNL     1      15.181  -1.454  53.292  1.00  0.00     0.263 A 
HETATM    3  N1  UNL     1      14.605  -0.941  52.100  1.00  0.00    -0.280 N 
HETATM    4  C8  UNL     1      13.194  -1.082  52.265  1.00  0.00     0.052 A 
HETATM    5  C9  UNL     1      12.133  -0.745  51.413  1.00  0.00     0.032 A 
HETATM    6  C10 UNL     1      10.840  -0.987  51.820  1.00  0.00     0.026 A 
HETATM    7  C11 UNL     1      10.528  -1.552  53.035  1.00  0.00     0.034 A 
HETATM    8 CL1  UNL     1       8.833  -1.823  53.464  1.00  0.00    -0.084 Cl
HETATM    9  C12 UNL     1      11.559  -1.886  53.874  1.00  0.00     0.036 A 
HETATM   10  C13 UNL     1      12.875  -1.644  53.473  1.00  0.00     0.009 A 
HETATM   11  C14 UNL     1      14.130  -1.914  54.194  1.00  0.00     0.167 A 
HETATM   12  S1  UNL     1      14.282  -3.671  54.607  1.00  0.00    -0.133 SA
HETATM   13  C15 UNL     1      14.742  -3.672  56.363  1.00  0.00     0.086 C 
HETATM   14  C16 UNL     1      13.997  -2.522  56.970  1.00  0.00     0.086 C 
HETATM   15  S2  UNL     1      14.144  -1.125  55.809  1.00  0.00    -0.133 SA
ENDROOT
BRANCH   3  16
HETATM   16  C2  UNL     1      15.252  -0.391  50.947  1.00  0.00     0.043 A 
HETATM   17  C3  UNL     1      16.353  -0.962  50.353  1.00  0.00     0.033 A 
HETATM   18  C4  UNL     1      16.922  -0.358  49.229  1.00  0.00     0.039 A 
HETATM   19  C5  UNL     1      16.411   0.802  48.693  1.00  0.00     0.065 A 
HETATM   20  C6  UNL     1      15.305   1.381  49.286  1.00  0.00     0.039 A 
HETATM   21  C7  UNL     1      14.748   0.788  50.388  1.00  0.00     0.033 A 
BRANCH  19  22
HETATM   22  O2  UNL     1      16.943   1.436  47.578  1.00  0.00    -0.361 OA
ATOM     23  H2  UNL     1      16.447   2.022  47.018  1.00  0.00     0.217 HD
ENDBRANCH  19  22
ENDBRANCH   3  16
TORSDOF 2
ENDMDL
