MODEL 1
REMARK VINA RESULT: -7.536260856      0.000      0.000
REMARK  7 active torsions:
REMARK  status: ('A' for Active; 'I' for Inactive)
REMARK    1  A    between atoms: C2_2  and  C3_3 
REMARK    2  A    between atoms: C8_8  and  O1_9 
REMARK    3  A    between atoms: C9_11  and  C10_12 
REMARK    4  A    between atoms: C11_13  and  C12_14 
REMARK    5  A    between atoms: C12_14  and  O2_15 
REMARK    6  A    between atoms: C12_14  and  C13_17 
REMARK    7  A    between atoms: C14_18  and  C15_19 
ROOT
HETATM    1  C10 UNL     1      67.472  50.268   8.805  1.00  0.00     0.012 C 
HETATM    2  C11 UNL     1      67.750  48.995   8.618  1.00  0.00     0.007 C 
ENDROOT
BRANCH   1   3
HETATM    3  C9  UNL     1      67.076  50.865  10.093  1.00  0.00     0.108 C 
HETATM    4  C3  UNL     1      68.079  50.541  11.152  1.00  0.00     0.026 C 
HETATM    5  C4  UNL     1      67.635  51.058  12.504  1.00  0.00     0.010 C 
HETATM    6  C5  UNL     1      67.167  52.502  12.404  1.00  0.00     0.032 C 
HETATM    7  C6  UNL     1      66.261  52.586  11.194  1.00  0.00     0.125 C 
HETATM    8  C7  UNL     1      65.172  51.540  11.393  1.00  0.00     0.067 C 
HETATM    9  O3  UNL     1      66.924  52.244  10.025  1.00  0.00    -0.368 OA
HETATM   10  C8  UNL     1      65.719  50.388  10.559  1.00  0.00     0.159 C 
BRANCH   4  11
HETATM   11  C2  UNL     1      69.448  51.095  10.879  1.00  0.00     0.003 C 
HETATM   12  C1  UNL     1      70.433  49.944  10.877  1.00  0.00     0.005 C 
ENDBRANCH   4  11
BRANCH  10  13
HETATM   13  O1  UNL     1      64.836  50.195   9.510  1.00  0.00    -0.392 OA
ATOM     14  H1  UNL     1      65.357  49.972   8.748  1.00  0.00     0.210 HD
ENDBRANCH  10  13
ENDBRANCH   1   3
BRANCH   2  15
HETATM   15  C12 UNL     1      68.140  48.462   7.300  1.00  0.00     0.163 C 
BRANCH  15  16
HETATM   16  O2  UNL     1      67.064  48.555   6.388  1.00  0.00    -0.388 OA
ATOM     17  H2  UNL     1      66.683  47.699   6.232  1.00  0.00     0.210 HD
ENDBRANCH  15  16
BRANCH  15  18
HETATM   18  C13 UNL     1      69.243  49.264   6.717  1.00  0.00     0.005 C 
HETATM   19  C14 UNL     1      70.489  48.877   6.899  1.00  0.00    -0.023 C 
BRANCH  19  20
HETATM   20  C15 UNL     1      71.648  49.648   6.331  1.00  0.00     0.011 C 
HETATM   21  C16 UNL     1      71.704  51.016   6.928  1.00  0.00     0.035 C 
HETATM   22  C17 UNL     1      72.508  51.098   8.174  1.00  0.00    -0.030 C 
HETATM   23  C18 UNL     1      73.232  50.115   8.685  1.00  0.00    -0.031 C 
HETATM   24  C19 UNL     1      73.290  48.807   8.017  1.00  0.00     0.027 C 
HETATM   25  C20 UNL     1      72.909  48.849   6.575  1.00  0.00     0.012 C 
ENDBRANCH  19  20
ENDBRANCH  15  18
ENDBRANCH   2  15
TORSDOF 7
ENDMDL
MODEL 2
REMARK VINA RESULT: -7.274407786      1.075      1.330
REMARK  7 active torsions:
REMARK  status: ('A' for Active; 'I' for Inactive)
REMARK    1  A    between atoms: C2_2  and  C3_3 
REMARK    2  A    between atoms: C8_8  and  O1_9 
REMARK    3  A    between atoms: C9_11  and  C10_12 
REMARK    4  A    between atoms: C11_13  and  C12_14 
REMARK    5  A    between atoms: C12_14  and  O2_15 
REMARK    6  A    between atoms: C12_14  and  C13_17 
REMARK    7  A    between atoms: C14_18  and  C15_19 
ROOT
HETATM    1  C10 UNL     1      67.076  48.946   9.656  1.00  0.00     0.012 C 
HETATM    2  C11 UNL     1      67.092  49.300   8.389  1.00  0.00     0.007 C 
ENDROOT
BRANCH   1   3
HETATM    3  C9  UNL     1      66.445  49.718  10.741  1.00  0.00     0.108 C 
HETATM    4  C3  UNL     1      67.483  50.276  11.660  1.00  0.00     0.026 C 
HETATM    5  C4  UNL     1      66.848  50.984  12.838  1.00  0.00     0.010 C 
HETATM    6  C5  UNL     1      65.749  51.926  12.374  1.00  0.00     0.032 C 
HETATM    7  C6  UNL     1      64.910  51.161  11.372  1.00  0.00     0.125 C 
HETATM    8  C7  UNL     1      64.452  49.888  12.072  1.00  0.00     0.067 C 
HETATM    9  O3  UNL     1      65.654  50.760  10.273  1.00  0.00    -0.368 OA
HETATM   10  C8  UNL     1      65.481  48.888  11.557  1.00  0.00     0.159 C 
BRANCH   4  11
HETATM   11  C2  UNL     1      68.422  51.243  10.998  1.00  0.00     0.003 C 
HETATM   12  C1  UNL     1      69.825  50.680  11.091  1.00  0.00     0.005 C 
ENDBRANCH   4  11
BRANCH  10  13
HETATM   13  O1  UNL     1      64.795  47.964  10.789  1.00  0.00    -0.392 OA
ATOM     14  H1  UNL     1      65.433  47.328  10.487  1.00  0.00     0.210 HD
ENDBRANCH  10  13
ENDBRANCH   1   3
BRANCH   2  15
HETATM   15  C12 UNL     1      67.743  48.480   7.352  1.00  0.00     0.163 C 
BRANCH  15  16
HETATM   16  O2  UNL     1      66.837  48.190   6.306  1.00  0.00    -0.388 OA
ATOM     17  H2  UNL     1      66.768  47.252   6.173  1.00  0.00     0.210 HD
ENDBRANCH  15  16
BRANCH  15  18
HETATM   18  C13 UNL     1      68.868  49.218   6.729  1.00  0.00     0.005 C 
HETATM   19  C14 UNL     1      69.939  49.489   7.445  1.00  0.00    -0.023 C 
BRANCH  19  20
HETATM   20  C15 UNL     1      71.111  50.234   6.868  1.00  0.00     0.011 C 
HETATM   21  C16 UNL     1      71.808  51.012   7.934  1.00  0.00     0.035 C 
HETATM   22  C17 UNL     1      72.879  50.254   8.631  1.00  0.00    -0.030 C 
HETATM   23  C18 UNL     1      73.305  49.047   8.297  1.00  0.00    -0.031 C 
HETATM   24  C19 UNL     1      72.712  48.337   7.154  1.00  0.00     0.027 C 
HETATM   25  C20 UNL     1      72.015  49.232   6.185  1.00  0.00     0.012 C 
ENDBRANCH  19  20
ENDBRANCH  15  18
ENDBRANCH   2  15
TORSDOF 7
ENDMDL
MODEL 3
REMARK VINA RESULT: -7.068606806      2.069      3.364
REMARK  7 active torsions:
REMARK  status: ('A' for Active; 'I' for Inactive)
REMARK    1  A    between atoms: C2_2  and  C3_3 
REMARK    2  A    between atoms: C8_8  and  O1_9 
REMARK    3  A    between atoms: C9_11  and  C10_12 
REMARK    4  A    between atoms: C11_13  and  C12_14 
REMARK    5  A    between atoms: C12_14  and  O2_15 
REMARK    6  A    between atoms: C12_14  and  C13_17 
REMARK    7  A    between atoms: C14_18  and  C15_19 
ROOT
HETATM    1  C10 UNL     1      68.327  51.474  11.684  1.00  0.00     0.012 C 
HETATM    2  C11 UNL     1      68.560  50.492  10.839  1.00  0.00     0.007 C 
ENDROOT
BRANCH   1   3
HETATM    3  C9  UNL     1      67.245  52.465  11.549  1.00  0.00     0.108 C 
HETATM    4  C3  UNL     1      65.925  51.783  11.390  1.00  0.00     0.026 C 
HETATM    5  C4  UNL     1      64.816  52.785  11.145  1.00  0.00     0.010 C 
HETATM    6  C5  UNL     1      64.895  53.931  12.141  1.00  0.00     0.032 C 
HETATM    7  C6  UNL     1      66.345  54.363  12.199  1.00  0.00     0.125 C 
HETATM    8  C7  UNL     1      66.760  54.685  10.770  1.00  0.00     0.067 C 
HETATM    9  O3  UNL     1      67.173  53.337  12.628  1.00  0.00    -0.368 OA
HETATM   10  C8  UNL     1      67.450  53.387  10.369  1.00  0.00     0.159 C 
BRANCH   4  11
HETATM   11  C2  UNL     1      65.530  50.945  12.573  1.00  0.00     0.003 C 
HETATM   12  C1  UNL     1      65.111  49.581  12.068  1.00  0.00     0.005 C 
ENDBRANCH   4  11
BRANCH  10  13
HETATM   13  O1  UNL     1      68.785  53.689  10.158  1.00  0.00    -0.392 OA
ATOM     14  H1  UNL     1      68.964  53.520   9.241  1.00  0.00     0.210 HD
ENDBRANCH  10  13
ENDBRANCH   1   3
BRANCH   2  15
HETATM   15  C12 UNL     1      69.662  49.533  11.034  1.00  0.00     0.163 C 
BRANCH  15  16
HETATM   16  O2  UNL     1      69.331  48.276  10.481  1.00  0.00    -0.388 OA
ATOM     17  H2  UNL     1      69.055  48.370   9.577  1.00  0.00     0.210 HD
ENDBRANCH  15  16
BRANCH  15  18
HETATM   18  C13 UNL     1      70.882  49.986  10.323  1.00  0.00     0.005 C 
HETATM   19  C14 UNL     1      70.794  50.366   9.065  1.00  0.00    -0.023 C 
BRANCH  19  20
HETATM   20  C15 UNL     1      71.996  50.835   8.293  1.00  0.00     0.011 C 
HETATM   21  C16 UNL     1      73.206  50.059   8.694  1.00  0.00     0.035 C 
HETATM   22  C17 UNL     1      73.420  48.821   7.901  1.00  0.00    -0.030 C 
HETATM   23  C18 UNL     1      72.711  48.455   6.846  1.00  0.00    -0.031 C 
HETATM   24  C19 UNL     1      71.605  49.296   6.363  1.00  0.00     0.027 C 
HETATM   25  C20 UNL     1      71.683  50.714   6.817  1.00  0.00     0.012 C 
ENDBRANCH  19  20
ENDBRANCH  15  18
ENDBRANCH   2  15
TORSDOF 7
ENDMDL
MODEL 4
REMARK VINA RESULT: -7.054084357      1.746      2.989
REMARK  7 active torsions:
REMARK  status: ('A' for Active; 'I' for Inactive)
REMARK    1  A    between atoms: C2_2  and  C3_3 
REMARK    2  A    between atoms: C8_8  and  O1_9 
REMARK    3  A    between atoms: C9_11  and  C10_12 
REMARK    4  A    between atoms: C11_13  and  C12_14 
REMARK    5  A    between atoms: C12_14  and  O2_15 
REMARK    6  A    between atoms: C12_14  and  C13_17 
REMARK    7  A    between atoms: C14_18  and  C15_19 
ROOT
HETATM    1  C10 UNL     1      67.360  50.501  11.028  1.00  0.00     0.012 C 
HETATM    2  C11 UNL     1      68.583  50.327  11.481  1.00  0.00     0.007 C 
ENDROOT
BRANCH   1   3
HETATM    3  C9  UNL     1      66.402  51.494  11.545  1.00  0.00     0.108 C 
HETATM    4  C3  UNL     1      67.018  52.855  11.570  1.00  0.00     0.026 C 
HETATM    5  C4  UNL     1      66.084  53.869  12.196  1.00  0.00     0.010 C 
HETATM    6  C5  UNL     1      64.685  53.747  11.613  1.00  0.00     0.032 C 
HETATM    7  C6  UNL     1      64.345  52.271  11.594  1.00  0.00     0.125 C 
HETATM    8  C7  UNL     1      64.524  51.766  13.019  1.00  0.00     0.067 C 
HETATM    9  O3  UNL     1      65.227  51.547  10.806  1.00  0.00    -0.368 OA
HETATM   10  C8  UNL     1      65.921  51.162  12.940  1.00  0.00     0.159 C 
BRANCH   4  11
HETATM   11  C2  UNL     1      67.407  53.369  10.214  1.00  0.00     0.003 C 
HETATM   12  C1  UNL     1      67.581  54.870  10.308  1.00  0.00     0.005 C 
ENDBRANCH   4  11
BRANCH  10  13
HETATM   13  O1  UNL     1      65.783  49.800  13.143  1.00  0.00    -0.392 OA
ATOM     14  H1  UNL     1      65.191  49.689  13.877  1.00  0.00     0.210 HD
ENDBRANCH  10  13
ENDBRANCH   1   3
BRANCH   2  15
HETATM   15  C12 UNL     1      69.492  49.313  10.918  1.00  0.00     0.163 C 
BRANCH  15  16
HETATM   16  O2  UNL     1      68.861  48.608   9.868  1.00  0.00    -0.388 OA
ATOM     17  H2  UNL     1      69.400  47.880   9.582  1.00  0.00     0.210 HD
ENDBRANCH  15  16
BRANCH  15  18
HETATM   18  C13 UNL     1      70.688  49.955  10.320  1.00  0.00     0.005 C 
HETATM   19  C14 UNL     1      70.750  50.118   9.015  1.00  0.00    -0.023 C 
BRANCH  19  20
HETATM   20  C15 UNL     1      71.936  50.763   8.352  1.00  0.00     0.011 C 
HETATM   21  C16 UNL     1      73.195  50.065   8.749  1.00  0.00     0.035 C 
HETATM   22  C17 UNL     1      73.560  48.930   7.863  1.00  0.00    -0.030 C 
HETATM   23  C18 UNL     1      72.938  48.601   6.743  1.00  0.00    -0.031 C 
HETATM   24  C19 UNL     1      71.780  49.379   6.278  1.00  0.00     0.027 C 
HETATM   25  C20 UNL     1      71.703  50.751   6.857  1.00  0.00     0.012 C 
ENDBRANCH  19  20
ENDBRANCH  15  18
ENDBRANCH   2  15
TORSDOF 7
ENDMDL
MODEL 5
REMARK VINA RESULT: -6.957785845      1.344      2.012
REMARK  7 active torsions:
REMARK  status: ('A' for Active; 'I' for Inactive)
REMARK    1  A    between atoms: C2_2  and  C3_3 
REMARK    2  A    between atoms: C8_8  and  O1_9 
REMARK    3  A    between atoms: C9_11  and  C10_12 
REMARK    4  A    between atoms: C11_13  and  C12_14 
REMARK    5  A    between atoms: C12_14  and  O2_15 
REMARK    6  A    between atoms: C12_14  and  C13_17 
REMARK    7  A    between atoms: C14_18  and  C15_19 
ROOT
HETATM    1  C10 UNL     1      67.326  49.116   9.990  1.00  0.00     0.012 C 
HETATM    2  C11 UNL     1      67.322  49.465   8.721  1.00  0.00     0.007 C 
ENDROOT
BRANCH   1   3
HETATM    3  C9  UNL     1      66.408  49.645  11.014  1.00  0.00     0.108 C 
HETATM    4  C3  UNL     1      67.153  50.477  12.006  1.00  0.00     0.026 C 
HETATM    5  C4  UNL     1      66.244  50.943  13.124  1.00  0.00     0.010 C 
HETATM    6  C5  UNL     1      64.951  51.515  12.565  1.00  0.00     0.032 C 
HETATM    7  C6  UNL     1      64.464  50.546  11.508  1.00  0.00     0.125 C 
HETATM    8  C7  UNL     1      64.361  49.184  12.182  1.00  0.00     0.067 C 
HETATM    9  O3  UNL     1      65.378  50.405  10.475  1.00  0.00    -0.368 OA
HETATM   10  C8  UNL     1      65.680  48.551  11.760  1.00  0.00     0.159 C 
BRANCH   4  11
HETATM   11  C2  UNL     1      67.804  51.693  11.411  1.00  0.00     0.003 C 
HETATM   12  C1  UNL     1      69.305  51.506  11.473  1.00  0.00     0.005 C 
ENDBRANCH   4  11
BRANCH  10  13
HETATM   13  O1  UNL     1      65.369  47.473  10.950  1.00  0.00    -0.392 OA
ATOM     14  H1  UNL     1      66.191  47.071  10.696  1.00  0.00     0.210 HD
ENDBRANCH  10  13
ENDBRANCH   1   3
BRANCH   2  15
HETATM   15  C12 UNL     1      68.270  48.895   7.747  1.00  0.00     0.163 C 
BRANCH  15  16
HETATM   16  O2  UNL     1      67.680  48.817   6.465  1.00  0.00    -0.388 OA
ATOM     17  H2  UNL     1      66.829  49.239   6.462  1.00  0.00     0.210 HD
ENDBRANCH  15  16
BRANCH  15  18
HETATM   18  C13 UNL     1      69.458  49.771   7.599  1.00  0.00     0.005 C 
HETATM   19  C14 UNL     1      70.507  49.573   8.370  1.00  0.00    -0.023 C 
BRANCH  19  20
HETATM   20  C15 UNL     1      71.740  50.428   8.266  1.00  0.00     0.011 C 
HETATM   21  C16 UNL     1      72.837  49.861   9.103  1.00  0.00     0.035 C 
HETATM   22  C17 UNL     1      73.693  48.878   8.391  1.00  0.00    -0.030 C 
HETATM   23  C18 UNL     1      73.616  48.587   7.102  1.00  0.00    -0.031 C 
HETATM   24  C19 UNL     1      72.625  49.253   6.246  1.00  0.00     0.027 C 
HETATM   25  C20 UNL     1      72.112  50.538   6.804  1.00  0.00     0.012 C 
ENDBRANCH  19  20
ENDBRANCH  15  18
ENDBRANCH   2  15
TORSDOF 7
ENDMDL
