MODEL 1
REMARK VINA RESULT: -7.545538539      0.000      0.000
REMARK  17 active torsions:
REMARK  status: ('A' for Active; 'I' for Inactive)
REMARK    1  A    between atoms: C2_2  and  C3_3 
REMARK    2  A    between atoms: C3_3  and  C5_5 
REMARK    3  A    between atoms: C5_5  and  O2_7 
REMARK    4  A    between atoms: O2_7  and  C6_8 
REMARK    5  A    between atoms: C7_9  and  O3_10 
REMARK    6  A    between atoms: O3_10  and  C8_11 
REMARK    7  A    between atoms: C10_14  and  O5_15 
REMARK    8  A    between atoms: C11_17  and  O6_18 
REMARK    9  A    between atoms: C12_20  and  O7_21 
REMARK   10  A    between atoms: C16_26  and  C18_28 
REMARK   11  A    between atoms: C20_32  and  O10_33 
REMARK   12  A    between atoms: C23_36  and  O11_37 
REMARK   13  A    between atoms: C23_36  and  C24_39 
REMARK   14  A    between atoms: C24_39  and  O12_40 
REMARK   15  A    between atoms: C24_39  and  C25_42 
REMARK   16  A    between atoms: C25_42  and  C26_44 
REMARK   17  A    between atoms: C26_44  and  O14_45 
ROOT
HETATM    1  C6  UNL     1      -5.280   0.183   8.285  1.00  0.00     0.199 C 
HETATM    2  C7  UNL     1      -3.768  -0.078   8.288  1.00  0.00     0.204 C 
HETATM    3  C10 UNL     1      -3.282  -0.672   7.001  1.00  0.00     0.149 C 
HETATM    4  C11 UNL     1      -3.213   0.392   5.950  1.00  0.00     0.193 C 
HETATM    5  C12 UNL     1      -4.407   1.283   5.804  1.00  0.00     0.094 C 
HETATM    6  C13 UNL     1      -4.170   1.962   4.461  1.00  0.00     0.041 C 
HETATM    7  C14 UNL     1      -4.539   1.110   3.314  1.00  0.00     0.004 C 
HETATM    8  C15 UNL     1      -5.983   0.868   3.324  1.00  0.00     0.021 C 
HETATM    9  C16 UNL     1      -6.638   0.894   4.751  1.00  0.00     0.054 C 
HETATM   10  C17 UNL     1      -7.060   2.326   4.896  1.00  0.00     0.027 C 
HETATM   11  C19 UNL     1      -5.636   0.391   5.738  1.00  0.00     0.079 C 
HETATM   12  C20 UNL     1      -5.997  -0.218   7.017  1.00  0.00     0.100 C 
HETATM   13  C22 UNL     1      -5.558  -1.716   6.952  1.00  0.00     0.085 C 
HETATM   14  C23 UNL     1      -4.066  -1.873   6.700  1.00  0.00     0.129 C 
ENDROOT
BRANCH  14  15
HETATM   15  O11 UNL     1      -3.855  -2.426   5.415  1.00  0.00    -0.383 OA
ATOM     16  H11 UNL     1      -3.675  -1.797   4.727  1.00  0.00     0.210 HD
ENDBRANCH  14  15
BRANCH  14  17
HETATM   17  C24 UNL     1      -3.686  -3.045   7.633  1.00  0.00     0.227 C 
BRANCH  17  18
HETATM   18  O12 UNL     1      -4.933  -3.383   8.288  1.00  0.00    -0.385 OA
ATOM     19  H12 UNL     1      -4.852  -2.990   9.149  1.00  0.00     0.210 HD
ENDBRANCH  17  18
BRANCH  17  20
HETATM   20  C25 UNL     1      -3.331  -4.292   6.949  1.00  0.00     0.181 C 
HETATM   21  O13 UNL     1      -2.196  -4.354   6.459  1.00  0.00    -0.293 OA
BRANCH  20  22
HETATM   22  C26 UNL     1      -4.166  -5.493   6.758  1.00  0.00     0.245 C 
BRANCH  22  23
HETATM   23  O14 UNL     1      -5.170  -5.318   5.782  1.00  0.00    -0.393 OA
ATOM     24  H14 UNL     1      -6.035  -5.196   6.155  1.00  0.00     0.209 HD
ENDBRANCH  22  23
ENDBRANCH  20  22
ENDBRANCH  17  20
ENDBRANCH  14  17
BRANCH   3  25
HETATM   25  O5  UNL     1      -1.948  -1.037   7.211  1.00  0.00    -0.381 OA
ATOM     26  H5  UNL     1      -1.421  -0.288   6.960  1.00  0.00     0.211 HD
ENDBRANCH   3  25
BRANCH   2  27
HETATM   27  O3  UNL     1      -3.002   1.030   8.639  1.00  0.00    -0.310 OA
BRANCH  27  28
HETATM   28  C8  UNL     1      -1.970   1.075   9.515  1.00  0.00     0.255 C 
HETATM   29  C9  UNL     1      -2.087   1.787  10.802  1.00  0.00     0.126 C 
HETATM   30  O4  UNL     1      -0.892   0.505   9.230  1.00  0.00    -0.266 OA
ENDBRANCH  27  28
ENDBRANCH   2  27
BRANCH   4  31
HETATM   31  O6  UNL     1      -2.083   1.191   6.243  1.00  0.00    -0.389 OA
ATOM     32  H6  UNL     1      -2.256   1.626   7.070  1.00  0.00     0.210 HD
ENDBRANCH   4  31
BRANCH  12  33
HETATM   33  O10 UNL     1      -7.317  -0.386   7.338  1.00  0.00    -0.382 OA
HETATM   34  C21 UNL     1      -8.133   0.540   7.797  1.00  0.00     0.202 C 
ENDBRANCH  12  33
BRANCH   1  35
HETATM   35  O2  UNL     1      -5.727  -0.787   9.258  1.00  0.00    -0.310 OA
BRANCH  35  36
HETATM   36  C5  UNL     1      -6.182  -0.524  10.507  1.00  0.00     0.263 C 
HETATM   37  O1  UNL     1      -7.398  -0.753  10.741  1.00  0.00    -0.265 OA
BRANCH  36  38
HETATM   38  C3  UNL     1      -5.278   0.021  11.578  1.00  0.00     0.081 C 
HETATM   39  C4  UNL     1      -4.088  -0.880  11.695  1.00  0.00     0.020 C 
BRANCH  38  40
HETATM   40  C2  UNL     1      -6.050   0.061  12.877  1.00  0.00     0.010 C 
HETATM   41  C1  UNL     1      -5.387  -0.821  13.915  1.00  0.00     0.006 C 
ENDBRANCH  38  40
ENDBRANCH  36  38
ENDBRANCH  35  36
ENDBRANCH   1  35
BRANCH   5  42
HETATM   42  O7  UNL     1      -4.498   2.327   6.683  1.00  0.00    -0.387 OA
ATOM     43  H7  UNL     1      -5.375   2.611   6.913  1.00  0.00     0.210 HD
ENDBRANCH   5  42
BRANCH   9  44
HETATM   44  C18 UNL     1      -7.812   0.043   4.484  1.00  0.00     0.182 C 
HETATM   45  O8  UNL     1      -8.959   0.541   4.527  1.00  0.00    -0.647 OA
HETATM   46  O9  UNL     1      -7.707  -1.285   4.181  1.00  0.00    -0.647 OA
ENDBRANCH   9  44
TORSDOF 17
ENDMDL
MODEL 2
REMARK VINA RESULT: -7.522889083      0.764      1.026
REMARK  17 active torsions:
REMARK  status: ('A' for Active; 'I' for Inactive)
REMARK    1  A    between atoms: C2_2  and  C3_3 
REMARK    2  A    between atoms: C3_3  and  C5_5 
REMARK    3  A    between atoms: C5_5  and  O2_7 
REMARK    4  A    between atoms: O2_7  and  C6_8 
REMARK    5  A    between atoms: C7_9  and  O3_10 
REMARK    6  A    between atoms: O3_10  and  C8_11 
REMARK    7  A    between atoms: C10_14  and  O5_15 
REMARK    8  A    between atoms: C11_17  and  O6_18 
REMARK    9  A    between atoms: C12_20  and  O7_21 
REMARK   10  A    between atoms: C16_26  and  C18_28 
REMARK   11  A    between atoms: C20_32  and  O10_33 
REMARK   12  A    between atoms: C23_36  and  O11_37 
REMARK   13  A    between atoms: C23_36  and  C24_39 
REMARK   14  A    between atoms: C24_39  and  O12_40 
REMARK   15  A    between atoms: C24_39  and  C25_42 
REMARK   16  A    between atoms: C25_42  and  C26_44 
REMARK   17  A    between atoms: C26_44  and  O14_45 
ROOT
HETATM    1  C6  UNL     1      -5.273   0.290   7.958  1.00  0.00     0.199 C 
HETATM    2  C7  UNL     1      -3.769   0.020   7.810  1.00  0.00     0.204 C 
HETATM    3  C10 UNL     1      -3.435  -0.710   6.544  1.00  0.00     0.149 C 
HETATM    4  C11 UNL     1      -3.498   0.237   5.386  1.00  0.00     0.193 C 
HETATM    5  C12 UNL     1      -4.706   1.116   5.288  1.00  0.00     0.094 C 
HETATM    6  C13 UNL     1      -4.634   1.647   3.862  1.00  0.00     0.041 C 
HETATM    7  C14 UNL     1      -5.130   0.681   2.864  1.00  0.00     0.004 C 
HETATM    8  C15 UNL     1      -6.562   0.451   3.070  1.00  0.00     0.021 C 
HETATM    9  C16 UNL     1      -7.043   0.633   4.554  1.00  0.00     0.054 C 
HETATM   10  C17 UNL     1      -7.454   2.074   4.596  1.00  0.00     0.027 C 
HETATM   11  C19 UNL     1      -5.928   0.230   5.463  1.00  0.00     0.079 C 
HETATM   12  C20 UNL     1      -6.132  -0.238   6.833  1.00  0.00     0.100 C 
HETATM   13  C22 UNL     1      -5.695  -1.737   6.876  1.00  0.00     0.085 C 
HETATM   14  C23 UNL     1      -4.242  -1.930   6.467  1.00  0.00     0.129 C 
ENDROOT
BRANCH  14  15
HETATM   15  O11 UNL     1      -4.182  -2.618   5.232  1.00  0.00    -0.383 OA
ATOM     16  H11 UNL     1      -4.936  -3.160   5.032  1.00  0.00     0.210 HD
ENDBRANCH  14  15
BRANCH  14  17
HETATM   17  C24 UNL     1      -3.748  -2.999   7.468  1.00  0.00     0.227 C 
BRANCH  17  18
HETATM   18  O12 UNL     1      -4.937  -3.344   8.221  1.00  0.00    -0.385 OA
ATOM     19  H12 UNL     1      -4.598  -3.637   9.058  1.00  0.00     0.210 HD
ENDBRANCH  17  18
BRANCH  17  20
HETATM   20  C25 UNL     1      -3.364  -4.280   6.866  1.00  0.00     0.181 C 
HETATM   21  O13 UNL     1      -2.226  -4.349   6.383  1.00  0.00    -0.293 OA
BRANCH  20  22
HETATM   22  C26 UNL     1      -4.171  -5.509   6.752  1.00  0.00     0.245 C 
BRANCH  22  23
HETATM   23  O14 UNL     1      -5.218  -5.397   5.813  1.00  0.00    -0.393 OA
ATOM     24  H14 UNL     1      -4.935  -5.549   4.920  1.00  0.00     0.209 HD
ENDBRANCH  22  23
ENDBRANCH  20  22
ENDBRANCH  17  20
ENDBRANCH  14  17
BRANCH   3  25
HETATM   25  O5  UNL     1      -2.084  -1.060   6.632  1.00  0.00    -0.381 OA
ATOM     26  H5  UNL     1      -1.929  -1.711   5.959  1.00  0.00     0.211 HD
ENDBRANCH   3  25
BRANCH   2  27
HETATM   27  O3  UNL     1      -2.973   1.155   7.948  1.00  0.00    -0.310 OA
BRANCH  27  28
HETATM   28  C8  UNL     1      -1.876   1.301   8.727  1.00  0.00     0.255 C 
HETATM   29  C9  UNL     1      -1.990   1.679  10.149  1.00  0.00     0.126 C 
HETATM   30  O4  UNL     1      -0.739   1.115   8.236  1.00  0.00    -0.266 OA
ENDBRANCH  27  28
ENDBRANCH   2  27
BRANCH   4  31
HETATM   31  O6  UNL     1      -2.345   1.055   5.457  1.00  0.00    -0.389 OA
ATOM     32  H6  UNL     1      -1.812   0.850   4.697  1.00  0.00     0.210 HD
ENDBRANCH   4  31
BRANCH  12  33
HETATM   33  O10 UNL     1      -7.404  -0.362   7.324  1.00  0.00    -0.382 OA
HETATM   34  C21 UNL     1      -8.086   0.562   7.969  1.00  0.00     0.202 C 
ENDBRANCH  12  33
BRANCH   1  35
HETATM   35  O2  UNL     1      -5.596  -0.569   9.074  1.00  0.00    -0.310 OA
BRANCH  35  36
HETATM   36  C5  UNL     1      -4.938  -0.631  10.258  1.00  0.00     0.263 C 
HETATM   37  O1  UNL     1      -3.865  -1.288  10.290  1.00  0.00    -0.265 OA
BRANCH  36  38
HETATM   38  C3  UNL     1      -5.464   0.053  11.490  1.00  0.00     0.081 C 
HETATM   39  C4  UNL     1      -4.592  -0.325  12.647  1.00  0.00     0.020 C 
BRANCH  38  40
HETATM   40  C2  UNL     1      -6.886  -0.404  11.717  1.00  0.00     0.010 C 
HETATM   41  C1  UNL     1      -7.156  -0.579  13.198  1.00  0.00     0.006 C 
ENDBRANCH  38  40
ENDBRANCH  36  38
ENDBRANCH  35  36
ENDBRANCH   1  35
BRANCH   5  42
HETATM   42  O7  UNL     1      -4.699   2.247   6.057  1.00  0.00    -0.387 OA
ATOM     43  H7  UNL     1      -5.325   2.922   5.822  1.00  0.00     0.210 HD
ENDBRANCH   5  42
BRANCH   9  44
HETATM   44  C18 UNL     1      -8.236  -0.234   4.520  1.00  0.00     0.182 C 
HETATM   45  O8  UNL     1      -8.110  -1.448   4.246  1.00  0.00    -0.647 OA
HETATM   46  O9  UNL     1      -9.493   0.231   4.784  1.00  0.00    -0.647 OA
ENDBRANCH   9  44
TORSDOF 17
ENDMDL
MODEL 3
REMARK VINA RESULT: -7.272389319      1.990      4.946
REMARK  17 active torsions:
REMARK  status: ('A' for Active; 'I' for Inactive)
REMARK    1  A    between atoms: C2_2  and  C3_3 
REMARK    2  A    between atoms: C3_3  and  C5_5 
REMARK    3  A    between atoms: C5_5  and  O2_7 
REMARK    4  A    between atoms: O2_7  and  C6_8 
REMARK    5  A    between atoms: C7_9  and  O3_10 
REMARK    6  A    between atoms: O3_10  and  C8_11 
REMARK    7  A    between atoms: C10_14  and  O5_15 
REMARK    8  A    between atoms: C11_17  and  O6_18 
REMARK    9  A    between atoms: C12_20  and  O7_21 
REMARK   10  A    between atoms: C16_26  and  C18_28 
REMARK   11  A    between atoms: C20_32  and  O10_33 
REMARK   12  A    between atoms: C23_36  and  O11_37 
REMARK   13  A    between atoms: C23_36  and  C24_39 
REMARK   14  A    between atoms: C24_39  and  O12_40 
REMARK   15  A    between atoms: C24_39  and  C25_42 
REMARK   16  A    between atoms: C25_42  and  C26_44 
REMARK   17  A    between atoms: C26_44  and  O14_45 
ROOT
HETATM    1  C6  UNL     1      -5.423  -0.139   6.347  1.00  0.00     0.199 C 
HETATM    2  C7  UNL     1      -6.215  -1.435   6.121  1.00  0.00     0.204 C 
HETATM    3  C10 UNL     1      -7.141  -1.348   4.947  1.00  0.00     0.149 C 
HETATM    4  C11 UNL     1      -6.356  -1.469   3.677  1.00  0.00     0.193 C 
HETATM    5  C12 UNL     1      -5.127  -0.625   3.554  1.00  0.00     0.094 C 
HETATM    6  C13 UNL     1      -4.803  -0.699   2.067  1.00  0.00     0.041 C 
HETATM    7  C14 UNL     1      -5.632   0.211   1.253  1.00  0.00     0.004 C 
HETATM    8  C15 UNL     1      -5.326   1.600   1.599  1.00  0.00     0.021 C 
HETATM    9  C16 UNL     1      -4.836   1.810   3.077  1.00  0.00     0.054 C 
HETATM   10  C17 UNL     1      -3.345   1.703   2.951  1.00  0.00     0.027 C 
HETATM   11  C19 UNL     1      -5.507   0.794   3.943  1.00  0.00     0.079 C 
HETATM   12  C20 UNL     1      -5.731   0.977   5.377  1.00  0.00     0.100 C 
HETATM   13  C22 UNL     1      -7.275   1.068   5.592  1.00  0.00     0.085 C 
HETATM   14  C23 UNL     1      -8.004  -0.174   5.101  1.00  0.00     0.129 C 
ENDROOT
BRANCH  14  15
HETATM   15  O11 UNL     1      -8.792   0.150   3.973  1.00  0.00    -0.383 OA
ATOM     16  H11 UNL     1      -8.405   0.777   3.373  1.00  0.00     0.210 HD
ENDBRANCH  14  15
BRANCH  14  17
HETATM   17  C24 UNL     1      -9.070  -0.396   6.199  1.00  0.00     0.227 C 
BRANCH  17  18
HETATM   18  O12 UNL     1      -8.905   0.744   7.077  1.00  0.00    -0.385 OA
ATOM     19  H12 UNL     1      -8.528   0.371   7.865  1.00  0.00     0.210 HD
ENDBRANCH  17  18
BRANCH  17  20
HETATM   20  C25 UNL     1     -10.459  -0.261   5.750  1.00  0.00     0.181 C 
HETATM   21  O13 UNL     1     -10.935  -1.212   5.117  1.00  0.00    -0.293 OA
BRANCH  20  22
HETATM   22  C26 UNL     1     -11.371   0.882   5.948  1.00  0.00     0.245 C 
BRANCH  22  23
HETATM   23  O14 UNL     1     -12.499   0.558   6.732  1.00  0.00    -0.393 OA
ATOM     24  H14 UNL     1     -12.554   1.066   7.532  1.00  0.00     0.209 HD
ENDBRANCH  22  23
ENDBRANCH  20  22
ENDBRANCH  17  20
ENDBRANCH  14  17
BRANCH   3  25
HETATM   25  O5  UNL     1      -7.930  -2.503   4.977  1.00  0.00    -0.381 OA
ATOM     26  H5  UNL     1      -8.823  -2.216   5.123  1.00  0.00     0.211 HD
ENDBRANCH   3  25
BRANCH   2  27
HETATM   27  O3  UNL     1      -5.422  -2.576   6.040  1.00  0.00    -0.310 OA
BRANCH  27  28
HETATM   28  C8  UNL     1      -4.314  -2.864   6.763  1.00  0.00     0.255 C 
HETATM   29  C9  UNL     1      -4.403  -3.229   8.190  1.00  0.00     0.126 C 
HETATM   30  O4  UNL     1      -3.189  -2.819   6.216  1.00  0.00    -0.266 OA
ENDBRANCH  27  28
ENDBRANCH   2  27
BRANCH   4  31
HETATM   31  O6  UNL     1      -5.990  -2.829   3.545  1.00  0.00    -0.389 OA
ATOM     32  H6  UNL     1      -5.450  -2.897   2.766  1.00  0.00     0.210 HD
ENDBRANCH   4  31
BRANCH  12  33
HETATM   33  O10 UNL     1      -5.352   2.147   5.977  1.00  0.00    -0.382 OA
HETATM   34  C21 UNL     1      -4.151   2.438   6.434  1.00  0.00     0.202 C 
ENDBRANCH  12  33
BRANCH   1  35
HETATM   35  O2  UNL     1      -5.996   0.317   7.593  1.00  0.00    -0.310 OA
BRANCH  35  36
HETATM   36  C5  UNL     1      -5.552   0.022   8.839  1.00  0.00     0.263 C 
HETATM   37  O1  UNL     1      -4.348   0.280   9.101  1.00  0.00    -0.265 OA
BRANCH  36  38
HETATM   38  C3  UNL     1      -6.454  -0.591   9.875  1.00  0.00     0.081 C 
HETATM   39  C4  UNL     1      -7.760   0.141   9.854  1.00  0.00     0.020 C 
BRANCH  38  40
HETATM   40  C2  UNL     1      -5.787  -0.460  11.224  1.00  0.00     0.010 C 
HETATM   41  C1  UNL     1      -6.826  -0.390  12.324  1.00  0.00     0.006 C 
ENDBRANCH  38  40
ENDBRANCH  36  38
ENDBRANCH  35  36
ENDBRANCH   1  35
BRANCH   5  42
HETATM   42  O7  UNL     1      -3.996  -1.105   4.156  1.00  0.00    -0.387 OA
ATOM     43  H7  UNL     1      -3.170  -0.887   3.740  1.00  0.00     0.210 HD
ENDBRANCH   5  42
BRANCH   9  44
HETATM   44  C18 UNL     1      -5.231   3.219   3.255  1.00  0.00     0.182 C 
HETATM   45  O8  UNL     1      -4.349   4.092   3.418  1.00  0.00    -0.647 OA
HETATM   46  O9  UNL     1      -6.534   3.627   3.245  1.00  0.00    -0.647 OA
ENDBRANCH   9  44
TORSDOF 17
ENDMDL
MODEL 4
REMARK VINA RESULT: -7.265811805      1.381      1.721
REMARK  17 active torsions:
REMARK  status: ('A' for Active; 'I' for Inactive)
REMARK    1  A    between atoms: C2_2  and  C3_3 
REMARK    2  A    between atoms: C3_3  and  C5_5 
REMARK    3  A    between atoms: C5_5  and  O2_7 
REMARK    4  A    between atoms: O2_7  and  C6_8 
REMARK    5  A    between atoms: C7_9  and  O3_10 
REMARK    6  A    between atoms: O3_10  and  C8_11 
REMARK    7  A    between atoms: C10_14  and  O5_15 
REMARK    8  A    between atoms: C11_17  and  O6_18 
REMARK    9  A    between atoms: C12_20  and  O7_21 
REMARK   10  A    between atoms: C16_26  and  C18_28 
REMARK   11  A    between atoms: C20_32  and  O10_33 
REMARK   12  A    between atoms: C23_36  and  O11_37 
REMARK   13  A    between atoms: C23_36  and  C24_39 
REMARK   14  A    between atoms: C24_39  and  O12_40 
REMARK   15  A    between atoms: C24_39  and  C25_42 
REMARK   16  A    between atoms: C25_42  and  C26_44 
REMARK   17  A    between atoms: C26_44  and  O14_45 
ROOT
HETATM    1  C6  UNL     1      -4.140   0.364   9.055  1.00  0.00     0.199 C 
HETATM    2  C7  UNL     1      -2.758  -0.302   8.997  1.00  0.00     0.204 C 
HETATM    3  C10 UNL     1      -2.440  -0.854   7.641  1.00  0.00     0.149 C 
HETATM    4  C11 UNL     1      -2.068   0.265   6.718  1.00  0.00     0.193 C 
HETATM    5  C12 UNL     1      -2.968   1.460   6.698  1.00  0.00     0.094 C 
HETATM    6  C13 UNL     1      -2.538   2.198   5.437  1.00  0.00     0.041 C 
HETATM    7  C14 UNL     1      -3.114   1.618   4.209  1.00  0.00     0.004 C 
HETATM    8  C15 UNL     1      -4.569   1.783   4.220  1.00  0.00     0.021 C 
HETATM    9  C16 UNL     1      -5.208   1.824   5.654  1.00  0.00     0.054 C 
HETATM   10  C17 UNL     1      -5.221   3.289   5.971  1.00  0.00     0.027 C 
HETATM   11  C19 UNL     1      -4.394   0.954   6.556  1.00  0.00     0.079 C 
HETATM   12  C20 UNL     1      -4.924   0.324   7.765  1.00  0.00     0.100 C 
HETATM   13  C22 UNL     1      -4.914  -1.219   7.520  1.00  0.00     0.085 C 
HETATM   14  C23 UNL     1      -3.520  -1.750   7.221  1.00  0.00     0.129 C 
ENDROOT
BRANCH  14  15
HETATM   15  O11 UNL     1      -3.455  -2.188   5.878  1.00  0.00    -0.383 OA
ATOM     16  H11 UNL     1      -2.720  -2.752   5.670  1.00  0.00     0.210 HD
ENDBRANCH  14  15
BRANCH  14  17
HETATM   17  C24 UNL     1      -3.489  -3.080   8.007  1.00  0.00     0.227 C 
BRANCH  17  18
HETATM   18  O12 UNL     1      -4.851  -3.240   8.472  1.00  0.00    -0.385 OA
ATOM     19  H12 UNL     1      -5.268  -2.419   8.240  1.00  0.00     0.210 HD
ENDBRANCH  17  18
BRANCH  17  20
HETATM   20  C25 UNL     1      -3.285  -4.279   7.187  1.00  0.00     0.181 C 
HETATM   21  O13 UNL     1      -2.224  -4.346   6.554  1.00  0.00    -0.293 OA
BRANCH  20  22
HETATM   22  C26 UNL     1      -4.198  -5.425   7.010  1.00  0.00     0.245 C 
BRANCH  22  23
HETATM   23  O14 UNL     1      -4.946  -5.356   5.815  1.00  0.00    -0.393 OA
ATOM     24  H14 UNL     1      -4.557  -4.782   5.166  1.00  0.00     0.209 HD
ENDBRANCH  22  23
ENDBRANCH  20  22
ENDBRANCH  17  20
ENDBRANCH  14  17
BRANCH   3  25
HETATM   25  O5  UNL     1      -1.260  -1.593   7.780  1.00  0.00    -0.381 OA
ATOM     26  H5  UNL     1      -1.019  -1.883   6.909  1.00  0.00     0.211 HD
ENDBRANCH   3  25
BRANCH   2  27
HETATM   27  O3  UNL     1      -1.721   0.505   9.456  1.00  0.00    -0.310 OA
BRANCH  27  28
HETATM   28  C8  UNL     1      -1.663   1.188  10.625  1.00  0.00     0.255 C 
HETATM   29  C9  UNL     1      -0.862   0.695  11.762  1.00  0.00     0.126 C 
HETATM   30  O4  UNL     1      -2.300   2.258  10.747  1.00  0.00    -0.266 OA
ENDBRANCH  27  28
ENDBRANCH   2  27
BRANCH   4  31
HETATM   31  O6  UNL     1      -0.765   0.682   7.076  1.00  0.00    -0.389 OA
ATOM     32  H6  UNL     1      -0.660   1.571   6.757  1.00  0.00     0.210 HD
ENDBRANCH   4  31
BRANCH  12  33
HETATM   33  O10 UNL     1      -6.244   0.489   8.091  1.00  0.00    -0.382 OA
HETATM   34  C21 UNL     1      -7.202  -0.404   7.948  1.00  0.00     0.202 C 
ENDBRANCH  12  33
BRANCH   1  35
HETATM   35  O2  UNL     1      -4.848  -0.552   9.920  1.00  0.00    -0.310 OA
BRANCH  35  36
HETATM   36  C5  UNL     1      -4.940  -0.476  11.270  1.00  0.00     0.263 C 
HETATM   37  O1  UNL     1      -3.934  -0.829  11.940  1.00  0.00    -0.265 OA
BRANCH  36  38
HETATM   38  C3  UNL     1      -6.191   0.008  11.950  1.00  0.00     0.081 C 
HETATM   39  C4  UNL     1      -6.223  -0.556  13.337  1.00  0.00     0.020 C 
BRANCH  38  40
HETATM   40  C2  UNL     1      -7.382  -0.467  11.150  1.00  0.00     0.010 C 
HETATM   41  C1  UNL     1      -8.408  -1.111  12.059  1.00  0.00     0.006 C 
ENDBRANCH  38  40
ENDBRANCH  36  38
ENDBRANCH  35  36
ENDBRANCH   1  35
BRANCH   5  42
HETATM   42  O7  UNL     1      -2.779   2.380   7.693  1.00  0.00    -0.387 OA
ATOM     43  H7  UNL     1      -1.941   2.355   8.138  1.00  0.00     0.210 HD
ENDBRANCH   5  42
BRANCH   9  44
HETATM   44  C18 UNL     1      -6.568   1.364   5.316  1.00  0.00     0.182 C 
HETATM   45  O8  UNL     1      -7.554   2.063   5.638  1.00  0.00    -0.647 OA
HETATM   46  O9  UNL     1      -6.807   0.195   4.652  1.00  0.00    -0.647 OA
ENDBRANCH   9  44
TORSDOF 17
ENDMDL
MODEL 5
REMARK VINA RESULT: -6.803638485      2.015      5.146
REMARK  17 active torsions:
REMARK  status: ('A' for Active; 'I' for Inactive)
REMARK    1  A    between atoms: C2_2  and  C3_3 
REMARK    2  A    between atoms: C3_3  and  C5_5 
REMARK    3  A    between atoms: C5_5  and  O2_7 
REMARK    4  A    between atoms: O2_7  and  C6_8 
REMARK    5  A    between atoms: C7_9  and  O3_10 
REMARK    6  A    between atoms: O3_10  and  C8_11 
REMARK    7  A    between atoms: C10_14  and  O5_15 
REMARK    8  A    between atoms: C11_17  and  O6_18 
REMARK    9  A    between atoms: C12_20  and  O7_21 
REMARK   10  A    between atoms: C16_26  and  C18_28 
REMARK   11  A    between atoms: C20_32  and  O10_33 
REMARK   12  A    between atoms: C23_36  and  O11_37 
REMARK   13  A    between atoms: C23_36  and  C24_39 
REMARK   14  A    between atoms: C24_39  and  O12_40 
REMARK   15  A    between atoms: C24_39  and  C25_42 
REMARK   16  A    between atoms: C25_42  and  C26_44 
REMARK   17  A    between atoms: C26_44  and  O14_45 
ROOT
HETATM    1  C6  UNL     1      -5.024  -0.242   5.606  1.00  0.00     0.199 C 
HETATM    2  C7  UNL     1      -5.794  -1.536   5.312  1.00  0.00     0.204 C 
HETATM    3  C10 UNL     1      -6.854  -1.353   4.268  1.00  0.00     0.149 C 
HETATM    4  C11 UNL     1      -6.219  -1.285   2.914  1.00  0.00     0.193 C 
HETATM    5  C12 UNL     1      -5.040  -0.376   2.758  1.00  0.00     0.094 C 
HETATM    6  C13 UNL     1      -4.890  -0.258   1.247  1.00  0.00     0.041 C 
HETATM    7  C14 UNL     1      -5.837   0.703   0.650  1.00  0.00     0.004 C 
HETATM    8  C15 UNL     1      -5.537   2.054   1.129  1.00  0.00     0.021 C 
HETATM    9  C16 UNL     1      -4.885   2.108   2.557  1.00  0.00     0.054 C 
HETATM   10  C17 UNL     1      -3.417   2.086   2.253  1.00  0.00     0.027 C 
HETATM   11  C19 UNL     1      -5.417   0.967   3.361  1.00  0.00     0.079 C 
HETATM   12  C20 UNL     1      -5.478   0.967   4.822  1.00  0.00     0.100 C 
HETATM   13  C22 UNL     1      -6.989   0.960   5.218  1.00  0.00     0.085 C 
HETATM   14  C23 UNL     1      -7.730  -0.247   4.662  1.00  0.00     0.129 C 
ENDROOT
BRANCH  14  15
HETATM   15  O11 UNL     1      -8.654   0.173   3.677  1.00  0.00    -0.383 OA
ATOM     16  H11 UNL     1      -9.501   0.449   4.007  1.00  0.00     0.210 HD
ENDBRANCH  14  15
BRANCH  14  17
HETATM   17  C24 UNL     1      -8.652  -0.647   5.836  1.00  0.00     0.227 C 
BRANCH  17  18
HETATM   18  O12 UNL     1      -8.283   0.269   6.895  1.00  0.00    -0.385 OA
ATOM     19  H12 UNL     1      -9.050   0.819   6.997  1.00  0.00     0.210 HD
ENDBRANCH  17  18
BRANCH  17  20
HETATM   20  C25 UNL     1     -10.074  -0.352   5.634  1.00  0.00     0.181 C 
HETATM   21  O13 UNL     1     -10.720  -1.160   4.955  1.00  0.00    -0.293 OA
BRANCH  20  22
HETATM   22  C26 UNL     1     -10.843   0.804   6.135  1.00  0.00     0.245 C 
BRANCH  22  23
HETATM   23  O14 UNL     1     -12.083   0.439   6.701  1.00  0.00    -0.393 OA
ATOM     24  H14 UNL     1     -12.179  -0.499   6.814  1.00  0.00     0.209 HD
ENDBRANCH  22  23
ENDBRANCH  20  22
ENDBRANCH  17  20
ENDBRANCH  14  17
BRANCH   3  25
HETATM   25  O5  UNL     1      -7.596  -2.538   4.243  1.00  0.00    -0.381 OA
ATOM     26  H5  UNL     1      -7.900  -2.685   5.130  1.00  0.00     0.211 HD
ENDBRANCH   3  25
BRANCH   2  27
HETATM   27  O3  UNL     1      -4.980  -2.622   5.001  1.00  0.00    -0.310 OA
BRANCH  27  28
HETATM   28  C8  UNL     1      -4.657  -3.665   5.802  1.00  0.00     0.255 C 
HETATM   29  C9  UNL     1      -3.803  -3.483   6.991  1.00  0.00     0.126 C 
HETATM   30  O4  UNL     1      -5.086  -4.809   5.530  1.00  0.00    -0.266 OA
ENDBRANCH  27  28
ENDBRANCH   2  27
BRANCH   4  31
HETATM   31  O6  UNL     1      -5.827  -2.601   2.574  1.00  0.00    -0.389 OA
ATOM     32  H6  UNL     1      -5.344  -2.545   1.757  1.00  0.00     0.210 HD
ENDBRANCH   4  31
BRANCH  12  33
HETATM   33  O10 UNL     1      -5.070   2.073   5.516  1.00  0.00    -0.382 OA
HETATM   34  C21 UNL     1      -5.843   2.907   6.183  1.00  0.00     0.202 C 
ENDBRANCH  12  33
BRANCH   1  35
HETATM   35  O2  UNL     1      -5.462   0.036   6.955  1.00  0.00    -0.310 OA
BRANCH  35  36
HETATM   36  C5  UNL     1      -4.706  -0.038   8.078  1.00  0.00     0.263 C 
HETATM   37  O1  UNL     1      -3.617   0.593   8.086  1.00  0.00    -0.265 OA
BRANCH  36  38
HETATM   38  C3  UNL     1      -5.143  -0.841   9.272  1.00  0.00     0.081 C 
HETATM   39  C4  UNL     1      -6.519  -0.395   9.662  1.00  0.00     0.020 C 
BRANCH  38  40
HETATM   40  C2  UNL     1      -4.162  -0.595  10.395  1.00  0.00     0.010 C 
HETATM   41  C1  UNL     1      -4.897  -0.307  11.688  1.00  0.00     0.006 C 
ENDBRANCH  38  40
ENDBRANCH  36  38
ENDBRANCH  35  36
ENDBRANCH   1  35
BRANCH   5  42
HETATM   42  O7  UNL     1      -3.832  -0.872   3.166  1.00  0.00    -0.387 OA
ATOM     43  H7  UNL     1      -3.632  -1.764   2.908  1.00  0.00     0.210 HD
ENDBRANCH   5  42
BRANCH   9  44
HETATM   44  C18 UNL     1      -5.301   3.467   2.952  1.00  0.00     0.182 C 
HETATM   45  O8  UNL     1      -4.434   4.315   3.256  1.00  0.00    -0.647 OA
HETATM   46  O9  UNL     1      -6.610   3.853   2.996  1.00  0.00    -0.647 OA
ENDBRANCH   9  44
TORSDOF 17
ENDMDL
