MODEL 1
REMARK VINA RESULT: -6.600520997      0.000      0.000
REMARK  5 active torsions:
REMARK  status: ('A' for Active; 'I' for Inactive)
REMARK       I    between atoms: C2_2  and  N1_4 
REMARK    1  A    between atoms: N1_4  and  C4_6 
REMARK    2  A    between atoms: C4_6  and  C5_7 
REMARK    3  A    between atoms: C5_7  and  C6_8 
REMARK    4  A    between atoms: C6_8  and  S1_9 
REMARK    5  A    between atoms: S1_9  and  C7_10 
ROOT
HETATM    1  C7  UNL     1      -1.429  -5.531  31.312  1.00  0.00     0.030 C 
HETATM    2  C8  UNL     1      -2.238  -6.701  31.782  1.00  0.00     0.029 C 
HETATM    3  C9  UNL     1      -0.092  -5.912  30.737  1.00  0.00     0.049 C 
HETATM    4  C10 UNL     1       0.829  -6.575  31.715  1.00  0.00     0.236 C 
HETATM    5  N2  UNL     1       1.574  -5.625  32.520  1.00  0.00    -0.051 N 
ATOM      6  H21 UNL     1       1.912  -4.850  31.949  1.00  0.00     0.279 HD
ATOM      7  H22 UNL     1       2.469  -6.017  32.812  1.00  0.00     0.279 HD
HETATM    8  C11 UNL     1       0.832  -5.143  33.651  1.00  0.00     0.462 C 
HETATM    9  N3  UNL     1      -0.592  -5.353  33.533  1.00  0.00    -0.050 N 
ATOM     10  H31 UNL     1      -1.063  -5.173  34.419  1.00  0.00     0.279 HD
ATOM     11  H32 UNL     1      -0.809  -6.345  33.429  1.00  0.00     0.279 HD
HETATM   12  C12 UNL     1      -1.182  -4.578  32.463  1.00  0.00     0.254 C 
ENDROOT
BRANCH   1  13
HETATM   13  S1  UNL     1      -2.361  -4.695  30.010  1.00  0.00    -0.158 SA
BRANCH  13  14
HETATM   14  C6  UNL     1      -1.993  -5.533  28.453  1.00  0.00     0.076 C 
BRANCH  14  15
HETATM   15  C5  UNL     1      -1.238  -4.627  27.497  1.00  0.00     0.030 C 
BRANCH  15  16
HETATM   16  C4  UNL     1      -1.313  -5.279  26.133  1.00  0.00     0.126 C 
BRANCH  16  17
HETATM   17  N1  UNL     1      -0.001  -5.620  25.649  1.00  0.00    -0.357 N 
HETATM   18  C2  UNL     1       0.217  -5.705  24.263  1.00  0.00     0.215 C 
HETATM   19  C1  UNL     1      -0.823  -5.469  23.234  1.00  0.00     0.117 C 
HETATM   20  O1  UNL     1       1.389  -6.006  23.853  1.00  0.00    -0.274 OA
HETATM   21  C3  UNL     1       1.047  -5.863  26.592  1.00  0.00     0.152 C 
ENDBRANCH  16  17
ENDBRANCH  15  16
ENDBRANCH  14  15
ENDBRANCH  13  14
ENDBRANCH   1  13
TORSDOF 5
ENDMDL
MODEL 2
REMARK VINA RESULT: -6.285695433      1.688      1.975
REMARK  5 active torsions:
REMARK  status: ('A' for Active; 'I' for Inactive)
REMARK       I    between atoms: C2_2  and  N1_4 
REMARK    1  A    between atoms: N1_4  and  C4_6 
REMARK    2  A    between atoms: C4_6  and  C5_7 
REMARK    3  A    between atoms: C5_7  and  C6_8 
REMARK    4  A    between atoms: C6_8  and  S1_9 
REMARK    5  A    between atoms: S1_9  and  C7_10 
ROOT
HETATM    1  C7  UNL     1      -0.238  -6.194  32.317  1.00  0.00     0.030 C 
HETATM    2  C8  UNL     1      -1.679  -5.921  32.014  1.00  0.00     0.029 C 
HETATM    3  C9  UNL     1      -0.012  -7.463  33.091  1.00  0.00     0.049 C 
HETATM    4  C10 UNL     1      -0.638  -7.470  34.452  1.00  0.00     0.236 C 
HETATM    5  N2  UNL     1       0.196  -6.841  35.460  1.00  0.00    -0.051 N 
ATOM      6  H21 UNL     1       1.172  -7.118  35.348  1.00  0.00     0.279 HD
ATOM      7  H22 UNL     1       0.016  -7.239  36.382  1.00  0.00     0.279 HD
HETATM    8  C11 UNL     1       0.067  -5.411  35.483  1.00  0.00     0.462 C 
HETATM    9  N3  UNL     1      -0.507  -4.869  34.275  1.00  0.00    -0.050 N 
ATOM     10  H31 UNL     1      -0.754  -3.887  34.396  1.00  0.00     0.279 HD
ATOM     11  H32 UNL     1      -1.438  -5.253  34.106  1.00  0.00     0.279 HD
HETATM   12  C12 UNL     1       0.347  -5.051  33.121  1.00  0.00     0.254 C 
ENDROOT
BRANCH   1  13
HETATM   13  S1  UNL     1       0.641  -6.353  30.746  1.00  0.00    -0.158 SA
BRANCH  13  14
HETATM   14  C6  UNL     1      -0.429  -5.687  29.453  1.00  0.00     0.076 C 
BRANCH  14  15
HETATM   15  C5  UNL     1       0.378  -5.055  28.331  1.00  0.00     0.030 C 
BRANCH  15  16
HETATM   16  C4  UNL     1      -0.258  -5.507  27.034  1.00  0.00     0.126 C 
BRANCH  16  17
HETATM   17  N1  UNL     1       0.744  -5.830  26.052  1.00  0.00    -0.357 N 
HETATM   18  C2  UNL     1       0.419  -5.739  24.687  1.00  0.00     0.215 C 
HETATM   19  C1  UNL     1      -0.906  -5.329  24.166  1.00  0.00     0.117 C 
HETATM   20  O1  UNL     1       1.323  -6.026  23.831  1.00  0.00    -0.274 OA
HETATM   21  C3  UNL     1       2.044  -6.236  26.492  1.00  0.00     0.152 C 
ENDBRANCH  16  17
ENDBRANCH  15  16
ENDBRANCH  14  15
ENDBRANCH  13  14
ENDBRANCH   1  13
TORSDOF 5
ENDMDL
MODEL 3
REMARK VINA RESULT: -6.262254513      1.213      2.194
REMARK  5 active torsions:
REMARK  status: ('A' for Active; 'I' for Inactive)
REMARK       I    between atoms: C2_2  and  N1_4 
REMARK    1  A    between atoms: N1_4  and  C4_6 
REMARK    2  A    between atoms: C4_6  and  C5_7 
REMARK    3  A    between atoms: C5_7  and  C6_8 
REMARK    4  A    between atoms: C6_8  and  S1_9 
REMARK    5  A    between atoms: S1_9  and  C7_10 
ROOT
HETATM    1  C7  UNL     1      -0.714  -6.062  31.621  1.00  0.00     0.030 C 
HETATM    2  C8  UNL     1       0.605  -6.333  30.965  1.00  0.00     0.029 C 
HETATM    3  C9  UNL     1      -0.792  -4.718  32.292  1.00  0.00     0.049 C 
HETATM    4  C10 UNL     1       0.177  -4.540  33.419  1.00  0.00     0.236 C 
HETATM    5  N2  UNL     1      -0.319  -5.068  34.677  1.00  0.00    -0.051 N 
ATOM      6  H21 UNL     1      -1.302  -4.830  34.810  1.00  0.00     0.279 HD
ATOM      7  H22 UNL     1       0.081  -4.563  35.468  1.00  0.00     0.279 HD
HETATM    8  C11 UNL     1      -0.110  -6.483  34.813  1.00  0.00     0.462 C 
HETATM    9  N3  UNL     1       0.146  -7.146  33.557  1.00  0.00    -0.050 N 
ATOM     10  H31 UNL     1       0.470  -8.102  33.707  1.00  0.00     0.279 HD
ATOM     11  H32 UNL     1       0.974  -6.761  33.101  1.00  0.00     0.279 HD
HETATM   12  C12 UNL     1      -0.997  -7.118  32.669  1.00  0.00     0.254 C 
ENDROOT
BRANCH   1  13
HETATM   13  S1  UNL     1      -1.991  -6.106  30.344  1.00  0.00    -0.158 SA
BRANCH  13  14
HETATM   14  C6  UNL     1      -1.678  -4.733  29.212  1.00  0.00     0.076 C 
BRANCH  14  15
HETATM   15  C5  UNL     1      -1.645  -5.198  27.767  1.00  0.00     0.030 C 
BRANCH  15  16
HETATM   16  C4  UNL     1      -0.185  -5.321  27.386  1.00  0.00     0.126 C 
BRANCH  16  17
HETATM   17  N1  UNL     1      -0.035  -5.504  25.966  1.00  0.00    -0.357 N 
HETATM   18  C2  UNL     1       1.202  -5.940  25.459  1.00  0.00     0.215 C 
HETATM   19  C1  UNL     1       2.394  -6.231  26.290  1.00  0.00     0.117 C 
HETATM   20  O1  UNL     1       1.315  -6.100  24.197  1.00  0.00    -0.274 OA
HETATM   21  C3  UNL     1      -1.148  -5.238  25.108  1.00  0.00     0.152 C 
ENDBRANCH  16  17
ENDBRANCH  15  16
ENDBRANCH  14  15
ENDBRANCH  13  14
ENDBRANCH   1  13
TORSDOF 5
ENDMDL
MODEL 4
REMARK VINA RESULT: -6.256356573      2.281      2.989
REMARK  5 active torsions:
REMARK  status: ('A' for Active; 'I' for Inactive)
REMARK       I    between atoms: C2_2  and  N1_4 
REMARK    1  A    between atoms: N1_4  and  C4_6 
REMARK    2  A    between atoms: C4_6  and  C5_7 
REMARK    3  A    between atoms: C5_7  and  C6_8 
REMARK    4  A    between atoms: C6_8  and  S1_9 
REMARK    5  A    between atoms: S1_9  and  C7_10 
ROOT
HETATM    1  C7  UNL     1      -2.444  -4.631  30.021  1.00  0.00     0.030 C 
HETATM    2  C8  UNL     1      -3.900  -4.956  30.149  1.00  0.00     0.029 C 
HETATM    3  C9  UNL     1      -1.730  -4.523  31.340  1.00  0.00     0.049 C 
HETATM    4  C10 UNL     1      -2.234  -3.422  32.221  1.00  0.00     0.236 C 
HETATM    5  N2  UNL     1      -1.630  -2.137  31.919  1.00  0.00    -0.051 N 
ATOM      6  H21 UNL     1      -0.628  -2.236  31.753  1.00  0.00     0.279 HD
ATOM      7  H22 UNL     1      -1.602  -1.544  32.748  1.00  0.00     0.279 HD
HETATM    8  C11 UNL     1      -2.268  -1.460  30.825  1.00  0.00     0.462 C 
HETATM    9  N3  UNL     1      -3.066  -2.335  29.999  1.00  0.00    -0.050 N 
ATOM     10  H31 UNL     1      -3.646  -1.799  29.353  1.00  0.00     0.279 HD
ATOM     11  H32 UNL     1      -3.801  -2.785  30.545  1.00  0.00     0.279 HD
HETATM   12  C12 UNL     1      -2.270  -3.315  29.293  1.00  0.00     0.254 C 
ENDROOT
BRANCH   1  13
HETATM   13  S1  UNL     1      -1.656  -5.961  29.086  1.00  0.00    -0.158 SA
BRANCH  13  14
HETATM   14  C6  UNL     1       0.117  -5.887  29.421  1.00  0.00     0.076 C 
BRANCH  14  15
HETATM   15  C5  UNL     1       0.873  -5.213  28.289  1.00  0.00     0.030 C 
BRANCH  15  16
HETATM   16  C4  UNL     1       0.078  -5.469  27.027  1.00  0.00     0.126 C 
BRANCH  16  17
HETATM   17  N1  UNL     1       0.946  -5.796  25.927  1.00  0.00    -0.357 N 
HETATM   18  C2  UNL     1       0.446  -5.721  24.614  1.00  0.00     0.215 C 
HETATM   19  C1  UNL     1      -0.937  -5.323  24.266  1.00  0.00     0.117 C 
HETATM   20  O1  UNL     1       1.233  -6.012  23.651  1.00  0.00    -0.274 OA
HETATM   21  C3  UNL     1       2.294  -6.191  26.197  1.00  0.00     0.152 C 
ENDBRANCH  16  17
ENDBRANCH  15  16
ENDBRANCH  14  15
ENDBRANCH  13  14
ENDBRANCH   1  13
TORSDOF 5
ENDMDL
MODEL 5
REMARK VINA RESULT: -6.216807743      1.196      1.858
REMARK  5 active torsions:
REMARK  status: ('A' for Active; 'I' for Inactive)
REMARK       I    between atoms: C2_2  and  N1_4 
REMARK    1  A    between atoms: N1_4  and  C4_6 
REMARK    2  A    between atoms: C4_6  and  C5_7 
REMARK    3  A    between atoms: C5_7  and  C6_8 
REMARK    4  A    between atoms: C6_8  and  S1_9 
REMARK    5  A    between atoms: S1_9  and  C7_10 
ROOT
HETATM    1  C7  UNL     1      -0.940  -5.977  31.259  1.00  0.00     0.030 C 
HETATM    2  C8  UNL     1       0.299  -6.320  30.490  1.00  0.00     0.029 C 
HETATM    3  C9  UNL     1      -0.669  -5.289  32.569  1.00  0.00     0.049 C 
HETATM    4  C10 UNL     1       0.103  -6.119  33.548  1.00  0.00     0.236 C 
HETATM    5  N2  UNL     1      -0.742  -7.009  34.322  1.00  0.00    -0.051 N 
ATOM      6  H21 UNL     1      -1.594  -6.534  34.620  1.00  0.00     0.279 HD
ATOM      7  H22 UNL     1      -0.331  -7.200  35.236  1.00  0.00     0.279 HD
HETATM    8  C11 UNL     1      -1.049  -8.232  33.633  1.00  0.00     0.462 C 
HETATM    9  N3  UNL     1      -0.829  -8.156  32.208  1.00  0.00    -0.050 N 
ATOM     10  H31 UNL     1      -0.877  -9.081  31.781  1.00  0.00     0.279 HD
ATOM     11  H32 UNL     1       0.143  -7.928  31.999  1.00  0.00     0.279 HD
HETATM   12  C12 UNL     1      -1.732  -7.234  31.554  1.00  0.00     0.254 C 
ENDROOT
BRANCH   1  13
HETATM   13  S1  UNL     1      -1.928  -4.850  30.250  1.00  0.00    -0.158 SA
BRANCH  13  14
HETATM   14  C6  UNL     1      -1.955  -5.506  28.567  1.00  0.00     0.076 C 
BRANCH  14  15
HETATM   15  C5  UNL     1      -1.182  -4.617  27.609  1.00  0.00     0.030 C 
BRANCH  15  16
HETATM   16  C4  UNL     1      -1.266  -5.273  26.247  1.00  0.00     0.126 C 
BRANCH  16  17
HETATM   17  N1  UNL     1       0.042  -5.621  25.759  1.00  0.00    -0.357 N 
HETATM   18  C2  UNL     1       0.247  -5.734  24.372  1.00  0.00     0.215 C 
HETATM   19  C1  UNL     1      -0.803  -5.522  23.349  1.00  0.00     0.117 C 
HETATM   20  O1  UNL     1       1.417  -6.039  23.958  1.00  0.00    -0.274 OA
HETATM   21  C3  UNL     1       1.100  -5.841  26.697  1.00  0.00     0.152 C 
ENDBRANCH  16  17
ENDBRANCH  15  16
ENDBRANCH  14  15
ENDBRANCH  13  14
ENDBRANCH   1  13
TORSDOF 5
ENDMDL
