MODEL 1
REMARK VINA RESULT: -6.392506711      0.000      0.000
REMARK  6 active torsions:
REMARK  status: ('A' for Active; 'I' for Inactive)
REMARK    1  A    between atoms: O1_1  and  C1_3 
REMARK    2  A    between atoms: C1_3  and  C2_4 
REMARK    3  A    between atoms: C1_3  and  C10_14 
REMARK    4  A    between atoms: C2_4  and  N1_5 
REMARK    5  A    between atoms: N1_5  and  C3_7 
REMARK    6  A    between atoms: C10_14  and  N2_15 
ROOT
HETATM    1  C1  UNL     1      -1.740  -4.899  32.089  1.00  0.00     0.163 C 
ENDROOT
BRANCH   1   2
HETATM    2  O1  UNL     1      -2.031  -6.219  32.503  1.00  0.00    -0.392 OA
ATOM      3  H1  UNL     1      -2.928  -6.400  32.245  1.00  0.00     0.210 HD
ENDBRANCH   1   2
BRANCH   1   4
HETATM    4  C2  UNL     1      -0.526  -4.450  32.867  1.00  0.00     0.147 C 
BRANCH   4   5
HETATM    5  N1  UNL     1      -0.534  -5.084  34.134  1.00  0.00    -0.415 N 
ATOM      6  H1  UNL     1      -1.371  -5.134  34.715  1.00  0.00     0.153 HD
BRANCH   5   7
HETATM    7  C3  UNL     1       0.726  -5.651  34.542  1.00  0.00     0.076 C 
HETATM    8  C4  UNL     1       0.607  -5.943  36.028  1.00  0.00     0.024 C 
HETATM    9  C5  UNL     1      -0.229  -4.920  36.721  1.00  0.00     0.002 C 
HETATM   10  C6  UNL     1       0.687  -3.804  37.180  1.00  0.00     0.000 C 
HETATM   11  C7  UNL     1       1.342  -3.124  35.972  1.00  0.00     0.000 C 
HETATM   12  C8  UNL     1       2.398  -3.951  35.343  1.00  0.00     0.002 C 
HETATM   13  C9  UNL     1       1.933  -4.853  34.242  1.00  0.00     0.024 C 
ENDBRANCH   5   7
ENDBRANCH   4   5
ENDBRANCH   1   4
BRANCH   1  14
HETATM   14  C10 UNL     1      -1.540  -4.808  30.600  1.00  0.00     0.305 C 
BRANCH  14  15
HETATM   15  N2  UNL     1      -2.495  -3.831  30.109  1.00  0.00     0.095 N 
HETATM   16  C11 UNL     1      -1.887  -2.783  29.337  1.00  0.00     0.298 C 
HETATM   17  C12 UNL     1      -1.704  -1.480  30.018  1.00  0.00     0.198 C 
HETATM   18  O2  UNL     1      -2.583  -1.168  31.017  1.00  0.00    -0.388 OA
HETATM   19  C13 UNL     1      -3.751  -1.903  30.838  1.00  0.00     0.198 C 
HETATM   20  C14 UNL     1      -3.374  -3.341  31.142  1.00  0.00     0.298 C 
ENDBRANCH  14  15
ENDBRANCH   1  14
TORSDOF 6
ENDMDL
MODEL 2
REMARK VINA RESULT: -6.244199780      2.025      2.791
REMARK  6 active torsions:
REMARK  status: ('A' for Active; 'I' for Inactive)
REMARK    1  A    between atoms: O1_1  and  C1_3 
REMARK    2  A    between atoms: C1_3  and  C2_4 
REMARK    3  A    between atoms: C1_3  and  C10_14 
REMARK    4  A    between atoms: C2_4  and  N1_5 
REMARK    5  A    between atoms: N1_5  and  C3_7 
REMARK    6  A    between atoms: C10_14  and  N2_15 
ROOT
HETATM    1  C1  UNL     1      -1.390  -4.545  31.914  1.00  0.00     0.163 C 
ENDROOT
BRANCH   1   2
HETATM    2  O1  UNL     1      -2.375  -3.715  32.495  1.00  0.00    -0.392 OA
ATOM      3  H1  UNL     1      -3.156  -3.794  31.960  1.00  0.00     0.210 HD
ENDBRANCH   1   2
BRANCH   1   4
HETATM    4  C2  UNL     1      -1.091  -5.639  32.910  1.00  0.00     0.147 C 
BRANCH   4   5
HETATM    5  N1  UNL     1      -0.519  -5.060  34.069  1.00  0.00    -0.415 N 
ATOM      6  H1  UNL     1      -0.976  -4.310  34.588  1.00  0.00     0.153 HD
BRANCH   5   7
HETATM    7  C3  UNL     1       0.755  -5.607  34.461  1.00  0.00     0.076 C 
HETATM    8  C4  UNL     1       0.654  -5.914  35.945  1.00  0.00     0.024 C 
HETATM    9  C5  UNL     1      -0.194  -4.912  36.654  1.00  0.00     0.002 C 
HETATM   10  C6  UNL     1       0.706  -3.783  37.115  1.00  0.00     0.000 C 
HETATM   11  C7  UNL     1       1.337  -3.081  35.907  1.00  0.00     0.000 C 
HETATM   12  C8  UNL     1       2.403  -3.884  35.262  1.00  0.00     0.002 C 
HETATM   13  C9  UNL     1       1.945  -4.786  34.158  1.00  0.00     0.024 C 
ENDBRANCH   5   7
ENDBRANCH   4   5
ENDBRANCH   1   4
BRANCH   1  14
HETATM   14  C10 UNL     1      -1.825  -5.083  30.577  1.00  0.00     0.305 C 
BRANCH  14  15
HETATM   15  N2  UNL     1      -0.819  -4.670  29.613  1.00  0.00     0.095 N 
HETATM   16  C11 UNL     1      -1.380  -4.097  28.421  1.00  0.00     0.298 C 
HETATM   17  C12 UNL     1      -1.413  -4.966  27.221  1.00  0.00     0.198 C 
HETATM   18  O2  UNL     1      -0.455  -5.936  27.126  1.00  0.00    -0.388 OA
HETATM   19  C13 UNL     1       0.634  -5.576  27.913  1.00  0.00     0.198 C 
HETATM   20  C14 UNL     1       0.155  -5.699  29.347  1.00  0.00     0.298 C 
ENDBRANCH  14  15
ENDBRANCH   1  14
TORSDOF 6
ENDMDL
MODEL 3
REMARK VINA RESULT: -6.152454302      1.531      2.551
REMARK  6 active torsions:
REMARK  status: ('A' for Active; 'I' for Inactive)
REMARK    1  A    between atoms: O1_1  and  C1_3 
REMARK    2  A    between atoms: C1_3  and  C2_4 
REMARK    3  A    between atoms: C1_3  and  C10_14 
REMARK    4  A    between atoms: C2_4  and  N1_5 
REMARK    5  A    between atoms: N1_5  and  C3_7 
REMARK    6  A    between atoms: C10_14  and  N2_15 
ROOT
HETATM    1  C1  UNL     1      -1.363  -3.986  31.884  1.00  0.00     0.163 C 
ENDROOT
BRANCH   1   2
HETATM    2  O1  UNL     1      -0.776  -2.915  32.596  1.00  0.00    -0.392 OA
ATOM      3  H1  UNL     1      -0.447  -2.300  31.951  1.00  0.00     0.210 HD
ENDBRANCH   1   2
BRANCH   1   4
HETATM    4  C2  UNL     1      -1.242  -5.214  32.755  1.00  0.00     0.147 C 
BRANCH   4   5
HETATM    5  N1  UNL     1      -0.604  -4.854  33.967  1.00  0.00    -0.415 N 
ATOM      6  H1  UNL     1      -0.965  -4.124  34.580  1.00  0.00     0.153 HD
BRANCH   5   7
HETATM    7  C3  UNL     1       0.593  -5.597  34.271  1.00  0.00     0.076 C 
HETATM    8  C4  UNL     1       0.492  -5.996  35.733  1.00  0.00     0.024 C 
HETATM    9  C5  UNL     1      -0.188  -4.943  36.542  1.00  0.00     0.002 C 
HETATM   10  C6  UNL     1       0.872  -3.984  37.044  1.00  0.00     0.000 C 
HETATM   11  C7  UNL     1       1.560  -3.287  35.864  1.00  0.00     0.000 C 
HETATM   12  C8  UNL     1       2.486  -4.178  35.125  1.00  0.00     0.002 C 
HETATM   13  C9  UNL     1       1.875  -4.925  33.979  1.00  0.00     0.024 C 
ENDBRANCH   5   7
ENDBRANCH   4   5
ENDBRANCH   1   4
BRANCH   1  14
HETATM   14  C10 UNL     1      -2.787  -3.689  31.496  1.00  0.00     0.305 C 
BRANCH  14  15
HETATM   15  N2  UNL     1      -2.944  -4.123  30.119  1.00  0.00     0.095 N 
HETATM   16  C11 UNL     1      -3.692  -5.343  29.992  1.00  0.00     0.298 C 
HETATM   17  C12 UNL     1      -2.911  -6.576  29.736  1.00  0.00     0.198 C 
HETATM   18  O2  UNL     1      -1.719  -6.436  29.081  1.00  0.00    -0.388 OA
HETATM   19  C13 UNL     1      -1.738  -5.248  28.356  1.00  0.00     0.198 C 
HETATM   20  C14 UNL     1      -1.698  -4.141  29.393  1.00  0.00     0.298 C 
ENDBRANCH  14  15
ENDBRANCH   1  14
TORSDOF 6
ENDMDL
MODEL 4
REMARK VINA RESULT: -6.145627438      2.615      4.429
REMARK  6 active torsions:
REMARK  status: ('A' for Active; 'I' for Inactive)
REMARK    1  A    between atoms: O1_1  and  C1_3 
REMARK    2  A    between atoms: C1_3  and  C2_4 
REMARK    3  A    between atoms: C1_3  and  C10_14 
REMARK    4  A    between atoms: C2_4  and  N1_5 
REMARK    5  A    between atoms: N1_5  and  C3_7 
REMARK    6  A    between atoms: C10_14  and  N2_15 
ROOT
HETATM    1  C1  UNL     1      -0.714  -5.786  31.883  1.00  0.00     0.163 C 
ENDROOT
BRANCH   1   2
HETATM    2  O1  UNL     1      -0.672  -5.255  30.574  1.00  0.00    -0.392 OA
ATOM      3  H1  UNL     1      -1.132  -5.865  30.011  1.00  0.00     0.210 HD
ENDBRANCH   1   2
BRANCH   1   4
HETATM    4  C2  UNL     1      -0.633  -4.617  32.836  1.00  0.00     0.147 C 
BRANCH   4   5
HETATM    5  N1  UNL     1      -0.535  -5.113  34.160  1.00  0.00    -0.415 N 
ATOM      6  H1  UNL     1      -1.325  -5.109  34.805  1.00  0.00     0.153 HD
BRANCH   5   7
HETATM    7  C3  UNL     1       0.762  -5.622  34.528  1.00  0.00     0.076 C 
HETATM    8  C4  UNL     1       0.698  -5.930  36.014  1.00  0.00     0.024 C 
HETATM    9  C5  UNL     1      -0.166  -4.953  36.738  1.00  0.00     0.002 C 
HETATM   10  C6  UNL     1       0.709  -3.797  37.181  1.00  0.00     0.000 C 
HETATM   11  C7  UNL     1       1.296  -3.078  35.961  1.00  0.00     0.000 C 
HETATM   12  C8  UNL     1       2.373  -3.850  35.296  1.00  0.00     0.002 C 
HETATM   13  C9  UNL     1       1.921  -4.766  34.201  1.00  0.00     0.024 C 
ENDBRANCH   5   7
ENDBRANCH   4   5
ENDBRANCH   1   4
BRANCH   1  14
HETATM   14  C10 UNL     1      -1.938  -6.632  32.107  1.00  0.00     0.305 C 
BRANCH  14  15
HETATM   15  N2  UNL     1      -1.493  -8.014  32.127  1.00  0.00     0.095 N 
HETATM   16  C11 UNL     1      -1.944  -8.737  33.284  1.00  0.00     0.298 C 
HETATM   17  C12 UNL     1      -0.948  -8.955  34.359  1.00  0.00     0.198 C 
HETATM   18  O2  UNL     1       0.367  -9.009  33.991  1.00  0.00    -0.388 OA
HETATM   19  C13 UNL     1       0.447  -9.354  32.646  1.00  0.00     0.198 C 
HETATM   20  C14 UNL     1      -0.077  -8.148  31.887  1.00  0.00     0.298 C 
ENDBRANCH  14  15
ENDBRANCH   1  14
TORSDOF 6
ENDMDL
MODEL 5
REMARK VINA RESULT: -6.143284056      2.098      2.523
REMARK  6 active torsions:
REMARK  status: ('A' for Active; 'I' for Inactive)
REMARK    1  A    between atoms: O1_1  and  C1_3 
REMARK    2  A    between atoms: C1_3  and  C2_4 
REMARK    3  A    between atoms: C1_3  and  C10_14 
REMARK    4  A    between atoms: C2_4  and  N1_5 
REMARK    5  A    between atoms: N1_5  and  C3_7 
REMARK    6  A    between atoms: C10_14  and  N2_15 
ROOT
HETATM    1  C1  UNL     1      -1.244  -5.534  32.264  1.00  0.00     0.163 C 
ENDROOT
BRANCH   1   2
HETATM    2  O1  UNL     1      -1.571  -6.688  33.012  1.00  0.00    -0.392 OA
ATOM      3  H1  UNL     1      -1.953  -7.313  32.407  1.00  0.00     0.210 HD
ENDBRANCH   1   2
BRANCH   1   4
HETATM    4  C2  UNL     1      -0.417  -4.645  33.161  1.00  0.00     0.147 C 
BRANCH   4   5
HETATM    5  N1  UNL     1      -0.397  -5.201  34.464  1.00  0.00    -0.415 N 
ATOM      6  H1  UNL     1      -1.246  -5.342  35.012  1.00  0.00     0.153 HD
BRANCH   5   7
HETATM    7  C3  UNL     1       0.910  -5.554  34.958  1.00  0.00     0.076 C 
HETATM    8  C4  UNL     1       0.793  -5.630  36.470  1.00  0.00     0.024 C 
HETATM    9  C5  UNL     1      -0.166  -4.615  36.997  1.00  0.00     0.002 C 
HETATM   10  C6  UNL     1       0.611  -3.347  37.284  1.00  0.00     0.000 C 
HETATM   11  C7  UNL     1       1.210  -2.787  35.989  1.00  0.00     0.000 C 
HETATM   12  C8  UNL     1       2.365  -3.574  35.497  1.00  0.00     0.002 C 
HETATM   13  C9  UNL     1       2.027  -4.680  34.545  1.00  0.00     0.024 C 
ENDBRANCH   5   7
ENDBRANCH   4   5
ENDBRANCH   1   4
BRANCH   1  14
HETATM   14  C10 UNL     1      -0.537  -5.878  30.980  1.00  0.00     0.305 C 
BRANCH  14  15
HETATM   15  N2  UNL     1      -1.081  -5.004  29.956  1.00  0.00     0.095 N 
HETATM   16  C11 UNL     1      -2.515  -5.048  29.877  1.00  0.00     0.298 C 
HETATM   17  C12 UNL     1      -3.093  -5.836  28.763  1.00  0.00     0.198 C 
HETATM   18  O2  UNL     1      -2.343  -5.954  27.626  1.00  0.00    -0.388 OA
HETATM   19  C13 UNL     1      -1.436  -4.900  27.571  1.00  0.00     0.198 C 
HETATM   20  C14 UNL     1      -0.434  -5.170  28.678  1.00  0.00     0.298 C 
ENDBRANCH  14  15
ENDBRANCH   1  14
TORSDOF 6
ENDMDL
