MODEL 1
REMARK VINA RESULT: -6.126970865      0.000      0.000
REMARK  5 active torsions:
REMARK  status: ('A' for Active; 'I' for Inactive)
REMARK    1  A    between atoms: C2_5  and  C3_6 
REMARK    2  A    between atoms: C3_6  and  N2_7 
REMARK    3  A    between atoms: N3_14  and  C10_15 
REMARK    4  A    between atoms: C10_15  and  C11_16 
REMARK    5  A    between atoms: C11_16  and  O2_17 
ROOT
HETATM    1  O1  UNL     1      17.653   0.522  16.448  1.00  0.00    -0.247 OA
HETATM    2  C1  UNL     1      16.928   1.364  15.816  1.00  0.00     0.318 C 
HETATM    3  N1  UNL     1      17.418   1.894  14.616  1.00  0.00    -0.337 N 
ATOM      4  H1  UNL     1      18.421   1.988  14.458  1.00  0.00     0.164 HD
HETATM    5  C2  UNL     1      16.444   2.315  13.578  1.00  0.00     0.116 C 
HETATM    6  C8  UNL     1      15.073   2.208  14.112  1.00  0.00     0.047 C 
HETATM    7  C9  UNL     1      14.947   2.741  15.541  1.00  0.00     0.129 C 
HETATM    8  N3  UNL     1      15.644   1.735  16.357  1.00  0.00    -0.332 N 
ENDROOT
BRANCH   5   9
HETATM    9  C3  UNL     1      16.924   3.616  13.086  1.00  0.00     0.297 C 
BRANCH   9  10
HETATM   10  N2  UNL     1      17.867   4.304  13.879  1.00  0.00     0.090 N 
HETATM   11  C4  UNL     1      17.244   5.555  14.399  1.00  0.00     0.272 C 
HETATM   12  C5  UNL     1      18.392   6.381  14.890  1.00  0.00     0.032 C 
HETATM   13  C6  UNL     1      19.413   6.140  13.793  1.00  0.00     0.032 C 
HETATM   14  C7  UNL     1      19.095   4.729  13.315  1.00  0.00     0.272 C 
ENDBRANCH   9  10
ENDBRANCH   5   9
BRANCH   8  15
HETATM   15  C10 UNL     1      15.114   1.163  17.553  1.00  0.00     0.153 C 
BRANCH  15  16
HETATM   16  C11 UNL     1      14.297  -0.083  17.202  1.00  0.00     0.184 C 
BRANCH  16  17
HETATM   17  O2  UNL     1      15.101  -1.194  17.219  1.00  0.00    -0.399 OA
ATOM     18  H2  UNL     1      14.747  -1.862  16.643  1.00  0.00     0.209 HD
ENDBRANCH  16  17
ENDBRANCH  15  16
ENDBRANCH   8  15
TORSDOF 5
ENDMDL
MODEL 2
REMARK VINA RESULT: -5.958752560      1.355      2.128
REMARK  5 active torsions:
REMARK  status: ('A' for Active; 'I' for Inactive)
REMARK    1  A    between atoms: C2_5  and  C3_6 
REMARK    2  A    between atoms: C3_6  and  N2_7 
REMARK    3  A    between atoms: N3_14  and  C10_15 
REMARK    4  A    between atoms: C10_15  and  C11_16 
REMARK    5  A    between atoms: C11_16  and  O2_17 
ROOT
HETATM    1  O1  UNL     1      17.557   0.456  16.437  1.00  0.00    -0.247 OA
HETATM    2  C1  UNL     1      16.856   1.401  15.936  1.00  0.00     0.318 C 
HETATM    3  N1  UNL     1      17.348   2.065  14.805  1.00  0.00    -0.337 N 
ATOM      4  H1  UNL     1      18.351   2.142  14.641  1.00  0.00     0.164 HD
HETATM    5  C2  UNL     1      16.375   2.654  13.851  1.00  0.00     0.116 C 
HETATM    6  C8  UNL     1      15.009   2.529  14.395  1.00  0.00     0.047 C 
HETATM    7  C9  UNL     1      14.926   2.873  15.884  1.00  0.00     0.129 C 
HETATM    8  N3  UNL     1      15.596   1.744  16.546  1.00  0.00    -0.332 N 
ENDROOT
BRANCH   5   9
HETATM    9  C3  UNL     1      16.898   3.991  13.524  1.00  0.00     0.297 C 
BRANCH   9  10
HETATM   10  N2  UNL     1      17.120   4.286  12.162  1.00  0.00     0.090 N 
HETATM   11  C4  UNL     1      16.937   3.043  11.359  1.00  0.00     0.272 C 
HETATM   12  C5  UNL     1      17.549   3.351  10.027  1.00  0.00     0.032 C 
HETATM   13  C6  UNL     1      18.795   4.108  10.449  1.00  0.00     0.032 C 
HETATM   14  C7  UNL     1      18.373   4.797  11.740  1.00  0.00     0.272 C 
ENDBRANCH   9  10
ENDBRANCH   5   9
BRANCH   8  15
HETATM   15  C10 UNL     1      15.062   1.040  17.667  1.00  0.00     0.153 C 
BRANCH  15  16
HETATM   16  C11 UNL     1      14.284  -0.183  17.177  1.00  0.00     0.184 C 
BRANCH  16  17
HETATM   17  O2  UNL     1      15.095  -1.290  17.178  1.00  0.00    -0.399 OA
ATOM     18  H2  UNL     1      15.270  -1.567  16.286  1.00  0.00     0.209 HD
ENDBRANCH  16  17
ENDBRANCH  15  16
ENDBRANCH   8  15
TORSDOF 5
ENDMDL
MODEL 3
REMARK VINA RESULT: -5.863510154      1.581      2.014
REMARK  5 active torsions:
REMARK  status: ('A' for Active; 'I' for Inactive)
REMARK    1  A    between atoms: C2_5  and  C3_6 
REMARK    2  A    between atoms: C3_6  and  N2_7 
REMARK    3  A    between atoms: N3_14  and  C10_15 
REMARK    4  A    between atoms: C10_15  and  C11_16 
REMARK    5  A    between atoms: C11_16  and  O2_17 
ROOT
HETATM    1  O1  UNL     1      17.536   0.400  16.472  1.00  0.00    -0.247 OA
HETATM    2  C1  UNL     1      16.879   1.351  15.926  1.00  0.00     0.318 C 
HETATM    3  N1  UNL     1      17.423   1.968  14.792  1.00  0.00    -0.337 N 
ATOM      4  H1  UNL     1      18.432   2.009  14.655  1.00  0.00     0.164 HD
HETATM    5  C2  UNL     1      16.496   2.560  13.795  1.00  0.00     0.116 C 
HETATM    6  C8  UNL     1      15.112   2.492  14.303  1.00  0.00     0.047 C 
HETATM    7  C9  UNL     1      14.999   2.880  15.779  1.00  0.00     0.129 C 
HETATM    8  N3  UNL     1      15.614   1.750  16.490  1.00  0.00    -0.332 N 
ENDROOT
BRANCH   5   9
HETATM    9  C3  UNL     1      17.070   3.870  13.447  1.00  0.00     0.297 C 
BRANCH   9  10
HETATM   10  N2  UNL     1      16.664   4.454  12.228  1.00  0.00     0.090 N 
HETATM   11  C4  UNL     1      17.875   4.886  11.471  1.00  0.00     0.272 C 
HETATM   12  C5  UNL     1      17.357   5.808  10.411  1.00  0.00     0.032 C 
HETATM   13  C6  UNL     1      16.320   6.594  11.193  1.00  0.00     0.032 C 
HETATM   14  C7  UNL     1      15.825   5.596  12.231  1.00  0.00     0.272 C 
ENDBRANCH   9  10
ENDBRANCH   5   9
BRANCH   8  15
HETATM   15  C10 UNL     1      15.027   1.094  17.615  1.00  0.00     0.153 C 
BRANCH  15  16
HETATM   16  C11 UNL     1      14.242  -0.130  17.138  1.00  0.00     0.184 C 
BRANCH  16  17
HETATM   17  O2  UNL     1      15.031  -1.251  17.205  1.00  0.00    -0.399 OA
ATOM     18  H2  UNL     1      14.756  -1.883  16.551  1.00  0.00     0.209 HD
ENDBRANCH  16  17
ENDBRANCH  15  16
ENDBRANCH   8  15
TORSDOF 5
ENDMDL
MODEL 4
REMARK VINA RESULT: -5.850449694      1.868      2.014
REMARK  5 active torsions:
REMARK  status: ('A' for Active; 'I' for Inactive)
REMARK    1  A    between atoms: C2_5  and  C3_6 
REMARK    2  A    between atoms: C3_6  and  N2_7 
REMARK    3  A    between atoms: N3_14  and  C10_15 
REMARK    4  A    between atoms: C10_15  and  C11_16 
REMARK    5  A    between atoms: C11_16  and  O2_17 
ROOT
HETATM    1  O1  UNL     1      16.199  -1.292  15.289  1.00  0.00    -0.247 OA
HETATM    2  C1  UNL     1      16.439  -0.086  14.938  1.00  0.00     0.318 C 
HETATM    3  N1  UNL     1      16.885   0.150  13.632  1.00  0.00    -0.337 N 
ATOM      4  H1  UNL     1      17.419  -0.558  13.127  1.00  0.00     0.164 HD
HETATM    5  C2  UNL     1      16.564   1.453  12.998  1.00  0.00     0.116 C 
HETATM    6  C8  UNL     1      15.917   2.338  13.985  1.00  0.00     0.047 C 
HETATM    7  C9  UNL     1      16.598   2.300  15.356  1.00  0.00     0.129 C 
HETATM    8  N3  UNL     1      16.242   0.978  15.891  1.00  0.00    -0.332 N 
ENDROOT
BRANCH   5   9
HETATM    9  C3  UNL     1      17.805   1.894  12.343  1.00  0.00     0.297 C 
BRANCH   9  10
HETATM   10  N2  UNL     1      18.212   3.230  12.551  1.00  0.00     0.090 N 
HETATM   11  C4  UNL     1      18.363   3.903  11.229  1.00  0.00     0.272 C 
HETATM   12  C5  UNL     1      19.141   5.149  11.518  1.00  0.00     0.032 C 
HETATM   13  C6  UNL     1      20.165   4.627  12.510  1.00  0.00     0.032 C 
HETATM   14  C7  UNL     1      19.427   3.505  13.227  1.00  0.00     0.272 C 
ENDBRANCH   9  10
ENDBRANCH   5   9
BRANCH   8  15
HETATM   15  C10 UNL     1      15.740   0.753  17.208  1.00  0.00     0.153 C 
BRANCH  15  16
HETATM   16  C11 UNL     1      14.209   0.771  17.179  1.00  0.00     0.184 C 
BRANCH  16  17
HETATM   17  O2  UNL     1      13.729  -0.488  16.917  1.00  0.00    -0.399 OA
ATOM     18  H2  UNL     1      13.056  -0.718  17.548  1.00  0.00     0.209 HD
ENDBRANCH  16  17
ENDBRANCH  15  16
ENDBRANCH   8  15
TORSDOF 5
ENDMDL
MODEL 5
REMARK VINA RESULT: -5.804680113      2.132      2.525
REMARK  5 active torsions:
REMARK  status: ('A' for Active; 'I' for Inactive)
REMARK    1  A    between atoms: C2_5  and  C3_6 
REMARK    2  A    between atoms: C3_6  and  N2_7 
REMARK    3  A    between atoms: N3_14  and  C10_15 
REMARK    4  A    between atoms: C10_15  and  C11_16 
REMARK    5  A    between atoms: C11_16  and  O2_17 
ROOT
HETATM    1  O1  UNL     1      16.273  -1.337  15.316  1.00  0.00    -0.247 OA
HETATM    2  C1  UNL     1      16.465  -0.125  14.957  1.00  0.00     0.318 C 
HETATM    3  N1  UNL     1      16.906   0.119  13.651  1.00  0.00    -0.337 N 
ATOM      4  H1  UNL     1      17.470  -0.571  13.153  1.00  0.00     0.164 HD
HETATM    5  C2  UNL     1      16.534   1.403  13.006  1.00  0.00     0.116 C 
HETATM    6  C8  UNL     1      15.849   2.269  13.984  1.00  0.00     0.047 C 
HETATM    7  C9  UNL     1      16.525   2.269  15.357  1.00  0.00     0.129 C 
HETATM    8  N3  UNL     1      16.222   0.937  15.901  1.00  0.00    -0.332 N 
ENDROOT
BRANCH   5   9
HETATM    9  C3  UNL     1      17.759   1.889  12.351  1.00  0.00     0.297 C 
BRANCH   9  10
HETATM   10  N2  UNL     1      17.745   3.204  11.838  1.00  0.00     0.090 N 
HETATM   11  C4  UNL     1      17.101   3.193  10.493  1.00  0.00     0.272 C 
HETATM   12  C5  UNL     1      17.465   4.511   9.882  1.00  0.00     0.032 C 
HETATM   13  C6  UNL     1      18.916   4.637  10.307  1.00  0.00     0.032 C 
HETATM   14  C7  UNL     1      18.962   3.903  11.641  1.00  0.00     0.272 C 
ENDBRANCH   9  10
ENDBRANCH   5   9
BRANCH   8  15
HETATM   15  C10 UNL     1      15.724   0.703  17.218  1.00  0.00     0.153 C 
BRANCH  15  16
HETATM   16  C11 UNL     1      14.194   0.726  17.196  1.00  0.00     0.184 C 
BRANCH  16  17
HETATM   17  O2  UNL     1      13.710  -0.475  16.740  1.00  0.00    -0.399 OA
ATOM     18  H2  UNL     1      12.822  -0.608  17.051  1.00  0.00     0.209 HD
ENDBRANCH  16  17
ENDBRANCH  15  16
ENDBRANCH   8  15
TORSDOF 5
ENDMDL
