MODEL 1
REMARK VINA RESULT: -7.715598580      0.000      0.000
REMARK  4 active torsions:
REMARK  status: ('A' for Active; 'I' for Inactive)
REMARK    1  A    between atoms: N2_3  and  C2_4 
REMARK    2  A    between atoms: N2_3  and  C9_16 
REMARK    3  A    between atoms: C2_4  and  C3_5 
REMARK    4  A    between atoms: C9_16  and  C10_17 
ROOT
HETATM    1  N1  UNL     1      16.410   2.979  10.858  1.00  0.00    -0.172 NA
HETATM    2  C1  UNL     1      16.806   2.705  11.930  1.00  0.00     0.184 C 
HETATM    3  N2  UNL     1      17.329   2.350  13.241  1.00  0.00    -0.295 N 
ENDROOT
BRANCH   3   4
HETATM    4  C2  UNL     1      16.747   1.145  13.761  1.00  0.00     0.185 C 
BRANCH   4   5
HETATM    5  C3  UNL     1      15.991   1.229  15.021  1.00  0.00     0.044 A 
HETATM    6  C4  UNL     1      16.160   0.147  15.878  1.00  0.00     0.169 A 
HETATM    7  F1  UNL     1      16.771  -0.989  15.493  1.00  0.00    -0.202 F 
HETATM    8  C5  UNL     1      15.641   0.196  17.171  1.00  0.00     0.197 A 
HETATM    9  F2  UNL     1      15.743  -0.883  18.015  1.00  0.00    -0.199 F 
HETATM   10  C6  UNL     1      14.962   1.273  17.630  1.00  0.00     0.199 A 
HETATM   11  F3  UNL     1      14.502   1.339  18.907  1.00  0.00    -0.199 F 
HETATM   12  C7  UNL     1      14.791   2.329  16.778  1.00  0.00     0.197 A 
HETATM   13  F4  UNL     1      14.121   3.394  17.252  1.00  0.00    -0.199 F 
HETATM   14  C8  UNL     1      15.313   2.276  15.497  1.00  0.00     0.169 A 
HETATM   15  F5  UNL     1      15.031   3.322  14.648  1.00  0.00    -0.202 F 
ENDBRANCH   4   5
ENDBRANCH   3   4
BRANCH   3  16
HETATM   16  C9  UNL     1      18.295   3.079  13.923  1.00  0.00     0.083 C 
BRANCH  16  17
HETATM   17  C10 UNL     1      19.215   3.931  13.084  1.00  0.00     0.061 C 
HETATM   18  C11 UNL     1      19.624   5.162  13.866  1.00  0.00     0.136 C 
HETATM   19  N3  UNL     1      20.328   6.067  12.965  1.00  0.00    -0.342 N 
HETATM   20  C12 UNL     1      21.513   5.470  12.378  1.00  0.00     0.316 C 
ATOM     21  H3  UNL     1      20.020   7.019  12.769  1.00  0.00     0.164 HD
HETATM   22  O1  UNL     1      22.457   6.193  11.939  1.00  0.00    -0.247 OA
HETATM   23  N4  UNL     1      21.526   4.073  12.324  1.00  0.00    -0.342 N 
HETATM   24  C13 UNL     1      20.318   3.264  12.355  1.00  0.00     0.136 C 
ATOM     25  H4  UNL     1      22.426   3.598  12.260  1.00  0.00     0.164 HD
ENDBRANCH  16  17
ENDBRANCH   3  16
TORSDOF 4
ENDMDL
MODEL 2
REMARK VINA RESULT: -7.704747101      1.466      1.779
REMARK  4 active torsions:
REMARK  status: ('A' for Active; 'I' for Inactive)
REMARK    1  A    between atoms: N2_3  and  C2_4 
REMARK    2  A    between atoms: N2_3  and  C9_16 
REMARK    3  A    between atoms: C2_4  and  C3_5 
REMARK    4  A    between atoms: C9_16  and  C10_17 
ROOT
HETATM    1  N1  UNL     1      16.470   3.314  10.863  1.00  0.00    -0.172 NA
HETATM    2  C1  UNL     1      16.852   2.908  11.897  1.00  0.00     0.184 C 
HETATM    3  N2  UNL     1      17.356   2.387  13.159  1.00  0.00    -0.295 N 
ENDROOT
BRANCH   3   4
HETATM    4  C2  UNL     1      16.652   1.213  13.594  1.00  0.00     0.185 C 
BRANCH   4   5
HETATM    5  C3  UNL     1      15.937   1.270  14.878  1.00  0.00     0.044 A 
HETATM    6  C4  UNL     1      16.130   0.168  15.705  1.00  0.00     0.169 A 
HETATM    7  F1  UNL     1      16.725  -0.961  15.274  1.00  0.00    -0.202 F 
HETATM    8  C5  UNL     1      15.654   0.189  17.015  1.00  0.00     0.197 A 
HETATM    9  F2  UNL     1      15.779  -0.909  17.830  1.00  0.00    -0.199 F 
HETATM   10  C6  UNL     1      14.993   1.257  17.520  1.00  0.00     0.199 A 
HETATM   11  F3  UNL     1      14.576   1.295  18.813  1.00  0.00    -0.199 F 
HETATM   12  C7  UNL     1      14.798   2.333  16.698  1.00  0.00     0.197 A 
HETATM   13  F4  UNL     1      14.147   3.388  17.218  1.00  0.00    -0.199 F 
HETATM   14  C8  UNL     1      15.278   2.308  15.400  1.00  0.00     0.169 A 
HETATM   15  F5  UNL     1      14.972   3.374  14.585  1.00  0.00    -0.202 F 
ENDBRANCH   4   5
ENDBRANCH   3   4
BRANCH   3  16
HETATM   16  C9  UNL     1      18.410   2.943  13.873  1.00  0.00     0.083 C 
BRANCH  16  17
HETATM   17  C10 UNL     1      18.511   4.449  13.864  1.00  0.00     0.061 C 
HETATM   18  C11 UNL     1      17.823   5.013  15.090  1.00  0.00     0.136 C 
HETATM   19  N3  UNL     1      17.745   6.462  14.947  1.00  0.00    -0.342 N 
HETATM   20  C12 UNL     1      19.046   7.087  14.811  1.00  0.00     0.316 C 
ATOM     21  H3  UNL     1      16.867   6.981  14.944  1.00  0.00     0.164 HD
HETATM   22  O1  UNL     1      19.216   8.308  15.104  1.00  0.00    -0.247 OA
HETATM   23  N4  UNL     1      20.069   6.262  14.330  1.00  0.00    -0.342 N 
HETATM   24  C13 UNL     1      19.821   5.061  13.549  1.00  0.00     0.136 C 
ATOM     25  H4  UNL     1      21.035   6.515  14.538  1.00  0.00     0.164 HD
ENDBRANCH  16  17
ENDBRANCH   3  16
TORSDOF 4
ENDMDL
MODEL 3
REMARK VINA RESULT: -7.656298900      1.527      2.800
REMARK  4 active torsions:
REMARK  status: ('A' for Active; 'I' for Inactive)
REMARK    1  A    between atoms: N2_3  and  C2_4 
REMARK    2  A    between atoms: N2_3  and  C9_16 
REMARK    3  A    between atoms: C2_4  and  C3_5 
REMARK    4  A    between atoms: C9_16  and  C10_17 
ROOT
HETATM    1  N1  UNL     1      15.736   5.458  11.871  1.00  0.00    -0.172 NA
HETATM    2  C1  UNL     1      15.838   5.046  12.966  1.00  0.00     0.184 C 
HETATM    3  N2  UNL     1      15.995   4.510  14.310  1.00  0.00    -0.295 N 
ENDROOT
BRANCH   3   4
HETATM    4  C2  UNL     1      14.968   3.565  14.651  1.00  0.00     0.185 C 
BRANCH   4   5
HETATM    5  C3  UNL     1      15.342   2.402  15.471  1.00  0.00     0.044 A 
HETATM    6  C4  UNL     1      14.823   2.404  16.762  1.00  0.00     0.169 A 
HETATM    7  F1  UNL     1      14.227   3.487  17.297  1.00  0.00    -0.202 F 
HETATM    8  C5  UNL     1      14.958   1.275  17.568  1.00  0.00     0.197 A 
HETATM    9  F2  UNL     1      14.507   1.275  18.865  1.00  0.00    -0.199 F 
HETATM   10  C6  UNL     1      15.592   0.159  17.138  1.00  0.00     0.199 A 
HETATM   11  F3  UNL     1      15.677  -0.958  17.907  1.00  0.00    -0.199 F 
HETATM   12  C7  UNL     1      16.109   0.168  15.871  1.00  0.00     0.197 A 
HETATM   13  F4  UNL     1      16.728  -0.951  15.456  1.00  0.00    -0.199 F 
HETATM   14  C8  UNL     1      15.967   1.291  15.074  1.00  0.00     0.169 A 
HETATM   15  F5  UNL     1      16.588   1.285  13.845  1.00  0.00    -0.202 F 
ENDBRANCH   4   5
ENDBRANCH   3   4
BRANCH   3  16
HETATM   16  C9  UNL     1      17.025   4.852  15.176  1.00  0.00     0.083 C 
BRANCH  16  17
HETATM   17  C10 UNL     1      18.420   4.842  14.603  1.00  0.00     0.061 C 
HETATM   18  C11 UNL     1      18.735   3.467  14.051  1.00  0.00     0.136 C 
HETATM   19  N3  UNL     1      20.151   3.423  13.704  1.00  0.00    -0.342 N 
HETATM   20  C12 UNL     1      20.522   4.420  12.718  1.00  0.00     0.316 C 
ATOM     21  H3  UNL     1      20.811   2.761  14.113  1.00  0.00     0.164 HD
HETATM   22  O1  UNL     1      21.551   4.268  11.994  1.00  0.00    -0.247 OA
HETATM   23  N4  UNL     1      19.685   5.538  12.640  1.00  0.00    -0.342 N 
HETATM   24  C13 UNL     1      18.828   5.968  13.733  1.00  0.00     0.136 C 
ATOM     25  H4  UNL     1      19.674   6.077  11.774  1.00  0.00     0.164 HD
ENDBRANCH  16  17
ENDBRANCH   3  16
TORSDOF 4
ENDMDL
MODEL 4
REMARK VINA RESULT: -7.652091253      1.986      2.505
REMARK  4 active torsions:
REMARK  status: ('A' for Active; 'I' for Inactive)
REMARK    1  A    between atoms: N2_3  and  C2_4 
REMARK    2  A    between atoms: N2_3  and  C9_16 
REMARK    3  A    between atoms: C2_4  and  C3_5 
REMARK    4  A    between atoms: C9_16  and  C10_17 
ROOT
HETATM    1  N1  UNL     1      16.806  -1.564  11.863  1.00  0.00    -0.172 NA
HETATM    2  C1  UNL     1      16.798  -0.429  12.164  1.00  0.00     0.184 C 
HETATM    3  N2  UNL     1      16.824   0.983  12.518  1.00  0.00    -0.295 N 
ENDROOT
BRANCH   3   4
HETATM    4  C2  UNL     1      17.292   1.210  13.857  1.00  0.00     0.185 C 
BRANCH   4   5
HETATM    5  C3  UNL     1      16.308   1.175  14.949  1.00  0.00     0.044 A 
HETATM    6  C4  UNL     1      16.318   0.010  15.710  1.00  0.00     0.169 A 
HETATM    7  F1  UNL     1      17.002  -1.088  15.335  1.00  0.00    -0.202 F 
HETATM    8  C5  UNL     1      15.561  -0.066  16.877  1.00  0.00     0.197 A 
HETATM    9  F2  UNL     1      15.508  -1.226  17.611  1.00  0.00    -0.199 F 
HETATM   10  C6  UNL     1      14.797   0.967  17.304  1.00  0.00     0.199 A 
HETATM   11  F3  UNL     1      14.101   0.908  18.469  1.00  0.00    -0.199 F 
HETATM   12  C7  UNL     1      14.784   2.105  16.546  1.00  0.00     0.197 A 
HETATM   13  F4  UNL     1      14.026   3.124  16.988  1.00  0.00    -0.199 F 
HETATM   14  C8  UNL     1      15.542   2.176  15.390  1.00  0.00     0.169 A 
HETATM   15  F5  UNL     1      15.420   3.306  14.613  1.00  0.00    -0.202 F 
ENDBRANCH   4   5
ENDBRANCH   3   4
BRANCH   3  16
HETATM   16  C9  UNL     1      16.452   2.013  11.663  1.00  0.00     0.083 C 
BRANCH  16  17
HETATM   17  C10 UNL     1      17.415   3.167  11.539  1.00  0.00     0.061 C 
HETATM   18  C11 UNL     1      17.965   3.223  10.128  1.00  0.00     0.136 C 
HETATM   19  N3  UNL     1      19.045   4.201  10.094  1.00  0.00    -0.342 N 
HETATM   20  C12 UNL     1      18.616   5.531  10.482  1.00  0.00     0.316 C 
ATOM     21  H3  UNL     1      20.003   3.974   9.826  1.00  0.00     0.164 HD
HETATM   22  O1  UNL     1      19.262   6.558  10.113  1.00  0.00    -0.247 OA
HETATM   23  N4  UNL     1      17.472   5.590  11.285  1.00  0.00    -0.342 N 
HETATM   24  C13 UNL     1      17.015   4.477  12.101  1.00  0.00     0.136 C 
ATOM     25  H4  UNL     1      16.931   6.454  11.297  1.00  0.00     0.164 HD
ENDBRANCH  16  17
ENDBRANCH   3  16
TORSDOF 4
ENDMDL
MODEL 5
REMARK VINA RESULT: -7.635111909      1.033      1.502
REMARK  4 active torsions:
REMARK  status: ('A' for Active; 'I' for Inactive)
REMARK    1  A    between atoms: N2_3  and  C2_4 
REMARK    2  A    between atoms: N2_3  and  C9_16 
REMARK    3  A    between atoms: C2_4  and  C3_5 
REMARK    4  A    between atoms: C9_16  and  C10_17 
ROOT
HETATM    1  N1  UNL     1      16.044  -0.182  11.408  1.00  0.00    -0.172 NA
HETATM    2  C1  UNL     1      16.475   0.728  12.012  1.00  0.00     0.184 C 
HETATM    3  N2  UNL     1      17.044   1.851  12.742  1.00  0.00    -0.295 N 
ENDROOT
BRANCH   3   4
HETATM    4  C2  UNL     1      17.426   1.503  14.083  1.00  0.00     0.185 C 
BRANCH   4   5
HETATM    5  C3  UNL     1      16.367   1.393  15.097  1.00  0.00     0.044 A 
HETATM    6  C4  UNL     1      16.306   0.164  15.748  1.00  0.00     0.169 A 
HETATM    7  F1  UNL     1      16.998  -0.910  15.325  1.00  0.00    -0.202 F 
HETATM    8  C5  UNL     1      15.467   0.001  16.849  1.00  0.00     0.197 A 
HETATM    9  F2  UNL     1      15.345  -1.218  17.470  1.00  0.00    -0.199 F 
HETATM   10  C6  UNL     1      14.690   1.007  17.314  1.00  0.00     0.199 A 
HETATM   11  F3  UNL     1      13.912   0.860  18.418  1.00  0.00    -0.199 F 
HETATM   12  C7  UNL     1      14.747   2.209  16.662  1.00  0.00     0.197 A 
HETATM   13  F4  UNL     1      13.976   3.200  17.141  1.00  0.00    -0.199 F 
HETATM   14  C8  UNL     1      15.586   2.366  15.573  1.00  0.00     0.169 A 
HETATM   15  F5  UNL     1      15.536   3.563  14.894  1.00  0.00    -0.202 F 
ENDBRANCH   4   5
ENDBRANCH   3   4
BRANCH   3  16
HETATM   16  C9  UNL     1      17.219   3.124  12.213  1.00  0.00     0.083 C 
BRANCH  16  17
HETATM   17  C10 UNL     1      18.476   3.855  12.615  1.00  0.00     0.061 C 
HETATM   18  C11 UNL     1      19.661   3.281  11.867  1.00  0.00     0.136 C 
HETATM   19  N3  UNL     1      20.880   3.851  12.429  1.00  0.00    -0.342 N 
HETATM   20  C12 UNL     1      20.922   5.297  12.336  1.00  0.00     0.316 C 
ATOM     21  H3  UNL     1      21.624   3.291  12.844  1.00  0.00     0.164 HD
HETATM   22  O1  UNL     1      22.026   5.920  12.361  1.00  0.00    -0.247 OA
HETATM   23  N4  UNL     1      19.682   5.936  12.230  1.00  0.00    -0.342 N 
HETATM   24  C13 UNL     1      18.437   5.334  12.677  1.00  0.00     0.136 C 
ATOM     25  H4  UNL     1      19.650   6.869  11.820  1.00  0.00     0.164 HD
ENDBRANCH  16  17
ENDBRANCH   3  16
TORSDOF 4
ENDMDL
