MODEL 1
REMARK VINA RESULT: -6.346425394      0.000      0.000
REMARK  6 active torsions:
REMARK  status: ('A' for Active; 'I' for Inactive)
REMARK    1  A    between atoms: N1_2  and  C2_4 
REMARK    2  A    between atoms: C3_7  and  N3_8 
REMARK    3  A    between atoms: N3_8  and  C4_10 
REMARK    4  A    between atoms: C4_10  and  C5_11 
REMARK    5  A    between atoms: C5_11  and  C6_12 
REMARK    6  A    between atoms: C6_12  and  O1_13 
ROOT
HETATM    1  C2  UNL     1      15.279   3.387  15.113  1.00  0.00     0.124 A 
HETATM    2  N2  UNL     1      16.031   2.933  14.098  1.00  0.00    -0.176 N 
ATOM      3  H2  UNL     1      16.219   3.536  13.298  1.00  0.00     0.186 HD
HETATM    4  C3  UNL     1      16.546   1.666  14.130  1.00  0.00     0.679 A 
HETATM    5  N4  UNL     1      16.285   0.886  15.193  1.00  0.00    -0.195 N 
ATOM      6  H4  UNL     1      16.672  -0.057  15.210  1.00  0.00     0.184 HD
HETATM    7  C8  UNL     1      15.535   1.293  16.244  1.00  0.00     0.036 A 
HETATM    8  C9  UNL     1      15.026   2.569  16.194  1.00  0.00     0.009 A 
HETATM    9  C10 UNL     1      14.246   2.790  17.428  1.00  0.00     0.045 C 
HETATM   10  C11 UNL     1      14.919   1.864  18.416  1.00  0.00     0.011 C 
HETATM   11  C12 UNL     1      15.113   0.629  17.522  1.00  0.00     0.058 C 
ENDROOT
BRANCH   4  12
HETATM   12  N3  UNL     1      17.259   1.257  13.150  1.00  0.00    -0.226 N 
ATOM     13  H3  UNL     1      18.198   1.638  13.040  1.00  0.00     0.177 HD
BRANCH  12  14
HETATM   14  C4  UNL     1      16.805   0.293  12.204  1.00  0.00     0.140 C 
BRANCH  14  15
HETATM   15  C5  UNL     1      16.034   0.923  11.041  1.00  0.00     0.046 C 
BRANCH  15  16
HETATM   16  C6  UNL     1      16.738   2.210  10.704  1.00  0.00     0.168 C 
BRANCH  16  17
HETATM   17  O1  UNL     1      16.014   3.313  11.057  1.00  0.00    -0.396 OA
HETATM   18  C7  UNL     1      16.734   4.470  10.964  1.00  0.00     0.201 C 
ENDBRANCH  16  17
ENDBRANCH  15  16
ENDBRANCH  14  15
ENDBRANCH  12  14
ENDBRANCH   4  12
BRANCH   1  19
HETATM   19  N1  UNL     1      14.779   4.576  15.112  1.00  0.00    -0.380 N 
HETATM   20  C1  UNL     1      15.487   5.617  14.405  1.00  0.00     0.147 C 
ATOM     21  H1  UNL     1      13.906   4.776  15.599  1.00  0.00     0.160 HD
ENDBRANCH   1  19
TORSDOF 6
ENDMDL
MODEL 2
REMARK VINA RESULT: -6.227393582      1.658      2.451
REMARK  6 active torsions:
REMARK  status: ('A' for Active; 'I' for Inactive)
REMARK    1  A    between atoms: N1_2  and  C2_4 
REMARK    2  A    between atoms: C3_7  and  N3_8 
REMARK    3  A    between atoms: N3_8  and  C4_10 
REMARK    4  A    between atoms: C4_10  and  C5_11 
REMARK    5  A    between atoms: C5_11  and  C6_12 
REMARK    6  A    between atoms: C6_12  and  O1_13 
ROOT
HETATM    1  C2  UNL     1      15.290   3.298  15.042  1.00  0.00     0.124 A 
HETATM    2  N2  UNL     1      15.977   2.761  14.022  1.00  0.00    -0.176 N 
ATOM      3  H2  UNL     1      16.155   3.316  13.185  1.00  0.00     0.186 HD
HETATM    4  C3  UNL     1      16.439   1.476  14.096  1.00  0.00     0.679 A 
HETATM    5  N4  UNL     1      16.192   0.762  15.208  1.00  0.00    -0.195 N 
ATOM      6  H4  UNL     1      16.539  -0.196  15.256  1.00  0.00     0.184 HD
HETATM    7  C8  UNL     1      15.506   1.252  16.266  1.00  0.00     0.036 A 
HETATM    8  C9  UNL     1      15.049   2.546  16.173  1.00  0.00     0.009 A 
HETATM    9  C10 UNL     1      14.335   2.861  17.425  1.00  0.00     0.045 C 
HETATM   10  C11 UNL     1      15.010   1.955  18.431  1.00  0.00     0.011 C 
HETATM   11  C12 UNL     1      15.113   0.670  17.593  1.00  0.00     0.058 C 
ENDROOT
BRANCH   4  12
HETATM   12  N3  UNL     1      17.090   0.988  13.109  1.00  0.00    -0.226 N 
ATOM     13  H3  UNL     1      17.899   0.399  13.306  1.00  0.00     0.177 HD
BRANCH  12  14
HETATM   14  C4  UNL     1      16.740   1.226  11.749  1.00  0.00     0.140 C 
BRANCH  14  15
HETATM   15  C5  UNL     1      16.349  -0.054  11.006  1.00  0.00     0.046 C 
BRANCH  15  16
HETATM   16  C6  UNL     1      16.709  -1.204  11.908  1.00  0.00     0.168 C 
BRANCH  16  17
HETATM   17  O1  UNL     1      17.997  -1.627  11.731  1.00  0.00    -0.396 OA
HETATM   18  C7  UNL     1      18.083  -2.968  11.484  1.00  0.00     0.201 C 
ENDBRANCH  16  17
ENDBRANCH  15  16
ENDBRANCH  14  15
ENDBRANCH  12  14
ENDBRANCH   4  12
BRANCH   1  19
HETATM   19  N1  UNL     1      14.841   4.506  15.002  1.00  0.00    -0.380 N 
HETATM   20  C1  UNL     1      15.794   5.590  14.960  1.00  0.00     0.147 C 
ATOM     21  H1  UNL     1      13.838   4.691  15.000  1.00  0.00     0.160 HD
ENDBRANCH   1  19
TORSDOF 6
ENDMDL
MODEL 3
REMARK VINA RESULT: -6.002581054      2.089      3.768
REMARK  6 active torsions:
REMARK  status: ('A' for Active; 'I' for Inactive)
REMARK    1  A    between atoms: N1_2  and  C2_4 
REMARK    2  A    between atoms: C3_7  and  N3_8 
REMARK    3  A    between atoms: N3_8  and  C4_10 
REMARK    4  A    between atoms: C4_10  and  C5_11 
REMARK    5  A    between atoms: C5_11  and  C6_12 
REMARK    6  A    between atoms: C6_12  and  O1_13 
ROOT
HETATM    1  C2  UNL     1      16.464   1.435  14.640  1.00  0.00     0.124 A 
HETATM    2  N2  UNL     1      16.723   2.497  13.863  1.00  0.00    -0.176 N 
ATOM      3  H2  UNL     1      17.312   2.387  13.036  1.00  0.00     0.186 HD
HETATM    4  C3  UNL     1      16.206   3.724  14.170  1.00  0.00     0.679 A 
HETATM    5  N4  UNL     1      15.434   3.848  15.264  1.00  0.00    -0.195 N 
ATOM      6  H4  UNL     1      15.053   4.767  15.487  1.00  0.00     0.184 HD
HETATM    7  C8  UNL     1      15.139   2.812  16.083  1.00  0.00     0.036 A 
HETATM    8  C9  UNL     1      15.668   1.585  15.758  1.00  0.00     0.009 A 
HETATM    9  C10 UNL     1      15.223   0.618  16.780  1.00  0.00     0.045 C 
HETATM   10  C11 UNL     1      13.914   1.212  17.251  1.00  0.00     0.011 C 
HETATM   11  C12 UNL     1      14.316   2.693  17.333  1.00  0.00     0.058 C 
ENDROOT
BRANCH   4  12
HETATM   12  N3  UNL     1      16.470   4.722  13.412  1.00  0.00    -0.226 N 
ATOM     13  H3  UNL     1      16.166   4.685  12.440  1.00  0.00     0.177 HD
BRANCH  12  14
HETATM   14  C4  UNL     1      17.166   5.880  13.862  1.00  0.00     0.140 C 
BRANCH  14  15
HETATM   15  C5  UNL     1      18.551   6.022  13.225  1.00  0.00     0.046 C 
BRANCH  15  16
HETATM   16  C6  UNL     1      19.485   5.157  14.027  1.00  0.00     0.168 C 
BRANCH  16  17
HETATM   17  O1  UNL     1      19.565   3.882  13.543  1.00  0.00    -0.396 OA
HETATM   18  C7  UNL     1      19.861   3.840  12.210  1.00  0.00     0.201 C 
ENDBRANCH  16  17
ENDBRANCH  15  16
ENDBRANCH  14  15
ENDBRANCH  12  14
ENDBRANCH   4  12
BRANCH   1  19
HETATM   19  N1  UNL     1      16.937   0.264  14.377  1.00  0.00    -0.380 N 
HETATM   20  C1  UNL     1      16.956  -0.175  13.002  1.00  0.00     0.147 C 
ATOM     21  H1  UNL     1      17.289  -0.337  15.123  1.00  0.00     0.160 HD
ENDBRANCH   1  19
TORSDOF 6
ENDMDL
MODEL 4
REMARK VINA RESULT: -5.962836242      1.106      3.080
REMARK  6 active torsions:
REMARK  status: ('A' for Active; 'I' for Inactive)
REMARK    1  A    between atoms: N1_2  and  C2_4 
REMARK    2  A    between atoms: C3_7  and  N3_8 
REMARK    3  A    between atoms: N3_8  and  C4_10 
REMARK    4  A    between atoms: C4_10  and  C5_11 
REMARK    5  A    between atoms: C5_11  and  C6_12 
REMARK    6  A    between atoms: C6_12  and  O1_13 
ROOT
HETATM    1  C2  UNL     1      16.492   1.327  14.864  1.00  0.00     0.124 A 
HETATM    2  N2  UNL     1      16.844   2.371  14.097  1.00  0.00    -0.176 N 
ATOM      3  H2  UNL     1      17.474   2.229  13.308  1.00  0.00     0.186 HD
HETATM    4  C3  UNL     1      16.364   3.623  14.367  1.00  0.00     0.679 A 
HETATM    5  N4  UNL     1      15.535   3.789  15.413  1.00  0.00    -0.195 N 
ATOM      6  H4  UNL     1      15.182   4.726  15.608  1.00  0.00     0.184 HD
HETATM    7  C8  UNL     1      15.147   2.773  16.218  1.00  0.00     0.036 A 
HETATM    8  C9  UNL     1      15.639   1.521  15.932  1.00  0.00     0.009 A 
HETATM    9  C10 UNL     1      15.092   0.583  16.931  1.00  0.00     0.045 C 
HETATM   10  C11 UNL     1      13.785   1.238  17.320  1.00  0.00     0.011 C 
HETATM   11  C12 UNL     1      14.247   2.700  17.418  1.00  0.00     0.058 C 
ENDROOT
BRANCH   4  12
HETATM   12  N3  UNL     1      16.716   4.601  13.621  1.00  0.00    -0.226 N 
ATOM     13  H3  UNL     1      16.159   5.455  13.647  1.00  0.00     0.177 HD
BRANCH  12  14
HETATM   14  C4  UNL     1      17.847   4.556  12.757  1.00  0.00     0.140 C 
BRANCH  14  15
HETATM   15  C5  UNL     1      17.522   5.012  11.332  1.00  0.00     0.046 C 
BRANCH  15  16
HETATM   16  C6  UNL     1      17.170   3.774  10.553  1.00  0.00     0.168 C 
BRANCH  16  17
HETATM   17  O1  UNL     1      16.054   3.149  11.036  1.00  0.00    -0.396 OA
HETATM   18  C7  UNL     1      16.085   1.796  10.852  1.00  0.00     0.201 C 
ENDBRANCH  16  17
ENDBRANCH  15  16
ENDBRANCH  14  15
ENDBRANCH  12  14
ENDBRANCH   4  12
BRANCH   1  19
HETATM   19  N1  UNL     1      16.927   0.135  14.636  1.00  0.00    -0.380 N 
HETATM   20  C1  UNL     1      16.972  -0.329  13.269  1.00  0.00     0.147 C 
ATOM     21  H1  UNL     1      17.233  -0.465  15.402  1.00  0.00     0.160 HD
ENDBRANCH   1  19
TORSDOF 6
ENDMDL
MODEL 5
REMARK VINA RESULT: -5.947293269      1.592      3.560
REMARK  6 active torsions:
REMARK  status: ('A' for Active; 'I' for Inactive)
REMARK    1  A    between atoms: N1_2  and  C2_4 
REMARK    2  A    between atoms: C3_7  and  N3_8 
REMARK    3  A    between atoms: N3_8  and  C4_10 
REMARK    4  A    between atoms: C4_10  and  C5_11 
REMARK    5  A    between atoms: C5_11  and  C6_12 
REMARK    6  A    between atoms: C6_12  and  O1_13 
ROOT
HETATM    1  C2  UNL     1      16.476   1.437  14.537  1.00  0.00     0.124 A 
HETATM    2  N2  UNL     1      16.766   2.435  13.689  1.00  0.00    -0.176 N 
ATOM      3  H2  UNL     1      17.367   2.257  12.884  1.00  0.00     0.186 HD
HETATM    4  C3  UNL     1      16.262   3.689  13.896  1.00  0.00     0.679 A 
HETATM    5  N4  UNL     1      15.473   3.904  14.963  1.00  0.00    -0.195 N 
ATOM      6  H4  UNL     1      15.102   4.842  15.112  1.00  0.00     0.184 HD
HETATM    7  C8  UNL     1      15.148   2.935  15.850  1.00  0.00     0.036 A 
HETATM    8  C9  UNL     1      15.664   1.680  15.626  1.00  0.00     0.009 A 
HETATM    9  C10 UNL     1      15.186   0.797  16.708  1.00  0.00     0.045 C 
HETATM   10  C11 UNL     1      13.878   1.442  17.110  1.00  0.00     0.011 C 
HETATM   11  C12 UNL     1      14.302   2.920  17.090  1.00  0.00     0.058 C 
ENDROOT
BRANCH   4  12
HETATM   12  N3  UNL     1      16.554   4.625  13.073  1.00  0.00    -0.226 N 
ATOM     13  H3  UNL     1      17.045   4.379  12.213  1.00  0.00     0.177 HD
BRANCH  12  14
HETATM   14  C4  UNL     1      16.227   5.993  13.298  1.00  0.00     0.140 C 
BRANCH  14  15
HETATM   15  C5  UNL     1      16.386   6.853  12.041  1.00  0.00     0.046 C 
BRANCH  15  16
HETATM   16  C6  UNL     1      16.529   5.903  10.883  1.00  0.00     0.168 C 
BRANCH  16  17
HETATM   17  O1  UNL     1      15.336   5.632  10.275  1.00  0.00    -0.396 OA
HETATM   18  C7  UNL     1      14.679   6.760   9.873  1.00  0.00     0.201 C 
ENDBRANCH  16  17
ENDBRANCH  15  16
ENDBRANCH  14  15
ENDBRANCH  12  14
ENDBRANCH   4  12
BRANCH   1  19
HETATM   19  N1  UNL     1      16.936   0.244  14.369  1.00  0.00    -0.380 N 
HETATM   20  C1  UNL     1      17.003  -0.283  13.027  1.00  0.00     0.147 C 
ATOM     21  H1  UNL     1      17.245  -0.314  15.165  1.00  0.00     0.160 HD
ENDBRANCH   1  19
TORSDOF 6
ENDMDL
