MODEL 1
REMARK VINA RESULT: -7.642435502      0.000      0.000
REMARK  8 active torsions:
REMARK  status: ('A' for Active; 'I' for Inactive)
REMARK    1  A    between atoms: N1_4  and  C3_5 
REMARK    2  A    between atoms: N1_4  and  C11_20 
REMARK    3  A    between atoms: C3_5  and  C4_6 
REMARK    4  A    between atoms: C4_6  and  O2_7 
REMARK    5  A    between atoms: C4_6  and  C5_9 
REMARK    6  A    between atoms: C11_20  and  C12_21 
REMARK    7  A    between atoms: C12_21  and  O3_22 
REMARK    8  A    between atoms: C12_21  and  C13_24 
ROOT
HETATM    1  C3  UNL     1      16.657   4.957  14.163  1.00  0.00     0.313 C 
ENDROOT
BRANCH   1   2
HETATM    2  N1  UNL     1      17.336   5.045  12.850  1.00  0.00     0.080 N 
HETATM    3  O1  UNL     1      16.380   5.080  11.856  1.00  0.00    -0.159 OA
HETATM    4  C2  UNL     1      16.303   6.455  11.918  1.00  0.00     0.122 C 
HETATM    5  C1  UNL     1      15.430   7.354  11.560  1.00  0.00     0.052 C 
HETATM    6  C14 UNL     1      17.632   6.425  12.560  1.00  0.00     0.377 C 
HETATM    7 CL1  UNL     1      17.655   7.505  13.980  1.00  0.00    -0.084 Cl
BRANCH   2   8
HETATM    8  C11 UNL     1      18.344   4.071  12.611  1.00  0.00     0.317 C 
BRANCH   8   9
HETATM    9  C12 UNL     1      19.751   4.547  12.887  1.00  0.00     0.254 C 
BRANCH   9  10
HETATM   10  O3  UNL     1      20.176   3.932  14.050  1.00  0.00    -0.385 OA
ATOM     11  H3  UNL     1      21.018   3.530  13.868  1.00  0.00     0.210 HD
ENDBRANCH   9  10
BRANCH   9  12
HETATM   12  C13 UNL     1      20.646   4.074  11.759  1.00  0.00     0.414 C 
HETATM   13  F6  UNL     1      19.959   4.129  10.576  1.00  0.00    -0.168 F 
HETATM   14  F7  UNL     1      21.778   4.851  11.649  1.00  0.00    -0.168 F 
HETATM   15  F8  UNL     1      20.963   2.753  12.011  1.00  0.00    -0.168 F 
ENDBRANCH   9  12
ENDBRANCH   8   9
ENDBRANCH   2   8
ENDBRANCH   1   2
BRANCH   1  16
HETATM   16  C4  UNL     1      15.525   3.985  14.098  1.00  0.00     0.186 C 
BRANCH  16  17
HETATM   17  O2  UNL     1      14.342   4.763  14.210  1.00  0.00    -0.389 OA
ATOM     18  H2  UNL     1      14.132   5.040  13.326  1.00  0.00     0.210 HD
ENDBRANCH  16  17
BRANCH  16  19
HETATM   19  C5  UNL     1      15.444   2.973  15.151  1.00  0.00     0.056 A 
HETATM   20  C6  UNL     1      16.083   1.756  14.825  1.00  0.00     0.170 A 
HETATM   21  F1  UNL     1      16.706   1.570  13.636  1.00  0.00    -0.202 F 
HETATM   22  C7  UNL     1      16.055   0.755  15.756  1.00  0.00     0.197 A 
HETATM   23  F2  UNL     1      16.645  -0.460  15.531  1.00  0.00    -0.199 F 
HETATM   24  C8  UNL     1      15.417   0.939  16.980  1.00  0.00     0.199 A 
HETATM   25  F3  UNL     1      15.411  -0.071  17.869  1.00  0.00    -0.199 F 
HETATM   26  C9  UNL     1      14.805   2.130  17.270  1.00  0.00     0.197 A 
HETATM   27  F4  UNL     1      14.177   2.341  18.449  1.00  0.00    -0.199 F 
HETATM   28  C10 UNL     1      14.819   3.152  16.348  1.00  0.00     0.170 A 
HETATM   29  F5  UNL     1      14.200   4.348  16.656  1.00  0.00    -0.202 F 
ENDBRANCH  16  19
ENDBRANCH   1  16
TORSDOF 8
ENDMDL
MODEL 2
REMARK VINA RESULT: -7.638952068      2.869      6.427
REMARK  8 active torsions:
REMARK  status: ('A' for Active; 'I' for Inactive)
REMARK    1  A    between atoms: N1_4  and  C3_5 
REMARK    2  A    between atoms: N1_4  and  C11_20 
REMARK    3  A    between atoms: C3_5  and  C4_6 
REMARK    4  A    between atoms: C4_6  and  O2_7 
REMARK    5  A    between atoms: C4_6  and  C5_9 
REMARK    6  A    between atoms: C11_20  and  C12_21 
REMARK    7  A    between atoms: C12_21  and  O3_22 
REMARK    8  A    between atoms: C12_21  and  C13_24 
ROOT
HETATM    1  C3  UNL     1      17.408   4.433  14.594  1.00  0.00     0.313 C 
ENDROOT
BRANCH   1   2
HETATM    2  N1  UNL     1      16.787   3.168  14.136  1.00  0.00     0.080 N 
HETATM    3  O1  UNL     1      17.170   2.151  14.986  1.00  0.00    -0.159 OA
HETATM    4  C2  UNL     1      16.099   2.386  15.822  1.00  0.00     0.122 C 
HETATM    5  C1  UNL     1      15.812   2.113  17.063  1.00  0.00     0.052 C 
HETATM    6  C14 UNL     1      15.456   3.069  14.681  1.00  0.00     0.377 C 
HETATM    7 CL1  UNL     1      14.743   4.616  15.212  1.00  0.00    -0.084 Cl
BRANCH   2   8
HETATM    8  C11 UNL     1      16.984   2.845  12.766  1.00  0.00     0.317 C 
BRANCH   8   9
HETATM    9  C12 UNL     1      16.011   1.827  12.218  1.00  0.00     0.254 C 
BRANCH   9  10
HETATM   10  O3  UNL     1      15.723   2.188  10.915  1.00  0.00    -0.385 OA
ATOM     11  H3  UNL     1      15.658   1.389  10.406  1.00  0.00     0.210 HD
ENDBRANCH   9  10
BRANCH   9  12
HETATM   12  C13 UNL     1      16.701   0.478  12.183  1.00  0.00     0.414 C 
HETATM   13  F6  UNL     1      16.335  -0.252  13.282  1.00  0.00    -0.168 F 
HETATM   14  F7  UNL     1      16.367  -0.233  11.051  1.00  0.00    -0.168 F 
HETATM   15  F8  UNL     1      18.061   0.709  12.252  1.00  0.00    -0.168 F 
ENDBRANCH   9  12
ENDBRANCH   8   9
ENDBRANCH   2   8
ENDBRANCH   1   2
BRANCH   1  16
HETATM   16  C4  UNL     1      18.767   4.590  13.994  1.00  0.00     0.186 C 
BRANCH  16  17
HETATM   17  O2  UNL     1      19.669   4.016  14.928  1.00  0.00    -0.389 OA
ATOM     18  H2  UNL     1      20.525   4.061  14.520  1.00  0.00     0.210 HD
ENDBRANCH  16  17
BRANCH  16  19
HETATM   19  C5  UNL     1      19.246   5.951  13.755  1.00  0.00     0.056 A 
HETATM   20  C6  UNL     1      20.317   6.027  12.837  1.00  0.00     0.170 A 
HETATM   21  F1  UNL     1      20.836   4.923  12.247  1.00  0.00    -0.202 F 
HETATM   22  C7  UNL     1      20.825   7.265  12.556  1.00  0.00     0.197 A 
HETATM   23  F2  UNL     1      21.864   7.440  11.681  1.00  0.00    -0.199 F 
HETATM   24  C8  UNL     1      20.298   8.405  13.158  1.00  0.00     0.199 A 
HETATM   25  F3  UNL     1      20.826   9.605  12.855  1.00  0.00    -0.199 F 
HETATM   26  C9  UNL     1      19.258   8.302  14.045  1.00  0.00     0.197 A 
HETATM   27  F4  UNL     1      18.723   9.388  14.646  1.00  0.00    -0.199 F 
HETATM   28  C10 UNL     1      18.731   7.066  14.344  1.00  0.00     0.170 A 
HETATM   29  F5  UNL     1      17.681   6.978  15.238  1.00  0.00    -0.202 F 
ENDBRANCH  16  19
ENDBRANCH   1  16
TORSDOF 8
ENDMDL
MODEL 3
REMARK VINA RESULT: -7.569668926      2.409      3.505
REMARK  8 active torsions:
REMARK  status: ('A' for Active; 'I' for Inactive)
REMARK    1  A    between atoms: N1_4  and  C3_5 
REMARK    2  A    between atoms: N1_4  and  C11_20 
REMARK    3  A    between atoms: C3_5  and  C4_6 
REMARK    4  A    between atoms: C4_6  and  O2_7 
REMARK    5  A    between atoms: C4_6  and  C5_9 
REMARK    6  A    between atoms: C11_20  and  C12_21 
REMARK    7  A    between atoms: C12_21  and  O3_22 
REMARK    8  A    between atoms: C12_21  and  C13_24 
ROOT
HETATM    1  C3  UNL     1      16.561   5.455  14.585  1.00  0.00     0.313 C 
ENDROOT
BRANCH   1   2
HETATM    2  N1  UNL     1      17.175   5.981  13.344  1.00  0.00     0.080 N 
HETATM    3  O1  UNL     1      17.406   7.332  13.498  1.00  0.00    -0.159 OA
HETATM    4  C2  UNL     1      18.657   7.103  14.031  1.00  0.00     0.122 C 
HETATM    5  C1  UNL     1      19.492   7.780  14.767  1.00  0.00     0.052 C 
HETATM    6  C14 UNL     1      18.600   5.771  13.395  1.00  0.00     0.377 C 
HETATM    7 CL1  UNL     1      19.136   4.516  14.544  1.00  0.00    -0.084 Cl
BRANCH   2   8
HETATM    8  C11 UNL     1      16.489   5.673  12.138  1.00  0.00     0.317 C 
BRANCH   8   9
HETATM    9  C12 UNL     1      16.436   6.808  11.141  1.00  0.00     0.254 C 
BRANCH   9  10
HETATM   10  O3  UNL     1      16.771   6.289   9.904  1.00  0.00    -0.385 OA
ATOM     11  H3  UNL     1      16.493   5.380   9.892  1.00  0.00     0.210 HD
ENDBRANCH   9  10
BRANCH   9  12
HETATM   12  C13 UNL     1      15.008   7.308  11.061  1.00  0.00     0.414 C 
HETATM   13  F6  UNL     1      14.353   7.012  12.227  1.00  0.00    -0.168 F 
HETATM   14  F7  UNL     1      14.957   8.670  10.860  1.00  0.00    -0.168 F 
HETATM   15  F8  UNL     1      14.388   6.623  10.034  1.00  0.00    -0.168 F 
ENDBRANCH   9  12
ENDBRANCH   8   9
ENDBRANCH   2   8
ENDBRANCH   1   2
BRANCH   1  16
HETATM   16  C4  UNL     1      15.565   4.391  14.259  1.00  0.00     0.186 C 
BRANCH  16  17
HETATM   17  O2  UNL     1      14.293   5.023  14.316  1.00  0.00    -0.389 OA
ATOM     18  H2  UNL     1      13.710   4.472  13.809  1.00  0.00     0.210 HD
ENDBRANCH  16  17
BRANCH  16  19
HETATM   19  C5  UNL     1      15.485   3.243  15.162  1.00  0.00     0.056 A 
HETATM   20  C6  UNL     1      16.188   2.106  14.705  1.00  0.00     0.170 A 
HETATM   21  F1  UNL     1      16.865   2.107  13.531  1.00  0.00    -0.202 F 
HETATM   22  C7  UNL     1      16.166   0.987  15.491  1.00  0.00     0.197 A 
HETATM   23  F2  UNL     1      16.816  -0.163  15.131  1.00  0.00    -0.199 F 
HETATM   24  C8  UNL     1      15.473   0.979  16.698  1.00  0.00     0.199 A 
HETATM   25  F3  UNL     1      15.475  -0.141  17.443  1.00  0.00    -0.199 F 
HETATM   26  C9  UNL     1      14.799   2.097  17.118  1.00  0.00     0.197 A 
HETATM   27  F4  UNL     1      14.116   2.122  18.285  1.00  0.00    -0.199 F 
HETATM   28  C10 UNL     1      14.806   3.234  16.343  1.00  0.00     0.170 A 
HETATM   29  F5  UNL     1      14.125   4.353  16.781  1.00  0.00    -0.202 F 
ENDBRANCH  16  19
ENDBRANCH   1  16
TORSDOF 8
ENDMDL
MODEL 4
REMARK VINA RESULT: -7.560169768      1.173      1.457
REMARK  8 active torsions:
REMARK  status: ('A' for Active; 'I' for Inactive)
REMARK    1  A    between atoms: N1_4  and  C3_5 
REMARK    2  A    between atoms: N1_4  and  C11_20 
REMARK    3  A    between atoms: C3_5  and  C4_6 
REMARK    4  A    between atoms: C4_6  and  O2_7 
REMARK    5  A    between atoms: C4_6  and  C5_9 
REMARK    6  A    between atoms: C11_20  and  C12_21 
REMARK    7  A    between atoms: C12_21  and  O3_22 
REMARK    8  A    between atoms: C12_21  and  C13_24 
ROOT
HETATM    1  C3  UNL     1      16.501   4.574  12.935  1.00  0.00     0.313 C 
ENDROOT
BRANCH   1   2
HETATM    2  N1  UNL     1      17.372   4.667  11.740  1.00  0.00     0.080 N 
HETATM    3  O1  UNL     1      16.609   4.436  10.614  1.00  0.00    -0.159 OA
HETATM    4  C2  UNL     1      16.294   5.773  10.499  1.00  0.00     0.122 C 
HETATM    5  C1  UNL     1      15.357   6.460   9.907  1.00  0.00     0.052 C 
HETATM    6  C14 UNL     1      17.478   6.047  11.337  1.00  0.00     0.377 C 
HETATM    7 CL1  UNL     1      17.076   7.235  12.605  1.00  0.00    -0.084 Cl
BRANCH   2   8
HETATM    8  C11 UNL     1      18.554   3.878  11.776  1.00  0.00     0.317 C 
BRANCH   8   9
HETATM    9  C12 UNL     1      19.759   4.584  12.354  1.00  0.00     0.254 C 
BRANCH   9  10
HETATM   10  O3  UNL     1      20.090   3.940  13.532  1.00  0.00    -0.385 OA
ATOM     11  H3  UNL     1      20.892   3.455  13.376  1.00  0.00     0.210 HD
ENDBRANCH   9  10
BRANCH   9  12
HETATM   12  C13 UNL     1      20.919   4.415  11.393  1.00  0.00     0.414 C 
HETATM   13  F6  UNL     1      20.468   4.538  10.106  1.00  0.00    -0.168 F 
HETATM   14  F7  UNL     1      21.899   5.358  11.610  1.00  0.00    -0.168 F 
HETATM   15  F8  UNL     1      21.406   3.133  11.557  1.00  0.00    -0.168 F 
ENDBRANCH   9  12
ENDBRANCH   8   9
ENDBRANCH   2   8
ENDBRANCH   1   2
BRANCH   1  16
HETATM   16  C4  UNL     1      16.348   3.150  13.355  1.00  0.00     0.186 C 
BRANCH  16  17
HETATM   17  O2  UNL     1      15.496   2.552  12.388  1.00  0.00    -0.389 OA
ATOM     18  H2  UNL     1      15.736   1.634  12.366  1.00  0.00     0.210 HD
ENDBRANCH  16  17
BRANCH  16  19
HETATM   19  C5  UNL     1      15.726   2.893  14.654  1.00  0.00     0.056 A 
HETATM   20  C6  UNL     1      15.974   1.597  15.160  1.00  0.00     0.170 A 
HETATM   21  F1  UNL     1      16.723   0.694  14.482  1.00  0.00    -0.202 F 
HETATM   22  C7  UNL     1      15.430   1.273  16.372  1.00  0.00     0.197 A 
HETATM   23  F2  UNL     1      15.613   0.043  16.944  1.00  0.00    -0.199 F 
HETATM   24  C8  UNL     1      14.660   2.196  17.075  1.00  0.00     0.199 A 
HETATM   25  F3  UNL     1      14.140   1.840  18.264  1.00  0.00    -0.199 F 
HETATM   26  C9  UNL     1      14.435   3.447  16.560  1.00  0.00     0.197 A 
HETATM   27  F4  UNL     1      13.692   4.366  17.217  1.00  0.00    -0.199 F 
HETATM   28  C10 UNL     1      14.972   3.794  15.341  1.00  0.00     0.170 A 
HETATM   29  F5  UNL     1      14.739   5.059  14.837  1.00  0.00    -0.202 F 
ENDBRANCH  16  19
ENDBRANCH   1  16
TORSDOF 8
ENDMDL
MODEL 5
REMARK VINA RESULT: -7.470183998      2.240      3.546
REMARK  8 active torsions:
REMARK  status: ('A' for Active; 'I' for Inactive)
REMARK    1  A    between atoms: N1_4  and  C3_5 
REMARK    2  A    between atoms: N1_4  and  C11_20 
REMARK    3  A    between atoms: C3_5  and  C4_6 
REMARK    4  A    between atoms: C4_6  and  O2_7 
REMARK    5  A    between atoms: C4_6  and  C5_9 
REMARK    6  A    between atoms: C11_20  and  C12_21 
REMARK    7  A    between atoms: C12_21  and  O3_22 
REMARK    8  A    between atoms: C12_21  and  C13_24 
ROOT
HETATM    1  C3  UNL     1      17.753   5.416  13.021  1.00  0.00     0.313 C 
ENDROOT
BRANCH   1   2
HETATM    2  N1  UNL     1      17.159   4.778  11.824  1.00  0.00     0.080 N 
HETATM    3  O1  UNL     1      15.819   5.101  11.766  1.00  0.00    -0.159 OA
HETATM    4  C2  UNL     1      16.080   6.243  11.039  1.00  0.00     0.122 C 
HETATM    5  C1  UNL     1      15.447   7.356  10.798  1.00  0.00     0.052 C 
HETATM    6  C14 UNL     1      17.373   5.627  10.679  1.00  0.00     0.377 C 
HETATM    7 CL1  UNL     1      18.692   6.814  10.857  1.00  0.00    -0.084 Cl
BRANCH   2   8
HETATM    8  C11 UNL     1      17.395   3.383  11.686  1.00  0.00     0.317 C 
BRANCH   8   9
HETATM    9  C12 UNL     1      16.199   2.512  11.993  1.00  0.00     0.254 C 
BRANCH   9  10
HETATM   10  O3  UNL     1      15.471   2.381  10.825  1.00  0.00    -0.385 OA
ATOM     11  H3  UNL     1      16.000   1.880  10.215  1.00  0.00     0.210 HD
ENDBRANCH   9  10
BRANCH   9  12
HETATM   12  C13 UNL     1      16.698   1.135  12.384  1.00  0.00     0.414 C 
HETATM   13  F6  UNL     1      16.278   0.839  13.653  1.00  0.00    -0.168 F 
HETATM   14  F7  UNL     1      16.231   0.164  11.526  1.00  0.00    -0.168 F 
HETATM   15  F8  UNL     1      18.079   1.184  12.389  1.00  0.00    -0.168 F 
ENDBRANCH   9  12
ENDBRANCH   8   9
ENDBRANCH   2   8
ENDBRANCH   1   2
BRANCH   1  16
HETATM   16  C4  UNL     1      16.714   5.608  14.076  1.00  0.00     0.186 C 
BRANCH  16  17
HETATM   17  O2  UNL     1      17.218   6.622  14.934  1.00  0.00    -0.389 OA
ATOM     18  H2  UNL     1      16.456   7.074  15.274  1.00  0.00     0.210 HD
ENDBRANCH  16  17
BRANCH  16  19
HETATM   19  C5  UNL     1      16.407   4.466  14.937  1.00  0.00     0.056 A 
HETATM   20  C6  UNL     1      15.043   4.369  15.294  1.00  0.00     0.170 A 
HETATM   21  F1  UNL     1      14.125   5.267  14.863  1.00  0.00    -0.202 F 
HETATM   22  C7  UNL     1      14.670   3.328  16.098  1.00  0.00     0.197 A 
HETATM   23  F2  UNL     1      13.372   3.150  16.497  1.00  0.00    -0.199 F 
HETATM   24  C8  UNL     1      15.609   2.401  16.543  1.00  0.00     0.199 A 
HETATM   25  F3  UNL     1      15.202   1.391  17.334  1.00  0.00    -0.199 F 
HETATM   26  C9  UNL     1      16.926   2.519  16.182  1.00  0.00     0.197 A 
HETATM   27  F4  UNL     1      17.862   1.637  16.598  1.00  0.00    -0.199 F 
HETATM   28  C10 UNL     1      17.324   3.560  15.374  1.00  0.00     0.170 A 
HETATM   29  F5  UNL     1      18.655   3.665  15.017  1.00  0.00    -0.202 F 
ENDBRANCH  16  19
ENDBRANCH   1  16
TORSDOF 8
ENDMDL
