MODEL 1
REMARK VINA RESULT: -8.071911601      0.000      0.000
REMARK  12 active torsions:
REMARK  status: ('A' for Active; 'I' for Inactive)
REMARK    1  A    between atoms: N1_1  and  C1_5 
REMARK    2  A    between atoms: C1_5  and  C2_6 
REMARK    3  A    between atoms: C2_6  and  C3_7 
REMARK    4  A    between atoms: C3_7  and  N2_8 
REMARK    5  A    between atoms: C3_7  and  C4_12 
REMARK    6  A    between atoms: C7_17  and  C8_18 
REMARK    7  A    between atoms: C8_18  and  N4_19 
REMARK    8  A    between atoms: N4_19  and  C9_22 
REMARK    9  A    between atoms: C9_22  and  C10_23 
REMARK   10  A    between atoms: C10_23  and  O1_24 
REMARK   11  A    between atoms: C10_23  and  C11_26 
REMARK   12  A    between atoms: C15_31  and  C16_32 
ROOT
HETATM    1  C8  UNL     1      -1.844 -35.673 -27.061  1.00  0.00     0.154 C 
HETATM    2  C17 UNL     1      -2.457 -37.026 -27.333  1.00  0.00     0.044 C 
HETATM    3  C18 UNL     1      -3.075 -36.967 -25.937  1.00  0.00     0.005 C 
HETATM    4  C19 UNL     1      -2.879 -35.445 -26.007  1.00  0.00     0.044 C 
ENDROOT
BRANCH   1   5
HETATM    5  C7  UNL     1      -0.486 -35.777 -26.436  1.00  0.00    -0.006 A 
HETATM    6  C6  UNL     1      -0.418 -35.790 -25.063  1.00  0.00     0.097 A 
HETATM    7  N3  UNL     1       0.795 -35.876 -24.435  1.00  0.00    -0.374 N 
HETATM    8  C5  UNL     1       1.947 -35.950 -25.147  1.00  0.00     0.096 A 
ATOM      9  H3  UNL     1       0.833 -35.884 -23.417  1.00  0.00     0.164 HD
HETATM   10  C4  UNL     1       1.926 -35.942 -26.525  1.00  0.00    -0.012 A 
HETATM   11  C20 UNL     1       0.685 -35.853 -27.130  1.00  0.00     0.021 A 
BRANCH  10  12
HETATM   12  C3  UNL     1       3.149 -36.016 -27.343  1.00  0.00     0.219 C 
BRANCH  12  13
HETATM   13  C2  UNL     1       3.093 -37.246 -28.245  1.00  0.00     0.065 C 
BRANCH  13  14
HETATM   14  C1  UNL     1       4.470 -37.849 -28.394  1.00  0.00     0.232 C 
BRANCH  14  15
HETATM   15  N1  UNL     1       4.578 -38.721 -29.519  1.00  0.00    -0.079 N 
ATOM     16  H13 UNL     1       3.966 -39.530 -29.413  1.00  0.00     0.274 HD
ATOM     17  H12 UNL     1       4.157 -38.300 -30.346  1.00  0.00     0.274 HD
ATOM     18  H11 UNL     1       5.537 -39.013 -29.706  1.00  0.00     0.274 HD
ENDBRANCH  14  15
ENDBRANCH  13  14
ENDBRANCH  12  13
BRANCH  12  19
HETATM   19  N2  UNL     1       4.336 -36.175 -26.499  1.00  0.00    -0.071 N 
ATOM     20  H23 UNL     1       4.166 -35.956 -25.518  1.00  0.00     0.275 HD
ATOM     21  H22 UNL     1       4.609 -37.149 -26.365  1.00  0.00     0.275 HD
ATOM     22  H21 UNL     1       5.069 -35.604 -26.920  1.00  0.00     0.275 HD
ENDBRANCH  12  19
ENDBRANCH  10  12
ENDBRANCH   1   5
BRANCH   1  23
HETATM   23  N4  UNL     1      -1.768 -34.779 -28.168  1.00  0.00    -0.060 N 
ATOM     24  H42 UNL     1      -2.332 -33.948 -27.990  1.00  0.00     0.278 HD
ATOM     25  H41 UNL     1      -0.841 -34.356 -28.220  1.00  0.00     0.278 HD
BRANCH  23  26
HETATM   26  C9  UNL     1      -2.120 -35.354 -29.424  1.00  0.00     0.265 C 
BRANCH  26  27
HETATM   27  C10 UNL     1      -3.004 -34.390 -30.252  1.00  0.00     0.148 C 
BRANCH  27  28
HETATM   28  O1  UNL     1      -2.133 -34.067 -31.340  1.00  0.00    -0.394 OA
ATOM     29  H1  UNL     1      -2.729 -33.632 -31.937  1.00  0.00     0.210 HD
ENDBRANCH  27  28
BRANCH  27  30
HETATM   30  C11 UNL     1      -4.084 -35.255 -30.805  1.00  0.00     0.024 C 
HETATM   31  C12 UNL     1      -3.603 -36.672 -31.035  1.00  0.00     0.044 C 
HETATM   32  C13 UNL     1      -4.882 -37.477 -31.205  1.00  0.00     0.171 C 
HETATM   33  F1  UNL     1      -4.786 -38.749 -30.699  1.00  0.00    -0.249 F 
HETATM   34  C14 UNL     1      -5.995 -36.670 -30.564  1.00  0.00     0.043 C 
HETATM   35  C15 UNL     1      -5.367 -35.354 -30.090  1.00  0.00     0.005 C 
BRANCH  35  36
HETATM   36  C16 UNL     1      -5.356 -35.365 -28.606  1.00  0.00     0.090 C 
HETATM   37 BR1  UNL     1      -5.638 -33.635 -27.794  1.00  0.00    -0.096 Br
ENDBRANCH  35  36
ENDBRANCH  27  30
ENDBRANCH  26  27
ENDBRANCH  23  26
ENDBRANCH   1  23
TORSDOF 12
ENDMDL
MODEL 2
REMARK VINA RESULT: -7.554317745      3.764      7.325
REMARK  12 active torsions:
REMARK  status: ('A' for Active; 'I' for Inactive)
REMARK    1  A    between atoms: N1_1  and  C1_5 
REMARK    2  A    between atoms: C1_5  and  C2_6 
REMARK    3  A    between atoms: C2_6  and  C3_7 
REMARK    4  A    between atoms: C3_7  and  N2_8 
REMARK    5  A    between atoms: C3_7  and  C4_12 
REMARK    6  A    between atoms: C7_17  and  C8_18 
REMARK    7  A    between atoms: C8_18  and  N4_19 
REMARK    8  A    between atoms: N4_19  and  C9_22 
REMARK    9  A    between atoms: C9_22  and  C10_23 
REMARK   10  A    between atoms: C10_23  and  O1_24 
REMARK   11  A    between atoms: C10_23  and  C11_26 
REMARK   12  A    between atoms: C15_31  and  C16_32 
ROOT
HETATM    1  C8  UNL     1      -2.569 -36.371 -26.102  1.00  0.00     0.154 C 
HETATM    2  C17 UNL     1      -2.598 -35.645 -24.779  1.00  0.00     0.044 C 
HETATM    3  C18 UNL     1      -3.993 -36.225 -24.552  1.00  0.00     0.005 C 
HETATM    4  C19 UNL     1      -3.623 -37.298 -25.588  1.00  0.00     0.044 C 
ENDROOT
BRANCH   1   5
HETATM    5  C7  UNL     1      -3.116 -35.539 -27.222  1.00  0.00    -0.006 A 
HETATM    6  C6  UNL     1      -3.443 -34.234 -26.943  1.00  0.00     0.097 A 
HETATM    7  N3  UNL     1      -3.954 -33.428 -27.923  1.00  0.00    -0.374 N 
HETATM    8  C5  UNL     1      -4.148 -33.895 -29.182  1.00  0.00     0.096 A 
ATOM      9  H3  UNL     1      -4.193 -32.462 -27.705  1.00  0.00     0.164 HD
HETATM   10  C4  UNL     1      -3.833 -35.197 -29.507  1.00  0.00    -0.012 A 
HETATM   11  C20 UNL     1      -3.319 -35.987 -28.494  1.00  0.00     0.021 A 
BRANCH  10  12
HETATM   12  C3  UNL     1      -4.029 -35.753 -30.858  1.00  0.00     0.219 C 
BRANCH  12  13
HETATM   13  C2  UNL     1      -3.862 -37.269 -30.820  1.00  0.00     0.065 C 
BRANCH  13  14
HETATM   14  C1  UNL     1      -5.193 -37.948 -31.051  1.00  0.00     0.232 C 
BRANCH  14  15
HETATM   15  N1  UNL     1      -6.307 -37.120 -30.718  1.00  0.00    -0.079 N 
ATOM     16  H13 UNL     1      -6.693 -37.378 -29.809  1.00  0.00     0.274 HD
ATOM     17  H12 UNL     1      -6.003 -36.170 -30.507  1.00  0.00     0.274 HD
ATOM     18  H11 UNL     1      -7.032 -37.120 -31.434  1.00  0.00     0.274 HD
ENDBRANCH  14  15
ENDBRANCH  13  14
ENDBRANCH  12  13
BRANCH  12  19
HETATM   19  N2  UNL     1      -3.015 -35.247 -31.785  1.00  0.00    -0.071 N 
ATOM     20  H23 UNL     1      -2.076 -35.233 -31.388  1.00  0.00     0.275 HD
ATOM     21  H22 UNL     1      -2.817 -35.886 -32.555  1.00  0.00     0.275 HD
ATOM     22  H21 UNL     1      -3.337 -34.330 -32.094  1.00  0.00     0.275 HD
ENDBRANCH  12  19
ENDBRANCH  10  12
ENDBRANCH   1   5
BRANCH   1  23
HETATM   23  N4  UNL     1      -1.309 -36.904 -26.503  1.00  0.00    -0.060 N 
ATOM     24  H42 UNL     1      -1.145 -37.803 -26.050  1.00  0.00     0.278 HD
ATOM     25  H41 UNL     1      -1.345 -37.202 -27.478  1.00  0.00     0.278 HD
BRANCH  23  26
HETATM   26  C9  UNL     1      -0.199 -36.034 -26.293  1.00  0.00     0.265 C 
BRANCH  26  27
HETATM   27  C10 UNL     1       0.736 -36.015 -27.526  1.00  0.00     0.148 C 
BRANCH  27  28
HETATM   28  O1  UNL     1       0.168 -34.951 -28.298  1.00  0.00    -0.394 OA
ATOM     29  H1  UNL     1       0.305 -35.266 -29.183  1.00  0.00     0.210 HD
ENDBRANCH  27  28
BRANCH  27  30
HETATM   30  C11 UNL     1       2.039 -35.519 -26.999  1.00  0.00     0.024 C 
HETATM   31  C12 UNL     1       2.096 -35.592 -25.488  1.00  0.00     0.044 C 
HETATM   32  C13 UNL     1       3.573 -35.441 -25.163  1.00  0.00     0.171 C 
HETATM   33  F1  UNL     1       3.959 -36.171 -24.067  1.00  0.00    -0.249 F 
HETATM   34  C14 UNL     1       4.338 -35.815 -26.419  1.00  0.00     0.043 C 
HETATM   35  C15 UNL     1       3.291 -36.109 -27.500  1.00  0.00     0.005 C 
BRANCH  35  36
HETATM   36  C16 UNL     1       3.328 -37.565 -27.784  1.00  0.00     0.090 C 
HETATM   37 BR1  UNL     1       4.280 -38.038 -29.397  1.00  0.00    -0.096 Br
ENDBRANCH  35  36
ENDBRANCH  27  30
ENDBRANCH  26  27
ENDBRANCH  23  26
ENDBRANCH   1  23
TORSDOF 12
ENDMDL
MODEL 3
REMARK VINA RESULT: -7.392113439      3.812      7.281
REMARK  12 active torsions:
REMARK  status: ('A' for Active; 'I' for Inactive)
REMARK    1  A    between atoms: N1_1  and  C1_5 
REMARK    2  A    between atoms: C1_5  and  C2_6 
REMARK    3  A    between atoms: C2_6  and  C3_7 
REMARK    4  A    between atoms: C3_7  and  N2_8 
REMARK    5  A    between atoms: C3_7  and  C4_12 
REMARK    6  A    between atoms: C7_17  and  C8_18 
REMARK    7  A    between atoms: C8_18  and  N4_19 
REMARK    8  A    between atoms: N4_19  and  C9_22 
REMARK    9  A    between atoms: C9_22  and  C10_23 
REMARK   10  A    between atoms: C10_23  and  O1_24 
REMARK   11  A    between atoms: C10_23  and  C11_26 
REMARK   12  A    between atoms: C15_31  and  C16_32 
ROOT
HETATM    1  C8  UNL     1      -2.473 -36.088 -25.499  1.00  0.00     0.154 C 
HETATM    2  C17 UNL     1      -2.414 -34.615 -25.171  1.00  0.00     0.044 C 
HETATM    3  C18 UNL     1      -3.466 -34.867 -24.093  1.00  0.00     0.005 C 
HETATM    4  C19 UNL     1      -3.037 -36.342 -24.137  1.00  0.00     0.044 C 
ENDROOT
BRANCH   1   5
HETATM    5  C7  UNL     1      -3.499 -36.398 -26.547  1.00  0.00    -0.006 A 
HETATM    6  C6  UNL     1      -4.731 -36.831 -26.121  1.00  0.00     0.097 A 
HETATM    7  N3  UNL     1      -5.705 -37.137 -27.033  1.00  0.00    -0.374 N 
HETATM    8  C5  UNL     1      -5.479 -37.019 -28.365  1.00  0.00     0.096 A 
ATOM      9  H3  UNL     1      -6.616 -37.457 -26.705  1.00  0.00     0.164 HD
HETATM   10  C4  UNL     1      -4.258 -36.588 -28.836  1.00  0.00    -0.012 A 
HETATM   11  C20 UNL     1      -3.293 -36.287 -27.891  1.00  0.00     0.021 A 
BRANCH  10  12
HETATM   12  C3  UNL     1      -3.960 -36.448 -30.273  1.00  0.00     0.219 C 
BRANCH  12  13
HETATM   13  C2  UNL     1      -4.269 -35.024 -30.727  1.00  0.00     0.065 C 
BRANCH  13  14
HETATM   14  C1  UNL     1      -3.086 -34.442 -31.465  1.00  0.00     0.232 C 
BRANCH  14  15
HETATM   15  N1  UNL     1      -1.900 -34.399 -30.673  1.00  0.00    -0.079 N 
ATOM     16  H13 UNL     1      -1.906 -35.135 -29.967  1.00  0.00     0.274 HD
ATOM     17  H12 UNL     1      -1.089 -34.696 -31.216  1.00  0.00     0.274 HD
ATOM     18  H11 UNL     1      -1.738 -33.486 -30.247  1.00  0.00     0.274 HD
ENDBRANCH  14  15
ENDBRANCH  13  14
ENDBRANCH  12  13
BRANCH  12  19
HETATM   19  N2  UNL     1      -4.810 -37.331 -31.073  1.00  0.00    -0.071 N 
ATOM     20  H23 UNL     1      -4.795 -38.301 -30.758  1.00  0.00     0.275 HD
ATOM     21  H22 UNL     1      -5.808 -37.169 -30.933  1.00  0.00     0.275 HD
ATOM     22  H21 UNL     1      -4.515 -37.217 -32.043  1.00  0.00     0.275 HD
ENDBRANCH  12  19
ENDBRANCH  10  12
ENDBRANCH   1   5
BRANCH   1  23
HETATM   23  N4  UNL     1      -1.243 -36.704 -25.869  1.00  0.00    -0.060 N 
ATOM     24  H42 UNL     1      -1.027 -37.473 -25.234  1.00  0.00     0.278 HD
ATOM     25  H41 UNL     1      -1.354 -37.221 -26.741  1.00  0.00     0.278 HD
BRANCH  23  26
HETATM   26  C9  UNL     1      -0.133 -35.813 -25.960  1.00  0.00     0.265 C 
BRANCH  26  27
HETATM   27  C10 UNL     1       0.633 -36.011 -27.290  1.00  0.00     0.148 C 
BRANCH  27  28
HETATM   28  O1  UNL     1       0.030 -35.013 -28.118  1.00  0.00    -0.394 OA
ATOM     29  H1  UNL     1      -0.826 -34.926 -27.717  1.00  0.00     0.210 HD
ENDBRANCH  27  28
BRANCH  27  30
HETATM   30  C11 UNL     1       2.019 -35.549 -26.995  1.00  0.00     0.024 C 
HETATM   31  C12 UNL     1       2.333 -35.628 -25.516  1.00  0.00     0.044 C 
HETATM   32  C13 UNL     1       3.847 -35.513 -25.450  1.00  0.00     0.171 C 
HETATM   33  F1  UNL     1       4.397 -36.256 -24.435  1.00  0.00    -0.249 F 
HETATM   34  C14 UNL     1       4.375 -35.902 -26.818  1.00  0.00     0.043 C 
HETATM   35  C15 UNL     1       3.152 -36.167 -27.703  1.00  0.00     0.005 C 
BRANCH  35  36
HETATM   36  C16 UNL     1       3.105 -37.623 -27.987  1.00  0.00     0.090 C 
HETATM   37 BR1  UNL     1       4.240 -38.187 -29.445  1.00  0.00    -0.096 Br
ENDBRANCH  35  36
ENDBRANCH  27  30
ENDBRANCH  26  27
ENDBRANCH  23  26
ENDBRANCH   1  23
TORSDOF 12
ENDMDL
MODEL 4
REMARK VINA RESULT: -7.359757944      2.544      3.466
REMARK  12 active torsions:
REMARK  status: ('A' for Active; 'I' for Inactive)
REMARK    1  A    between atoms: N1_1  and  C1_5 
REMARK    2  A    between atoms: C1_5  and  C2_6 
REMARK    3  A    between atoms: C2_6  and  C3_7 
REMARK    4  A    between atoms: C3_7  and  N2_8 
REMARK    5  A    between atoms: C3_7  and  C4_12 
REMARK    6  A    between atoms: C7_17  and  C8_18 
REMARK    7  A    between atoms: C8_18  and  N4_19 
REMARK    8  A    between atoms: N4_19  and  C9_22 
REMARK    9  A    between atoms: C9_22  and  C10_23 
REMARK   10  A    between atoms: C10_23  and  O1_24 
REMARK   11  A    between atoms: C10_23  and  C11_26 
REMARK   12  A    between atoms: C15_31  and  C16_32 
ROOT
HETATM    1  C8  UNL     1       0.549 -36.068 -26.315  1.00  0.00     0.154 C 
HETATM    2  C17 UNL     1       1.204 -35.424 -27.513  1.00  0.00     0.044 C 
HETATM    3  C18 UNL     1       2.031 -36.697 -27.679  1.00  0.00     0.005 C 
HETATM    4  C19 UNL     1       0.951 -37.406 -26.846  1.00  0.00     0.044 C 
ENDROOT
BRANCH   1   5
HETATM    5  C7  UNL     1       1.282 -35.778 -25.040  1.00  0.00    -0.006 A 
HETATM    6  C6  UNL     1       0.533 -35.424 -23.943  1.00  0.00     0.097 A 
HETATM    7  N3  UNL     1       1.147 -35.140 -22.754  1.00  0.00    -0.374 N 
HETATM    8  C5  UNL     1       2.496 -35.202 -22.631  1.00  0.00     0.096 A 
ATOM      9  H3  UNL     1       0.582 -34.879 -21.947  1.00  0.00     0.164 HD
HETATM   10  C4  UNL     1       3.286 -35.554 -23.705  1.00  0.00    -0.012 A 
HETATM   11  C20 UNL     1       2.636 -35.834 -24.894  1.00  0.00     0.021 A 
BRANCH  10  12
HETATM   12  C3  UNL     1       4.756 -35.631 -23.624  1.00  0.00     0.219 C 
BRANCH  12  13
HETATM   13  C2  UNL     1       5.313 -36.205 -24.923  1.00  0.00     0.065 C 
BRANCH  13  14
HETATM   14  C1  UNL     1       6.502 -37.093 -24.635  1.00  0.00     0.232 C 
BRANCH  14  15
HETATM   15  N1  UNL     1       7.021 -37.727 -25.804  1.00  0.00    -0.079 N 
ATOM     16  H13 UNL     1       6.268 -38.112 -26.374  1.00  0.00     0.274 HD
ATOM     17  H12 UNL     1       7.390 -37.037 -26.458  1.00  0.00     0.274 HD
ATOM     18  H11 UNL     1       7.719 -38.440 -25.594  1.00  0.00     0.274 HD
ENDBRANCH  14  15
ENDBRANCH  13  14
ENDBRANCH  12  13
BRANCH  12  19
HETATM   19  N2  UNL     1       5.175 -36.540 -22.556  1.00  0.00    -0.071 N 
ATOM     20  H23 UNL     1       4.428 -37.152 -22.229  1.00  0.00     0.275 HD
ATOM     21  H22 UNL     1       5.809 -37.273 -22.874  1.00  0.00     0.275 HD
ATOM     22  H21 UNL     1       5.570 -35.956 -21.818  1.00  0.00     0.275 HD
ENDBRANCH  12  19
ENDBRANCH  10  12
ENDBRANCH   1   5
BRANCH   1  23
HETATM   23  N4  UNL     1      -0.834 -35.783 -26.121  1.00  0.00    -0.060 N 
ATOM     24  H42 UNL     1      -1.281 -36.539 -25.603  1.00  0.00     0.278 HD
ATOM     25  H41 UNL     1      -0.948 -35.020 -25.453  1.00  0.00     0.278 HD
BRANCH  23  26
HETATM   26  C9  UNL     1      -1.560 -35.506 -27.316  1.00  0.00     0.265 C 
BRANCH  26  27
HETATM   27  C10 UNL     1      -3.064 -35.296 -27.020  1.00  0.00     0.148 C 
BRANCH  27  28
HETATM   28  O1  UNL     1      -3.021 -34.223 -26.073  1.00  0.00    -0.394 OA
ATOM     29  H1  UNL     1      -2.508 -33.577 -26.543  1.00  0.00     0.210 HD
ENDBRANCH  27  28
BRANCH  27  30
HETATM   30  C11 UNL     1      -3.619 -34.734 -28.284  1.00  0.00     0.024 C 
HETATM   31  C12 UNL     1      -2.579 -34.694 -29.383  1.00  0.00     0.044 C 
HETATM   32  C13 UNL     1      -3.387 -34.488 -30.653  1.00  0.00     0.171 C 
HETATM   33  F1  UNL     1      -2.847 -35.126 -31.742  1.00  0.00    -0.249 F 
HETATM   34  C14 UNL     1      -4.803 -34.938 -30.349  1.00  0.00     0.043 C 
HETATM   35  C15 UNL     1      -4.831 -35.333 -28.868  1.00  0.00     0.005 C 
BRANCH  35  36
HETATM   36  C16 UNL     1      -5.004 -36.805 -28.795  1.00  0.00     0.090 C 
HETATM   37 BR1  UNL     1      -5.176 -37.674 -30.511  1.00  0.00    -0.096 Br
ENDBRANCH  35  36
ENDBRANCH  27  30
ENDBRANCH  26  27
ENDBRANCH  23  26
ENDBRANCH   1  23
TORSDOF 12
ENDMDL
MODEL 5
REMARK VINA RESULT: -7.294321934      2.502      3.769
REMARK  12 active torsions:
REMARK  status: ('A' for Active; 'I' for Inactive)
REMARK    1  A    between atoms: N1_1  and  C1_5 
REMARK    2  A    between atoms: C1_5  and  C2_6 
REMARK    3  A    between atoms: C2_6  and  C3_7 
REMARK    4  A    between atoms: C3_7  and  N2_8 
REMARK    5  A    between atoms: C3_7  and  C4_12 
REMARK    6  A    between atoms: C7_17  and  C8_18 
REMARK    7  A    between atoms: C8_18  and  N4_19 
REMARK    8  A    between atoms: N4_19  and  C9_22 
REMARK    9  A    between atoms: C9_22  and  C10_23 
REMARK   10  A    between atoms: C10_23  and  O1_24 
REMARK   11  A    between atoms: C10_23  and  C11_26 
REMARK   12  A    between atoms: C15_31  and  C16_32 
ROOT
HETATM    1  C8  UNL     1       0.132 -36.370 -26.522  1.00  0.00     0.154 C 
HETATM    2  C17 UNL     1       0.822 -35.510 -27.554  1.00  0.00     0.044 C 
HETATM    3  C18 UNL     1       2.040 -36.423 -27.423  1.00  0.00     0.005 C 
HETATM    4  C19 UNL     1       1.083 -37.478 -26.848  1.00  0.00     0.044 C 
ENDROOT
BRANCH   1   5
HETATM    5  C7  UNL     1       0.368 -35.883 -25.124  1.00  0.00    -0.006 A 
HETATM    6  C6  UNL     1      -0.716 -35.820 -24.282  1.00  0.00     0.097 A 
HETATM    7  N3  UNL     1      -0.563 -35.376 -22.997  1.00  0.00    -0.374 N 
HETATM    8  C5  UNL     1       0.650 -34.993 -22.529  1.00  0.00     0.096 A 
ATOM      9  H3  UNL     1      -1.375 -35.334 -22.381  1.00  0.00     0.164 HD
HETATM   10  C4  UNL     1       1.765 -35.041 -23.338  1.00  0.00    -0.012 A 
HETATM   11  C20 UNL     1       1.579 -35.493 -24.632  1.00  0.00     0.021 A 
BRANCH  10  12
HETATM   12  C3  UNL     1       3.104 -34.632 -22.878  1.00  0.00     0.219 C 
BRANCH  12  13
HETATM   13  C2  UNL     1       3.800 -35.811 -22.205  1.00  0.00     0.065 C 
BRANCH  13  14
HETATM   14  C1  UNL     1       5.188 -35.994 -22.773  1.00  0.00     0.232 C 
BRANCH  14  15
HETATM   15  N1  UNL     1       5.199 -36.099 -24.196  1.00  0.00    -0.079 N 
ATOM     16  H13 UNL     1       5.753 -35.349 -24.613  1.00  0.00     0.274 HD
ATOM     17  H12 UNL     1       5.751 -36.901 -24.498  1.00  0.00     0.274 HD
ATOM     18  H11 UNL     1       4.264 -36.128 -24.601  1.00  0.00     0.274 HD
ENDBRANCH  14  15
ENDBRANCH  13  14
ENDBRANCH  12  13
BRANCH  12  19
HETATM   19  N2  UNL     1       3.012 -33.574 -21.870  1.00  0.00    -0.071 N 
ATOM     20  H23 UNL     1       3.316 -33.871 -20.944  1.00  0.00     0.275 HD
ATOM     21  H22 UNL     1       3.701 -32.833 -21.998  1.00  0.00     0.275 HD
ATOM     22  H21 UNL     1       2.049 -33.238 -21.891  1.00  0.00     0.275 HD
ENDBRANCH  12  19
ENDBRANCH  10  12
ENDBRANCH   1   5
BRANCH   1  23
HETATM   23  N4  UNL     1      -1.266 -36.577 -26.703  1.00  0.00    -0.060 N 
ATOM     24  H42 UNL     1      -1.453 -37.555 -26.922  1.00  0.00     0.278 HD
ATOM     25  H41 UNL     1      -1.754 -36.498 -25.811  1.00  0.00     0.278 HD
BRANCH  23  26
HETATM   26  C9  UNL     1      -1.873 -35.728 -27.675  1.00  0.00     0.265 C 
BRANCH  26  27
HETATM   27  C10 UNL     1      -3.318 -35.353 -27.263  1.00  0.00     0.148 C 
BRANCH  27  28
HETATM   28  O1  UNL     1      -3.088 -34.216 -26.424  1.00  0.00    -0.394 OA
ATOM     29  H1  UNL     1      -3.742 -33.608 -26.747  1.00  0.00     0.210 HD
ENDBRANCH  27  28
BRANCH  27  30
HETATM   30  C11 UNL     1      -3.944 -34.846 -28.516  1.00  0.00     0.024 C 
HETATM   31  C12 UNL     1      -2.918 -34.636 -29.610  1.00  0.00     0.044 C 
HETATM   32  C13 UNL     1      -3.746 -34.516 -30.879  1.00  0.00     0.171 C 
HETATM   33  F1  UNL     1      -3.121 -35.049 -31.979  1.00  0.00    -0.249 F 
HETATM   34  C14 UNL     1      -5.086 -35.166 -30.591  1.00  0.00     0.043 C 
HETATM   35  C15 UNL     1      -5.059 -35.595 -29.119  1.00  0.00     0.005 C 
BRANCH  35  36
HETATM   36  C16 UNL     1      -5.025 -37.078 -29.078  1.00  0.00     0.090 C 
HETATM   37 BR1  UNL     1      -5.036 -37.923 -30.816  1.00  0.00    -0.096 Br
ENDBRANCH  35  36
ENDBRANCH  27  30
ENDBRANCH  26  27
ENDBRANCH  23  26
ENDBRANCH   1  23
TORSDOF 12
ENDMDL
