MODEL 1
REMARK VINA RESULT: -6.022756596      0.000      0.000
REMARK  6 active torsions:
REMARK  status: ('A' for Active; 'I' for Inactive)
REMARK    1  A    between atoms: C3_3  and  N1_4 
REMARK    2  A    between atoms: N1_4  and  C4_7 
REMARK    3  A    between atoms: C4_7  and  C5_8 
REMARK    4  A    between atoms: C5_8  and  N2_9 
REMARK    5  A    between atoms: N2_9  and  C6_12 
REMARK    6  A    between atoms: C13_19  and  O1_20 
ROOT
HETATM    1  C1  UNL     1      18.290  -2.735  11.559  1.00  0.00     0.013 C 
HETATM    2  C2  UNL     1      17.960  -1.590  11.422  1.00  0.00    -0.090 C 
HETATM    3  C3  UNL     1      17.594  -0.156  11.224  1.00  0.00     0.324 C 
ENDROOT
BRANCH   3   4
HETATM    4  N1  UNL     1      18.804   0.608  11.546  1.00  0.00    -0.064 N 
ATOM      5  H12 UNL     1      18.724   1.130  12.419  1.00  0.00     0.278 HD
ATOM      6  H11 UNL     1      19.589   0.015  11.817  1.00  0.00     0.278 HD
BRANCH   4   7
HETATM    7  C4  UNL     1      19.096   1.438  10.428  1.00  0.00     0.260 C 
BRANCH   7   8
HETATM    8  C5  UNL     1      19.048   2.910  10.762  1.00  0.00     0.260 C 
BRANCH   8   9
HETATM    9  N2  UNL     1      17.726   3.403  10.964  1.00  0.00    -0.065 N 
ATOM     10  H22 UNL     1      17.469   4.063  10.229  1.00  0.00     0.278 HD
ATOM     11  H21 UNL     1      17.036   2.674  10.785  1.00  0.00     0.278 HD
BRANCH   9  12
HETATM   12  C6  UNL     1      17.528   3.985  12.264  1.00  0.00     0.129 C 
HETATM   13  C7  UNL     1      18.799   4.291  12.979  1.00  0.00     0.043 C 
HETATM   14  C8  UNL     1      18.505   4.753  14.370  1.00  0.00    -0.009 C 
HETATM   15  C9  UNL     1      17.769   6.093  14.319  1.00  0.00     0.009 C 
HETATM   16  C15 UNL     1      17.637   3.830  15.163  1.00  0.00     0.043 C 
HETATM   17  C10 UNL     1      16.491   5.845  13.536  1.00  0.00    -0.009 C 
HETATM   18  C11 UNL     1      16.791   5.333  12.158  1.00  0.00     0.043 C 
HETATM   19  C12 UNL     1      15.615   4.902  14.303  1.00  0.00     0.043 C 
HETATM   20  C13 UNL     1      16.360   3.567  14.444  1.00  0.00     0.063 C 
HETATM   21  C16 UNL     1      16.599   3.092  13.041  1.00  0.00     0.076 C 
BRANCH  20  22
HETATM   22  O1  UNL     1      15.509   2.705  15.076  1.00  0.00    -0.385 OA
HETATM   23  C14 UNL     1      14.641   3.258  15.984  1.00  0.00     0.202 C 
ENDBRANCH  20  22
ENDBRANCH   9  12
ENDBRANCH   8   9
ENDBRANCH   7   8
ENDBRANCH   4   7
ENDBRANCH   3   4
TORSDOF 6
ENDMDL
MODEL 2
REMARK VINA RESULT: -6.018675184      1.277      1.634
REMARK  6 active torsions:
REMARK  status: ('A' for Active; 'I' for Inactive)
REMARK    1  A    between atoms: C3_3  and  N1_4 
REMARK    2  A    between atoms: N1_4  and  C4_7 
REMARK    3  A    between atoms: C4_7  and  C5_8 
REMARK    4  A    between atoms: C5_8  and  N2_9 
REMARK    5  A    between atoms: N2_9  and  C6_12 
REMARK    6  A    between atoms: C13_19  and  O1_20 
ROOT
HETATM    1  C1  UNL     1      18.226  -2.370  11.368  1.00  0.00     0.013 C 
HETATM    2  C2  UNL     1      17.570  -1.395  11.609  1.00  0.00    -0.090 C 
HETATM    3  C3  UNL     1      16.790  -0.152  11.884  1.00  0.00     0.324 C 
ENDROOT
BRANCH   3   4
HETATM    4  N1  UNL     1      17.770   0.836  12.344  1.00  0.00    -0.064 N 
ATOM      5  H12 UNL     1      17.357   1.569  12.922  1.00  0.00     0.278 HD
ATOM      6  H11 UNL     1      18.413   0.464  13.043  1.00  0.00     0.278 HD
BRANCH   4   7
HETATM    7  C4  UNL     1      18.436   1.346  11.195  1.00  0.00     0.260 C 
BRANCH   7   8
HETATM    8  C5  UNL     1      18.736   2.822  11.296  1.00  0.00     0.260 C 
BRANCH   8   9
HETATM    9  N2  UNL     1      18.982   3.261  12.631  1.00  0.00    -0.065 N 
ATOM     10  H22 UNL     1      18.721   2.539  13.303  1.00  0.00     0.278 HD
ATOM     11  H21 UNL     1      19.984   3.310  12.817  1.00  0.00     0.278 HD
BRANCH   9  12
HETATM   12  C6  UNL     1      18.342   4.509  12.946  1.00  0.00     0.129 C 
HETATM   13  C7  UNL     1      19.109   5.343  13.914  1.00  0.00     0.043 C 
HETATM   14  C8  UNL     1      18.310   6.548  14.297  1.00  0.00    -0.009 C 
HETATM   15  C9  UNL     1      18.132   7.452  13.076  1.00  0.00     0.009 C 
HETATM   16  C15 UNL     1      16.934   6.248  14.799  1.00  0.00     0.043 C 
HETATM   17  C10 UNL     1      17.410   6.618  12.032  1.00  0.00    -0.009 C 
HETATM   18  C11 UNL     1      18.194   5.385  11.688  1.00  0.00     0.043 C 
HETATM   19  C12 UNL     1      16.035   6.286  12.525  1.00  0.00     0.043 C 
HETATM   20  C13 UNL     1      16.178   5.443  13.801  1.00  0.00     0.063 C 
HETATM   21  C16 UNL     1      16.934   4.216  13.387  1.00  0.00     0.076 C 
BRANCH  20  22
HETATM   22  O1  UNL     1      14.915   5.090  14.183  1.00  0.00    -0.385 OA
HETATM   23  C14 UNL     1      14.818   4.167  15.195  1.00  0.00     0.202 C 
ENDBRANCH  20  22
ENDBRANCH   9  12
ENDBRANCH   8   9
ENDBRANCH   7   8
ENDBRANCH   4   7
ENDBRANCH   3   4
TORSDOF 6
ENDMDL
MODEL 3
REMARK VINA RESULT: -5.971751937      1.766      2.612
REMARK  6 active torsions:
REMARK  status: ('A' for Active; 'I' for Inactive)
REMARK    1  A    between atoms: C3_3  and  N1_4 
REMARK    2  A    between atoms: N1_4  and  C4_7 
REMARK    3  A    between atoms: C4_7  and  C5_8 
REMARK    4  A    between atoms: C5_8  and  N2_9 
REMARK    5  A    between atoms: N2_9  and  C6_12 
REMARK    6  A    between atoms: C13_19  and  O1_20 
ROOT
HETATM    1  C1  UNL     1      18.198  -2.380  11.503  1.00  0.00     0.013 C 
HETATM    2  C2  UNL     1      17.555  -1.373  11.607  1.00  0.00    -0.090 C 
HETATM    3  C3  UNL     1      16.795  -0.092  11.717  1.00  0.00     0.324 C 
ENDROOT
BRANCH   3   4
HETATM    4  N1  UNL     1      17.737   0.879  12.280  1.00  0.00    -0.064 N 
ATOM      5  H12 UNL     1      17.288   1.560  12.893  1.00  0.00     0.278 HD
ATOM      6  H11 UNL     1      18.364   0.470  12.973  1.00  0.00     0.278 HD
BRANCH   4   7
HETATM    7  C4  UNL     1      18.430   1.483  11.194  1.00  0.00     0.260 C 
BRANCH   7   8
HETATM    8  C5  UNL     1      18.628   2.968  11.377  1.00  0.00     0.260 C 
BRANCH   8   9
HETATM    9  N2  UNL     1      18.886   3.345  12.728  1.00  0.00    -0.065 N 
ATOM     10  H22 UNL     1      18.712   2.564  13.361  1.00  0.00     0.278 HD
ATOM     11  H21 UNL     1      19.886   3.469  12.885  1.00  0.00     0.278 HD
BRANCH   9  12
HETATM   12  C6  UNL     1      18.155   4.511  13.143  1.00  0.00     0.129 C 
HETATM   13  C7  UNL     1      17.547   4.382  14.498  1.00  0.00     0.043 C 
HETATM   14  C8  UNL     1      16.691   5.572  14.790  1.00  0.00    -0.009 C 
HETATM   15  C9  UNL     1      17.568   6.822  14.887  1.00  0.00     0.009 C 
HETATM   16  C15 UNL     1      15.658   5.867  13.749  1.00  0.00     0.043 C 
HETATM   17  C10 UNL     1      18.264   6.957  13.544  1.00  0.00    -0.009 C 
HETATM   18  C11 UNL     1      19.083   5.738  13.235  1.00  0.00     0.043 C 
HETATM   19  C12 UNL     1      17.244   7.230  12.482  1.00  0.00     0.043 C 
HETATM   20  C13 UNL     1      16.295   6.025  12.412  1.00  0.00     0.063 C 
HETATM   21  C16 UNL     1      17.162   4.851  12.066  1.00  0.00     0.076 C 
BRANCH  20  22
HETATM   22  O1  UNL     1      15.427   6.266  11.385  1.00  0.00    -0.385 OA
HETATM   23  C14 UNL     1      14.620   7.370  11.512  1.00  0.00     0.202 C 
ENDBRANCH  20  22
ENDBRANCH   9  12
ENDBRANCH   8   9
ENDBRANCH   7   8
ENDBRANCH   4   7
ENDBRANCH   3   4
TORSDOF 6
ENDMDL
MODEL 4
REMARK VINA RESULT: -5.905606937      1.746      2.850
REMARK  6 active torsions:
REMARK  status: ('A' for Active; 'I' for Inactive)
REMARK    1  A    between atoms: C3_3  and  N1_4 
REMARK    2  A    between atoms: N1_4  and  C4_7 
REMARK    3  A    between atoms: C4_7  and  C5_8 
REMARK    4  A    between atoms: C5_8  and  N2_9 
REMARK    5  A    between atoms: N2_9  and  C6_12 
REMARK    6  A    between atoms: C13_19  and  O1_20 
ROOT
HETATM    1  C1  UNL     1      19.962   2.571  10.101  1.00  0.00     0.013 C 
HETATM    2  C2  UNL     1      19.536   1.539  10.538  1.00  0.00    -0.090 C 
HETATM    3  C3  UNL     1      19.001   0.236  11.033  1.00  0.00     0.324 C 
ENDROOT
BRANCH   3   4
HETATM    4  N1  UNL     1      17.827  -0.050  10.202  1.00  0.00    -0.064 N 
ATOM      5  H12 UNL     1      17.562   0.732   9.603  1.00  0.00     0.278 HD
ATOM      6  H11 UNL     1      18.019  -0.725   9.461  1.00  0.00     0.278 HD
BRANCH   4   7
HETATM    7  C4  UNL     1      16.778  -0.464  11.069  1.00  0.00     0.260 C 
BRANCH   7   8
HETATM    8  C5  UNL     1      16.779   0.274  12.386  1.00  0.00     0.260 C 
BRANCH   8   9
HETATM    9  N2  UNL     1      16.237   1.590  12.299  1.00  0.00    -0.065 N 
ATOM     10  H22 UNL     1      16.671   2.111  11.536  1.00  0.00     0.278 HD
ATOM     11  H21 UNL     1      15.275   1.564  11.959  1.00  0.00     0.278 HD
BRANCH   9  12
HETATM   12  C6  UNL     1      16.321   2.324  13.532  1.00  0.00     0.129 C 
HETATM   13  C7  UNL     1      17.458   3.287  13.575  1.00  0.00     0.043 C 
HETATM   14  C8  UNL     1      17.560   3.898  14.936  1.00  0.00    -0.009 C 
HETATM   15  C9  UNL     1      16.324   4.759  15.204  1.00  0.00     0.009 C 
HETATM   16  C15 UNL     1      17.632   2.911  16.057  1.00  0.00     0.043 C 
HETATM   17  C10 UNL     1      15.128   3.829  15.103  1.00  0.00    -0.009 C 
HETATM   18  C11 UNL     1      15.060   3.181  13.751  1.00  0.00     0.043 C 
HETATM   19  C12 UNL     1      15.193   2.816  16.205  1.00  0.00     0.043 C 
HETATM   20  C13 UNL     1      16.468   1.983  16.012  1.00  0.00     0.063 C 
HETATM   21  C16 UNL     1      16.324   1.336  14.667  1.00  0.00     0.076 C 
BRANCH  20  22
HETATM   22  O1  UNL     1      16.461   1.021  16.981  1.00  0.00    -0.385 OA
HETATM   23  C14 UNL     1      15.229   0.629  17.445  1.00  0.00     0.202 C 
ENDBRANCH  20  22
ENDBRANCH   9  12
ENDBRANCH   8   9
ENDBRANCH   7   8
ENDBRANCH   4   7
ENDBRANCH   3   4
TORSDOF 6
ENDMDL
MODEL 5
REMARK VINA RESULT: -5.881992483      0.774      1.046
REMARK  6 active torsions:
REMARK  status: ('A' for Active; 'I' for Inactive)
REMARK    1  A    between atoms: C3_3  and  N1_4 
REMARK    2  A    between atoms: N1_4  and  C4_7 
REMARK    3  A    between atoms: C4_7  and  C5_8 
REMARK    4  A    between atoms: C5_8  and  N2_9 
REMARK    5  A    between atoms: N2_9  and  C6_12 
REMARK    6  A    between atoms: C13_19  and  O1_20 
ROOT
HETATM    1  C1  UNL     1      16.065   0.250  10.701  1.00  0.00     0.013 C 
HETATM    2  C2  UNL     1      17.238   0.051  10.850  1.00  0.00    -0.090 C 
HETATM    3  C3  UNL     1      18.696  -0.170  11.080  1.00  0.00     0.324 C 
ENDROOT
BRANCH   3   4
HETATM    4  N1  UNL     1      19.234   1.134  11.485  1.00  0.00    -0.064 N 
ATOM      5  H12 UNL     1      18.704   1.565  12.243  1.00  0.00     0.278 HD
ATOM      6  H11 UNL     1      20.127   1.062  11.972  1.00  0.00     0.278 HD
BRANCH   4   7
HETATM    7  C4  UNL     1      19.301   1.950  10.322  1.00  0.00     0.260 C 
BRANCH   7   8
HETATM    8  C5  UNL     1      18.946   3.391  10.594  1.00  0.00     0.260 C 
BRANCH   8   9
HETATM    9  N2  UNL     1      17.576   3.583  10.942  1.00  0.00    -0.065 N 
ATOM     10  H22 UNL     1      17.103   4.161  10.247  1.00  0.00     0.278 HD
ATOM     11  H21 UNL     1      17.049   2.717  10.827  1.00  0.00     0.278 HD
BRANCH   9  12
HETATM   12  C6  UNL     1      17.394   4.120  12.263  1.00  0.00     0.129 C 
HETATM   13  C7  UNL     1      18.672   4.466  12.946  1.00  0.00     0.043 C 
HETATM   14  C8  UNL     1      18.402   4.878  14.358  1.00  0.00    -0.009 C 
HETATM   15  C9  UNL     1      17.603   6.183  14.367  1.00  0.00     0.009 C 
HETATM   16  C15 UNL     1      17.604   3.894  15.152  1.00  0.00     0.043 C 
HETATM   17  C10 UNL     1      16.314   5.895  13.618  1.00  0.00    -0.009 C 
HETATM   18  C11 UNL     1      16.593   5.435  12.217  1.00  0.00     0.043 C 
HETATM   19  C12 UNL     1      15.507   4.893  14.385  1.00  0.00     0.043 C 
HETATM   20  C13 UNL     1      16.318   3.591  14.466  1.00  0.00     0.063 C 
HETATM   21  C16 UNL     1      16.532   3.164  13.043  1.00  0.00     0.076 C 
BRANCH  20  22
HETATM   22  O1  UNL     1      15.529   2.673  15.099  1.00  0.00    -0.385 OA
HETATM   23  C14 UNL     1      14.684   3.158  16.068  1.00  0.00     0.202 C 
ENDBRANCH  20  22
ENDBRANCH   9  12
ENDBRANCH   8   9
ENDBRANCH   7   8
ENDBRANCH   4   7
ENDBRANCH   3   4
TORSDOF 6
ENDMDL
