MODEL 1
REMARK VINA RESULT: -6.883053183      0.000      0.000
REMARK  6 active torsions:
REMARK  status: ('A' for Active; 'I' for Inactive)
REMARK    1  A    between atoms: C1_2  and  C2_3 
REMARK       I    between atoms: C1_2  and  N2_10 
REMARK    2  A    between atoms: C2_3  and  N1_4 
REMARK    3  A    between atoms: N1_4  and  C3_7 
REMARK    4  A    between atoms: N2_10  and  C6_12 
REMARK    5  A    between atoms: C6_12  and  C7_13 
REMARK    6  A    between atoms: N3_15  and  C9_16 
ROOT
HETATM    1  O1  UNL     1      16.041   3.539  10.803  1.00  0.00    -0.272 OA
HETATM    2  C1  UNL     1      17.130   3.466  11.410  1.00  0.00     0.243 C 
HETATM    3  N2  UNL     1      17.594   4.472  12.293  1.00  0.00    -0.359 N 
ATOM      4  H2  UNL     1      18.492   4.366  12.764  1.00  0.00     0.162 HD
ENDROOT
BRANCH   3   5
HETATM    5  C6  UNL     1      16.798   5.635  12.518  1.00  0.00     0.130 C 
BRANCH   5   6
HETATM    6  C7  UNL     1      16.403   5.829  13.959  1.00  0.00     0.060 C 
HETATM    7  C8  UNL     1      15.111   5.057  14.235  1.00  0.00     0.280 C 
HETATM    8  N3  UNL     1      15.753   4.403  15.292  1.00  0.00     0.094 N 
HETATM    9  C15 UNL     1      17.032   4.770  14.827  1.00  0.00     0.280 C 
BRANCH   8  10
HETATM   10  C9  UNL     1      15.445   3.117  15.734  1.00  0.00     0.223 C 
HETATM   11  C10 UNL     1      14.437   3.193  16.877  1.00  0.00     0.036 C 
HETATM   12  C11 UNL     1      13.790   1.842  16.960  1.00  0.00     0.002 C 
HETATM   13  C12 UNL     1      14.673   0.672  16.860  1.00  0.00     0.000 C 
HETATM   14  C13 UNL     1      16.038   0.833  16.329  1.00  0.00     0.002 C 
HETATM   15  C14 UNL     1      16.550   2.261  16.260  1.00  0.00     0.036 C 
ENDBRANCH   8  10
ENDBRANCH   5   6
ENDBRANCH   3   5
BRANCH   2  16
HETATM   16  C2  UNL     1      17.984   2.241  11.178  1.00  0.00     0.335 C 
BRANCH  16  17
HETATM   17  N1  UNL     1      17.899   1.433  12.351  1.00  0.00    -0.063 N 
ATOM     18  H12 UNL     1      18.783   0.957  12.528  1.00  0.00     0.278 HD
ATOM     19  H11 UNL     1      17.849   2.015  13.187  1.00  0.00     0.278 HD
BRANCH  17  20
HETATM   20  C3  UNL     1      16.801   0.483  12.318  1.00  0.00     0.186 A 
HETATM   21  C4  UNL     1      17.146  -0.956  11.996  1.00  0.00     0.035 A 
HETATM   22  C5  UNL     1      16.461  -0.122  10.975  1.00  0.00     0.035 A 
ENDBRANCH  17  20
ENDBRANCH  16  17
ENDBRANCH   2  16
TORSDOF 6
ENDMDL
MODEL 2
REMARK VINA RESULT: -6.854953056      0.878      1.037
REMARK  6 active torsions:
REMARK  status: ('A' for Active; 'I' for Inactive)
REMARK    1  A    between atoms: C1_2  and  C2_3 
REMARK       I    between atoms: C1_2  and  N2_10 
REMARK    2  A    between atoms: C2_3  and  N1_4 
REMARK    3  A    between atoms: N1_4  and  C3_7 
REMARK    4  A    between atoms: N2_10  and  C6_12 
REMARK    5  A    between atoms: C6_12  and  C7_13 
REMARK    6  A    between atoms: N3_15  and  C9_16 
ROOT
HETATM    1  O1  UNL     1      17.055   3.053  10.084  1.00  0.00    -0.272 OA
HETATM    2  C1  UNL     1      18.016   2.966  10.875  1.00  0.00     0.243 C 
HETATM    3  N2  UNL     1      18.199   3.844  11.971  1.00  0.00    -0.359 N 
ATOM      4  H2  UNL     1      19.004   3.733  12.589  1.00  0.00     0.162 HD
ENDROOT
BRANCH   3   5
HETATM    5  C6  UNL     1      17.253   4.885  12.207  1.00  0.00     0.130 C 
BRANCH   5   6
HETATM    6  C7  UNL     1      17.086   5.234  13.663  1.00  0.00     0.060 C 
HETATM    7  C8  UNL     1      15.672   4.855  14.112  1.00  0.00     0.280 C 
HETATM    8  N3  UNL     1      16.228   4.090  15.144  1.00  0.00     0.094 N 
HETATM    9  C15 UNL     1      17.500   4.077  14.535  1.00  0.00     0.280 C 
BRANCH   8  10
HETATM   10  C9  UNL     1      15.638   2.955  15.698  1.00  0.00     0.223 C 
HETATM   11  C10 UNL     1      14.536   3.368  16.668  1.00  0.00     0.036 C 
HETATM   12  C11 UNL     1      13.645   2.172  16.829  1.00  0.00     0.002 C 
HETATM   13  C12 UNL     1      14.301   0.870  17.003  1.00  0.00     0.000 C 
HETATM   14  C13 UNL     1      15.724   0.720  16.654  1.00  0.00     0.002 C 
HETATM   15  C14 UNL     1      16.497   2.015  16.478  1.00  0.00     0.036 C 
ENDBRANCH   8  10
ENDBRANCH   5   6
ENDBRANCH   3   5
BRANCH   2  16
HETATM   16  C2  UNL     1      19.029   1.869  10.635  1.00  0.00     0.335 C 
BRANCH  16  17
HETATM   17  N1  UNL     1      18.715   0.798  11.522  1.00  0.00    -0.063 N 
ATOM     18  H12 UNL     1      19.564   0.402  11.926  1.00  0.00     0.278 HD
ATOM     19  H11 UNL     1      18.273   1.150  12.371  1.00  0.00     0.278 HD
BRANCH  17  20
HETATM   20  C3  UNL     1      17.903  -0.239  10.912  1.00  0.00     0.186 A 
HETATM   21  C4  UNL     1      16.889  -0.932  11.799  1.00  0.00     0.035 A 
HETATM   22  C5  UNL     1      18.123  -1.654  11.398  1.00  0.00     0.035 A 
ENDBRANCH  17  20
ENDBRANCH  16  17
ENDBRANCH   2  16
TORSDOF 6
ENDMDL
MODEL 3
REMARK VINA RESULT: -6.664121684      2.040      3.181
REMARK  6 active torsions:
REMARK  status: ('A' for Active; 'I' for Inactive)
REMARK    1  A    between atoms: C1_2  and  C2_3 
REMARK       I    between atoms: C1_2  and  N2_10 
REMARK    2  A    between atoms: C2_3  and  N1_4 
REMARK    3  A    between atoms: N1_4  and  C3_7 
REMARK    4  A    between atoms: N2_10  and  C6_12 
REMARK    5  A    between atoms: C6_12  and  C7_13 
REMARK    6  A    between atoms: N3_15  and  C9_16 
ROOT
HETATM    1  O1  UNL     1      19.968   1.745   9.577  1.00  0.00    -0.272 OA
HETATM    2  C1  UNL     1      19.623   1.550  10.760  1.00  0.00     0.243 C 
HETATM    3  N2  UNL     1      19.877   2.474  11.804  1.00  0.00    -0.359 N 
ATOM      4  H2  UNL     1      19.575   2.267  12.756  1.00  0.00     0.162 HD
ENDROOT
BRANCH   3   5
HETATM    5  C6  UNL     1      20.557   3.695  11.515  1.00  0.00     0.130 C 
BRANCH   5   6
HETATM    6  C7  UNL     1      19.874   4.915  12.076  1.00  0.00     0.060 C 
HETATM    7  C8  UNL     1      18.363   4.789  11.866  1.00  0.00     0.280 C 
HETATM    8  N3  UNL     1      18.177   4.991  13.238  1.00  0.00     0.094 N 
HETATM    9  C15 UNL     1      19.528   4.708  13.528  1.00  0.00     0.280 C 
BRANCH   8  10
HETATM   10  C9  UNL     1      17.116   4.474  13.979  1.00  0.00     0.223 C 
HETATM   11  C10 UNL     1      16.280   5.617  14.549  1.00  0.00     0.036 C 
HETATM   12  C11 UNL     1      14.940   5.033  14.884  1.00  0.00     0.002 C 
HETATM   13  C12 UNL     1      14.929   3.731  15.563  1.00  0.00     0.000 C 
HETATM   14  C13 UNL     1      16.144   2.898  15.558  1.00  0.00     0.002 C 
HETATM   15  C14 UNL     1      17.425   3.608  15.157  1.00  0.00     0.036 C 
ENDBRANCH   8  10
ENDBRANCH   5   6
ENDBRANCH   3   5
BRANCH   2  16
HETATM   16  C2  UNL     1      18.904   0.259  11.080  1.00  0.00     0.335 C 
BRANCH  16  17
HETATM   17  N1  UNL     1      17.694   0.247  10.326  1.00  0.00    -0.063 N 
ATOM     18  H12 UNL     1      17.703   0.978   9.615  1.00  0.00     0.278 HD
ATOM     19  H11 UNL     1      17.652  -0.574   9.723  1.00  0.00     0.278 HD
BRANCH  17  20
HETATM   20  C3  UNL     1      16.501   0.343  11.147  1.00  0.00     0.186 A 
HETATM   21  C4  UNL     1      15.966   1.733  11.424  1.00  0.00     0.035 A 
HETATM   22  C5  UNL     1      16.657   0.987  12.506  1.00  0.00     0.035 A 
ENDBRANCH  17  20
ENDBRANCH  16  17
ENDBRANCH   2  16
TORSDOF 6
ENDMDL
MODEL 4
REMARK VINA RESULT: -6.555691529      2.477      6.464
REMARK  6 active torsions:
REMARK  status: ('A' for Active; 'I' for Inactive)
REMARK    1  A    between atoms: C1_2  and  C2_3 
REMARK       I    between atoms: C1_2  and  N2_10 
REMARK    2  A    between atoms: C2_3  and  N1_4 
REMARK    3  A    between atoms: N1_4  and  C3_7 
REMARK    4  A    between atoms: N2_10  and  C6_12 
REMARK    5  A    between atoms: C6_12  and  C7_13 
REMARK    6  A    between atoms: N3_15  and  C9_16 
ROOT
HETATM    1  O1  UNL     1      16.107  -0.321  15.638  1.00  0.00    -0.272 OA
HETATM    2  C1  UNL     1      16.521   0.752  15.153  1.00  0.00     0.243 C 
HETATM    3  N2  UNL     1      16.945   0.882  13.807  1.00  0.00    -0.359 N 
ATOM      4  H2  UNL     1      17.278   1.781  13.459  1.00  0.00     0.162 HD
ENDROOT
BRANCH   3   5
HETATM    5  C6  UNL     1      16.906  -0.252  12.943  1.00  0.00     0.130 C 
BRANCH   5   6
HETATM    6  C7  UNL     1      17.131   0.084  11.491  1.00  0.00     0.060 C 
HETATM    7  C8  UNL     1      17.267   1.602  11.342  1.00  0.00     0.280 C 
HETATM    8  N3  UNL     1      18.495   1.407  10.700  1.00  0.00     0.094 N 
HETATM    9  C15 UNL     1      18.603   0.082  11.171  1.00  0.00     0.280 C 
BRANCH   8  10
HETATM   10  C9  UNL     1      19.555   2.311  10.723  1.00  0.00     0.223 C 
HETATM   11  C10 UNL     1      19.133   3.582  11.455  1.00  0.00     0.036 C 
HETATM   12  C11 UNL     1      20.399   4.267  11.877  1.00  0.00     0.002 C 
HETATM   13  C12 UNL     1      21.482   4.338  10.886  1.00  0.00     0.000 C 
HETATM   14  C13 UNL     1      21.448   3.454   9.708  1.00  0.00     0.002 C 
HETATM   15  C14 UNL     1      20.112   2.791   9.423  1.00  0.00     0.036 C 
ENDBRANCH   8  10
ENDBRANCH   5   6
ENDBRANCH   3   5
BRANCH   2  16
HETATM   16  C2  UNL     1      16.572   1.961  16.060  1.00  0.00     0.335 C 
BRANCH  16  17
HETATM   17  N1  UNL     1      17.272   2.988  15.361  1.00  0.00    -0.063 N 
ATOM     18  H12 UNL     1      18.126   3.246  15.856  1.00  0.00     0.278 HD
ATOM     19  H11 UNL     1      17.680   2.626  14.499  1.00  0.00     0.278 HD
BRANCH  17  20
HETATM   20  C3  UNL     1      16.460   4.161  15.092  1.00  0.00     0.186 A 
HETATM   21  C4  UNL     1      16.403   4.645  13.657  1.00  0.00     0.035 A 
HETATM   22  C5  UNL     1      17.190   5.412  14.657  1.00  0.00     0.035 A 
ENDBRANCH  17  20
ENDBRANCH  16  17
ENDBRANCH   2  16
TORSDOF 6
ENDMDL
MODEL 5
REMARK VINA RESULT: -6.530284412      1.603      2.109
REMARK  6 active torsions:
REMARK  status: ('A' for Active; 'I' for Inactive)
REMARK    1  A    between atoms: C1_2  and  C2_3 
REMARK       I    between atoms: C1_2  and  N2_10 
REMARK    2  A    between atoms: C2_3  and  N1_4 
REMARK    3  A    between atoms: N1_4  and  C3_7 
REMARK    4  A    between atoms: N2_10  and  C6_12 
REMARK    5  A    between atoms: C6_12  and  C7_13 
REMARK    6  A    between atoms: N3_15  and  C9_16 
ROOT
HETATM    1  O1  UNL     1      19.413   3.843  10.050  1.00  0.00    -0.272 OA
HETATM    2  C1  UNL     1      19.429   2.915  10.885  1.00  0.00     0.243 C 
HETATM    3  N2  UNL     1      19.301   3.126  12.280  1.00  0.00    -0.359 N 
ATOM      4  H2  UNL     1      19.321   2.334  12.922  1.00  0.00     0.162 HD
ENDROOT
BRANCH   3   5
HETATM    5  C6  UNL     1      19.144   4.453  12.781  1.00  0.00     0.130 C 
BRANCH   5   6
HETATM    6  C7  UNL     1      17.713   4.825  13.074  1.00  0.00     0.060 C 
HETATM    7  C8  UNL     1      16.869   3.550  13.159  1.00  0.00     0.280 C 
HETATM    8  N3  UNL     1      16.434   3.948  14.428  1.00  0.00     0.094 N 
HETATM    9  C15 UNL     1      17.477   4.887  14.561  1.00  0.00     0.280 C 
BRANCH   8  10
HETATM   10  C9  UNL     1      16.061   3.076  15.449  1.00  0.00     0.223 C 
HETATM   11  C10 UNL     1      16.141   1.636  14.951  1.00  0.00     0.036 C 
HETATM   12  C11 UNL     1      16.223   0.770  16.174  1.00  0.00     0.002 C 
HETATM   13  C12 UNL     1      15.317   1.095  17.284  1.00  0.00     0.000 C 
HETATM   14  C13 UNL     1      14.659   2.413  17.324  1.00  0.00     0.002 C 
HETATM   15  C14 UNL     1      14.689   3.201  16.026  1.00  0.00     0.036 C 
ENDBRANCH   8  10
ENDBRANCH   5   6
ENDBRANCH   3   5
BRANCH   2  16
HETATM   16  C2  UNL     1      19.598   1.505  10.367  1.00  0.00     0.335 C 
BRANCH  16  17
HETATM   17  N1  UNL     1      19.122   0.620  11.380  1.00  0.00    -0.063 N 
ATOM     18  H12 UNL     1      19.878   0.033  11.732  1.00  0.00     0.278 HD
ATOM     19  H11 UNL     1      18.895   1.133  12.231  1.00  0.00     0.278 HD
BRANCH  17  20
HETATM   20  C3  UNL     1      17.996  -0.192  10.954  1.00  0.00     0.186 A 
HETATM   21  C4  UNL     1      17.015  -0.625  12.025  1.00  0.00     0.035 A 
HETATM   22  C5  UNL     1      17.957  -1.620  11.452  1.00  0.00     0.035 A 
ENDBRANCH  17  20
ENDBRANCH  16  17
ENDBRANCH   2  16
TORSDOF 6
ENDMDL
