MODEL 1
REMARK VINA RESULT: -7.591354820      0.000      0.000
REMARK  9 active torsions:
REMARK  status: ('A' for Active; 'I' for Inactive)
REMARK    1  A    between atoms: C8_11  and  C9_13 
REMARK    2  A    between atoms: C9_13  and  C10_16 
REMARK    3  A    between atoms: C10_16  and  O1_17 
REMARK    4  A    between atoms: C10_16  and  C11_20 
REMARK    5  A    between atoms: C11_20  and  C12_23 
REMARK    6  A    between atoms: C12_23  and  C13_26 
REMARK    7  A    between atoms: C13_26  and  C15_29 
REMARK    8  A    between atoms: C15_29  and  O2_30 
REMARK    9  A    between atoms: C15_29  and  O3_32 
ROOT
HETATM    1  C1  UNL     1      16.770  -0.008  14.603  1.00  0.00     0.016 C 
HETATM    2  C2  UNL     1      16.410   0.874  15.349  1.00  0.00    -0.064 C 
HETATM    3  C3  UNL     1      15.963   1.906  16.259  1.00  0.00     0.271 C 
HETATM    4  F1  UNL     1      16.904   2.191  17.212  1.00  0.00    -0.218 F 
HETATM    5  C4  UNL     1      14.738   1.359  16.959  1.00  0.00     0.293 C 
HETATM    6  F2  UNL     1      13.732   1.025  16.057  1.00  0.00    -0.201 F 
HETATM    7  F3  UNL     1      15.109   0.140  17.542  1.00  0.00    -0.201 F 
HETATM    8  C5  UNL     1      14.193   2.257  18.024  1.00  0.00     0.084 C 
HETATM    9  C6  UNL     1      13.821   3.584  17.376  1.00  0.00     0.009 C 
HETATM   10  C7  UNL     1      15.084   4.094  16.696  1.00  0.00     0.055 C 
HETATM   11  C8  UNL     1      15.549   3.207  15.575  1.00  0.00     0.227 C 
HETATM   12  F4  UNL     1      14.448   2.937  14.764  1.00  0.00    -0.231 F 
ENDROOT
BRANCH  11  13
HETATM   13  C9  UNL     1      16.626   3.802  14.775  1.00  0.00     0.349 C 
HETATM   14  F5  UNL     1      16.584   5.200  15.152  1.00  0.00    -0.196 F 
HETATM   15  F6  UNL     1      17.904   3.466  15.207  1.00  0.00    -0.196 F 
BRANCH  13  16
HETATM   16  C10 UNL     1      16.595   3.855  13.309  1.00  0.00     0.345 C 
HETATM   17  F7  UNL     1      15.885   2.754  12.763  1.00  0.00    -0.198 F 
BRANCH  16  18
HETATM   18  O1  UNL     1      15.661   4.913  12.979  1.00  0.00    -0.352 OA
ATOM     19  H1  UNL     1      15.764   5.062  12.046  1.00  0.00     0.213 HD
ENDBRANCH  16  18
BRANCH  16  20
HETATM   20  C11 UNL     1      17.781   4.047  12.484  1.00  0.00     0.377 C 
HETATM   21  F8  UNL     1      18.979   4.138  13.148  1.00  0.00    -0.193 F 
HETATM   22  F9  UNL     1      17.737   5.168  11.664  1.00  0.00    -0.193 F 
BRANCH  20  23
HETATM   23  C12 UNL     1      17.957   2.879  11.501  1.00  0.00     0.353 C 
HETATM   24  F10 UNL     1      17.259   3.151  10.330  1.00  0.00    -0.195 F 
HETATM   25  F11 UNL     1      17.574   1.742  12.130  1.00  0.00    -0.195 F 
BRANCH  23  26
HETATM   26  C13 UNL     1      19.396   2.761  11.066  1.00  0.00     0.220 C 
HETATM   27  C14 UNL     1      19.872   1.383  10.777  1.00  0.00     0.064 C 
HETATM   28  F12 UNL     1      20.214   3.418  11.977  1.00  0.00    -0.231 F 
BRANCH  26  29
HETATM   29  C15 UNL     1      19.525   3.560   9.765  1.00  0.00     0.301 C 
BRANCH  29  30
HETATM   30  O2  UNL     1      20.225   4.729   9.928  1.00  0.00    -0.368 OA
ATOM     31  H2  UNL     1      20.479   5.122   9.101  1.00  0.00     0.212 HD
ENDBRANCH  29  30
BRANCH  29  32
HETATM   32  O3  UNL     1      20.162   2.796   8.794  1.00  0.00    -0.363 OA
HETATM   33  C16 UNL     1      20.717   3.581   7.786  1.00  0.00     0.204 C 
ENDBRANCH  29  32
ENDBRANCH  26  29
ENDBRANCH  23  26
ENDBRANCH  20  23
ENDBRANCH  16  20
ENDBRANCH  13  16
ENDBRANCH  11  13
TORSDOF 9
ENDMDL
MODEL 2
REMARK VINA RESULT: -7.530119181      2.519      6.366
REMARK  9 active torsions:
REMARK  status: ('A' for Active; 'I' for Inactive)
REMARK    1  A    between atoms: C8_11  and  C9_13 
REMARK    2  A    between atoms: C9_13  and  C10_16 
REMARK    3  A    between atoms: C10_16  and  O1_17 
REMARK    4  A    between atoms: C10_16  and  C11_20 
REMARK    5  A    between atoms: C11_20  and  C12_23 
REMARK    6  A    between atoms: C12_23  and  C13_26 
REMARK    7  A    between atoms: C13_26  and  C15_29 
REMARK    8  A    between atoms: C15_29  and  O2_30 
REMARK    9  A    between atoms: C15_29  and  O3_32 
ROOT
HETATM    1  C1  UNL     1      18.996   3.010  11.549  1.00  0.00     0.016 C 
HETATM    2  C2  UNL     1      18.933   4.214  11.642  1.00  0.00    -0.064 C 
HETATM    3  C3  UNL     1      18.890   5.657  11.745  1.00  0.00     0.271 C 
HETATM    4  F1  UNL     1      18.368   6.235  10.619  1.00  0.00    -0.218 F 
HETATM    5  C4  UNL     1      20.324   6.120  11.888  1.00  0.00     0.293 C 
HETATM    6  F2  UNL     1      20.939   5.562  13.005  1.00  0.00    -0.201 F 
HETATM    7  F3  UNL     1      21.033   5.599  10.798  1.00  0.00    -0.201 F 
HETATM    8  C5  UNL     1      20.486   7.606  11.904  1.00  0.00     0.084 C 
HETATM    9  C6  UNL     1      19.687   8.155  13.078  1.00  0.00     0.009 C 
HETATM   10  C7  UNL     1      18.257   7.671  12.883  1.00  0.00     0.055 C 
HETATM   11  C8  UNL     1      18.126   6.176  12.961  1.00  0.00     0.227 C 
HETATM   12  F4  UNL     1      18.797   5.749  14.106  1.00  0.00    -0.231 F 
ENDROOT
BRANCH  11  13
HETATM   13  C9  UNL     1      16.731   5.718  12.999  1.00  0.00     0.349 C 
HETATM   14  F5  UNL     1      15.980   6.925  12.719  1.00  0.00    -0.196 F 
HETATM   15  F6  UNL     1      16.361   4.937  11.910  1.00  0.00    -0.196 F 
BRANCH  13  16
HETATM   16  C10 UNL     1      16.092   5.208  14.217  1.00  0.00     0.345 C 
HETATM   17  F7  UNL     1      16.157   6.152  15.274  1.00  0.00    -0.198 F 
BRANCH  16  18
HETATM   18  O1  UNL     1      14.668   5.255  13.957  1.00  0.00    -0.352 OA
ATOM     19  H1  UNL     1      14.487   4.517  13.387  1.00  0.00     0.213 HD
ENDBRANCH  16  18
BRANCH  16  20
HETATM   20  C11 UNL     1      16.386   3.902  14.796  1.00  0.00     0.377 C 
HETATM   21  F8  UNL     1      17.335   3.874  15.788  1.00  0.00    -0.193 F 
HETATM   22  F9  UNL     1      16.797   2.945  13.877  1.00  0.00    -0.193 F 
BRANCH  20  23
HETATM   23  C12 UNL     1      15.129   3.290  15.430  1.00  0.00     0.353 C 
HETATM   24  F10 UNL     1      14.331   2.738  14.434  1.00  0.00    -0.195 F 
HETATM   25  F11 UNL     1      14.521   4.251  16.166  1.00  0.00    -0.195 F 
BRANCH  23  26
HETATM   26  C13 UNL     1      15.492   2.124  16.316  1.00  0.00     0.220 C 
HETATM   27  C14 UNL     1      14.390   1.173  16.615  1.00  0.00     0.064 C 
HETATM   28  F12 UNL     1      16.111   2.590  17.469  1.00  0.00    -0.231 F 
BRANCH  26  29
HETATM   29  C15 UNL     1      16.574   1.333  15.573  1.00  0.00     0.301 C 
BRANCH  29  30
HETATM   30  O2  UNL     1      17.602   0.942  16.393  1.00  0.00    -0.368 OA
ATOM     31  H2  UNL     1      17.989   1.669  16.868  1.00  0.00     0.212 HD
ENDBRANCH  29  30
BRANCH  29  32
HETATM   32  O3  UNL     1      16.023   0.200  14.986  1.00  0.00    -0.363 OA
HETATM   33  C16 UNL     1      16.769  -0.245  13.898  1.00  0.00     0.204 C 
ENDBRANCH  29  32
ENDBRANCH  26  29
ENDBRANCH  23  26
ENDBRANCH  20  23
ENDBRANCH  16  20
ENDBRANCH  13  16
ENDBRANCH  11  13
TORSDOF 9
ENDMDL
MODEL 3
REMARK VINA RESULT: -7.479010943      0.911      1.255
REMARK  9 active torsions:
REMARK  status: ('A' for Active; 'I' for Inactive)
REMARK    1  A    between atoms: C8_11  and  C9_13 
REMARK    2  A    between atoms: C9_13  and  C10_16 
REMARK    3  A    between atoms: C10_16  and  O1_17 
REMARK    4  A    between atoms: C10_16  and  C11_20 
REMARK    5  A    between atoms: C11_20  and  C12_23 
REMARK    6  A    between atoms: C12_23  and  C13_26 
REMARK    7  A    between atoms: C13_26  and  C15_29 
REMARK    8  A    between atoms: C15_29  and  O2_30 
REMARK    9  A    between atoms: C15_29  and  O3_32 
ROOT
HETATM    1  C1  UNL     1      16.742   0.158  14.472  1.00  0.00     0.016 C 
HETATM    2  C2  UNL     1      16.405   1.017  15.254  1.00  0.00    -0.064 C 
HETATM    3  C3  UNL     1      15.985   2.021  16.209  1.00  0.00     0.271 C 
HETATM    4  F1  UNL     1      16.970   2.309  17.115  1.00  0.00    -0.218 F 
HETATM    5  C4  UNL     1      14.813   1.431  16.964  1.00  0.00     0.293 C 
HETATM    6  F2  UNL     1      13.767   1.091  16.111  1.00  0.00    -0.201 F 
HETATM    7  F3  UNL     1      15.242   0.210  17.500  1.00  0.00    -0.201 F 
HETATM    8  C5  UNL     1      14.307   2.294  18.075  1.00  0.00     0.084 C 
HETATM    9  C6  UNL     1      13.870   3.625  17.476  1.00  0.00     0.009 C 
HETATM   10  C7  UNL     1      15.082   4.177  16.739  1.00  0.00     0.055 C 
HETATM   11  C8  UNL     1      15.504   3.324  15.576  1.00  0.00     0.227 C 
HETATM   12  F4  UNL     1      14.367   3.043  14.821  1.00  0.00    -0.231 F 
ENDROOT
BRANCH  11  13
HETATM   13  C9  UNL     1      16.522   3.960  14.731  1.00  0.00     0.349 C 
HETATM   14  F5  UNL     1      16.600   5.305  15.264  1.00  0.00    -0.196 F 
HETATM   15  F6  UNL     1      17.817   3.520  14.976  1.00  0.00    -0.196 F 
BRANCH  13  16
HETATM   16  C10 UNL     1      16.337   4.186  13.293  1.00  0.00     0.345 C 
HETATM   17  F7  UNL     1      15.603   3.131  12.691  1.00  0.00    -0.198 F 
BRANCH  16  18
HETATM   18  O1  UNL     1      15.347   5.239  13.189  1.00  0.00    -0.352 OA
ATOM     19  H1  UNL     1      14.703   5.051  13.863  1.00  0.00     0.213 HD
ENDBRANCH  16  18
BRANCH  16  20
HETATM   20  C11 UNL     1      17.426   4.519  12.383  1.00  0.00     0.377 C 
HETATM   21  F8  UNL     1      18.569   5.019  12.955  1.00  0.00    -0.193 F 
HETATM   22  F9  UNL     1      17.088   5.434  11.393  1.00  0.00    -0.193 F 
BRANCH  20  23
HETATM   23  C12 UNL     1      17.881   3.280  11.599  1.00  0.00     0.353 C 
HETATM   24  F10 UNL     1      17.023   3.071  10.525  1.00  0.00    -0.195 F 
HETATM   25  F11 UNL     1      17.957   2.241  12.465  1.00  0.00    -0.195 F 
BRANCH  23  26
HETATM   26  C13 UNL     1      19.230   3.514  10.966  1.00  0.00     0.220 C 
HETATM   27  C14 UNL     1      20.397   3.432  11.883  1.00  0.00     0.064 C 
HETATM   28  F12 UNL     1      19.209   4.704  10.250  1.00  0.00    -0.231 F 
BRANCH  26  29
HETATM   29  C15 UNL     1      19.414   2.417   9.913  1.00  0.00     0.301 C 
BRANCH  29  30
HETATM   30  O2  UNL     1      20.264   2.789   8.902  1.00  0.00    -0.368 OA
ATOM     31  H2  UNL     1      20.948   2.149   8.744  1.00  0.00     0.212 HD
ENDBRANCH  29  30
BRANCH  29  32
HETATM   32  O3  UNL     1      19.911   1.261  10.505  1.00  0.00    -0.363 OA
HETATM   33  C16 UNL     1      18.978   0.228  10.507  1.00  0.00     0.204 C 
ENDBRANCH  29  32
ENDBRANCH  26  29
ENDBRANCH  23  26
ENDBRANCH  20  23
ENDBRANCH  16  20
ENDBRANCH  13  16
ENDBRANCH  11  13
TORSDOF 9
ENDMDL
MODEL 4
REMARK VINA RESULT: -7.324105594      2.331      6.547
REMARK  9 active torsions:
REMARK  status: ('A' for Active; 'I' for Inactive)
REMARK    1  A    between atoms: C8_11  and  C9_13 
REMARK    2  A    between atoms: C9_13  and  C10_16 
REMARK    3  A    between atoms: C10_16  and  O1_17 
REMARK    4  A    between atoms: C10_16  and  C11_20 
REMARK    5  A    between atoms: C11_20  and  C12_23 
REMARK    6  A    between atoms: C12_23  and  C13_26 
REMARK    7  A    between atoms: C13_26  and  C15_29 
REMARK    8  A    between atoms: C15_29  and  O2_30 
REMARK    9  A    between atoms: C15_29  and  O3_32 
ROOT
HETATM    1  C1  UNL     1      17.390   1.698  11.197  1.00  0.00     0.016 C 
HETATM    2  C2  UNL     1      18.072   2.686  11.049  1.00  0.00    -0.064 C 
HETATM    3  C3  UNL     1      18.911   3.850  10.855  1.00  0.00     0.271 C 
HETATM    4  F1  UNL     1      18.491   4.613   9.800  1.00  0.00    -0.218 F 
HETATM    5  C4  UNL     1      20.297   3.331  10.536  1.00  0.00     0.293 C 
HETATM    6  F2  UNL     1      20.795   2.524  11.555  1.00  0.00    -0.201 F 
HETATM    7  F3  UNL     1      20.169   2.471   9.437  1.00  0.00    -0.201 F 
HETATM    8  C5  UNL     1      21.286   4.400  10.199  1.00  0.00     0.084 C 
HETATM    9  C6  UNL     1      21.390   5.339  11.394  1.00  0.00     0.009 C 
HETATM   10  C7  UNL     1      19.978   5.837  11.668  1.00  0.00     0.055 C 
HETATM   11  C8  UNL     1      19.038   4.743  12.087  1.00  0.00     0.227 C 
HETATM   12  F4  UNL     1      19.663   4.006  13.092  1.00  0.00    -0.231 F 
ENDROOT
BRANCH  11  13
HETATM   13  C9  UNL     1      17.743   5.243  12.567  1.00  0.00     0.349 C 
HETATM   14  F5  UNL     1      17.796   6.655  12.246  1.00  0.00    -0.196 F 
HETATM   15  F6  UNL     1      16.661   4.852  11.787  1.00  0.00    -0.196 F 
BRANCH  13  16
HETATM   16  C10 UNL     1      17.363   5.242  13.983  1.00  0.00     0.345 C 
HETATM   17  F7  UNL     1      18.416   4.762  14.805  1.00  0.00    -0.198 F 
BRANCH  16  18
HETATM   18  O1  UNL     1      17.373   6.632  14.390  1.00  0.00    -0.352 OA
ATOM     19  H1  UNL     1      17.456   6.621  15.336  1.00  0.00     0.213 HD
ENDBRANCH  16  18
BRANCH  16  20
HETATM   20  C11 UNL     1      16.129   4.649  14.486  1.00  0.00     0.377 C 
HETATM   21  F8  UNL     1      14.976   4.979  13.818  1.00  0.00    -0.193 F 
HETATM   22  F9  UNL     1      15.863   4.922  15.822  1.00  0.00    -0.193 F 
BRANCH  20  23
HETATM   23  C12 UNL     1      16.197   3.116  14.430  1.00  0.00     0.353 C 
HETATM   24  F10 UNL     1      17.514   2.719  14.227  1.00  0.00    -0.195 F 
HETATM   25  F11 UNL     1      15.332   2.694  13.476  1.00  0.00    -0.195 F 
BRANCH  23  26
HETATM   26  C13 UNL     1      15.820   2.515  15.761  1.00  0.00     0.220 C 
HETATM   27  C14 UNL     1      14.412   2.723  16.188  1.00  0.00     0.064 C 
HETATM   28  F12 UNL     1      16.728   2.923  16.730  1.00  0.00    -0.231 F 
BRANCH  26  29
HETATM   29  C15 UNL     1      16.028   1.003  15.630  1.00  0.00     0.301 C 
BRANCH  29  30
HETATM   30  O2  UNL     1      17.232   0.587  16.140  1.00  0.00    -0.368 OA
ATOM     31  H2  UNL     1      17.159  -0.211  16.650  1.00  0.00     0.212 HD
ENDBRANCH  29  30
BRANCH  29  32
HETATM   32  O3  UNL     1      15.011   0.320  16.289  1.00  0.00    -0.363 OA
HETATM   33  C16 UNL     1      15.263   0.188  17.652  1.00  0.00     0.204 C 
ENDBRANCH  29  32
ENDBRANCH  26  29
ENDBRANCH  23  26
ENDBRANCH  20  23
ENDBRANCH  16  20
ENDBRANCH  13  16
ENDBRANCH  11  13
TORSDOF 9
ENDMDL
MODEL 5
REMARK VINA RESULT: -7.315628394      1.379      1.922
REMARK  9 active torsions:
REMARK  status: ('A' for Active; 'I' for Inactive)
REMARK    1  A    between atoms: C8_11  and  C9_13 
REMARK    2  A    between atoms: C9_13  and  C10_16 
REMARK    3  A    between atoms: C10_16  and  O1_17 
REMARK    4  A    between atoms: C10_16  and  C11_20 
REMARK    5  A    between atoms: C11_20  and  C12_23 
REMARK    6  A    between atoms: C12_23  and  C13_26 
REMARK    7  A    between atoms: C13_26  and  C15_29 
REMARK    8  A    between atoms: C15_29  and  O2_30 
REMARK    9  A    between atoms: C15_29  and  O3_32 
ROOT
HETATM    1  C1  UNL     1      16.824  -0.181  14.453  1.00  0.00     0.016 C 
HETATM    2  C2  UNL     1      16.550   0.849  15.027  1.00  0.00    -0.064 C 
HETATM    3  C3  UNL     1      16.209   2.062  15.739  1.00  0.00     0.271 C 
HETATM    4  F1  UNL     1      17.264   2.544  16.465  1.00  0.00    -0.218 F 
HETATM    5  C4  UNL     1      15.103   1.696  16.705  1.00  0.00     0.293 C 
HETATM    6  F2  UNL     1      13.991   1.177  16.047  1.00  0.00    -0.201 F 
HETATM    7  F3  UNL     1      15.577   0.634  17.487  1.00  0.00    -0.201 F 
HETATM    8  C5  UNL     1      14.688   2.812  17.609  1.00  0.00     0.084 C 
HETATM    9  C6  UNL     1      14.202   3.965  16.741  1.00  0.00     0.009 C 
HETATM   10  C7  UNL     1      15.349   4.299  15.797  1.00  0.00     0.055 C 
HETATM   11  C8  UNL     1      15.675   3.181  14.847  1.00  0.00     0.227 C 
HETATM   12  F4  UNL     1      14.481   2.746  14.276  1.00  0.00    -0.231 F 
ENDROOT
BRANCH  11  13
HETATM   13  C9  UNL     1      16.620   3.573  13.794  1.00  0.00     0.349 C 
HETATM   14  F5  UNL     1      16.359   4.988  13.627  1.00  0.00    -0.196 F 
HETATM   15  F6  UNL     1      17.946   3.613  14.208  1.00  0.00    -0.196 F 
BRANCH  13  16
HETATM   16  C10 UNL     1      16.543   3.060  12.422  1.00  0.00     0.345 C 
HETATM   17  F7  UNL     1      15.440   2.182  12.256  1.00  0.00    -0.198 F 
BRANCH  16  18
HETATM   18  O1  UNL     1      16.073   4.169  11.618  1.00  0.00    -0.352 OA
ATOM     19  H1  UNL     1      15.971   4.896  12.221  1.00  0.00     0.213 HD
ENDBRANCH  16  18
BRANCH  16  20
HETATM   20  C11 UNL     1      17.671   2.459  11.721  1.00  0.00     0.377 C 
HETATM   21  F8  UNL     1      17.369   1.498  10.788  1.00  0.00    -0.193 F 
HETATM   22  F9  UNL     1      18.618   1.871  12.551  1.00  0.00    -0.193 F 
BRANCH  20  23
HETATM   23  C12 UNL     1      18.466   3.524  10.951  1.00  0.00     0.353 C 
HETATM   24  F10 UNL     1      18.793   4.567  11.811  1.00  0.00    -0.195 F 
HETATM   25  F11 UNL     1      17.734   3.896   9.874  1.00  0.00    -0.195 F 
BRANCH  23  26
HETATM   26  C13 UNL     1      19.796   2.975  10.498  1.00  0.00     0.220 C 
HETATM   27  C14 UNL     1      20.151   3.232   9.079  1.00  0.00     0.064 C 
HETATM   28  F12 UNL     1      19.878   1.626  10.824  1.00  0.00    -0.231 F 
BRANCH  26  29
HETATM   29  C15 UNL     1      20.865   3.659  11.357  1.00  0.00     0.301 C 
BRANCH  29  30
HETATM   30  O2  UNL     1      21.324   2.856  12.370  1.00  0.00    -0.368 OA
ATOM     31  H2  UNL     1      22.269   2.891  12.466  1.00  0.00     0.212 HD
ENDBRANCH  29  30
BRANCH  29  32
HETATM   32  O3  UNL     1      21.945   4.035  10.567  1.00  0.00    -0.363 OA
HETATM   33  C16 UNL     1      22.721   5.021  11.171  1.00  0.00     0.204 C 
ENDBRANCH  29  32
ENDBRANCH  26  29
ENDBRANCH  23  26
ENDBRANCH  20  23
ENDBRANCH  16  20
ENDBRANCH  13  16
ENDBRANCH  11  13
TORSDOF 9
ENDMDL
