MODEL 1
REMARK VINA RESULT: -6.334269599      0.000      0.000
REMARK  7 active torsions:
REMARK  status: ('A' for Active; 'I' for Inactive)
REMARK    1  A    between atoms: N1_4  and  C4_5 
REMARK    2  A    between atoms: C4_5  and  C5_6 
REMARK    3  A    between atoms: C5_6  and  N2_7 
REMARK    4  A    between atoms: N2_7  and  C6_10 
REMARK    5  A    between atoms: C6_10  and  C7_11 
REMARK    6  A    between atoms: C7_11  and  N3_12 
REMARK    7  A    between atoms: N3_12  and  C8_15 
ROOT
HETATM    1  N3  UNL     1      18.055   2.764  12.437  1.00  0.00    -0.067 N 
ATOM      2  H31 UNL     1      18.886   2.930  11.869  1.00  0.00     0.277 HD
ATOM      3  H32 UNL     1      18.460   2.179  13.168  1.00  0.00     0.277 HD
ENDROOT
BRANCH   1   4
HETATM    4  C7  UNL     1      17.080   2.032  11.697  1.00  0.00     0.260 C 
BRANCH   4   5
HETATM    5  C6  UNL     1      16.187   1.278  12.664  1.00  0.00     0.259 C 
BRANCH   5   6
HETATM    6  N2  UNL     1      16.948   0.242  13.284  1.00  0.00    -0.072 N 
ATOM      7  H22 UNL     1      17.937   0.326  13.050  1.00  0.00     0.277 HD
ATOM      8  H21 UNL     1      16.752  -0.662  12.855  1.00  0.00     0.277 HD
BRANCH   6   9
HETATM    9  C5  UNL     1      16.758   0.185  14.732  1.00  0.00     0.262 C 
BRANCH   9  10
HETATM   10  C4  UNL     1      15.926   1.337  15.197  1.00  0.00     0.299 C 
BRANCH  10  11
HETATM   11  N1  UNL     1      15.994   1.417  16.644  1.00  0.00     0.090 N 
HETATM   12  C3  UNL     1      14.995   0.537  17.247  1.00  0.00     0.272 C 
HETATM   13  C2  UNL     1      13.680   1.217  17.042  1.00  0.00     0.032 C 
HETATM   14  C1  UNL     1      14.082   2.676  17.208  1.00  0.00     0.032 C 
HETATM   15  C17 UNL     1      15.584   2.741  17.044  1.00  0.00     0.272 C 
ENDBRANCH  10  11
ENDBRANCH   9  10
ENDBRANCH   6   9
ENDBRANCH   5   6
ENDBRANCH   4   5
ENDBRANCH   1   4
BRANCH   1  16
HETATM   16  C8  UNL     1      17.572   3.987  12.986  1.00  0.00     0.218 C 
HETATM   17  C9  UNL     1      17.950   4.279  14.398  1.00  0.00     0.021 C 
HETATM   18  C10 UNL     1      16.983   5.384  14.857  1.00  0.00     0.011 C 
HETATM   19  C14 UNL     1      19.371   4.798  14.516  1.00  0.00     0.038 C 
HETATM   20  C11 UNL     1      17.183   6.581  13.954  1.00  0.00    -0.009 C 
HETATM   21  C12 UNL     1      18.604   7.123  14.072  1.00  0.00     0.036 C 
HETATM   22  C16 UNL     1      16.957   6.279  12.495  1.00  0.00     0.039 C 
HETATM   23  C13 UNL     1      19.525   6.014  13.623  1.00  0.00     0.122 C 
HETATM   24  O1  UNL     1      19.240   5.614  12.341  1.00  0.00    -0.378 OA
HETATM   25  C15 UNL     1      17.958   5.175  12.127  1.00  0.00     0.153 C 
ENDBRANCH   1  16
TORSDOF 7
ENDMDL
MODEL 2
REMARK VINA RESULT: -6.143924621      0.882      1.665
REMARK  7 active torsions:
REMARK  status: ('A' for Active; 'I' for Inactive)
REMARK    1  A    between atoms: N1_4  and  C4_5 
REMARK    2  A    between atoms: C4_5  and  C5_6 
REMARK    3  A    between atoms: C5_6  and  N2_7 
REMARK    4  A    between atoms: N2_7  and  C6_10 
REMARK    5  A    between atoms: C6_10  and  C7_11 
REMARK    6  A    between atoms: C7_11  and  N3_12 
REMARK    7  A    between atoms: N3_12  and  C8_15 
ROOT
HETATM    1  N3  UNL     1      18.016   2.840  12.318  1.00  0.00    -0.067 N 
ATOM      2  H31 UNL     1      18.856   2.427  11.912  1.00  0.00     0.277 HD
ATOM      3  H32 UNL     1      18.020   2.380  13.228  1.00  0.00     0.277 HD
ENDROOT
BRANCH   1   4
HETATM    4  C7  UNL     1      16.861   2.461  11.572  1.00  0.00     0.260 C 
BRANCH   4   5
HETATM    5  C6  UNL     1      16.237   1.236  12.215  1.00  0.00     0.259 C 
BRANCH   5   6
HETATM    6  N2  UNL     1      17.178   0.659  13.120  1.00  0.00    -0.072 N 
ATOM      7  H22 UNL     1      17.998   1.256  13.222  1.00  0.00     0.277 HD
ATOM      8  H21 UNL     1      17.619  -0.164  12.711  1.00  0.00     0.277 HD
BRANCH   6   9
HETATM    9  C5  UNL     1      16.594   0.346  14.423  1.00  0.00     0.262 C 
BRANCH   9  10
HETATM   10  C4  UNL     1      15.936   1.554  15.007  1.00  0.00     0.299 C 
BRANCH  10  11
HETATM   11  N1  UNL     1      16.092   1.528  16.449  1.00  0.00     0.090 N 
HETATM   12  C3  UNL     1      15.193   0.538  17.038  1.00  0.00     0.272 C 
HETATM   13  C2  UNL     1      13.826   1.137  16.967  1.00  0.00     0.032 C 
HETATM   14  C1  UNL     1      14.142   2.604  17.225  1.00  0.00     0.032 C 
HETATM   15  C17 UNL     1      15.623   2.786  16.977  1.00  0.00     0.272 C 
ENDBRANCH  10  11
ENDBRANCH   9  10
ENDBRANCH   6   9
ENDBRANCH   5   6
ENDBRANCH   4   5
ENDBRANCH   1   4
BRANCH   1  16
HETATM   16  C8  UNL     1      18.175   4.248  12.469  1.00  0.00     0.218 C 
HETATM   17  C9  UNL     1      16.930   5.068  12.414  1.00  0.00     0.021 C 
HETATM   18  C10 UNL     1      17.406   6.512  12.172  1.00  0.00     0.011 C 
HETATM   19  C14 UNL     1      16.158   5.025  13.719  1.00  0.00     0.038 C 
HETATM   20  C11 UNL     1      18.299   6.906  13.328  1.00  0.00    -0.009 C 
HETATM   21  C12 UNL     1      17.532   6.880  14.645  1.00  0.00     0.036 C 
HETATM   22  C16 UNL     1      19.491   5.999  13.505  1.00  0.00     0.039 C 
HETATM   23  C13 UNL     1      17.074   5.457  14.848  1.00  0.00     0.122 C 
HETATM   24  O1  UNL     1      18.136   4.587  14.863  1.00  0.00    -0.378 OA
HETATM   25  C15 UNL     1      18.924   4.593  13.741  1.00  0.00     0.153 C 
ENDBRANCH   1  16
TORSDOF 7
ENDMDL
MODEL 3
REMARK VINA RESULT: -6.043674533      0.965      1.270
REMARK  7 active torsions:
REMARK  status: ('A' for Active; 'I' for Inactive)
REMARK    1  A    between atoms: N1_4  and  C4_5 
REMARK    2  A    between atoms: C4_5  and  C5_6 
REMARK    3  A    between atoms: C5_6  and  N2_7 
REMARK    4  A    between atoms: N2_7  and  C6_10 
REMARK    5  A    between atoms: C6_10  and  C7_11 
REMARK    6  A    between atoms: C7_11  and  N3_12 
REMARK    7  A    between atoms: N3_12  and  C8_15 
ROOT
HETATM    1  N3  UNL     1      16.899   3.584  11.261  1.00  0.00    -0.067 N 
ATOM      2  H31 UNL     1      16.172   4.049  10.716  1.00  0.00     0.277 HD
ATOM      3  H32 UNL     1      17.722   3.873  10.732  1.00  0.00     0.277 HD
ENDROOT
BRANCH   1   4
HETATM    4  C7  UNL     1      16.739   2.168  11.203  1.00  0.00     0.260 C 
BRANCH   4   5
HETATM    5  C6  UNL     1      16.095   1.690  12.491  1.00  0.00     0.259 C 
BRANCH   5   6
HETATM    6  N2  UNL     1      16.837   0.577  12.993  1.00  0.00    -0.072 N 
ATOM      7  H22 UNL     1      17.815   0.633  12.709  1.00  0.00     0.277 HD
ATOM      8  H21 UNL     1      16.573  -0.283  12.512  1.00  0.00     0.277 HD
BRANCH   6   9
HETATM    9  C5  UNL     1      16.721   0.423  14.441  1.00  0.00     0.262 C 
BRANCH   9  10
HETATM   10  C4  UNL     1      15.894   1.525  15.021  1.00  0.00     0.299 C 
BRANCH  10  11
HETATM   11  N1  UNL     1      16.059   1.533  16.462  1.00  0.00     0.090 N 
HETATM   12  C3  UNL     1      15.150   0.571  17.082  1.00  0.00     0.272 C 
HETATM   13  C2  UNL     1      13.791   1.190  17.004  1.00  0.00     0.032 C 
HETATM   14  C1  UNL     1      14.131   2.657  17.223  1.00  0.00     0.032 C 
HETATM   15  C17 UNL     1      15.613   2.811  16.962  1.00  0.00     0.272 C 
ENDBRANCH  10  11
ENDBRANCH   9  10
ENDBRANCH   6   9
ENDBRANCH   5   6
ENDBRANCH   4   5
ENDBRANCH   1   4
BRANCH   1  16
HETATM   16  C8  UNL     1      16.945   4.111  12.584  1.00  0.00     0.218 C 
HETATM   17  C9  UNL     1      18.300   4.331  13.166  1.00  0.00     0.021 C 
HETATM   18  C10 UNL     1      18.072   4.477  14.681  1.00  0.00     0.011 C 
HETATM   19  C14 UNL     1      18.947   5.602  12.648  1.00  0.00     0.038 C 
HETATM   20  C11 UNL     1      17.157   5.662  14.900  1.00  0.00    -0.009 C 
HETATM   21  C12 UNL     1      17.800   6.950  14.397  1.00  0.00     0.036 C 
HETATM   22  C16 UNL     1      15.831   5.538  14.195  1.00  0.00     0.039 C 
HETATM   23  C13 UNL     1      18.017   6.770  12.914  1.00  0.00     0.122 C 
HETATM   24  O1  UNL     1      16.837   6.505  12.264  1.00  0.00    -0.378 OA
HETATM   25  C15 UNL     1      16.154   5.399  12.701  1.00  0.00     0.153 C 
ENDBRANCH   1  16
TORSDOF 7
ENDMDL
MODEL 4
REMARK VINA RESULT: -6.020903269      1.175      1.925
REMARK  7 active torsions:
REMARK  status: ('A' for Active; 'I' for Inactive)
REMARK    1  A    between atoms: N1_4  and  C4_5 
REMARK    2  A    between atoms: C4_5  and  C5_6 
REMARK    3  A    between atoms: C5_6  and  N2_7 
REMARK    4  A    between atoms: N2_7  and  C6_10 
REMARK    5  A    between atoms: C6_10  and  C7_11 
REMARK    6  A    between atoms: C7_11  and  N3_12 
REMARK    7  A    between atoms: N3_12  and  C8_15 
ROOT
HETATM    1  N3  UNL     1      16.939   2.920  11.434  1.00  0.00    -0.067 N 
ATOM      2  H31 UNL     1      16.393   3.405  10.722  1.00  0.00     0.277 HD
ATOM      3  H32 UNL     1      17.603   2.428  10.836  1.00  0.00     0.277 HD
ENDROOT
BRANCH   1   4
HETATM    4  C7  UNL     1      16.123   1.989  12.143  1.00  0.00     0.260 C 
BRANCH   4   5
HETATM    5  C6  UNL     1      16.822   0.643  12.178  1.00  0.00     0.259 C 
BRANCH   5   6
HETATM    6  N2  UNL     1      16.854   0.173  13.526  1.00  0.00    -0.072 N 
ATOM      7  H22 UNL     1      17.759  -0.243  13.745  1.00  0.00     0.277 HD
ATOM      8  H21 UNL     1      16.261  -0.649  13.639  1.00  0.00     0.277 HD
BRANCH   6   9
HETATM    9  C5  UNL     1      16.505   1.207  14.497  1.00  0.00     0.262 C 
BRANCH   9  10
HETATM   10  C4  UNL     1      16.212   0.598  15.830  1.00  0.00     0.299 C 
BRANCH  10  11
HETATM   11  N1  UNL     1      16.065   1.655  16.812  1.00  0.00     0.090 N 
HETATM   12  C3  UNL     1      15.173   1.228  17.888  1.00  0.00     0.272 C 
HETATM   13  C2  UNL     1      13.796   1.261  17.310  1.00  0.00     0.032 C 
HETATM   14  C1  UNL     1      13.894   2.479  16.403  1.00  0.00     0.032 C 
HETATM   15  C17 UNL     1      15.366   2.755  16.193  1.00  0.00     0.272 C 
ENDBRANCH  10  11
ENDBRANCH   9  10
ENDBRANCH   6   9
ENDBRANCH   5   6
ENDBRANCH   4   5
ENDBRANCH   1   4
BRANCH   1  16
HETATM   16  C8  UNL     1      17.615   3.855  12.269  1.00  0.00     0.218 C 
HETATM   17  C9  UNL     1      18.504   4.838  11.585  1.00  0.00     0.021 C 
HETATM   18  C10 UNL     1      19.404   5.411  12.693  1.00  0.00     0.011 C 
HETATM   19  C14 UNL     1      17.722   5.977  10.958  1.00  0.00     0.038 C 
HETATM   20  C11 UNL     1      18.512   6.069  13.723  1.00  0.00    -0.009 C 
HETATM   21  C12 UNL     1      17.730   7.225  13.110  1.00  0.00     0.036 C 
HETATM   22  C16 UNL     1      17.496   5.132  14.325  1.00  0.00     0.039 C 
HETATM   23  C13 UNL     1      16.865   6.631  12.025  1.00  0.00     0.122 C 
HETATM   24  O1  UNL     1      16.030   5.663  12.524  1.00  0.00    -0.378 OA
HETATM   25  C15 UNL     1      16.648   4.614  13.156  1.00  0.00     0.153 C 
ENDBRANCH   1  16
TORSDOF 7
ENDMDL
MODEL 5
REMARK VINA RESULT: -5.623980387      2.713      4.128
REMARK  7 active torsions:
REMARK  status: ('A' for Active; 'I' for Inactive)
REMARK    1  A    between atoms: N1_4  and  C4_5 
REMARK    2  A    between atoms: C4_5  and  C5_6 
REMARK    3  A    between atoms: C5_6  and  N2_7 
REMARK    4  A    between atoms: N2_7  and  C6_10 
REMARK    5  A    between atoms: C6_10  and  C7_11 
REMARK    6  A    between atoms: C7_11  and  N3_12 
REMARK    7  A    between atoms: N3_12  and  C8_15 
ROOT
HETATM    1  N3  UNL     1      17.662   6.297  11.851  1.00  0.00    -0.067 N 
ATOM      2  H31 UNL     1      17.998   5.810  11.020  1.00  0.00     0.277 HD
ATOM      3  H32 UNL     1      18.516   6.784  12.123  1.00  0.00     0.277 HD
ENDROOT
BRANCH   1   4
HETATM    4  C7  UNL     1      17.279   5.363  12.857  1.00  0.00     0.260 C 
BRANCH   4   5
HETATM    5  C6  UNL     1      18.013   4.055  12.625  1.00  0.00     0.259 C 
BRANCH   5   6
HETATM    6  N2  UNL     1      17.619   3.118  13.628  1.00  0.00    -0.072 N 
ATOM      7  H22 UNL     1      18.302   2.366  13.713  1.00  0.00     0.277 HD
ATOM      8  H21 UNL     1      16.810   2.576  13.323  1.00  0.00     0.277 HD
BRANCH   6   9
HETATM    9  C5  UNL     1      17.368   3.745  14.924  1.00  0.00     0.262 C 
BRANCH   9  10
HETATM   10  C4  UNL     1      16.941   2.723  15.927  1.00  0.00     0.299 C 
BRANCH  10  11
HETATM   11  N1  UNL     1      15.712   2.099  15.474  1.00  0.00     0.090 N 
HETATM   12  C3  UNL     1      14.589   3.024  15.621  1.00  0.00     0.272 C 
HETATM   13  C2  UNL     1      14.295   3.074  17.085  1.00  0.00     0.032 C 
HETATM   14  C1  UNL     1      14.569   1.630  17.483  1.00  0.00     0.032 C 
HETATM   15  C17 UNL     1      15.395   1.017  16.374  1.00  0.00     0.272 C 
ENDBRANCH  10  11
ENDBRANCH   9  10
ENDBRANCH   6   9
ENDBRANCH   5   6
ENDBRANCH   4   5
ENDBRANCH   1   4
BRANCH   1  16
HETATM   16  C8  UNL     1      16.643   7.230  11.504  1.00  0.00     0.218 C 
HETATM   17  C9  UNL     1      16.911   8.103  10.325  1.00  0.00     0.021 C 
HETATM   18  C10 UNL     1      15.898   9.256  10.434  1.00  0.00     0.011 C 
HETATM   19  C14 UNL     1      16.681   7.378   9.012  1.00  0.00     0.038 C 
HETATM   20  C11 UNL     1      14.509   8.659  10.398  1.00  0.00    -0.009 C 
HETATM   21  C12 UNL     1      14.258   7.939   9.078  1.00  0.00     0.036 C 
HETATM   22  C16 UNL     1      14.257   7.653  11.492  1.00  0.00     0.039 C 
HETATM   23  C13 UNL     1      15.270   6.822   8.999  1.00  0.00     0.122 C 
HETATM   24  O1  UNL     1      15.160   5.970  10.069  1.00  0.00    -0.378 OA
HETATM   25  C15 UNL     1      15.304   6.548  11.305  1.00  0.00     0.153 C 
ENDBRANCH   1  16
TORSDOF 7
ENDMDL
