MODEL 1
REMARK VINA RESULT: -7.232798654      0.000      0.000
REMARK  2 active torsions:
REMARK  status: ('A' for Active; 'I' for Inactive)
REMARK    1  A    between atoms: C2_2  and  C3_3 
REMARK    2  A    between atoms: C3_3  and  O1_4 
ROOT
HETATM    1  C3  UNL     1      -7.861  -7.039  11.229  1.00  0.00     0.057 C 
HETATM    2  C4  UNL     1      -8.065  -7.413  12.656  1.00  0.00     0.038 C 
HETATM    3  C5  UNL     1      -9.416  -7.170  13.213  1.00  0.00     0.003 C 
HETATM    4  C6  UNL     1     -10.249  -8.374  13.471  1.00  0.00     0.000 C 
HETATM    5  C7  UNL     1      -9.847  -9.630  12.808  1.00  0.00     0.000 C 
HETATM    6  C8  UNL     1     -11.093 -10.417  12.371  1.00  0.00     0.000 C 
HETATM    7  C9  UNL     1     -10.964 -10.910  10.946  1.00  0.00     0.000 C 
HETATM    8  C10 UNL     1     -11.282  -9.852   9.929  1.00  0.00     0.000 C 
HETATM    9  C11 UNL     1     -10.115  -9.510   9.037  1.00  0.00     0.000 C 
HETATM   10  C12 UNL     1     -10.142  -8.089   8.546  1.00  0.00     0.000 C 
HETATM   11  C13 UNL     1      -8.931  -7.292   8.979  1.00  0.00     0.003 C 
HETATM   12  C14 UNL     1      -9.075  -6.786  10.423  1.00  0.00     0.038 C 
ENDROOT
BRANCH   1  13
HETATM   13  C2  UNL     1      -6.945  -5.812  11.077  1.00  0.00     0.033 C 
HETATM   14  C1  UNL     1      -5.538  -6.188  11.413  1.00  0.00     0.008 C 
ENDBRANCH   1  13
BRANCH   1  15
HETATM   15  O1  UNL     1      -7.103  -8.071  10.621  1.00  0.00    -0.390 OA
ATOM     16  H1  UNL     1      -7.231  -8.802  11.214  1.00  0.00     0.210 HD
ENDBRANCH   1  15
TORSDOF 2
ENDMDL
MODEL 2
REMARK VINA RESULT: -6.575054836      1.400      3.449
REMARK  2 active torsions:
REMARK  status: ('A' for Active; 'I' for Inactive)
REMARK    1  A    between atoms: C2_2  and  C3_3 
REMARK    2  A    between atoms: C3_3  and  O1_4 
ROOT
HETATM    1  C3  UNL     1      -8.898  -6.729  10.391  1.00  0.00     0.057 C 
HETATM    2  C4  UNL     1      -9.619  -7.034   9.124  1.00  0.00     0.038 C 
HETATM    3  C5  UNL     1      -9.243  -8.293   8.440  1.00  0.00     0.003 C 
HETATM    4  C6  UNL     1     -10.242  -9.394   8.492  1.00  0.00     0.000 C 
HETATM    5  C7  UNL     1     -11.303  -9.297   9.513  1.00  0.00     0.000 C 
HETATM    6  C8  UNL     1     -11.615 -10.690  10.084  1.00  0.00     0.000 C 
HETATM    7  C9  UNL     1     -11.681 -10.666  11.596  1.00  0.00     0.000 C 
HETATM    8  C10 UNL     1     -10.326 -10.709  12.242  1.00  0.00     0.000 C 
HETATM    9  C11 UNL     1     -10.017  -9.484  13.065  1.00  0.00     0.000 C 
HETATM   10  C12 UNL     1      -8.549  -9.163  13.121  1.00  0.00     0.000 C 
HETATM   11  C13 UNL     1      -8.219  -7.802  12.550  1.00  0.00     0.003 C 
HETATM   12  C14 UNL     1      -8.144  -7.837  11.016  1.00  0.00     0.038 C 
ENDROOT
BRANCH   1  13
HETATM   13  C2  UNL     1      -7.929  -5.544  10.236  1.00  0.00     0.033 C 
HETATM   14  C1  UNL     1      -8.223  -4.815   8.965  1.00  0.00     0.008 C 
ENDBRANCH   1  13
BRANCH   1  15
HETATM   15  O1  UNL     1      -9.851  -6.233  11.316  1.00  0.00    -0.390 OA
ATOM     16  H1  UNL     1      -9.457  -6.441  12.154  1.00  0.00     0.210 HD
ENDBRANCH   1  15
TORSDOF 2
ENDMDL
MODEL 3
REMARK VINA RESULT: -6.292562640      1.638      4.903
REMARK  2 active torsions:
REMARK  status: ('A' for Active; 'I' for Inactive)
REMARK    1  A    between atoms: C2_2  and  C3_3 
REMARK    2  A    between atoms: C3_3  and  O1_4 
ROOT
HETATM    1  C3  UNL     1      -9.412  -8.860  12.082  1.00  0.00     0.057 C 
HETATM    2  C4  UNL     1      -9.410  -9.444  10.713  1.00  0.00     0.038 C 
HETATM    3  C5  UNL     1     -10.512  -9.024   9.816  1.00  0.00     0.003 C 
HETATM    4  C6  UNL     1     -10.144  -8.108   8.704  1.00  0.00     0.000 C 
HETATM    5  C7  UNL     1      -8.855  -7.398   8.811  1.00  0.00     0.000 C 
HETATM    6  C8  UNL     1      -8.991  -5.971   8.257  1.00  0.00     0.000 C 
HETATM    7  C9  UNL     1      -8.376  -4.953   9.192  1.00  0.00     0.000 C 
HETATM    8  C10 UNL     1      -9.278  -4.589  10.337  1.00  0.00     0.000 C 
HETATM    9  C11 UNL     1      -8.704  -4.945  11.686  1.00  0.00     0.000 C 
HETATM   10  C12 UNL     1      -9.758  -5.257  12.713  1.00  0.00     0.000 C 
HETATM   11  C13 UNL     1      -9.650  -6.663  13.260  1.00  0.00     0.003 C 
HETATM   12  C14 UNL     1     -10.286  -7.689  12.309  1.00  0.00     0.038 C 
ENDROOT
BRANCH   1  13
HETATM   13  C2  UNL     1      -9.757  -9.906  13.157  1.00  0.00     0.033 C 
HETATM   14  C1  UNL     1     -10.993 -10.646  12.763  1.00  0.00     0.008 C 
ENDBRANCH   1  13
BRANCH   1  15
HETATM   15  O1  UNL     1      -8.075  -8.515  12.401  1.00  0.00    -0.390 OA
ATOM     16  H1  UNL     1      -8.184  -7.784  12.998  1.00  0.00     0.210 HD
ENDBRANCH   1  15
TORSDOF 2
ENDMDL
MODEL 4
REMARK VINA RESULT: -6.180843226      1.445      2.404
REMARK  2 active torsions:
REMARK  status: ('A' for Active; 'I' for Inactive)
REMARK    1  A    between atoms: C2_2  and  C3_3 
REMARK    2  A    between atoms: C3_3  and  O1_4 
ROOT
HETATM    1  C3  UNL     1      -8.532  -6.095   9.797  1.00  0.00     0.057 C 
HETATM    2  C4  UNL     1      -8.295  -5.519  11.150  1.00  0.00     0.038 C 
HETATM    3  C5  UNL     1      -9.499  -5.244  11.967  1.00  0.00     0.003 C 
HETATM    4  C6  UNL     1      -9.731  -6.149  13.124  1.00  0.00     0.000 C 
HETATM    5  C7  UNL     1      -9.008  -7.436  13.132  1.00  0.00     0.000 C 
HETATM    6  C8  UNL     1      -9.908  -8.542  13.705  1.00  0.00     0.000 C 
HETATM    7  C9  UNL     1      -9.875  -9.785  12.842  1.00  0.00     0.000 C 
HETATM    8  C10 UNL     1     -10.769  -9.687  11.639  1.00  0.00     0.000 C 
HETATM    9  C11 UNL     1     -10.023  -9.766  10.332  1.00  0.00     0.000 C 
HETATM   10  C12 UNL     1     -10.695  -9.008   9.220  1.00  0.00     0.000 C 
HETATM   11  C13 UNL     1      -9.831  -7.904   8.652  1.00  0.00     0.003 C 
HETATM   12  C14 UNL     1      -9.879  -6.643   9.529  1.00  0.00     0.038 C 
ENDROOT
BRANCH   1  13
HETATM   13  C2  UNL     1      -8.213  -5.089   8.676  1.00  0.00     0.033 C 
HETATM   14  C1  UNL     1      -9.479  -4.480   8.169  1.00  0.00     0.008 C 
ENDBRANCH   1  13
BRANCH   1  15
HETATM   15  O1  UNL     1      -7.564  -7.110   9.589  1.00  0.00    -0.390 OA
ATOM     16  H1  UNL     1      -7.601  -7.603  10.400  1.00  0.00     0.210 HD
ENDBRANCH   1  15
TORSDOF 2
ENDMDL
MODEL 5
REMARK VINA RESULT: -5.841909287      1.868      4.419
REMARK  2 active torsions:
REMARK  status: ('A' for Active; 'I' for Inactive)
REMARK    1  A    between atoms: C2_2  and  C3_3 
REMARK    2  A    between atoms: C3_3  and  O1_4 
ROOT
HETATM    1  C3  UNL     1     -10.666  -9.578  10.804  1.00  0.00     0.057 C 
HETATM    2  C4  UNL     1     -10.641  -9.490  12.290  1.00  0.00     0.038 C 
HETATM    3  C5  UNL     1      -9.313  -9.294  12.916  1.00  0.00     0.003 C 
HETATM    4  C6  UNL     1      -9.049  -7.951  13.497  1.00  0.00     0.000 C 
HETATM    5  C7  UNL     1      -9.927  -6.845  13.069  1.00  0.00     0.000 C 
HETATM    6  C8  UNL     1      -9.112  -5.549  12.929  1.00  0.00     0.000 C 
HETATM    7  C9  UNL     1      -9.424  -4.838  11.630  1.00  0.00     0.000 C 
HETATM    8  C10 UNL     1      -8.694  -5.420  10.453  1.00  0.00     0.000 C 
HETATM    9  C11 UNL     1      -9.612  -5.986   9.400  1.00  0.00     0.000 C 
HETATM   10  C12 UNL     1      -9.002  -7.126   8.632  1.00  0.00     0.000 C 
HETATM   11  C13 UNL     1      -9.781  -8.415   8.770  1.00  0.00     0.003 C 
HETATM   12  C14 UNL     1      -9.451  -9.136  10.087  1.00  0.00     0.038 C 
ENDROOT
BRANCH   1  13
HETATM   13  C2  UNL     1     -10.997 -10.999  10.314  1.00  0.00     0.033 C 
HETATM   14  C1  UNL     1     -12.071 -10.939   9.279  1.00  0.00     0.008 C 
ENDBRANCH   1  13
BRANCH   1  15
HETATM   15  O1  UNL     1     -11.777  -8.825  10.350  1.00  0.00    -0.390 OA
ATOM     16  H1  UNL     1     -11.461  -8.458   9.532  1.00  0.00     0.210 HD
ENDBRANCH   1  15
TORSDOF 2
ENDMDL
