MODEL 1
REMARK VINA RESULT: -5.520600148      0.000      0.000
REMARK  5 active torsions:
REMARK  status: ('A' for Active; 'I' for Inactive)
REMARK    1  A    between atoms: N1_1  and  N2_4 
REMARK    2  A    between atoms: N2_4  and  N3_5 
REMARK    3  A    between atoms: N3_5  and  C1_7 
REMARK    4  A    between atoms: C1_7  and  C2_8 
REMARK    5  A    between atoms: C2_8  and  C3_9 
ROOT
HETATM    1  C1  UNL     1       3.077 -11.607 -10.928  1.00  0.00     0.069 C 
HETATM    2  C4  UNL     1       2.172 -10.646 -11.631  1.00  0.00     0.034 C 
HETATM    3  C5  UNL     1       3.010 -10.037 -12.768  1.00  0.00     0.003 C 
HETATM    4  C6  UNL     1       4.397 -10.095 -12.126  1.00  0.00     0.003 C 
HETATM    5  C7  UNL     1       4.399 -11.566 -11.705  1.00  0.00     0.034 C 
ENDROOT
BRANCH   1   6
HETATM    6  N3  UNL     1       3.421 -11.245  -9.586  1.00  0.00    -0.242 N 
ATOM      7  H3  UNL     1       4.216 -11.716  -9.155  1.00  0.00     0.198 HD
BRANCH   6   8
HETATM    8  N2  UNL     1       2.826 -10.407  -8.921  1.00  0.00    -0.248 NA
BRANCH   8   9
HETATM    9  N1  UNL     1       2.396  -9.806  -7.945  1.00  0.00    -0.261 N 
ATOM     10  H12 UNL     1       2.161 -10.629  -7.391  1.00  0.00     0.193 HD
ATOM     11  H11 UNL     1       2.125  -9.032  -7.339  1.00  0.00     0.193 HD
ENDBRANCH   8   9
ENDBRANCH   6   8
ENDBRANCH   1   6
BRANCH   1  12
HETATM   12  C2  UNL     1       2.521 -13.038 -10.989  1.00  0.00     0.146 C 
BRANCH  12  13
HETATM   13  C3  UNL     1       2.691 -13.700  -9.668  1.00  0.00     0.175 C 
HETATM   14  O1  UNL     1       3.718 -14.351  -9.374  1.00  0.00    -0.648 OA
HETATM   15  O2  UNL     1       1.685 -13.603  -8.709  1.00  0.00    -0.648 OA
ENDBRANCH  12  13
ENDBRANCH   1  12
TORSDOF 5
ENDMDL
MODEL 2
REMARK VINA RESULT: -5.418944595      1.081      1.113
REMARK  5 active torsions:
REMARK  status: ('A' for Active; 'I' for Inactive)
REMARK    1  A    between atoms: N1_1  and  N2_4 
REMARK    2  A    between atoms: N2_4  and  N3_5 
REMARK    3  A    between atoms: N3_5  and  C1_7 
REMARK    4  A    between atoms: C1_7  and  C2_8 
REMARK    5  A    between atoms: C2_8  and  C3_9 
ROOT
HETATM    1  C1  UNL     1       3.057 -11.356 -11.863  1.00  0.00     0.069 C 
HETATM    2  C4  UNL     1       2.147 -10.336 -12.471  1.00  0.00     0.034 C 
HETATM    3  C5  UNL     1       3.020  -9.521 -13.440  1.00  0.00     0.003 C 
HETATM    4  C6  UNL     1       4.365  -9.619 -12.720  1.00  0.00     0.003 C 
HETATM    5  C7  UNL     1       4.420 -11.136 -12.531  1.00  0.00     0.034 C 
ENDROOT
BRANCH   1   6
HETATM    6  N3  UNL     1       3.298 -11.194 -10.461  1.00  0.00    -0.242 N 
ATOM      7  H3  UNL     1       4.075 -11.710 -10.049  1.00  0.00     0.198 HD
BRANCH   6   8
HETATM    8  N2  UNL     1       2.634 -10.478  -9.723  1.00  0.00    -0.248 NA
BRANCH   8   9
HETATM    9  N1  UNL     1       2.192  -9.980  -8.696  1.00  0.00    -0.261 N 
ATOM     10  H12 UNL     1       1.214 -10.221  -8.857  1.00  0.00     0.193 HD
ATOM     11  H11 UNL     1       2.165  -9.490  -7.802  1.00  0.00     0.193 HD
ENDBRANCH   8   9
ENDBRANCH   6   8
ENDBRANCH   1   6
BRANCH   1  12
HETATM   12  C2  UNL     1       2.582 -12.782 -12.181  1.00  0.00     0.146 C 
BRANCH  12  13
HETATM   13  C3  UNL     1       3.003 -13.706 -11.094  1.00  0.00     0.175 C 
HETATM   14  O1  UNL     1       4.143 -14.220 -11.058  1.00  0.00    -0.648 OA
HETATM   15  O2  UNL     1       2.114 -14.021 -10.069  1.00  0.00    -0.648 OA
ENDBRANCH  12  13
ENDBRANCH   1  12
TORSDOF 5
ENDMDL
MODEL 3
REMARK VINA RESULT: -5.273717593      2.386      3.286
REMARK  5 active torsions:
REMARK  status: ('A' for Active; 'I' for Inactive)
REMARK    1  A    between atoms: N1_1  and  N2_4 
REMARK    2  A    between atoms: N2_4  and  N3_5 
REMARK    3  A    between atoms: N3_5  and  C1_7 
REMARK    4  A    between atoms: C1_7  and  C2_8 
REMARK    5  A    between atoms: C2_8  and  C3_9 
ROOT
HETATM    1  C1  UNL     1       3.320 -10.576 -11.384  1.00  0.00     0.069 C 
HETATM    2  C4  UNL     1       4.360 -10.171 -12.380  1.00  0.00     0.034 C 
HETATM    3  C5  UNL     1       3.606  -9.424 -13.493  1.00  0.00     0.003 C 
HETATM    4  C6  UNL     1       2.260 -10.146 -13.423  1.00  0.00     0.003 C 
HETATM    5  C7  UNL     1       1.999 -10.011 -11.921  1.00  0.00     0.034 C 
ENDROOT
BRANCH   1   6
HETATM    6  N3  UNL     1       3.104 -11.987 -11.272  1.00  0.00    -0.242 N 
ATOM      7  H3  UNL     1       2.207 -12.303 -10.906  1.00  0.00     0.198 HD
BRANCH   6   8
HETATM    8  N2  UNL     1       3.925 -12.839 -11.587  1.00  0.00    -0.248 NA
BRANCH   8   9
HETATM    9  N1  UNL     1       4.461 -13.934 -11.700  1.00  0.00    -0.261 N 
ATOM     10  H12 UNL     1       4.796 -13.805 -12.654  1.00  0.00     0.193 HD
ATOM     11  H11 UNL     1       4.784 -14.872 -11.464  1.00  0.00     0.193 HD
ENDBRANCH   8   9
ENDBRANCH   6   8
ENDBRANCH   1   6
BRANCH   1  12
HETATM   12  C2  UNL     1       3.596  -9.948 -10.010  1.00  0.00     0.146 C 
BRANCH  12  13
HETATM   13  C3  UNL     1       2.482 -10.270  -9.078  1.00  0.00     0.175 C 
HETATM   14  O1  UNL     1       2.276 -11.430  -8.657  1.00  0.00    -0.648 OA
HETATM   15  O2  UNL     1       1.626  -9.259  -8.644  1.00  0.00    -0.648 OA
ENDBRANCH  12  13
ENDBRANCH   1  12
TORSDOF 5
ENDMDL
MODEL 4
REMARK VINA RESULT: -5.234710517      1.414      1.698
REMARK  5 active torsions:
REMARK  status: ('A' for Active; 'I' for Inactive)
REMARK    1  A    between atoms: N1_1  and  N2_4 
REMARK    2  A    between atoms: N2_4  and  N3_5 
REMARK    3  A    between atoms: N3_5  and  C1_7 
REMARK    4  A    between atoms: C1_7  and  C2_8 
REMARK    5  A    between atoms: C2_8  and  C3_9 
ROOT
HETATM    1  C1  UNL     1       3.596 -11.131 -11.786  1.00  0.00     0.069 C 
HETATM    2  C4  UNL     1       2.184 -11.028 -12.270  1.00  0.00     0.034 C 
HETATM    3  C5  UNL     1       2.248 -10.232 -13.584  1.00  0.00     0.003 C 
HETATM    4  C6  UNL     1       3.459  -9.346 -13.291  1.00  0.00     0.003 C 
HETATM    5  C7  UNL     1       4.445 -10.434 -12.857  1.00  0.00     0.034 C 
ENDROOT
BRANCH   1   6
HETATM    6  N3  UNL     1       3.874 -10.425 -10.572  1.00  0.00    -0.242 N 
ATOM      7  H3  UNL     1       4.649  -9.762 -10.574  1.00  0.00     0.198 HD
BRANCH   6   8
HETATM    8  N2  UNL     1       3.244 -10.563  -9.532  1.00  0.00    -0.248 NA
BRANCH   8   9
HETATM    9  N1  UNL     1       2.645 -11.105  -8.613  1.00  0.00    -0.261 N 
ATOM     10  H12 UNL     1       3.301 -11.874  -8.479  1.00  0.00     0.193 HD
ATOM     11  H11 UNL     1       1.930 -11.285  -7.908  1.00  0.00     0.193 HD
ENDBRANCH   8   9
ENDBRANCH   6   8
ENDBRANCH   1   6
BRANCH   1  12
HETATM   12  C2  UNL     1       4.043 -12.597 -11.689  1.00  0.00     0.146 C 
BRANCH  12  13
HETATM   13  C3  UNL     1       2.853 -13.475 -11.528  1.00  0.00     0.175 C 
HETATM   14  O1  UNL     1       2.257 -13.979 -12.505  1.00  0.00    -0.648 OA
HETATM   15  O2  UNL     1       2.370 -13.761 -10.252  1.00  0.00    -0.648 OA
ENDBRANCH  12  13
ENDBRANCH   1  12
TORSDOF 5
ENDMDL
MODEL 5
REMARK VINA RESULT: -5.081838001      2.580      3.369
REMARK  5 active torsions:
REMARK  status: ('A' for Active; 'I' for Inactive)
REMARK    1  A    between atoms: N1_1  and  N2_4 
REMARK    2  A    between atoms: N2_4  and  N3_5 
REMARK    3  A    between atoms: N3_5  and  C1_7 
REMARK    4  A    between atoms: C1_7  and  C2_8 
REMARK    5  A    between atoms: C2_8  and  C3_9 
ROOT
HETATM    1  C1  UNL     1       3.074 -10.388 -10.376  1.00  0.00     0.069 C 
HETATM    2  C4  UNL     1       2.022  -9.462 -10.897  1.00  0.00     0.034 C 
HETATM    3  C5  UNL     1       1.692  -8.507  -9.738  1.00  0.00     0.003 C 
HETATM    4  C6  UNL     1       1.962  -9.435  -8.553  1.00  0.00     0.003 C 
HETATM    5  C7  UNL     1       3.361  -9.915  -8.945  1.00  0.00     0.034 C 
ENDROOT
BRANCH   1   6
HETATM    6  N3  UNL     1       2.667 -11.754 -10.241  1.00  0.00    -0.242 N 
ATOM      7  H3  UNL     1       2.195 -12.190 -11.033  1.00  0.00     0.198 HD
BRANCH   6   8
HETATM    8  N2  UNL     1       2.847 -12.435  -9.240  1.00  0.00    -0.248 NA
BRANCH   8   9
HETATM    9  N1  UNL     1       2.732 -13.348  -8.433  1.00  0.00    -0.261 N 
ATOM     10  H12 UNL     1       2.123 -12.854  -7.780  1.00  0.00     0.193 HD
ATOM     11  H11 UNL     1       2.846 -14.263  -7.998  1.00  0.00     0.193 HD
ENDBRANCH   8   9
ENDBRANCH   6   8
ENDBRANCH   1   6
BRANCH   1  12
HETATM   12  C2  UNL     1       4.368 -10.274 -11.195  1.00  0.00     0.146 C 
BRANCH  12  13
HETATM   13  C3  UNL     1       4.414 -11.357 -12.215  1.00  0.00     0.175 C 
HETATM   14  O1  UNL     1       5.129 -12.373 -12.079  1.00  0.00    -0.648 OA
HETATM   15  O2  UNL     1       3.639 -11.255 -13.369  1.00  0.00    -0.648 OA
ENDBRANCH  12  13
ENDBRANCH   1  12
TORSDOF 5
ENDMDL
