MODEL 1
REMARK VINA RESULT: -8.632125251      0.000      0.000
REMARK  12 active torsions:
REMARK  status: ('A' for Active; 'I' for Inactive)
REMARK    1  A    between atoms: C16_21  and  O2_22 
REMARK    2  A    between atoms: C18_24  and  O3_25 
REMARK    3  A    between atoms: O3_25  and  C19_26 
REMARK    4  A    between atoms: C19_26  and  C20_27 
REMARK    5  A    between atoms: C20_27  and  O4_28 
REMARK    6  A    between atoms: C20_27  and  C21_30 
REMARK    7  A    between atoms: C21_30  and  N3_31 
REMARK    8  A    between atoms: N3_31  and  C22_33 
REMARK    9  A    between atoms: C22_33  and  C23_34 
REMARK   10  A    between atoms: C23_34  and  N4_35 
REMARK   11  A    between atoms: N4_35  and  C24_36 
REMARK   12  A    between atoms: N4_35  and  C26_38 
ROOT
HETATM    1  C1  UNL     1      18.757  18.654  14.608  1.00  0.00     0.018 C 
HETATM    2  C2  UNL     1      19.211  17.665  15.161  1.00  0.00    -0.076 C 
HETATM    3  C3  UNL     1      19.721  16.498  15.833  1.00  0.00     0.041 A 
HETATM    4  C4  UNL     1      18.890  15.550  16.394  1.00  0.00     0.054 A 
HETATM    5  C5  UNL     1      19.398  14.422  17.045  1.00  0.00     0.064 A 
HETATM    6  N1  UNL     1      18.593  13.482  17.561  1.00  0.00    -0.321 N 
ATOM      7  H1  UNL     1      17.584  13.613  17.497  1.00  0.00     0.169 HD
HETATM    8  C6  UNL     1      19.070  12.353  18.170  1.00  0.00     0.257 A 
HETATM    9  O1  UNL     1      18.257  11.540  18.620  1.00  0.00    -0.267 OA
HETATM   10  C7  UNL     1      20.432  12.194  18.243  1.00  0.00     0.051 A 
HETATM   11  C8  UNL     1      21.291  13.162  17.718  1.00  0.00    -0.012 A 
HETATM   12  C9  UNL     1      20.768  14.304  17.102  1.00  0.00     0.067 A 
HETATM   13  N2  UNL     1      21.573  15.229  16.555  1.00  0.00    -0.356 N 
ATOM     14  H2  UNL     1      22.584  15.104  16.617  1.00  0.00     0.166 HD
HETATM   15  C10 UNL     1      21.078  16.335  15.915  1.00  0.00     0.024 A 
HETATM   16  C11 UNL     1      22.038  17.313  15.306  1.00  0.00     0.070 C 
HETATM   17  C12 UNL     1      22.752  13.091  17.844  1.00  0.00     0.047 C 
HETATM   18  C13 UNL     1      23.350  11.797  18.184  1.00  0.00     0.044 C 
HETATM   19  C14 UNL     1      22.417  10.780  18.699  1.00  0.00    -0.044 A 
HETATM   20  C15 UNL     1      22.968   9.570  19.105  1.00  0.00     0.047 A 
HETATM   21  C16 UNL     1      22.212   8.549  19.552  1.00  0.00     0.102 A 
HETATM   22  C18 UNL     1      20.805   8.718  19.610  1.00  0.00     0.103 A 
HETATM   23  C28 UNL     1      20.232   9.936  19.208  1.00  0.00     0.052 A 
HETATM   24  C29 UNL     1      21.040  10.947  18.757  1.00  0.00    -0.011 A 
ENDROOT
BRANCH  22  25
HETATM   25  O3  UNL     1      20.100   7.740  20.027  1.00  0.00    -0.345 OA
BRANCH  25  26
HETATM   26  C19 UNL     1      19.378   6.736  20.461  1.00  0.00     0.213 C 
BRANCH  26  27
HETATM   27  C20 UNL     1      19.584   6.017  21.737  1.00  0.00     0.180 C 
BRANCH  27  28
HETATM   28  O4  UNL     1      19.966   6.997  22.714  1.00  0.00    -0.388 OA
ATOM     29  H4  UNL     1      19.893   6.583  23.566  1.00  0.00     0.210 HD
ENDBRANCH  27  28
BRANCH  27  30
HETATM   30  C21 UNL     1      18.406   5.288  22.301  1.00  0.00     0.094 C 
BRANCH  30  31
HETATM   31  N3  UNL     1      17.404   5.889  23.052  1.00  0.00    -0.375 N 
ATOM     32  H3  UNL     1      17.578   6.088  24.037  1.00  0.00     0.164 HD
BRANCH  31  33
HETATM   33  C22 UNL     1      16.169   6.230  22.506  1.00  0.00     0.099 C 
BRANCH  33  34
HETATM   34  C23 UNL     1      15.997   7.605  21.926  1.00  0.00     0.076 C 
BRANCH  34  35
HETATM   35  N4  UNL     1      15.738   7.737  20.549  1.00  0.00    -0.292 NA
BRANCH  35  36
HETATM   36  C24 UNL     1      16.599   8.649  19.814  1.00  0.00     0.090 C 
HETATM   37  C25 UNL     1      16.000   8.751  18.411  1.00  0.00     0.021 C 
ENDBRANCH  35  36
BRANCH  35  38
HETATM   38  C26 UNL     1      15.663   6.448  19.856  1.00  0.00     0.090 C 
HETATM   39  C27 UNL     1      14.227   6.111  19.645  1.00  0.00     0.021 C 
ENDBRANCH  35  38
ENDBRANCH  34  35
ENDBRANCH  33  34
ENDBRANCH  31  33
ENDBRANCH  30  31
ENDBRANCH  27  30
ENDBRANCH  26  27
ENDBRANCH  25  26
ENDBRANCH  22  25
BRANCH  21  40
HETATM   40  O2  UNL     1      22.723   7.297  19.975  1.00  0.00    -0.353 OA
HETATM   41  C17 UNL     1      23.244   7.228  21.274  1.00  0.00     0.210 C 
ENDBRANCH  21  40
TORSDOF 12
ENDMDL
MODEL 2
REMARK VINA RESULT: -8.534070885      2.666     10.171
REMARK  12 active torsions:
REMARK  status: ('A' for Active; 'I' for Inactive)
REMARK    1  A    between atoms: C16_21  and  O2_22 
REMARK    2  A    between atoms: C18_24  and  O3_25 
REMARK    3  A    between atoms: O3_25  and  C19_26 
REMARK    4  A    between atoms: C19_26  and  C20_27 
REMARK    5  A    between atoms: C20_27  and  O4_28 
REMARK    6  A    between atoms: C20_27  and  C21_30 
REMARK    7  A    between atoms: C21_30  and  N3_31 
REMARK    8  A    between atoms: N3_31  and  C22_33 
REMARK    9  A    between atoms: C22_33  and  C23_34 
REMARK   10  A    between atoms: C23_34  and  N4_35 
REMARK   11  A    between atoms: N4_35  and  C24_36 
REMARK   12  A    between atoms: N4_35  and  C26_38 
ROOT
HETATM    1  C1  UNL     1      18.582   3.880  23.100  1.00  0.00     0.018 C 
HETATM    2  C2  UNL     1      18.767   4.935  22.516  1.00  0.00    -0.076 C 
HETATM    3  C3  UNL     1      19.010   6.187  21.844  1.00  0.00     0.041 A 
HETATM    4  C4  UNL     1      20.278   6.713  21.708  1.00  0.00     0.054 A 
HETATM    5  C5  UNL     1      20.501   7.929  21.056  1.00  0.00     0.064 A 
HETATM    6  N1  UNL     1      21.735   8.428  20.891  1.00  0.00    -0.321 N 
ATOM      7  H1  UNL     1      22.526   7.913  21.279  1.00  0.00     0.169 HD
HETATM    8  C6  UNL     1      21.978   9.597  20.224  1.00  0.00     0.257 A 
HETATM    9  O1  UNL     1      23.146   9.983  20.122  1.00  0.00    -0.267 OA
HETATM   10  C7  UNL     1      20.900  10.273  19.707  1.00  0.00     0.051 A 
HETATM   11  C8  UNL     1      19.604   9.777  19.870  1.00  0.00    -0.012 A 
HETATM   12  C9  UNL     1      19.394   8.578  20.558  1.00  0.00     0.067 A 
HETATM   13  N2  UNL     1      18.161   8.061  20.693  1.00  0.00    -0.356 N 
ATOM     14  H2  UNL     1      17.366   8.572  20.308  1.00  0.00     0.166 HD
HETATM   15  C10 UNL     1      17.940   6.868  21.331  1.00  0.00     0.024 A 
HETATM   16  C11 UNL     1      16.539   6.341  21.422  1.00  0.00     0.070 C 
HETATM   17  C12 UNL     1      18.407  10.498  19.418  1.00  0.00     0.047 C 
HETATM   18  C13 UNL     1      18.582  11.570  18.435  1.00  0.00     0.044 C 
HETATM   19  C14 UNL     1      19.963  12.048  18.252  1.00  0.00    -0.044 A 
HETATM   20  C15 UNL     1      20.148  13.119  17.385  1.00  0.00     0.047 A 
HETATM   21  C16 UNL     1      21.368  13.616  17.105  1.00  0.00     0.102 A 
HETATM   22  C18 UNL     1      22.502  13.024  17.718  1.00  0.00     0.103 A 
HETATM   23  C28 UNL     1      22.333  11.944  18.600  1.00  0.00     0.052 A 
HETATM   24  C29 UNL     1      21.072  11.469  18.855  1.00  0.00    -0.011 A 
ENDROOT
BRANCH  22  25
HETATM   25  O3  UNL     1      23.652  13.498  17.437  1.00  0.00    -0.345 OA
BRANCH  25  26
HETATM   26  C19 UNL     1      24.834  13.989  17.153  1.00  0.00     0.213 C 
BRANCH  26  27
HETATM   27  C20 UNL     1      25.190  14.711  15.913  1.00  0.00     0.180 C 
BRANCH  27  28
HETATM   28  O4  UNL     1      24.384  14.161  14.860  1.00  0.00    -0.388 OA
ATOM     29  H4  UNL     1      24.473  14.738  14.111  1.00  0.00     0.210 HD
ENDBRANCH  27  28
BRANCH  27  30
HETATM   30  C21 UNL     1      24.957  16.189  15.900  1.00  0.00     0.094 C 
BRANCH  30  31
HETATM   31  N3  UNL     1      23.759  16.787  15.532  1.00  0.00    -0.375 N 
ATOM     32  H3  UNL     1      22.906  16.227  15.542  1.00  0.00     0.164 HD
BRANCH  31  33
HETATM   33  C22 UNL     1      23.680  18.124  15.151  1.00  0.00     0.099 C 
BRANCH  33  34
HETATM   34  C23 UNL     1      22.470  18.915  15.557  1.00  0.00     0.076 C 
BRANCH  34  35
HETATM   35  N4  UNL     1      21.196  18.329  15.431  1.00  0.00    -0.292 NA
BRANCH  35  36
HETATM   36  C24 UNL     1      20.465  18.100  16.666  1.00  0.00     0.090 C 
HETATM   37  C25 UNL     1      20.471  19.434  17.410  1.00  0.00     0.021 C 
ENDBRANCH  35  36
BRANCH  35  38
HETATM   38  C26 UNL     1      20.343  19.023  14.462  1.00  0.00     0.090 C 
HETATM   39  C27 UNL     1      19.235  18.107  14.072  1.00  0.00     0.021 C 
ENDBRANCH  35  38
ENDBRANCH  34  35
ENDBRANCH  33  34
ENDBRANCH  31  33
ENDBRANCH  30  31
ENDBRANCH  27  30
ENDBRANCH  26  27
ENDBRANCH  25  26
ENDBRANCH  22  25
BRANCH  21  40
HETATM   40  O2  UNL     1      21.611  14.702  16.228  1.00  0.00    -0.353 OA
HETATM   41  C17 UNL     1      20.853  14.752  15.050  1.00  0.00     0.210 C 
ENDBRANCH  21  40
TORSDOF 12
ENDMDL
MODEL 3
REMARK VINA RESULT: -8.512778938      0.305      1.027
REMARK  12 active torsions:
REMARK  status: ('A' for Active; 'I' for Inactive)
REMARK    1  A    between atoms: C16_21  and  O2_22 
REMARK    2  A    between atoms: C18_24  and  O3_25 
REMARK    3  A    between atoms: O3_25  and  C19_26 
REMARK    4  A    between atoms: C19_26  and  C20_27 
REMARK    5  A    between atoms: C20_27  and  O4_28 
REMARK    6  A    between atoms: C20_27  and  C21_30 
REMARK    7  A    between atoms: C21_30  and  N3_31 
REMARK    8  A    between atoms: N3_31  and  C22_33 
REMARK    9  A    between atoms: C22_33  and  C23_34 
REMARK   10  A    between atoms: C23_34  and  N4_35 
REMARK   11  A    between atoms: N4_35  and  C24_36 
REMARK   12  A    between atoms: N4_35  and  C26_38 
ROOT
HETATM    1  C1  UNL     1      18.773  18.653  14.463  1.00  0.00     0.018 C 
HETATM    2  C2  UNL     1      19.237  17.681  15.036  1.00  0.00    -0.076 C 
HETATM    3  C3  UNL     1      19.759  16.533  15.734  1.00  0.00     0.041 A 
HETATM    4  C4  UNL     1      18.937  15.591  16.317  1.00  0.00     0.054 A 
HETATM    5  C5  UNL     1      19.457  14.483  16.992  1.00  0.00     0.064 A 
HETATM    6  N1  UNL     1      18.662  13.547  17.531  1.00  0.00    -0.321 N 
ATOM      7  H1  UNL     1      17.651  13.667  17.466  1.00  0.00     0.169 HD
HETATM    8  C6  UNL     1      19.149  12.436  18.163  1.00  0.00     0.257 A 
HETATM    9  O1  UNL     1      18.344  11.626  18.633  1.00  0.00    -0.267 OA
HETATM   10  C7  UNL     1      20.513  12.291  18.237  1.00  0.00     0.051 A 
HETATM   11  C8  UNL     1      21.363  13.255  17.689  1.00  0.00    -0.012 A 
HETATM   12  C9  UNL     1      20.828  14.378  17.049  1.00  0.00     0.067 A 
HETATM   13  N2  UNL     1      21.624  15.298  16.480  1.00  0.00    -0.356 N 
ATOM     14  H2  UNL     1      22.636  15.184  16.543  1.00  0.00     0.166 HD
HETATM   15  C10 UNL     1      21.117  16.385  15.816  1.00  0.00     0.024 A 
HETATM   16  C11 UNL     1      22.067  17.358  15.184  1.00  0.00     0.070 C 
HETATM   17  C12 UNL     1      22.824  13.200  17.814  1.00  0.00     0.047 C 
HETATM   18  C13 UNL     1      23.434  11.920  18.182  1.00  0.00     0.044 C 
HETATM   19  C14 UNL     1      22.511  10.906  18.721  1.00  0.00    -0.044 A 
HETATM   20  C15 UNL     1      23.074   9.710  19.153  1.00  0.00     0.047 A 
HETATM   21  C16 UNL     1      22.329   8.692  19.624  1.00  0.00     0.102 A 
HETATM   22  C18 UNL     1      20.920   8.850  19.681  1.00  0.00     0.103 A 
HETATM   23  C28 UNL     1      20.335  10.053  19.253  1.00  0.00     0.052 A 
HETATM   24  C29 UNL     1      21.133  11.062  18.778  1.00  0.00    -0.011 A 
ENDROOT
BRANCH  22  25
HETATM   25  O3  UNL     1      20.224   7.875  20.121  1.00  0.00    -0.345 OA
BRANCH  25  26
HETATM   26  C19 UNL     1      19.509   6.871  20.566  1.00  0.00     0.213 C 
BRANCH  26  27
HETATM   27  C20 UNL     1      19.791   6.092  21.790  1.00  0.00     0.180 C 
BRANCH  27  28
HETATM   28  O4  UNL     1      20.190   7.027  22.803  1.00  0.00    -0.388 OA
ATOM     29  H4  UNL     1      19.399   7.438  23.131  1.00  0.00     0.210 HD
ENDBRANCH  27  28
BRANCH  27  30
HETATM   30  C21 UNL     1      18.658   5.300  22.364  1.00  0.00     0.094 C 
BRANCH  30  31
HETATM   31  N3  UNL     1      17.651   5.839  23.154  1.00  0.00    -0.375 N 
ATOM     32  H3  UNL     1      17.889   6.195  24.081  1.00  0.00     0.164 HD
BRANCH  31  33
HETATM   33  C22 UNL     1      16.328   5.913  22.727  1.00  0.00     0.099 C 
BRANCH  33  34
HETATM   34  C23 UNL     1      15.904   7.098  21.908  1.00  0.00     0.076 C 
BRANCH  34  35
HETATM   35  N4  UNL     1      16.160   7.099  20.524  1.00  0.00    -0.292 NA
BRANCH  35  36
HETATM   36  C24 UNL     1      15.531   6.042  19.750  1.00  0.00     0.090 C 
HETATM   37  C25 UNL     1      14.024   6.247  19.907  1.00  0.00     0.021 C 
ENDBRANCH  35  36
BRANCH  35  38
HETATM   38  C26 UNL     1      15.906   8.400  19.898  1.00  0.00     0.090 C 
HETATM   39  C27 UNL     1      16.724   8.491  18.657  1.00  0.00     0.021 C 
ENDBRANCH  35  38
ENDBRANCH  34  35
ENDBRANCH  33  34
ENDBRANCH  31  33
ENDBRANCH  30  31
ENDBRANCH  27  30
ENDBRANCH  26  27
ENDBRANCH  25  26
ENDBRANCH  22  25
BRANCH  21  40
HETATM   40  O2  UNL     1      22.851   7.455  20.074  1.00  0.00    -0.353 OA
HETATM   41  C17 UNL     1      23.427   7.434  21.351  1.00  0.00     0.210 C 
ENDBRANCH  21  40
TORSDOF 12
ENDMDL
MODEL 4
REMARK VINA RESULT: -8.424952733      2.666      9.220
REMARK  12 active torsions:
REMARK  status: ('A' for Active; 'I' for Inactive)
REMARK    1  A    between atoms: C16_21  and  O2_22 
REMARK    2  A    between atoms: C18_24  and  O3_25 
REMARK    3  A    between atoms: O3_25  and  C19_26 
REMARK    4  A    between atoms: C19_26  and  C20_27 
REMARK    5  A    between atoms: C20_27  and  O4_28 
REMARK    6  A    between atoms: C20_27  and  C21_30 
REMARK    7  A    between atoms: C21_30  and  N3_31 
REMARK    8  A    between atoms: N3_31  and  C22_33 
REMARK    9  A    between atoms: C22_33  and  C23_34 
REMARK   10  A    between atoms: C23_34  and  N4_35 
REMARK   11  A    between atoms: N4_35  and  C24_36 
REMARK   12  A    between atoms: N4_35  and  C26_38 
ROOT
HETATM    1  C1  UNL     1      15.057   5.383  20.415  1.00  0.00     0.018 C 
HETATM    2  C2  UNL     1      16.050   6.047  20.169  1.00  0.00    -0.076 C 
HETATM    3  C3  UNL     1      17.214   6.834  19.847  1.00  0.00     0.041 A 
HETATM    4  C4  UNL     1      17.202   7.795  18.858  1.00  0.00     0.054 A 
HETATM    5  C5  UNL     1      18.338   8.550  18.555  1.00  0.00     0.064 A 
HETATM    6  N1  UNL     1      18.320   9.509  17.617  1.00  0.00    -0.321 N 
ATOM      7  H1  UNL     1      17.458   9.668  17.097  1.00  0.00     0.169 HD
HETATM    8  C6  UNL     1      19.411  10.284  17.331  1.00  0.00     0.257 A 
HETATM    9  O1  UNL     1      19.306  11.143  16.450  1.00  0.00    -0.267 OA
HETATM   10  C7  UNL     1      20.561  10.056  18.045  1.00  0.00     0.051 A 
HETATM   11  C8  UNL     1      20.607   9.059  19.023  1.00  0.00    -0.012 A 
HETATM   12  C9  UNL     1      19.472   8.287  19.289  1.00  0.00     0.067 A 
HETATM   13  N2  UNL     1      19.480   7.349  20.251  1.00  0.00    -0.356 N 
ATOM     14  H2  UNL     1      20.340   7.184  20.774  1.00  0.00     0.166 HD
HETATM   15  C10 UNL     1      18.366   6.608  20.551  1.00  0.00     0.024 A 
HETATM   16  C11 UNL     1      18.442   5.596  21.656  1.00  0.00     0.070 C 
HETATM   17  C12 UNL     1      21.830   8.710  19.755  1.00  0.00     0.047 C 
HETATM   18  C13 UNL     1      22.934   9.674  19.748  1.00  0.00     0.044 C 
HETATM   19  C14 UNL     1      22.843  10.739  18.734  1.00  0.00    -0.044 A 
HETATM   20  C15 UNL     1      23.915  11.620  18.651  1.00  0.00     0.047 A 
HETATM   21  C16 UNL     1      23.928  12.659  17.794  1.00  0.00     0.102 A 
HETATM   22  C18 UNL     1      22.807  12.856  16.947  1.00  0.00     0.103 A 
HETATM   23  C28 UNL     1      21.717  11.972  17.015  1.00  0.00     0.052 A 
HETATM   24  C29 UNL     1      21.746  10.930  17.904  1.00  0.00    -0.011 A 
ENDROOT
BRANCH  22  25
HETATM   25  O3  UNL     1      22.828  13.849  16.146  1.00  0.00    -0.345 OA
BRANCH  25  26
HETATM   26  C19 UNL     1      22.853  14.873  15.328  1.00  0.00     0.213 C 
BRANCH  26  27
HETATM   27  C20 UNL     1      21.750  15.285  14.434  1.00  0.00     0.180 C 
BRANCH  27  28
HETATM   28  O4  UNL     1      21.885  14.529  13.221  1.00  0.00    -0.388 OA
ATOM     29  H4  UNL     1      21.346  14.955  12.566  1.00  0.00     0.210 HD
ENDBRANCH  27  28
BRANCH  27  30
HETATM   30  C21 UNL     1      20.357  15.055  14.927  1.00  0.00     0.094 C 
BRANCH  30  31
HETATM   31  N3  UNL     1      19.999  15.027  16.269  1.00  0.00    -0.375 N 
ATOM     32  H3  UNL     1      20.310  14.245  16.846  1.00  0.00     0.164 HD
BRANCH  31  33
HETATM   33  C22 UNL     1      19.232  16.030  16.856  1.00  0.00     0.099 C 
BRANCH  33  34
HETATM   34  C23 UNL     1      19.869  17.366  17.107  1.00  0.00     0.076 C 
BRANCH  34  35
HETATM   35  N4  UNL     1      19.631  18.417  16.202  1.00  0.00    -0.292 NA
BRANCH  35  36
HETATM   36  C24 UNL     1      18.566  18.209  15.234  1.00  0.00     0.090 C 
HETATM   37  C25 UNL     1      19.190  18.467  13.863  1.00  0.00     0.021 C 
ENDBRANCH  35  36
BRANCH  35  38
HETATM   38  C26 UNL     1      19.461  19.713  16.865  1.00  0.00     0.090 C 
HETATM   39  C27 UNL     1      20.170  19.667  18.174  1.00  0.00     0.021 C 
ENDBRANCH  35  38
ENDBRANCH  34  35
ENDBRANCH  33  34
ENDBRANCH  31  33
ENDBRANCH  30  31
ENDBRANCH  27  30
ENDBRANCH  26  27
ENDBRANCH  25  26
ENDBRANCH  22  25
BRANCH  21  40
HETATM   40  O2  UNL     1      24.992  13.586  17.671  1.00  0.00    -0.353 OA
HETATM   41  C17 UNL     1      26.126  13.163  16.966  1.00  0.00     0.210 C 
ENDBRANCH  21  40
TORSDOF 12
ENDMDL
MODEL 5
REMARK VINA RESULT: -8.412832859      2.706      9.246
REMARK  12 active torsions:
REMARK  status: ('A' for Active; 'I' for Inactive)
REMARK    1  A    between atoms: C16_21  and  O2_22 
REMARK    2  A    between atoms: C18_24  and  O3_25 
REMARK    3  A    between atoms: O3_25  and  C19_26 
REMARK    4  A    between atoms: C19_26  and  C20_27 
REMARK    5  A    between atoms: C20_27  and  O4_28 
REMARK    6  A    between atoms: C20_27  and  C21_30 
REMARK    7  A    between atoms: C21_30  and  N3_31 
REMARK    8  A    between atoms: N3_31  and  C22_33 
REMARK    9  A    between atoms: C22_33  and  C23_34 
REMARK   10  A    between atoms: C23_34  and  N4_35 
REMARK   11  A    between atoms: N4_35  and  C24_36 
REMARK   12  A    between atoms: N4_35  and  C26_38 
ROOT
HETATM    1  C1  UNL     1      15.191   5.342  20.502  1.00  0.00     0.018 C 
HETATM    2  C2  UNL     1      16.173   6.013  20.231  1.00  0.00    -0.076 C 
HETATM    3  C3  UNL     1      17.323   6.808  19.881  1.00  0.00     0.041 A 
HETATM    4  C4  UNL     1      17.269   7.793  18.916  1.00  0.00     0.054 A 
HETATM    5  C5  UNL     1      18.392   8.556  18.584  1.00  0.00     0.064 A 
HETATM    6  N1  UNL     1      18.336   9.537  17.671  1.00  0.00    -0.321 N 
ATOM      7  H1  UNL     1      17.453   9.707  17.191  1.00  0.00     0.169 HD
HETATM    8  C6  UNL     1      19.413  10.320  17.358  1.00  0.00     0.257 A 
HETATM    9  O1  UNL     1      19.272  11.199  16.503  1.00  0.00    -0.267 OA
HETATM   10  C7  UNL     1      20.592  10.076  18.019  1.00  0.00     0.051 A 
HETATM   11  C8  UNL     1      20.678   9.056  18.970  1.00  0.00    -0.012 A 
HETATM   12  C9  UNL     1      19.555   8.277  19.264  1.00  0.00     0.067 A 
HETATM   13  N2  UNL     1      19.603   7.316  20.203  1.00  0.00    -0.356 N 
ATOM     14  H2  UNL     1      20.484   7.140  20.686  1.00  0.00     0.166 HD
HETATM   15  C10 UNL     1      18.503   6.567  20.531  1.00  0.00     0.024 A 
HETATM   16  C11 UNL     1      18.625   5.530  21.607  1.00  0.00     0.070 C 
HETATM   17  C12 UNL     1      21.931   8.691  19.643  1.00  0.00     0.047 C 
HETATM   18  C13 UNL     1      23.033   9.656  19.613  1.00  0.00     0.044 C 
HETATM   19  C14 UNL     1      22.900  10.745  18.630  1.00  0.00    -0.044 A 
HETATM   20  C15 UNL     1      23.967  11.629  18.523  1.00  0.00     0.047 A 
HETATM   21  C16 UNL     1      23.945  12.688  17.691  1.00  0.00     0.102 A 
HETATM   22  C18 UNL     1      22.790  12.904  16.896  1.00  0.00     0.103 A 
HETATM   23  C28 UNL     1      21.705  12.018  16.988  1.00  0.00     0.052 A 
HETATM   24  C29 UNL     1      21.770  10.955  17.851  1.00  0.00    -0.011 A 
ENDROOT
BRANCH  22  25
HETATM   25  O3  UNL     1      22.778  13.916  16.119  1.00  0.00    -0.345 OA
BRANCH  25  26
HETATM   26  C19 UNL     1      22.760  14.958  15.324  1.00  0.00     0.213 C 
BRANCH  26  27
HETATM   27  C20 UNL     1      21.651  15.332  14.422  1.00  0.00     0.180 C 
BRANCH  27  28
HETATM   28  O4  UNL     1      21.826  14.588  13.207  1.00  0.00    -0.388 OA
ATOM     29  H4  UNL     1      20.970  14.268  12.950  1.00  0.00     0.210 HD
ENDBRANCH  27  28
BRANCH  27  30
HETATM   30  C21 UNL     1      20.263  15.045  14.901  1.00  0.00     0.094 C 
BRANCH  30  31
HETATM   31  N3  UNL     1      19.888  15.027  16.238  1.00  0.00    -0.375 N 
ATOM     32  H3  UNL     1      20.075  14.190  16.791  1.00  0.00     0.164 HD
BRANCH  31  33
HETATM   33  C22 UNL     1      19.265  16.111  16.851  1.00  0.00     0.099 C 
BRANCH  33  34
HETATM   34  C23 UNL     1      20.062  17.363  17.075  1.00  0.00     0.076 C 
BRANCH  34  35
HETATM   35  N4  UNL     1      19.578  18.582  16.564  1.00  0.00    -0.292 NA
BRANCH  35  36
HETATM   36  C24 UNL     1      20.168  19.792  17.112  1.00  0.00     0.090 C 
HETATM   37  C25 UNL     1      19.756  19.831  18.583  1.00  0.00     0.021 C 
ENDBRANCH  35  36
BRANCH  35  38
HETATM   38  C26 UNL     1      19.593  18.633  15.099  1.00  0.00     0.090 C 
HETATM   39  C27 UNL     1      18.202  18.872  14.624  1.00  0.00     0.021 C 
ENDBRANCH  35  38
ENDBRANCH  34  35
ENDBRANCH  33  34
ENDBRANCH  31  33
ENDBRANCH  30  31
ENDBRANCH  27  30
ENDBRANCH  26  27
ENDBRANCH  25  26
ENDBRANCH  22  25
BRANCH  21  40
HETATM   40  O2  UNL     1      25.003  13.619  17.547  1.00  0.00    -0.353 OA
HETATM   41  C17 UNL     1      26.210  13.135  17.026  1.00  0.00     0.210 C 
ENDBRANCH  21  40
TORSDOF 12
ENDMDL
