MODEL 1
REMARK VINA RESULT: -9.029757867      0.000      0.000
REMARK  13 active torsions:
REMARK  status: ('A' for Active; 'I' for Inactive)
REMARK       I    between atoms: C2_2  and  N1_4 
REMARK    1  A    between atoms: N1_4  and  C3_6 
REMARK    2  A    between atoms: C3_6  and  C4_7 
REMARK    3  A    between atoms: C4_7  and  C5_8 
REMARK    4  A    between atoms: C5_8  and  C6_9 
REMARK    5  A    between atoms: C6_9  and  N2_10 
REMARK       I    between atoms: N2_10  and  C7_12 
REMARK    6  A    between atoms: C7_12  and  C8_14 
REMARK    7  A    between atoms: C8_14  and  C9_15 
REMARK    8  A    between atoms: C9_15  and  C10_16 
REMARK    9  A    between atoms: C10_16  and  O3_17 
REMARK   10  A    between atoms: N3_19  and  C11_21 
REMARK   11  A    between atoms: C12_23  and  S2_24 
REMARK   12  A    between atoms: S2_24  and  C13_25 
REMARK   13  A    between atoms: C13_25  and  C14_26 
ROOT
HETATM    1  C11 UNL     1      22.012  27.685  16.456  1.00  0.00     0.084 A 
HETATM    2  S1  UNL     1      21.457  27.233  18.036  1.00  0.00    -0.064 SA
HETATM    3  C12 UNL     1      23.039  26.532  17.734  1.00  0.00     0.052 A 
HETATM    4  C25 UNL     1      23.226  26.983  16.573  1.00  0.00    -0.004 A 
HETATM    5  C26 UNL     1      24.364  26.874  15.562  1.00  0.00     0.053 C 
ENDROOT
BRANCH   1   6
HETATM    6  N3  UNL     1      21.462  28.422  15.529  1.00  0.00    -0.334 N 
HETATM    7  C10 UNL     1      20.782  28.141  14.386  1.00  0.00     0.116 C 
ATOM      8  H3  UNL     1      21.565  29.422  15.699  1.00  0.00     0.168 HD
BRANCH   7   9
HETATM    9  C9  UNL     1      21.279  27.588  13.100  1.00  0.00     0.093 C 
BRANCH   9  10
HETATM   10  C8  UNL     1      20.538  26.313  12.720  1.00  0.00     0.111 C 
BRANCH  10  11
HETATM   11  C7  UNL     1      20.561  25.382  13.884  1.00  0.00     0.217 C 
HETATM   12  N2  UNL     1      19.440  25.207  14.700  1.00  0.00    -0.361 N 
ATOM     13  H2  UNL     1      18.599  25.735  14.466  1.00  0.00     0.162 HD
HETATM   14  O2  UNL     1      21.629  24.727  14.144  1.00  0.00    -0.274 OA
BRANCH  12  15
HETATM   15  C6  UNL     1      19.383  24.325  15.864  1.00  0.00     0.122 C 
BRANCH  15  16
HETATM   16  C5  UNL     1      18.549  24.875  16.945  1.00  0.00     0.021 C 
BRANCH  16  17
HETATM   17  C4  UNL     1      17.082  24.709  16.876  1.00  0.00     0.021 C 
BRANCH  17  18
HETATM   18  C3  UNL     1      16.568  23.779  15.841  1.00  0.00     0.122 C 
BRANCH  18  19
HETATM   19  N1  UNL     1      15.152  23.667  15.830  1.00  0.00    -0.361 N 
HETATM   20  C2  UNL     1      14.497  22.567  15.182  1.00  0.00     0.213 C 
HETATM   21  C1  UNL     1      13.025  22.420  15.149  1.00  0.00     0.117 C 
HETATM   22  O1  UNL     1      15.217  21.708  14.629  1.00  0.00    -0.274 OA
ATOM     23  H1  UNL     1      14.590  24.382  16.291  1.00  0.00     0.162 HD
ENDBRANCH  18  19
ENDBRANCH  17  18
ENDBRANCH  16  17
ENDBRANCH  15  16
ENDBRANCH  12  15
ENDBRANCH  10  11
ENDBRANCH   9  10
ENDBRANCH   7   9
BRANCH   7  24
HETATM   24  O3  UNL     1      19.503  28.378  14.375  1.00  0.00    -0.349 OA
ATOM     25  H3  UNL     1      19.049  27.926  13.673  1.00  0.00     0.219 HD
ENDBRANCH   7  24
ENDBRANCH   1   6
BRANCH   3  26
HETATM   26  S2  UNL     1      23.970  25.523  18.927  1.00  0.00    -0.117 SA
BRANCH  26  27
HETATM   27  C13 UNL     1      23.299  25.411  20.541  1.00  0.00     0.124 C 
BRANCH  27  28
HETATM   28  C14 UNL     1      21.887  24.957  20.512  1.00  0.00     0.020 A 
HETATM   29  C15 UNL     1      21.556  23.803  19.847  1.00  0.00     0.027 A 
HETATM   30  C16 UNL     1      20.234  23.424  19.860  1.00  0.00    -0.006 A 
HETATM   31  C17 UNL     1      19.806  22.277  19.219  1.00  0.00     0.053 A 
HETATM   32  C21 UNL     1      19.342  24.222  20.535  1.00  0.00     0.048 A 
HETATM   33  C18 UNL     1      18.492  21.898  19.235  1.00  0.00     0.103 A 
HETATM   34  C19 UNL     1      17.595  22.702  19.914  1.00  0.00     0.104 A 
HETATM   35  O6  UNL     1      17.992  20.750  18.607  1.00  0.00    -0.346 OA
HETATM   36  C20 UNL     1      18.009  23.846  20.555  1.00  0.00     0.070 A 
HETATM   37  O5  UNL     1      16.269  22.269  19.898  1.00  0.00    -0.346 OA
HETATM   38  C23 UNL     1      15.718  21.646  18.745  1.00  0.00     0.202 C 
HETATM   39  C24 UNL     1      16.704  20.805  18.004  1.00  0.00     0.202 C 
HETATM   40  N4  UNL     1      19.686  25.357  21.187  1.00  0.00    -0.322 N 
HETATM   41  C22 UNL     1      20.968  25.727  21.174  1.00  0.00     0.253 A 
ATOM     42  H4  UNL     1      18.985  25.915  21.674  1.00  0.00     0.169 HD
HETATM   43  O4  UNL     1      21.256  26.793  21.793  1.00  0.00    -0.268 OA
ENDBRANCH  27  28
ENDBRANCH  26  27
ENDBRANCH   3  26
TORSDOF 13
ENDMDL
MODEL 2
REMARK VINA RESULT: -9.002814818      2.787      5.149
REMARK  13 active torsions:
REMARK  status: ('A' for Active; 'I' for Inactive)
REMARK       I    between atoms: C2_2  and  N1_4 
REMARK    1  A    between atoms: N1_4  and  C3_6 
REMARK    2  A    between atoms: C3_6  and  C4_7 
REMARK    3  A    between atoms: C4_7  and  C5_8 
REMARK    4  A    between atoms: C5_8  and  C6_9 
REMARK    5  A    between atoms: C6_9  and  N2_10 
REMARK       I    between atoms: N2_10  and  C7_12 
REMARK    6  A    between atoms: C7_12  and  C8_14 
REMARK    7  A    between atoms: C8_14  and  C9_15 
REMARK    8  A    between atoms: C9_15  and  C10_16 
REMARK    9  A    between atoms: C10_16  and  O3_17 
REMARK   10  A    between atoms: N3_19  and  C11_21 
REMARK   11  A    between atoms: C12_23  and  S2_24 
REMARK   12  A    between atoms: S2_24  and  C13_25 
REMARK   13  A    between atoms: C13_25  and  C14_26 
ROOT
HETATM    1  C11 UNL     1      21.706  25.008  18.744  1.00  0.00     0.084 A 
HETATM    2  S1  UNL     1      20.165  25.187  17.967  1.00  0.00    -0.064 SA
HETATM    3  C12 UNL     1      20.022  24.101  19.340  1.00  0.00     0.052 A 
HETATM    4  C25 UNL     1      21.220  24.127  19.727  1.00  0.00    -0.004 A 
HETATM    5  C26 UNL     1      21.979  23.472  20.878  1.00  0.00     0.053 C 
ENDROOT
BRANCH   1   6
HETATM    6  N3  UNL     1      22.871  25.532  18.474  1.00  0.00    -0.334 N 
HETATM    7  C10 UNL     1      23.266  26.687  17.875  1.00  0.00     0.116 C 
ATOM      8  H3  UNL     1      23.652  24.950  18.776  1.00  0.00     0.168 HD
BRANCH   7   9
HETATM    9  C9  UNL     1      23.193  27.085  16.446  1.00  0.00     0.093 C 
BRANCH   9  10
HETATM   10  C8  UNL     1      22.210  28.230  16.238  1.00  0.00     0.111 C 
BRANCH  10  11
HETATM   11  C7  UNL     1      21.149  27.782  15.293  1.00  0.00     0.217 C 
HETATM   12  N2  UNL     1      21.255  26.574  14.597  1.00  0.00    -0.361 N 
ATOM     13  H2  UNL     1      22.083  26.003  14.766  1.00  0.00     0.162 HD
HETATM   14  O2  UNL     1      20.117  28.517  15.111  1.00  0.00    -0.274 OA
BRANCH  12  15
HETATM   15  C6  UNL     1      20.266  26.069  13.646  1.00  0.00     0.122 C 
BRANCH  15  16
HETATM   16  C5  UNL     1      19.441  24.991  14.216  1.00  0.00     0.021 C 
BRANCH  16  17
HETATM   17  C4  UNL     1      18.127  25.327  14.804  1.00  0.00     0.021 C 
BRANCH  17  18
HETATM   18  C3  UNL     1      17.390  24.220  15.460  1.00  0.00     0.122 C 
BRANCH  18  19
HETATM   19  N1  UNL     1      17.033  23.170  14.573  1.00  0.00    -0.361 N 
HETATM   20  C2  UNL     1      15.727  22.576  14.610  1.00  0.00     0.213 C 
HETATM   21  C1  UNL     1      15.322  21.479  13.702  1.00  0.00     0.117 C 
HETATM   22  O1  UNL     1      14.913  23.017  15.449  1.00  0.00    -0.274 OA
ATOM     23  H1  UNL     1      17.717  22.831  13.897  1.00  0.00     0.162 HD
ENDBRANCH  18  19
ENDBRANCH  17  18
ENDBRANCH  16  17
ENDBRANCH  15  16
ENDBRANCH  12  15
ENDBRANCH  10  11
ENDBRANCH   9  10
ENDBRANCH   7   9
BRANCH   7  24
HETATM   24  O3  UNL     1      23.791  27.606  18.631  1.00  0.00    -0.349 OA
ATOM     25  H3  UNL     1      23.668  28.483  18.288  1.00  0.00     0.219 HD
ENDBRANCH   7  24
ENDBRANCH   1   6
BRANCH   3  26
HETATM   26  S2  UNL     1      18.472  23.322  19.887  1.00  0.00    -0.117 SA
BRANCH  26  27
HETATM   27  C13 UNL     1      18.422  21.572  19.843  1.00  0.00     0.124 C 
BRANCH  27  28
HETATM   28  C14 UNL     1      17.228  21.081  19.113  1.00  0.00     0.020 A 
HETATM   29  C15 UNL     1      16.113  20.694  19.814  1.00  0.00     0.027 A 
HETATM   30  C16 UNL     1      15.031  20.255  19.086  1.00  0.00    -0.006 A 
HETATM   31  C17 UNL     1      13.864  19.847  19.703  1.00  0.00     0.053 A 
HETATM   32  C21 UNL     1      15.141  20.235  17.716  1.00  0.00     0.048 A 
HETATM   33  C18 UNL     1      12.787  19.414  18.980  1.00  0.00     0.103 A 
HETATM   34  C19 UNL     1      12.898  19.394  17.602  1.00  0.00     0.104 A 
HETATM   35  O6  UNL     1      11.577  18.988  19.542  1.00  0.00    -0.346 OA
HETATM   36  C20 UNL     1      14.056  19.798  16.977  1.00  0.00     0.070 A 
HETATM   37  O5  UNL     1      11.772  18.944  16.914  1.00  0.00    -0.346 OA
HETATM   38  C23 UNL     1      10.968  17.894  17.438  1.00  0.00     0.202 C 
HETATM   39  C24 UNL     1      10.879  17.909  18.928  1.00  0.00     0.202 C 
HETATM   40  N4  UNL     1      16.249  20.621  17.042  1.00  0.00    -0.322 N 
HETATM   41  C22 UNL     1      17.300  21.046  17.746  1.00  0.00     0.253 A 
ATOM     42  H4  UNL     1      16.280  20.588  16.023  1.00  0.00     0.169 HD
HETATM   43  O4  UNL     1      18.319  21.399  17.084  1.00  0.00    -0.268 OA
ENDBRANCH  27  28
ENDBRANCH  26  27
ENDBRANCH   3  26
TORSDOF 13
ENDMDL
MODEL 3
REMARK VINA RESULT: -8.755757941      3.393      6.232
REMARK  13 active torsions:
REMARK  status: ('A' for Active; 'I' for Inactive)
REMARK       I    between atoms: C2_2  and  N1_4 
REMARK    1  A    between atoms: N1_4  and  C3_6 
REMARK    2  A    between atoms: C3_6  and  C4_7 
REMARK    3  A    between atoms: C4_7  and  C5_8 
REMARK    4  A    between atoms: C5_8  and  C6_9 
REMARK    5  A    between atoms: C6_9  and  N2_10 
REMARK       I    between atoms: N2_10  and  C7_12 
REMARK    6  A    between atoms: C7_12  and  C8_14 
REMARK    7  A    between atoms: C8_14  and  C9_15 
REMARK    8  A    between atoms: C9_15  and  C10_16 
REMARK    9  A    between atoms: C10_16  and  O3_17 
REMARK   10  A    between atoms: N3_19  and  C11_21 
REMARK   11  A    between atoms: C12_23  and  S2_24 
REMARK   12  A    between atoms: S2_24  and  C13_25 
REMARK   13  A    between atoms: C13_25  and  C14_26 
ROOT
HETATM    1  C11 UNL     1      20.160  24.548  19.532  1.00  0.00     0.084 A 
HETATM    2  S1  UNL     1      20.421  23.000  20.270  1.00  0.00    -0.064 SA
HETATM    3  C12 UNL     1      18.867  23.019  19.452  1.00  0.00     0.052 A 
HETATM    4  C25 UNL     1      18.901  24.199  19.011  1.00  0.00    -0.004 A 
HETATM    5  C26 UNL     1      17.951  25.045  18.168  1.00  0.00     0.053 C 
ENDROOT
BRANCH   1   6
HETATM    6  N3  UNL     1      20.904  25.621  19.498  1.00  0.00    -0.334 N 
HETATM    7  C10 UNL     1      21.128  26.580  18.561  1.00  0.00     0.116 C 
ATOM      8  H3  UNL     1      21.429  25.772  20.359  1.00  0.00     0.168 HD
BRANCH   7   9
HETATM    9  C9  UNL     1      21.878  26.494  17.281  1.00  0.00     0.093 C 
BRANCH   9  10
HETATM   10  C8  UNL     1      22.112  27.875  16.681  1.00  0.00     0.111 C 
BRANCH  10  11
HETATM   11  C7  UNL     1      21.345  27.979  15.408  1.00  0.00     0.217 C 
HETATM   12  N2  UNL     1      21.755  27.308  14.253  1.00  0.00    -0.361 N 
ATOM     13  H2  UNL     1      22.597  26.736  14.313  1.00  0.00     0.162 HD
HETATM   14  O2  UNL     1      20.286  28.698  15.369  1.00  0.00    -0.274 OA
BRANCH  12  15
HETATM   15  C6  UNL     1      21.067  27.367  12.964  1.00  0.00     0.122 C 
BRANCH  15  16
HETATM   16  C5  UNL     1      20.139  26.239  12.773  1.00  0.00     0.021 C 
BRANCH  16  17
HETATM   17  C4  UNL     1      20.270  25.048  13.638  1.00  0.00     0.021 C 
BRANCH  17  18
HETATM   18  C3  UNL     1      19.292  24.921  14.745  1.00  0.00     0.122 C 
BRANCH  18  19
HETATM   19  N1  UNL     1      18.057  24.339  14.350  1.00  0.00    -0.361 N 
HETATM   20  C2  UNL     1      17.547  23.165  14.998  1.00  0.00     0.213 C 
HETATM   21  C1  UNL     1      16.266  22.531  14.611  1.00  0.00     0.117 C 
HETATM   22  O1  UNL     1      18.225  22.672  15.924  1.00  0.00    -0.274 OA
ATOM     23  H1  UNL     1      17.524  24.764  13.592  1.00  0.00     0.162 HD
ENDBRANCH  18  19
ENDBRANCH  17  18
ENDBRANCH  16  17
ENDBRANCH  15  16
ENDBRANCH  12  15
ENDBRANCH  10  11
ENDBRANCH   9  10
ENDBRANCH   7   9
BRANCH   7  24
HETATM   24  O3  UNL     1      20.629  27.761  18.778  1.00  0.00    -0.349 OA
ATOM     25  H3  UNL     1      19.704  27.817  18.565  1.00  0.00     0.219 HD
ENDBRANCH   7  24
ENDBRANCH   1   6
BRANCH   3  26
HETATM   26  S2  UNL     1      17.729  21.604  19.358  1.00  0.00    -0.117 SA
BRANCH  26  27
HETATM   27  C13 UNL     1      16.158  21.818  20.103  1.00  0.00     0.124 C 
BRANCH  27  28
HETATM   28  C14 UNL     1      15.079  21.224  19.275  1.00  0.00     0.020 A 
HETATM   29  C15 UNL     1      14.575  19.989  19.597  1.00  0.00     0.027 A 
HETATM   30  C16 UNL     1      13.570  19.491  18.801  1.00  0.00    -0.006 A 
HETATM   31  C17 UNL     1      12.999  18.257  19.049  1.00  0.00     0.053 A 
HETATM   32  C21 UNL     1      13.143  20.259  17.745  1.00  0.00     0.048 A 
HETATM   33  C18 UNL     1      11.998  17.762  18.260  1.00  0.00     0.103 A 
HETATM   34  C19 UNL     1      11.569  18.536  17.197  1.00  0.00     0.104 A 
HETATM   35  O6  UNL     1      11.377  16.523  18.455  1.00  0.00    -0.346 OA
HETATM   36  C20 UNL     1      12.130  19.766  16.941  1.00  0.00     0.070 A 
HETATM   37  O5  UNL     1      10.546  17.984  16.425  1.00  0.00    -0.346 OA
HETATM   38  C23 UNL     1      10.498  16.587  16.170  1.00  0.00     0.202 C 
HETATM   39  C24 UNL     1      10.990  15.763  17.314  1.00  0.00     0.202 C 
HETATM   40  N4  UNL     1      13.652  21.476  17.442  1.00  0.00    -0.322 N 
HETATM   41  C22 UNL     1      14.628  21.961  18.212  1.00  0.00     0.253 A 
ATOM     42  H4  UNL     1      13.300  22.008  16.646  1.00  0.00     0.169 HD
HETATM   43  O4  UNL     1      15.081  23.101  17.901  1.00  0.00    -0.268 OA
ENDBRANCH  27  28
ENDBRANCH  26  27
ENDBRANCH   3  26
TORSDOF 13
ENDMDL
MODEL 4
REMARK VINA RESULT: -8.720671166      3.480      6.175
REMARK  13 active torsions:
REMARK  status: ('A' for Active; 'I' for Inactive)
REMARK       I    between atoms: C2_2  and  N1_4 
REMARK    1  A    between atoms: N1_4  and  C3_6 
REMARK    2  A    between atoms: C3_6  and  C4_7 
REMARK    3  A    between atoms: C4_7  and  C5_8 
REMARK    4  A    between atoms: C5_8  and  C6_9 
REMARK    5  A    between atoms: C6_9  and  N2_10 
REMARK       I    between atoms: N2_10  and  C7_12 
REMARK    6  A    between atoms: C7_12  and  C8_14 
REMARK    7  A    between atoms: C8_14  and  C9_15 
REMARK    8  A    between atoms: C9_15  and  C10_16 
REMARK    9  A    between atoms: C10_16  and  O3_17 
REMARK   10  A    between atoms: N3_19  and  C11_21 
REMARK   11  A    between atoms: C12_23  and  S2_24 
REMARK   12  A    between atoms: S2_24  and  C13_25 
REMARK   13  A    between atoms: C13_25  and  C14_26 
ROOT
HETATM    1  C11 UNL     1      19.772  24.510  19.379  1.00  0.00     0.084 A 
HETATM    2  S1  UNL     1      18.264  24.341  18.538  1.00  0.00    -0.064 SA
HETATM    3  C12 UNL     1      18.625  22.868  19.423  1.00  0.00     0.052 A 
HETATM    4  C25 UNL     1      19.722  23.217  19.933  1.00  0.00    -0.004 A 
HETATM    5  C26 UNL     1      20.723  22.542  20.867  1.00  0.00     0.053 C 
ENDROOT
BRANCH   1   6
HETATM    6  N3  UNL     1      20.613  25.506  19.445  1.00  0.00    -0.334 N 
HETATM    7  C10 UNL     1      20.973  26.492  18.580  1.00  0.00     0.116 C 
ATOM      8  H3  UNL     1      21.107  25.557  20.336  1.00  0.00     0.168 HD
BRANCH   7   9
HETATM    9  C9  UNL     1      21.775  26.409  17.332  1.00  0.00     0.093 C 
BRANCH   9  10
HETATM   10  C8  UNL     1      21.753  27.727  16.569  1.00  0.00     0.111 C 
BRANCH  10  11
HETATM   11  C7  UNL     1      20.699  27.652  15.518  1.00  0.00     0.217 C 
HETATM   12  N2  UNL     1      20.244  26.425  15.027  1.00  0.00    -0.361 N 
ATOM     13  H2  UNL     1      20.654  25.578  15.421  1.00  0.00     0.162 HD
HETATM   14  O2  UNL     1      20.198  28.734  15.052  1.00  0.00    -0.274 OA
BRANCH  12  15
HETATM   15  C6  UNL     1      19.224  26.266  13.992  1.00  0.00     0.122 C 
BRANCH  15  16
HETATM   16  C5  UNL     1      18.013  25.598  14.497  1.00  0.00     0.021 C 
BRANCH  16  17
HETATM   17  C4  UNL     1      18.045  24.141  14.742  1.00  0.00     0.021 C 
BRANCH  17  18
HETATM   18  C3  UNL     1      16.803  23.530  15.275  1.00  0.00     0.122 C 
BRANCH  18  19
HETATM   19  N1  UNL     1      16.419  22.341  14.599  1.00  0.00    -0.361 N 
HETATM   20  C2  UNL     1      15.039  21.972  14.466  1.00  0.00     0.213 C 
HETATM   21  C1  UNL     1      14.604  20.740  13.771  1.00  0.00     0.117 C 
HETATM   22  O1  UNL     1      14.184  22.736  14.964  1.00  0.00    -0.274 OA
ATOM     23  H1  UNL     1      17.139  21.738  14.200  1.00  0.00     0.162 HD
ENDBRANCH  18  19
ENDBRANCH  17  18
ENDBRANCH  16  17
ENDBRANCH  15  16
ENDBRANCH  12  15
ENDBRANCH  10  11
ENDBRANCH   9  10
ENDBRANCH   7   9
BRANCH   7  24
HETATM   24  O3  UNL     1      20.575  27.701  18.848  1.00  0.00    -0.349 OA
ATOM     25  H3  UNL     1      20.080  27.757  19.657  1.00  0.00     0.219 HD
ENDBRANCH   7  24
ENDBRANCH   1   6
BRANCH   3  26
HETATM   26  S2  UNL     1      17.546  21.405  19.482  1.00  0.00    -0.117 SA
BRANCH  26  27
HETATM   27  C13 UNL     1      15.977  21.624  20.230  1.00  0.00     0.124 C 
BRANCH  27  28
HETATM   28  C14 UNL     1      14.892  21.058  19.392  1.00  0.00     0.020 A 
HETATM   29  C15 UNL     1      14.442  19.784  19.630  1.00  0.00     0.027 A 
HETATM   30  C16 UNL     1      13.427  19.313  18.829  1.00  0.00    -0.006 A 
HETATM   31  C17 UNL     1      12.907  18.043  18.994  1.00  0.00     0.053 A 
HETATM   32  C21 UNL     1      12.939  20.146  17.851  1.00  0.00     0.048 A 
HETATM   33  C18 UNL     1      11.898  17.576  18.200  1.00  0.00     0.103 A 
HETATM   34  C19 UNL     1      11.406  18.415  17.217  1.00  0.00     0.104 A 
HETATM   35  O6  UNL     1      11.326  16.303  18.314  1.00  0.00    -0.346 OA
HETATM   36  C20 UNL     1      11.917  19.681  17.042  1.00  0.00     0.070 A 
HETATM   37  O5  UNL     1      10.378  17.888  16.436  1.00  0.00    -0.346 OA
HETATM   38  C23 UNL     1      10.368  16.514  16.071  1.00  0.00     0.202 C 
HETATM   39  C24 UNL     1      10.927  15.622  17.130  1.00  0.00     0.202 C 
HETATM   40  N4  UNL     1      13.396  21.401  17.630  1.00  0.00    -0.322 N 
HETATM   41  C22 UNL     1      14.380  21.859  18.406  1.00  0.00     0.253 A 
ATOM     42  H4  UNL     1      12.998  21.981  16.891  1.00  0.00     0.169 HD
HETATM   43  O4  UNL     1      14.783  23.036  18.173  1.00  0.00    -0.268 OA
ENDBRANCH  27  28
ENDBRANCH  26  27
ENDBRANCH   3  26
TORSDOF 13
ENDMDL
MODEL 5
REMARK VINA RESULT: -8.673846384      3.105      7.428
REMARK  13 active torsions:
REMARK  status: ('A' for Active; 'I' for Inactive)
REMARK       I    between atoms: C2_2  and  N1_4 
REMARK    1  A    between atoms: N1_4  and  C3_6 
REMARK    2  A    between atoms: C3_6  and  C4_7 
REMARK    3  A    between atoms: C4_7  and  C5_8 
REMARK    4  A    between atoms: C5_8  and  C6_9 
REMARK    5  A    between atoms: C6_9  and  N2_10 
REMARK       I    between atoms: N2_10  and  C7_12 
REMARK    6  A    between atoms: C7_12  and  C8_14 
REMARK    7  A    between atoms: C8_14  and  C9_15 
REMARK    8  A    between atoms: C9_15  and  C10_16 
REMARK    9  A    between atoms: C10_16  and  O3_17 
REMARK   10  A    between atoms: N3_19  and  C11_21 
REMARK   11  A    between atoms: C12_23  and  S2_24 
REMARK   12  A    between atoms: S2_24  and  C13_25 
REMARK   13  A    between atoms: C13_25  and  C14_26 
ROOT
HETATM    1  C11 UNL     1      16.160  23.328  17.259  1.00  0.00     0.084 A 
HETATM    2  S1  UNL     1      16.589  24.372  18.576  1.00  0.00    -0.064 SA
HETATM    3  C12 UNL     1      17.436  22.840  18.725  1.00  0.00     0.052 A 
HETATM    4  C25 UNL     1      16.981  22.273  17.697  1.00  0.00    -0.004 A 
HETATM    5  C26 UNL     1      17.204  20.908  17.050  1.00  0.00     0.053 C 
ENDROOT
BRANCH   1   6
HETATM    6  N3  UNL     1      15.357  23.509  16.244  1.00  0.00    -0.334 N 
HETATM    7  C10 UNL     1      14.146  22.996  15.902  1.00  0.00     0.116 C 
ATOM      8  H3  UNL     1      15.717  24.177  15.563  1.00  0.00     0.168 HD
BRANCH   7   9
HETATM    9  C9  UNL     1      13.794  21.630  15.434  1.00  0.00     0.093 C 
BRANCH   9  10
HETATM   10  C8  UNL     1      12.488  21.631  14.650  1.00  0.00     0.111 C 
BRANCH  10  11
HETATM   11  C7  UNL     1      11.571  20.622  15.248  1.00  0.00     0.217 C 
HETATM   12  N2  UNL     1      11.454  20.474  16.634  1.00  0.00    -0.361 N 
ATOM     13  H2  UNL     1      12.014  21.090  17.223  1.00  0.00     0.162 HD
HETATM   14  O2  UNL     1      10.874  19.871  14.481  1.00  0.00    -0.274 OA
BRANCH  12  15
HETATM   15  C6  UNL     1      10.588  19.503  17.300  1.00  0.00     0.122 C 
BRANCH  15  16
HETATM   16  C5  UNL     1      11.350  18.417  17.938  1.00  0.00     0.021 C 
BRANCH  16  17
HETATM   17  C4  UNL     1      11.134  18.136  19.373  1.00  0.00     0.021 C 
BRANCH  17  18
HETATM   18  C3  UNL     1      12.341  17.837  20.181  1.00  0.00     0.122 C 
BRANCH  18  19
HETATM   19  N1  UNL     1      13.030  18.998  20.624  1.00  0.00    -0.361 N 
HETATM   20  C2  UNL     1      14.233  19.441  19.980  1.00  0.00     0.213 C 
HETATM   21  C1  UNL     1      14.977  20.644  20.417  1.00  0.00     0.117 C 
HETATM   22  O1  UNL     1      14.653  18.772  19.012  1.00  0.00    -0.274 OA
ATOM     23  H1  UNL     1      12.663  19.526  21.416  1.00  0.00     0.162 HD
ENDBRANCH  18  19
ENDBRANCH  17  18
ENDBRANCH  16  17
ENDBRANCH  15  16
ENDBRANCH  12  15
ENDBRANCH  10  11
ENDBRANCH   9  10
ENDBRANCH   7   9
BRANCH   7  24
HETATM   24  O3  UNL     1      13.115  23.786  15.981  1.00  0.00    -0.349 OA
ATOM     25  H3  UNL     1      13.308  24.602  16.429  1.00  0.00     0.219 HD
ENDBRANCH   7  24
ENDBRANCH   1   6
BRANCH   3  26
HETATM   26  S2  UNL     1      18.623  22.436  20.042  1.00  0.00    -0.117 SA
BRANCH  26  27
HETATM   27  C13 UNL     1      20.260  23.019  19.821  1.00  0.00     0.124 C 
BRANCH  27  28
HETATM   28  C14 UNL     1      20.311  24.136  18.846  1.00  0.00     0.020 A 
HETATM   29  C15 UNL     1      20.112  23.885  17.511  1.00  0.00     0.027 A 
HETATM   30  C16 UNL     1      20.161  24.959  16.653  1.00  0.00    -0.006 A 
HETATM   31  C17 UNL     1      19.971  24.805  15.293  1.00  0.00     0.053 A 
HETATM   32  C21 UNL     1      20.406  26.201  17.188  1.00  0.00     0.048 A 
HETATM   33  C18 UNL     1      20.018  25.872  14.440  1.00  0.00     0.103 A 
HETATM   34  C19 UNL     1      20.263  27.122  14.979  1.00  0.00     0.104 A 
HETATM   35  O6  UNL     1      19.833  25.786  13.054  1.00  0.00    -0.346 OA
HETATM   36  C20 UNL     1      20.455  27.287  16.331  1.00  0.00     0.070 A 
HETATM   37  O5  UNL     1      20.300  28.174  14.065  1.00  0.00    -0.346 OA
HETATM   38  C23 UNL     1      20.850  27.994  12.766  1.00  0.00     0.202 C 
HETATM   39  C24 UNL     1      20.603  26.632  12.207  1.00  0.00     0.202 C 
HETATM   40  N4  UNL     1      20.600  26.430  18.508  1.00  0.00    -0.322 N 
HETATM   41  C22 UNL     1      20.553  25.389  19.342  1.00  0.00     0.253 A 
ATOM     42  H4  UNL     1      20.777  27.373  18.855  1.00  0.00     0.169 HD
HETATM   43  O4  UNL     1      20.738  25.639  20.569  1.00  0.00    -0.268 OA
ENDBRANCH  27  28
ENDBRANCH  26  27
ENDBRANCH   3  26
TORSDOF 13
ENDMDL
