MODEL 1
REMARK VINA RESULT: -5.936565648      0.000      0.000
REMARK  0 active torsions:
REMARK  status: ('A' for Active; 'I' for Inactive)
ROOT
HETATM    1  N1  UNL     1      40.334  16.237  29.350  1.00  0.00    -0.233 N 
ATOM      2  H11 UNL     1      39.780  15.813  28.606  1.00  0.00     0.174 HD
ATOM      3  H12 UNL     1      41.255  16.661  29.243  1.00  0.00     0.174 HD
HETATM    4  C1  UNL     1      39.799  16.227  30.549  1.00  0.00     0.693 C 
HETATM    5  N2  UNL     1      40.575  16.820  31.591  1.00  0.00    -0.132 N 
ATOM      6  H2  UNL     1      41.568  16.933  31.387  1.00  0.00     0.205 HD
HETATM    7  N3  UNL     1      40.167  17.267  32.853  1.00  0.00    -0.281 N 
ATOM      8  H3  UNL     1      40.918  17.649  33.427  1.00  0.00     0.187 HD
HETATM    9  C2  UNL     1      38.889  17.281  33.474  1.00  0.00     0.117 C 
HETATM   10  C3  UNL     1      38.724  17.890  34.625  1.00  0.00     0.135 C 
HETATM   11  N4  UNL     1      37.514  17.971  35.329  1.00  0.00    -0.113 NA
HETATM   12  C4  UNL     1      37.693  16.653  32.927  1.00  0.00     0.268 C 
HETATM   13  O1  UNL     1      36.675  16.747  33.616  1.00  0.00    -0.280 OA
HETATM   14  C5  UNL     1      37.514  15.913  31.659  1.00  0.00     0.312 C 
HETATM   15  O2  UNL     1      36.359  15.484  31.404  1.00  0.00    -0.263 OA
HETATM   16  N5  UNL     1      38.520  15.637  30.697  1.00  0.00    -0.152 N 
ATOM     17  H5  UNL     1      38.289  14.912  30.018  1.00  0.00     0.188 HD
ENDROOT
TORSDOF 0
ENDMDL
MODEL 2
REMARK VINA RESULT: -5.936333925      1.551      1.751
REMARK  0 active torsions:
REMARK  status: ('A' for Active; 'I' for Inactive)
ROOT
HETATM    1  N1  UNL     1      40.502  16.563  29.853  1.00  0.00    -0.233 N 
ATOM      2  H11 UNL     1      40.448  16.149  28.922  1.00  0.00     0.174 HD
ATOM      3  H12 UNL     1      41.227  17.198  30.185  1.00  0.00     0.174 HD
HETATM    4  C1  UNL     1      39.543  16.237  30.688  1.00  0.00     0.693 C 
HETATM    5  N2  UNL     1      39.619  16.816  31.992  1.00  0.00    -0.132 N 
ATOM      6  H2  UNL     1      40.533  17.185  32.254  1.00  0.00     0.205 HD
HETATM    7  N3  UNL     1      38.617  16.948  32.961  1.00  0.00    -0.281 N 
ATOM      8  H3  UNL     1      38.924  17.394  33.825  1.00  0.00     0.187 HD
HETATM    9  C2  UNL     1      37.248  16.569  32.951  1.00  0.00     0.117 C 
HETATM   10  C3  UNL     1      36.458  16.930  33.935  1.00  0.00     0.135 C 
HETATM   11  N4  UNL     1      35.096  16.616  34.032  1.00  0.00    -0.113 NA
HETATM   12  C4  UNL     1      36.613  15.781  31.903  1.00  0.00     0.268 C 
HETATM   13  O1  UNL     1      35.418  15.527  32.072  1.00  0.00    -0.280 OA
HETATM   14  C5  UNL     1      37.188  15.234  30.655  1.00  0.00     0.312 C 
HETATM   15  O2  UNL     1      36.412  14.599  29.896  1.00  0.00    -0.263 OA
HETATM   16  N5  UNL     1      38.536  15.354  30.227  1.00  0.00    -0.152 N 
ATOM     17  H5  UNL     1      38.819  14.715  29.484  1.00  0.00     0.188 HD
ENDROOT
TORSDOF 0
ENDMDL
MODEL 3
REMARK VINA RESULT: -5.920394081      1.312      3.843
REMARK  0 active torsions:
REMARK  status: ('A' for Active; 'I' for Inactive)
ROOT
HETATM    1  N1  UNL     1      39.207  17.284  34.998  1.00  0.00    -0.233 N 
ATOM      2  H11 UNL     1      38.411  17.231  35.634  1.00  0.00     0.174 HD
ATOM      3  H12 UNL     1      40.181  17.415  35.268  1.00  0.00     0.174 HD
HETATM    4  C1  UNL     1      38.935  17.171  33.719  1.00  0.00     0.693 C 
HETATM    5  N2  UNL     1      40.050  17.245  32.828  1.00  0.00    -0.132 N 
ATOM      6  H2  UNL     1      40.896  17.660  33.220  1.00  0.00     0.205 HD
HETATM    7  N3  UNL     1      40.147  16.831  31.495  1.00  0.00    -0.281 N 
ATOM      8  H3  UNL     1      41.056  17.001  31.066  1.00  0.00     0.187 HD
HETATM    9  C2  UNL     1      39.199  16.215  30.634  1.00  0.00     0.117 C 
HETATM   10  C3  UNL     1      39.569  15.782  29.452  1.00  0.00     0.135 C 
HETATM   11  N4  UNL     1      38.726  15.160  28.521  1.00  0.00    -0.113 NA
HETATM   12  C4  UNL     1      37.793  16.011  30.958  1.00  0.00     0.268 C 
HETATM   13  O1  UNL     1      37.112  15.479  30.079  1.00  0.00    -0.280 OA
HETATM   14  C5  UNL     1      37.051  16.350  32.193  1.00  0.00     0.312 C 
HETATM   15  O2  UNL     1      35.832  16.045  32.230  1.00  0.00    -0.263 OA
HETATM   16  N5  UNL     1      37.582  16.988  33.343  1.00  0.00    -0.152 N 
ATOM     17  H5  UNL     1      36.892  17.368  33.990  1.00  0.00     0.188 HD
ENDROOT
TORSDOF 0
ENDMDL
MODEL 4
REMARK VINA RESULT: -5.918742624      1.545      1.822
REMARK  0 active torsions:
REMARK  status: ('A' for Active; 'I' for Inactive)
ROOT
HETATM    1  N1  UNL     1      40.205  15.924  30.076  1.00  0.00    -0.233 N 
ATOM      2  H11 UNL     1      39.408  15.408  29.703  1.00  0.00     0.174 HD
ATOM      3  H12 UNL     1      41.061  16.151  29.571  1.00  0.00     0.174 HD
HETATM    4  C1  UNL     1      40.105  16.324  31.322  1.00  0.00     0.693 C 
HETATM    5  N2  UNL     1      41.222  17.045  31.845  1.00  0.00    -0.132 N 
ATOM      6  H2  UNL     1      42.093  16.939  31.325  1.00  0.00     0.205 HD
HETATM    7  N3  UNL     1      41.290  17.876  32.969  1.00  0.00    -0.281 N 
ATOM      8  H3  UNL     1      42.213  18.275  33.142  1.00  0.00     0.187 HD
HETATM    9  C2  UNL     1      40.299  18.262  33.912  1.00  0.00     0.117 C 
HETATM   10  C3  UNL     1      40.569  19.178  34.812  1.00  0.00     0.135 C 
HETATM   11  N4  UNL     1      39.674  19.637  35.788  1.00  0.00    -0.113 NA
HETATM   12  C4  UNL     1      38.953  17.708  33.973  1.00  0.00     0.268 C 
HETATM   13  O1  UNL     1      38.234  18.146  34.874  1.00  0.00    -0.280 OA
HETATM   14  C5  UNL     1      38.311  16.691  33.112  1.00  0.00     0.312 C 
HETATM   15  O2  UNL     1      37.114  16.399  33.364  1.00  0.00    -0.263 OA
HETATM   16  N5  UNL     1      38.916  16.008  32.025  1.00  0.00    -0.152 N 
ATOM     17  H5  UNL     1      38.426  15.173  31.705  1.00  0.00     0.188 HD
ENDROOT
TORSDOF 0
ENDMDL
MODEL 5
REMARK VINA RESULT: -5.672465264      1.753      2.850
REMARK  0 active torsions:
REMARK  status: ('A' for Active; 'I' for Inactive)
ROOT
HETATM    1  N1  UNL     1      40.401  15.915  30.432  1.00  0.00    -0.233 N 
ATOM      2  H11 UNL     1      41.316  15.928  30.883  1.00  0.00     0.174 HD
ATOM      3  H12 UNL     1      40.200  15.566  29.495  1.00  0.00     0.174 HD
HETATM    4  C1  UNL     1      39.402  16.395  31.135  1.00  0.00     0.693 C 
HETATM    5  N2  UNL     1      38.120  16.378  30.503  1.00  0.00    -0.132 N 
ATOM      6  H2  UNL     1      38.134  16.272  29.489  1.00  0.00     0.205 HD
HETATM    7  N3  UNL     1      36.849  16.485  31.078  1.00  0.00    -0.281 N 
ATOM      8  H3  UNL     1      36.080  16.453  30.409  1.00  0.00     0.187 HD
HETATM    9  C2  UNL     1      36.441  16.630  32.432  1.00  0.00     0.117 C 
HETATM   10  C3  UNL     1      35.169  16.565  32.747  1.00  0.00     0.135 C 
HETATM   11  N4  UNL     1      34.651  16.693  34.043  1.00  0.00    -0.113 NA
HETATM   12  C4  UNL     1      37.347  16.857  33.551  1.00  0.00     0.268 C 
HETATM   13  O1  UNL     1      36.813  16.982  34.655  1.00  0.00    -0.280 OA
HETATM   14  C5  UNL     1      38.823  16.960  33.564  1.00  0.00     0.312 C 
HETATM   15  O2  UNL     1      39.375  17.137  34.680  1.00  0.00    -0.263 OA
HETATM   16  N5  UNL     1      39.680  16.879  32.436  1.00  0.00    -0.152 N 
ATOM     17  H5  UNL     1      40.631  17.218  32.584  1.00  0.00     0.188 HD
ENDROOT
TORSDOF 0
ENDMDL
