MODEL 1
REMARK VINA RESULT: -9.084375456      0.000      0.000
REMARK  8 active torsions:
REMARK  status: ('A' for Active; 'I' for Inactive)
REMARK    1  A    between atoms: C4_7  and  N3_8 
REMARK    2  A    between atoms: N3_8  and  C5_10 
REMARK    3  A    between atoms: N7_21  and  O1_22 
REMARK    4  A    between atoms: C12_28  and  N9_29 
REMARK    5  A    between atoms: N9_29  and  C13_31 
REMARK    6  A    between atoms: C13_31  and  C14_32 
REMARK    7  A    between atoms: C14_32  and  C15_33 
REMARK    8  A    between atoms: C15_33  and  N10_34 
ROOT
HETATM    1  N1  UNL     1      37.731   3.025  12.503  1.00  0.00    -0.188 NA
HETATM    2  C1  UNL     1      37.924   2.207  11.700  1.00  0.00     0.137 C 
HETATM    3  C2  UNL     1      38.176   1.190  10.728  1.00  0.00     0.190 A 
HETATM    4  N2  UNL     1      37.973   1.485   9.435  1.00  0.00    -0.330 N 
ATOM      5  H2  UNL     1      37.647   2.411   9.159  1.00  0.00     0.168 HD
HETATM    6  C3  UNL     1      38.206   0.538   8.511  1.00  0.00     0.094 A 
HETATM    7  C4  UNL     1      38.090   0.546   7.128  1.00  0.00     0.093 A 
HETATM    8  C10 UNL     1      38.471  -0.720   6.742  1.00  0.00     0.121 A 
HETATM    9  N8  UNL     1      38.802  -1.460   7.826  1.00  0.00    -0.359 N 
ATOM     10  H8  UNL     1      39.118  -2.430   7.812  1.00  0.00     0.165 HD
HETATM   11  C11 UNL     1      38.645  -0.704   8.916  1.00  0.00     0.105 A 
HETATM   12  C12 UNL     1      38.856  -1.013  10.267  1.00  0.00     0.132 A 
HETATM   13  N11 UNL     1      38.608  -0.029  11.149  1.00  0.00    -0.318 N 
ATOM     14  H11 UNL     1      38.745  -0.198  12.145  1.00  0.00     0.169 HD
ENDROOT
BRANCH  12  15
HETATM   15  N9  UNL     1      39.266  -2.190  10.578  1.00  0.00    -0.374 N 
ATOM     16  H9  UNL     1      38.585  -2.911  10.818  1.00  0.00     0.161 HD
BRANCH  15  17
HETATM   17  C13 UNL     1      40.671  -2.507  10.592  1.00  0.00     0.123 C 
BRANCH  17  18
HETATM   18  C14 UNL     1      41.339  -1.953  11.850  1.00  0.00     0.047 C 
BRANCH  18  19
HETATM   19  C15 UNL     1      42.311  -0.853  11.440  1.00  0.00     0.231 C 
BRANCH  19  20
HETATM   20  N10 UNL     1      42.024   0.381  12.132  1.00  0.00    -0.079 N 
ATOM     21 3H10 UNL     1      41.346   0.948  11.622  1.00  0.00     0.274 HD
ATOM     22 2H10 UNL     1      41.483   0.219  12.981  1.00  0.00     0.274 HD
ATOM     23 1H10 UNL     1      42.879   0.902  12.326  1.00  0.00     0.274 HD
ENDBRANCH  19  20
ENDBRANCH  18  19
ENDBRANCH  17  18
ENDBRANCH  15  17
ENDBRANCH  12  15
BRANCH   7  24
HETATM   24  N3  UNL     1      37.664   1.651   6.337  1.00  0.00    -0.188 N 
ATOM     25  H3  UNL     1      36.680   1.920   6.359  1.00  0.00     0.184 HD
BRANCH  24  26
HETATM   26  C5  UNL     1      38.476   2.324   5.595  1.00  0.00     0.684 A 
HETATM   27  N4  UNL     1      39.545   2.984   6.055  1.00  0.00    -0.172 N 
HETATM   28  C6  UNL     1      40.379   3.682   5.253  1.00  0.00     0.177 A 
ATOM     29  H4  UNL     1      39.739   2.959   7.056  1.00  0.00     0.186 HD
HETATM   30  C7  UNL     1      40.130   3.728   3.890  1.00  0.00     0.096 A 
HETATM   31  N7  UNL     1      41.490   4.415   5.438  1.00  0.00    -0.201 N 
HETATM   32  C8  UNL     1      39.025   3.044   3.426  1.00  0.00     0.139 A 
HETATM   33  N6  UNL     1      41.100   4.479   3.336  1.00  0.00    -0.346 N 
HETATM   34  N5  UNL     1      38.228   2.363   4.274  1.00  0.00    -0.199 N 
ATOM     35  H5  UNL     1      37.418   1.866   3.904  1.00  0.00     0.183 HD
HETATM   36  C9  UNL     1      41.952   4.913   4.292  1.00  0.00     0.216 A 
ATOM     37  H6  UNL     1      41.180   4.690   2.342  1.00  0.00     0.167 HD
BRANCH  31  38
HETATM   38  O1  UNL     1      42.069   4.616   6.667  1.00  0.00    -0.280 OA
ATOM     39  H1  UNL     1      42.937   4.985   6.784  1.00  0.00     0.245 HD
ENDBRANCH  31  38
ENDBRANCH  24  26
ENDBRANCH   7  24
TORSDOF 8
ENDMDL
MODEL 2
REMARK VINA RESULT: -8.962240949      1.053      1.566
REMARK  8 active torsions:
REMARK  status: ('A' for Active; 'I' for Inactive)
REMARK    1  A    between atoms: C4_7  and  N3_8 
REMARK    2  A    between atoms: N3_8  and  C5_10 
REMARK    3  A    between atoms: N7_21  and  O1_22 
REMARK    4  A    between atoms: C12_28  and  N9_29 
REMARK    5  A    between atoms: N9_29  and  C13_31 
REMARK    6  A    between atoms: C13_31  and  C14_32 
REMARK    7  A    between atoms: C14_32  and  C15_33 
REMARK    8  A    between atoms: C15_33  and  N10_34 
ROOT
HETATM    1  N1  UNL     1      37.746   3.068  12.483  1.00  0.00    -0.188 NA
HETATM    2  C1  UNL     1      37.904   2.254  11.669  1.00  0.00     0.137 C 
HETATM    3  C2  UNL     1      38.114   1.242  10.682  1.00  0.00     0.190 A 
HETATM    4  N2  UNL     1      37.931   1.565   9.393  1.00  0.00    -0.330 N 
ATOM      5  H2  UNL     1      37.650   2.510   9.130  1.00  0.00     0.168 HD
HETATM    6  C3  UNL     1      38.125   0.622   8.455  1.00  0.00     0.094 A 
HETATM    7  C4  UNL     1      38.017   0.657   7.072  1.00  0.00     0.093 A 
HETATM    8  C10 UNL     1      38.340  -0.620   6.669  1.00  0.00     0.121 A 
HETATM    9  N8  UNL     1      38.631  -1.390   7.742  1.00  0.00    -0.359 N 
ATOM     10  H8  UNL     1      38.902  -2.374   7.715  1.00  0.00     0.165 HD
HETATM   11  C11 UNL     1      38.504  -0.644   8.844  1.00  0.00     0.105 A 
HETATM   12  C12 UNL     1      38.694  -0.983  10.190  1.00  0.00     0.132 A 
HETATM   13  N11 UNL     1      38.487  -0.002  11.086  1.00  0.00    -0.318 N 
ATOM     14  H11 UNL     1      38.610  -0.193  12.080  1.00  0.00     0.169 HD
ENDROOT
BRANCH  12  15
HETATM   15  N9  UNL     1      39.047  -2.182  10.485  1.00  0.00    -0.374 N 
ATOM     16  H9  UNL     1      38.920  -2.926   9.798  1.00  0.00     0.161 HD
BRANCH  15  17
HETATM   17  C13 UNL     1      39.619  -2.493  11.770  1.00  0.00     0.123 C 
BRANCH  17  18
HETATM   18  C14 UNL     1      40.503  -3.736  11.683  1.00  0.00     0.047 C 
BRANCH  18  19
HETATM   19  C15 UNL     1      40.379  -4.325  10.283  1.00  0.00     0.231 C 
BRANCH  19  20
HETATM   20  N10 UNL     1      40.763  -5.718  10.268  1.00  0.00    -0.079 N 
ATOM     21 3H10 UNL     1      40.045  -6.309  10.686  1.00  0.00     0.274 HD
ATOM     22 2H10 UNL     1      40.748  -6.100   9.323  1.00  0.00     0.274 HD
ATOM     23 1H10 UNL     1      41.669  -5.854  10.714  1.00  0.00     0.274 HD
ENDBRANCH  19  20
ENDBRANCH  18  19
ENDBRANCH  17  18
ENDBRANCH  15  17
ENDBRANCH  12  15
BRANCH   7  24
HETATM   24  N3  UNL     1      37.646   1.792   6.297  1.00  0.00    -0.188 N 
ATOM     25  H3  UNL     1      36.676   2.107   6.319  1.00  0.00     0.184 HD
BRANCH  24  26
HETATM   26  C5  UNL     1      38.492   2.437   5.567  1.00  0.00     0.684 A 
HETATM   27  N4  UNL     1      39.567   3.074   6.045  1.00  0.00    -0.172 N 
HETATM   28  C6  UNL     1      40.436   3.742   5.256  1.00  0.00     0.177 A 
ATOM     29  H4  UNL     1      39.737   3.054   7.051  1.00  0.00     0.186 HD
HETATM   30  C7  UNL     1      40.220   3.781   3.887  1.00  0.00     0.096 A 
HETATM   31  N7  UNL     1      41.561   4.449   5.459  1.00  0.00    -0.201 N 
HETATM   32  C8  UNL     1      39.108   3.121   3.404  1.00  0.00     0.139 A 
HETATM   33  N6  UNL     1      41.220   4.502   3.349  1.00  0.00    -0.346 N 
HETATM   34  N5  UNL     1      38.275   2.469   4.240  1.00  0.00    -0.199 N 
ATOM     35  H5  UNL     1      37.461   1.989   3.857  1.00  0.00     0.183 HD
HETATM   36  C9  UNL     1      42.062   4.923   4.320  1.00  0.00     0.216 A 
ATOM     37  H6  UNL     1      41.329   4.701   2.355  1.00  0.00     0.167 HD
BRANCH  31  38
HETATM   38  O1  UNL     1      42.117   4.647   6.700  1.00  0.00    -0.280 OA
ATOM     39  H1  UNL     1      43.028   4.880   6.835  1.00  0.00     0.245 HD
ENDBRANCH  31  38
ENDBRANCH  24  26
ENDBRANCH   7  24
TORSDOF 8
ENDMDL
MODEL 3
REMARK VINA RESULT: -8.490034725      6.301      9.277
REMARK  8 active torsions:
REMARK  status: ('A' for Active; 'I' for Inactive)
REMARK    1  A    between atoms: C4_7  and  N3_8 
REMARK    2  A    between atoms: N3_8  and  C5_10 
REMARK    3  A    between atoms: N7_21  and  O1_22 
REMARK    4  A    between atoms: C12_28  and  N9_29 
REMARK    5  A    between atoms: N9_29  and  C13_31 
REMARK    6  A    between atoms: C13_31  and  C14_32 
REMARK    7  A    between atoms: C14_32  and  C15_33 
REMARK    8  A    between atoms: C15_33  and  N10_34 
ROOT
HETATM    1  N1  UNL     1      42.516   2.310  18.511  1.00  0.00    -0.188 NA
HETATM    2  C1  UNL     1      41.961   2.137  17.505  1.00  0.00     0.137 C 
HETATM    3  C2  UNL     1      41.294   1.909  16.262  1.00  0.00     0.190 A 
HETATM    4  N2  UNL     1      40.522   2.888  15.768  1.00  0.00    -0.330 N 
ATOM      5  H2  UNL     1      40.416   3.769  16.270  1.00  0.00     0.168 HD
HETATM    6  C3  UNL     1      39.890   2.686  14.599  1.00  0.00     0.094 A 
HETATM    7  C4  UNL     1      39.042   3.494  13.853  1.00  0.00     0.093 A 
HETATM    8  C10 UNL     1      38.717   2.730  12.754  1.00  0.00     0.121 A 
HETATM    9  N8  UNL     1      39.331   1.527  12.821  1.00  0.00    -0.359 N 
ATOM     10  H8  UNL     1      39.255   0.778  12.132  1.00  0.00     0.165 HD
HETATM   11  C11 UNL     1      40.052   1.483  13.946  1.00  0.00     0.105 A 
HETATM   12  C12 UNL     1      40.858   0.460  14.462  1.00  0.00     0.132 A 
HETATM   13  N11 UNL     1      41.467   0.716  15.633  1.00  0.00    -0.318 N 
ATOM     14  H11 UNL     1      42.066   0.006  16.055  1.00  0.00     0.169 HD
ENDROOT
BRANCH  12  15
HETATM   15  N9  UNL     1      40.967  -0.637  13.803  1.00  0.00    -0.374 N 
ATOM     16  H9  UNL     1      40.333  -1.410  14.007  1.00  0.00     0.161 HD
BRANCH  15  17
HETATM   17  C13 UNL     1      41.970  -0.793  12.781  1.00  0.00     0.123 C 
BRANCH  17  18
HETATM   18  C14 UNL     1      41.540  -1.840  11.755  1.00  0.00     0.047 C 
BRANCH  18  19
HETATM   19  C15 UNL     1      40.466  -2.722  12.380  1.00  0.00     0.231 C 
BRANCH  19  20
HETATM   20  N10 UNL     1      40.115  -3.816  11.505  1.00  0.00    -0.079 N 
ATOM     21 3H10 UNL     1      39.129  -3.789  11.248  1.00  0.00     0.274 HD
ATOM     22 2H10 UNL     1      40.522  -3.700  10.578  1.00  0.00     0.274 HD
ATOM     23 1H10 UNL     1      40.371  -4.713  11.918  1.00  0.00     0.274 HD
ENDBRANCH  19  20
ENDBRANCH  18  19
ENDBRANCH  17  18
ENDBRANCH  15  17
ENDBRANCH  12  15
BRANCH   7  24
HETATM   24  N3  UNL     1      38.634   4.812  14.201  1.00  0.00    -0.188 N 
ATOM     25  H3  UNL     1      39.071   5.603  13.728  1.00  0.00     0.184 HD
BRANCH  24  26
HETATM   26  C5  UNL     1      37.731   5.044  15.093  1.00  0.00     0.684 A 
HETATM   27  N4  UNL     1      37.994   5.433  16.346  1.00  0.00    -0.172 N 
HETATM   28  C6  UNL     1      37.026   5.669  17.259  1.00  0.00     0.177 A 
ATOM     29  H4  UNL     1      38.967   5.557  16.624  1.00  0.00     0.186 HD
HETATM   30  C7  UNL     1      35.697   5.506  16.900  1.00  0.00     0.096 A 
HETATM   31  N7  UNL     1      37.003   6.056  18.547  1.00  0.00    -0.201 N 
HETATM   32  C8  UNL     1      35.438   5.104  15.606  1.00  0.00     0.139 A 
HETATM   33  N6  UNL     1      34.955   5.802  17.983  1.00  0.00    -0.346 N 
HETATM   34  N5  UNL     1      36.445   4.884  14.736  1.00  0.00    -0.199 N 
ATOM     35  H5  UNL     1      36.225   4.588  13.785  1.00  0.00     0.183 HD
HETATM   36  C9  UNL     1      35.759   6.146  19.015  1.00  0.00     0.216 A 
ATOM     37  H6  UNL     1      33.937   5.773  18.020  1.00  0.00     0.167 HD
BRANCH  31  38
HETATM   38  O1  UNL     1      38.135   6.324  19.278  1.00  0.00    -0.280 OA
ATOM     39  H1  UNL     1      38.120   6.572  20.195  1.00  0.00     0.245 HD
ENDBRANCH  31  38
ENDBRANCH  24  26
ENDBRANCH   7  24
TORSDOF 8
ENDMDL
MODEL 4
REMARK VINA RESULT: -8.418308143      2.019      3.530
REMARK  8 active torsions:
REMARK  status: ('A' for Active; 'I' for Inactive)
REMARK    1  A    between atoms: C4_7  and  N3_8 
REMARK    2  A    between atoms: N3_8  and  C5_10 
REMARK    3  A    between atoms: N7_21  and  O1_22 
REMARK    4  A    between atoms: C12_28  and  N9_29 
REMARK    5  A    between atoms: N9_29  and  C13_31 
REMARK    6  A    between atoms: C13_31  and  C14_32 
REMARK    7  A    between atoms: C14_32  and  C15_33 
REMARK    8  A    between atoms: C15_33  and  N10_34 
ROOT
HETATM    1  N1  UNL     1      40.434  -4.945   9.481  1.00  0.00    -0.188 NA
HETATM    2  C1  UNL     1      40.206  -3.820   9.659  1.00  0.00     0.137 C 
HETATM    3  C2  UNL     1      39.928  -2.439   9.900  1.00  0.00     0.190 A 
HETATM    4  N2  UNL     1      39.213  -1.767   8.986  1.00  0.00    -0.330 N 
ATOM      5  H2  UNL     1      38.879  -2.233   8.143  1.00  0.00     0.168 HD
HETATM    6  C3  UNL     1      38.944  -0.468   9.202  1.00  0.00     0.094 A 
HETATM    7  C4  UNL     1      38.243   0.469   8.456  1.00  0.00     0.093 A 
HETATM    8  C10 UNL     1      38.315   1.627   9.199  1.00  0.00     0.121 A 
HETATM    9  N8  UNL     1      39.018   1.411  10.334  1.00  0.00    -0.359 N 
ATOM     10  H8  UNL     1      39.215   2.105  11.055  1.00  0.00     0.165 HD
HETATM   11  C11 UNL     1      39.411   0.134  10.351  1.00  0.00     0.105 A 
HETATM   12  C12 UNL     1      40.159  -0.568  11.306  1.00  0.00     0.132 A 
HETATM   13  N11 UNL     1      40.398  -1.864  11.040  1.00  0.00    -0.318 N 
ATOM     14  H11 UNL     1      40.937  -2.423  11.700  1.00  0.00     0.169 HD
ENDROOT
BRANCH  12  15
HETATM   15  N9  UNL     1      40.564   0.052  12.356  1.00  0.00    -0.374 N 
ATOM     16  H9  UNL     1      40.059   0.878  12.677  1.00  0.00     0.161 HD
BRANCH  15  17
HETATM   17  C13 UNL     1      41.720  -0.402  13.086  1.00  0.00     0.123 C 
BRANCH  17  18
HETATM   18  C14 UNL     1      41.418  -0.484  14.582  1.00  0.00     0.047 C 
BRANCH  18  19
HETATM   19  C15 UNL     1      41.063   0.910  15.083  1.00  0.00     0.231 C 
BRANCH  19  20
HETATM   20  N10 UNL     1      41.689   1.181  16.357  1.00  0.00    -0.079 N 
ATOM     21 3H10 UNL     1      41.078   1.723  16.967  1.00  0.00     0.274 HD
ATOM     22 2H10 UNL     1      41.767   0.337  16.924  1.00  0.00     0.274 HD
ATOM     23 1H10 UNL     1      42.594   1.635  16.233  1.00  0.00     0.274 HD
ENDBRANCH  19  20
ENDBRANCH  18  19
ENDBRANCH  17  18
ENDBRANCH  15  17
ENDBRANCH  12  15
BRANCH   7  24
HETATM   24  N3  UNL     1      37.611   0.227   7.203  1.00  0.00    -0.188 N 
ATOM     25  H3  UNL     1      37.099  -0.646   7.072  1.00  0.00     0.184 HD
BRANCH  24  26
HETATM   26  C5  UNL     1      37.662   1.070   6.228  1.00  0.00     0.684 A 
HETATM   27  N4  UNL     1      38.797   1.555   5.711  1.00  0.00    -0.172 N 
HETATM   28  C6  UNL     1      38.820   2.438   4.689  1.00  0.00     0.177 A 
ATOM     29  H4  UNL     1      39.685   1.244   6.107  1.00  0.00     0.186 HD
HETATM   30  C7  UNL     1      37.624   2.873   4.139  1.00  0.00     0.096 A 
HETATM   31  N7  UNL     1      39.782   3.070   3.995  1.00  0.00    -0.201 N 
HETATM   32  C8  UNL     1      36.459   2.366   4.680  1.00  0.00     0.139 A 
HETATM   33  N6  UNL     1      37.931   3.734   3.153  1.00  0.00    -0.346 N 
HETATM   34  N5  UNL     1      36.498   1.486   5.701  1.00  0.00    -0.199 N 
ATOM     35  H5  UNL     1      35.622   1.127   6.081  1.00  0.00     0.183 HD
HETATM   36  C9  UNL     1      39.274   3.865   3.054  1.00  0.00     0.216 A 
ATOM     37  H6  UNL     1      37.253   4.218   2.565  1.00  0.00     0.167 HD
BRANCH  31  38
HETATM   38  O1  UNL     1      41.124   2.905   4.238  1.00  0.00    -0.280 OA
ATOM     39  H1  UNL     1      41.755   3.615   4.196  1.00  0.00     0.245 HD
ENDBRANCH  31  38
ENDBRANCH  24  26
ENDBRANCH   7  24
TORSDOF 8
ENDMDL
MODEL 5
REMARK VINA RESULT: -8.392687420      3.283      4.823
REMARK  8 active torsions:
REMARK  status: ('A' for Active; 'I' for Inactive)
REMARK    1  A    between atoms: C4_7  and  N3_8 
REMARK    2  A    between atoms: N3_8  and  C5_10 
REMARK    3  A    between atoms: N7_21  and  O1_22 
REMARK    4  A    between atoms: C12_28  and  N9_29 
REMARK    5  A    between atoms: N9_29  and  C13_31 
REMARK    6  A    between atoms: C13_31  and  C14_32 
REMARK    7  A    between atoms: C14_32  and  C15_33 
REMARK    8  A    between atoms: C15_33  and  N10_34 
ROOT
HETATM    1  N1  UNL     1      40.616  -5.639  10.181  1.00  0.00    -0.188 NA
HETATM    2  C1  UNL     1      40.532  -4.481  10.143  1.00  0.00     0.137 C 
HETATM    3  C2  UNL     1      40.437  -3.055  10.119  1.00  0.00     0.190 A 
HETATM    4  N2  UNL     1      39.536  -2.494   9.298  1.00  0.00    -0.330 N 
ATOM      5  H2  UNL     1      38.938  -3.073   8.709  1.00  0.00     0.168 HD
HETATM    6  C3  UNL     1      39.437  -1.154   9.266  1.00  0.00     0.094 A 
HETATM    7  C4  UNL     1      38.618  -0.304   8.535  1.00  0.00     0.093 A 
HETATM    8  C10 UNL     1      38.988   0.961   8.938  1.00  0.00     0.121 A 
HETATM    9  N8  UNL     1      39.974   0.889   9.861  1.00  0.00    -0.359 N 
ATOM     10  H8  UNL     1      40.423   1.684  10.318  1.00  0.00     0.165 HD
HETATM   11  C11 UNL     1      40.261  -0.399  10.073  1.00  0.00     0.105 A 
HETATM   12  C12 UNL     1      41.202  -0.985  10.929  1.00  0.00     0.132 A 
HETATM   13  N11 UNL     1      41.259  -2.328  10.922  1.00  0.00    -0.318 N 
ATOM     14  H11 UNL     1      41.926  -2.808  11.526  1.00  0.00     0.169 HD
ENDROOT
BRANCH  12  15
HETATM   15  N9  UNL     1      41.940  -0.224  11.655  1.00  0.00    -0.374 N 
ATOM     16  H9  UNL     1      42.472   0.527  11.215  1.00  0.00     0.161 HD
BRANCH  15  17
HETATM   17  C13 UNL     1      42.026  -0.414  13.081  1.00  0.00     0.123 C 
BRANCH  17  18
HETATM   18  C14 UNL     1      40.691  -0.093  13.752  1.00  0.00     0.047 C 
BRANCH  18  19
HETATM   19  C15 UNL     1      40.892   1.087  14.695  1.00  0.00     0.231 C 
BRANCH  19  20
HETATM   20  N10 UNL     1      41.651   0.699  15.861  1.00  0.00    -0.079 N 
ATOM     21 3H10 UNL     1      41.370   1.230  16.685  1.00  0.00     0.274 HD
ATOM     22 2H10 UNL     1      41.395  -0.234  16.182  1.00  0.00     0.274 HD
ATOM     23 1H10 UNL     1      42.654   0.775  15.690  1.00  0.00     0.274 HD
ENDBRANCH  19  20
ENDBRANCH  18  19
ENDBRANCH  17  18
ENDBRANCH  15  17
ENDBRANCH  12  15
BRANCH   7  24
HETATM   24  N3  UNL     1      37.633  -0.709   7.592  1.00  0.00    -0.188 N 
ATOM     25  H3  UNL     1      37.598  -1.689   7.308  1.00  0.00     0.184 HD
BRANCH  24  26
HETATM   26  C5  UNL     1      36.782   0.116   7.082  1.00  0.00     0.684 A 
HETATM   27  N4  UNL     1      36.983   0.802   5.952  1.00  0.00    -0.172 N 
HETATM   28  C6  UNL     1      36.073   1.660   5.441  1.00  0.00     0.177 A 
ATOM     29  H4  UNL     1      37.863   0.671   5.453  1.00  0.00     0.186 HD
HETATM   30  C7  UNL     1      34.871   1.851   6.106  1.00  0.00     0.096 A 
HETATM   31  N7  UNL     1      36.012   2.455   4.360  1.00  0.00    -0.201 N 
HETATM   32  C8  UNL     1      34.674   1.138   7.271  1.00  0.00     0.139 A 
HETATM   33  N6  UNL     1      34.161   2.743   5.391  1.00  0.00    -0.346 N 
HETATM   34  N5  UNL     1      35.619   0.295   7.733  1.00  0.00    -0.199 N 
ATOM     35  H5  UNL     1      35.447  -0.220   8.597  1.00  0.00     0.183 HD
HETATM   36  C9  UNL     1      34.863   3.126   4.301  1.00  0.00     0.216 A 
ATOM     37  H6  UNL     1      33.230   3.080   5.635  1.00  0.00     0.167 HD
BRANCH  31  38
HETATM   38  O1  UNL     1      37.022   2.553   3.434  1.00  0.00    -0.280 OA
ATOM     39  H1  UNL     1      37.811   3.065   3.571  1.00  0.00     0.245 HD
ENDBRANCH  31  38
ENDBRANCH  24  26
ENDBRANCH   7  24
TORSDOF 8
ENDMDL
