MODEL 1
REMARK VINA RESULT: -6.266527355      0.000      0.000
REMARK  1 active torsions:
REMARK  status: ('A' for Active; 'I' for Inactive)
REMARK    1  A    between atoms: N1_6  and  C6_7 
ROOT
HETATM    1  C1  UNL     1      13.914   1.093  17.292  1.00  0.00     0.010 C 
HETATM    2  C2  UNL     1      14.856   2.273  17.313  1.00  0.00    -0.018 C 
HETATM    3  C3  UNL     1      16.074   1.919  16.499  1.00  0.00     0.011 C 
HETATM    4  C4  UNL     1      15.890   2.513  15.132  1.00  0.00     0.020 C 
HETATM    5  C5  UNL     1      17.072   3.423  14.850  1.00  0.00     0.278 C 
HETATM    6  N1  UNL     1      16.532   4.716  15.143  1.00  0.00     0.095 N 
HETATM    7  C10 UNL     1      15.177   4.741  14.676  1.00  0.00     0.278 C 
HETATM    8  C11 UNL     1      14.666   3.398  15.192  1.00  0.00     0.020 C 
HETATM    9  C12 UNL     1      14.283   3.496  16.645  1.00  0.00     0.011 C 
ENDROOT
BRANCH   6  10
HETATM   10  C6  UNL     1      17.372   5.735  14.650  1.00  0.00     0.250 C 
HETATM   11  C7  UNL     1      16.972   6.262  13.286  1.00  0.00     0.065 C 
HETATM   12  C8  UNL     1      18.218   7.081  12.944  1.00  0.00     0.234 C 
HETATM   13  N2  UNL     1      19.301   6.533  13.721  1.00  0.00    -0.073 N 
HETATM   14  C9  UNL     1      18.793   5.322  14.367  1.00  0.00     0.268 C 
ATOM     15  H22 UNL     1      20.146   6.371  13.173  1.00  0.00     0.277 HD
ATOM     16  H21 UNL     1      19.699   7.202  14.380  1.00  0.00     0.277 HD
ENDBRANCH   6  10
TORSDOF 1
ENDMDL
MODEL 2
REMARK VINA RESULT: -6.172696032      1.552      5.265
REMARK  1 active torsions:
REMARK  status: ('A' for Active; 'I' for Inactive)
REMARK    1  A    between atoms: N1_6  and  C6_7 
ROOT
HETATM    1  C1  UNL     1      18.158   7.000  12.514  1.00  0.00     0.010 C 
HETATM    2  C2  UNL     1      17.546   5.625  12.633  1.00  0.00    -0.018 C 
HETATM    3  C3  UNL     1      18.331   4.846  13.659  1.00  0.00     0.011 C 
HETATM    4  C4  UNL     1      17.579   4.929  14.956  1.00  0.00     0.020 C 
HETATM    5  C5  UNL     1      17.284   3.516  15.421  1.00  0.00     0.278 C 
HETATM    6  N1  UNL     1      15.925   3.341  15.006  1.00  0.00     0.095 N 
HETATM    7  C10 UNL     1      15.237   4.579  15.225  1.00  0.00     0.278 C 
HETATM    8  C11 UNL     1      16.245   5.576  14.658  1.00  0.00     0.020 C 
HETATM    9  C12 UNL     1      16.135   5.652  13.159  1.00  0.00     0.011 C 
ENDROOT
BRANCH   6  10
HETATM   10  C6  UNL     1      15.356   2.204  15.617  1.00  0.00     0.250 C 
HETATM   11  C7  UNL     1      14.328   2.523  16.684  1.00  0.00     0.065 C 
HETATM   12  C8  UNL     1      14.166   1.140  17.316  1.00  0.00     0.234 C 
HETATM   13  N2  UNL     1      15.374   0.408  17.028  1.00  0.00    -0.073 N 
HETATM   14  C9  UNL     1      16.308   1.352  16.414  1.00  0.00     0.268 C 
ATOM     15  H22 UNL     1      15.761  -0.064  17.846  1.00  0.00     0.277 HD
ATOM     16  H21 UNL     1      15.212  -0.424  16.461  1.00  0.00     0.277 HD
ENDBRANCH   6  10
TORSDOF 1
ENDMDL
MODEL 3
REMARK VINA RESULT: -6.147301963      1.666      5.363
REMARK  1 active torsions:
REMARK  status: ('A' for Active; 'I' for Inactive)
REMARK    1  A    between atoms: N1_6  and  C6_7 
ROOT
HETATM    1  C1  UNL     1      18.692   7.033  13.404  1.00  0.00     0.010 C 
HETATM    2  C2  UNL     1      18.399   5.939  14.403  1.00  0.00    -0.018 C 
HETATM    3  C3  UNL     1      17.005   6.147  14.936  1.00  0.00     0.011 C 
HETATM    4  C4  UNL     1      16.089   5.236  14.170  1.00  0.00     0.020 C 
HETATM    5  C5  UNL     1      15.371   4.343  15.165  1.00  0.00     0.278 C 
HETATM    6  N1  UNL     1      16.132   3.133  15.085  1.00  0.00     0.095 N 
HETATM    7  C10 UNL     1      16.494   2.932  13.713  1.00  0.00     0.278 C 
HETATM    8  C11 UNL     1      16.962   4.333  13.327  1.00  0.00     0.020 C 
HETATM    9  C12 UNL     1      18.378   4.566  13.782  1.00  0.00     0.011 C 
ENDROOT
BRANCH   6  10
HETATM   10  C6  UNL     1      15.445   2.067  15.703  1.00  0.00     0.250 C 
HETATM   11  C7  UNL     1      14.320   2.504  16.620  1.00  0.00     0.065 C 
HETATM   12  C8  UNL     1      14.023   1.179  17.323  1.00  0.00     0.234 C 
HETATM   13  N2  UNL     1      15.220   0.381  17.228  1.00  0.00    -0.073 N 
HETATM   14  C9  UNL     1      16.261   1.239  16.661  1.00  0.00     0.268 C 
ATOM     15  H22 UNL     1      15.490  -0.044  18.115  1.00  0.00     0.277 HD
ATOM     16  H21 UNL     1      15.084  -0.484  16.704  1.00  0.00     0.277 HD
ENDBRANCH   6  10
TORSDOF 1
ENDMDL
MODEL 4
REMARK VINA RESULT: -5.935324290      1.648      5.351
REMARK  1 active torsions:
REMARK  status: ('A' for Active; 'I' for Inactive)
REMARK    1  A    between atoms: N1_6  and  C6_7 
ROOT
HETATM    1  C1  UNL     1      18.041   7.104  12.408  1.00  0.00     0.010 C 
HETATM    2  C2  UNL     1      16.936   6.350  13.109  1.00  0.00    -0.018 C 
HETATM    3  C3  UNL     1      16.711   5.052  12.377  1.00  0.00     0.011 C 
HETATM    4  C4  UNL     1      17.460   3.982  13.119  1.00  0.00     0.020 C 
HETATM    5  C5  UNL     1      16.471   2.898  13.507  1.00  0.00     0.278 C 
HETATM    6  N1  UNL     1      16.196   3.217  14.875  1.00  0.00     0.095 N 
HETATM    7  C10 UNL     1      17.422   3.649  15.479  1.00  0.00     0.278 C 
HETATM    8  C11 UNL     1      17.956   4.598  14.408  1.00  0.00     0.020 C 
HETATM    9  C12 UNL     1      17.299   5.948  14.515  1.00  0.00     0.011 C 
ENDROOT
BRANCH   6  10
HETATM   10  C6  UNL     1      15.537   2.149  15.517  1.00  0.00     0.250 C 
HETATM   11  C7  UNL     1      14.521   2.582  16.555  1.00  0.00     0.065 C 
HETATM   12  C8  UNL     1      14.249   1.238  17.234  1.00  0.00     0.234 C 
HETATM   13  N2  UNL     1      15.403   0.410  16.992  1.00  0.00    -0.073 N 
HETATM   14  C9  UNL     1      16.413   1.259  16.359  1.00  0.00     0.268 C 
ATOM     15  H22 UNL     1      15.743  -0.059  17.832  1.00  0.00     0.277 HD
ATOM     16  H21 UNL     1      15.188  -0.429  16.452  1.00  0.00     0.277 HD
ENDBRANCH   6  10
TORSDOF 1
ENDMDL
MODEL 5
REMARK VINA RESULT: -5.844860531      2.864      5.313
REMARK  1 active torsions:
REMARK  status: ('A' for Active; 'I' for Inactive)
REMARK    1  A    between atoms: N1_6  and  C6_7 
ROOT
HETATM    1  C1  UNL     1      18.803   7.585  14.753  1.00  0.00     0.010 C 
HETATM    2  C2  UNL     1      17.860   6.788  13.884  1.00  0.00    -0.018 C 
HETATM    3  C3  UNL     1      18.683   5.951  12.938  1.00  0.00     0.011 C 
HETATM    4  C4  UNL     1      18.778   4.572  13.526  1.00  0.00     0.020 C 
HETATM    5  C5  UNL     1      18.238   3.586  12.505  1.00  0.00     0.278 C 
HETATM    6  N1  UNL     1      16.908   3.359  12.982  1.00  0.00     0.095 N 
HETATM    7  C10 UNL     1      16.956   3.316  14.414  1.00  0.00     0.278 C 
HETATM    8  C11 UNL     1      17.840   4.526  14.711  1.00  0.00     0.020 C 
HETATM    9  C12 UNL     1      17.036   5.798  14.665  1.00  0.00     0.011 C 
ENDROOT
BRANCH   6  10
HETATM   10  C6  UNL     1      16.335   2.235  12.352  1.00  0.00     0.250 C 
HETATM   11  C7  UNL     1      17.102   0.945  12.568  1.00  0.00     0.065 C 
HETATM   12  C8  UNL     1      16.409   0.051  11.538  1.00  0.00     0.234 C 
HETATM   13  N2  UNL     1      15.836   0.926  10.547  1.00  0.00    -0.073 N 
HETATM   14  C9  UNL     1      16.309   2.278  10.847  1.00  0.00     0.268 C 
ATOM     15  H22 UNL     1      16.036   0.635   9.590  1.00  0.00     0.277 HD
ATOM     16  H21 UNL     1      14.819   0.860  10.494  1.00  0.00     0.277 HD
ENDBRANCH   6  10
TORSDOF 1
ENDMDL
