MODEL 1
REMARK VINA RESULT: -5.964132263      0.000      0.000
REMARK  1 active torsions:
REMARK  status: ('A' for Active; 'I' for Inactive)
REMARK    1  A    between atoms: O1_2  and  C2_3 
ROOT
HETATM    1  C2  UNL     1      16.325   2.774  13.384  1.00  0.00     0.159 C 
HETATM    2  C3  UNL     1      16.877   3.929  12.570  1.00  0.00     0.304 C 
HETATM    3  N1  UNL     1      18.223   4.255  12.983  1.00  0.00     0.086 N 
HETATM    4  C4  UNL     1      18.710   5.427  12.328  1.00  0.00     0.310 C 
HETATM    5  C5  UNL     1      18.379   4.291  14.416  1.00  0.00     0.273 C 
HETATM    6  C6  UNL     1      17.059   4.374  15.141  1.00  0.00     0.044 C 
HETATM    7  C7  UNL     1      16.179   3.171  14.840  1.00  0.00     0.013 C 
HETATM    8  C8  UNL     1      14.763   3.600  15.044  1.00  0.00     0.015 C 
HETATM    9  C9  UNL     1      14.306   3.517  16.478  1.00  0.00     0.028 C 
HETATM   10  C10 UNL     1      14.587   2.111  16.959  1.00  0.00     0.232 C 
HETATM   11  N2  UNL     1      16.013   1.937  16.967  1.00  0.00    -0.074 N 
ATOM     12  H21 UNL     1      16.263   1.061  17.424  1.00  0.00     0.277 HD
ATOM     13  H22 UNL     1      16.450   2.598  17.609  1.00  0.00     0.277 HD
HETATM   14  C11 UNL     1      16.617   2.020  15.671  1.00  0.00     0.244 C 
ENDROOT
BRANCH   1  15
HETATM   15  O1  UNL     1      17.136   1.666  13.209  1.00  0.00    -0.388 OA
HETATM   16  C1  UNL     1      16.655   0.914  12.152  1.00  0.00     0.202 C 
ENDBRANCH   1  15
TORSDOF 1
ENDMDL
MODEL 2
REMARK VINA RESULT: -5.474650325      1.573      4.357
REMARK  1 active torsions:
REMARK  status: ('A' for Active; 'I' for Inactive)
REMARK    1  A    between atoms: O1_2  and  C2_3 
ROOT
HETATM    1  C2  UNL     1      16.871   3.393  13.860  1.00  0.00     0.159 C 
HETATM    2  C3  UNL     1      16.323   2.707  15.098  1.00  0.00     0.304 C 
HETATM    3  N1  UNL     1      14.949   3.088  15.334  1.00  0.00     0.086 N 
HETATM    4  C4  UNL     1      14.459   2.566  16.570  1.00  0.00     0.310 C 
HETATM    5  C5  UNL     1      14.723   4.504  15.179  1.00  0.00     0.273 C 
HETATM    6  C6  UNL     1      16.003   5.301  15.198  1.00  0.00     0.044 C 
HETATM    7  C7  UNL     1      16.934   4.893  14.067  1.00  0.00     0.013 C 
HETATM    8  C8  UNL     1      18.324   5.225  14.499  1.00  0.00     0.015 C 
HETATM    9  C9  UNL     1      18.713   6.658  14.240  1.00  0.00     0.028 C 
HETATM   10  C10 UNL     1      18.452   6.937  12.777  1.00  0.00     0.232 C 
HETATM   11  N2  UNL     1      17.034   6.848  12.569  1.00  0.00    -0.074 N 
ATOM     12  H21 UNL     1      16.789   7.174  11.634  1.00  0.00     0.277 HD
ATOM     13  H22 UNL     1      16.546   7.547  13.129  1.00  0.00     0.277 HD
HETATM   14  C11 UNL     1      16.491   5.544  12.806  1.00  0.00     0.244 C 
ENDROOT
BRANCH   1  15
HETATM   15  O1  UNL     1      16.104   3.033  12.765  1.00  0.00    -0.388 OA
HETATM   16  C1  UNL     1      16.510   1.789  12.315  1.00  0.00     0.202 C 
ENDBRANCH   1  15
TORSDOF 1
ENDMDL
MODEL 3
REMARK VINA RESULT: -5.291866743      1.243      4.259
REMARK  1 active torsions:
REMARK  status: ('A' for Active; 'I' for Inactive)
REMARK    1  A    between atoms: O1_2  and  C2_3 
ROOT
HETATM    1  C2  UNL     1      17.019   2.345  15.235  1.00  0.00     0.159 C 
HETATM    2  C3  UNL     1      16.090   2.441  16.430  1.00  0.00     0.304 C 
HETATM    3  N1  UNL     1      14.751   2.798  16.016  1.00  0.00     0.086 N 
HETATM    4  C4  UNL     1      13.895   3.032  17.134  1.00  0.00     0.310 C 
HETATM    5  C5  UNL     1      14.728   3.861  15.042  1.00  0.00     0.273 C 
HETATM    6  C6  UNL     1      16.033   4.613  14.972  1.00  0.00     0.044 C 
HETATM    7  C7  UNL     1      17.184   3.701  14.578  1.00  0.00     0.013 C 
HETATM    8  C8  UNL     1      18.435   4.309  15.121  1.00  0.00     0.015 C 
HETATM    9  C9  UNL     1      19.030   5.369  14.230  1.00  0.00     0.028 C 
HETATM   10  C10 UNL     1      19.203   4.757  12.858  1.00  0.00     0.232 C 
HETATM   11  N2  UNL     1      17.891   4.473  12.346  1.00  0.00    -0.074 N 
ATOM     12  H21 UNL     1      17.942   4.198  11.365  1.00  0.00     0.277 HD
ATOM     13  H22 UNL     1      17.348   5.332  12.257  1.00  0.00     0.277 HD
HETATM   14  C11 UNL     1      17.168   3.497  13.105  1.00  0.00     0.244 C 
ENDROOT
BRANCH   1  15
HETATM   15  O1  UNL     1      16.541   1.381  14.365  1.00  0.00    -0.388 OA
HETATM   16  C1  UNL     1      16.745   0.129  14.916  1.00  0.00     0.202 C 
ENDBRANCH   1  15
TORSDOF 1
ENDMDL
MODEL 4
REMARK VINA RESULT: -4.995694476      1.626      2.869
REMARK  1 active torsions:
REMARK  status: ('A' for Active; 'I' for Inactive)
REMARK    1  A    between atoms: O1_2  and  C2_3 
ROOT
HETATM    1  C2  UNL     1      17.606   4.505  15.022  1.00  0.00     0.159 C 
HETATM    2  C3  UNL     1      18.623   4.335  13.909  1.00  0.00     0.304 C 
HETATM    3  N1  UNL     1      17.990   4.424  12.613  1.00  0.00     0.086 N 
HETATM    4  C4  UNL     1      18.903   4.126  11.555  1.00  0.00     0.310 C 
HETATM    5  C5  UNL     1      16.758   3.677  12.535  1.00  0.00     0.273 C 
HETATM    6  C6  UNL     1      16.614   2.678  13.656  1.00  0.00     0.044 C 
HETATM    7  C7  UNL     1      16.613   3.359  15.016  1.00  0.00     0.013 C 
HETATM    8  C8  UNL     1      17.089   2.354  16.012  1.00  0.00     0.015 C 
HETATM    9  C9  UNL     1      16.000   1.442  16.519  1.00  0.00     0.028 C 
HETATM   10  C10 UNL     1      14.882   2.320  17.034  1.00  0.00     0.232 C 
HETATM   11  N2  UNL     1      14.340   3.028  15.908  1.00  0.00    -0.074 N 
ATOM     12  H21 UNL     1      13.487   3.521  16.173  1.00  0.00     0.277 HD
ATOM     13  H22 UNL     1      13.956   2.374  15.225  1.00  0.00     0.277 HD
HETATM   14  C11 UNL     1      15.265   3.925  15.282  1.00  0.00     0.244 C 
ENDROOT
BRANCH   1  15
HETATM   15  O1  UNL     1      16.998   5.742  14.896  1.00  0.00    -0.388 OA
HETATM   16  C1  UNL     1      17.971   6.725  14.864  1.00  0.00     0.202 C 
ENDBRANCH   1  15
TORSDOF 1
ENDMDL
MODEL 5
REMARK VINA RESULT: -4.925860443      1.842      2.190
REMARK  1 active torsions:
REMARK  status: ('A' for Active; 'I' for Inactive)
REMARK    1  A    between atoms: O1_2  and  C2_3 
ROOT
HETATM    1  C2  UNL     1      16.656   5.000  12.617  1.00  0.00     0.159 C 
HETATM    2  C3  UNL     1      17.053   6.423  12.270  1.00  0.00     0.304 C 
HETATM    3  N1  UNL     1      18.377   6.724  12.765  1.00  0.00     0.086 N 
HETATM    4  C4  UNL     1      18.714   8.099  12.574  1.00  0.00     0.310 C 
HETATM    5  C5  UNL     1      18.593   6.262  14.114  1.00  0.00     0.273 C 
HETATM    6  C6  UNL     1      17.305   5.935  14.828  1.00  0.00     0.044 C 
HETATM    7  C7  UNL     1      16.537   4.831  14.118  1.00  0.00     0.013 C 
HETATM    8  C8  UNL     1      15.096   5.000  14.472  1.00  0.00     0.015 C 
HETATM    9  C9  UNL     1      14.716   4.360  15.783  1.00  0.00     0.028 C 
HETATM   10  C10 UNL     1      15.157   2.915  15.722  1.00  0.00     0.232 C 
HETATM   11  N2  UNL     1      16.591   2.906  15.658  1.00  0.00    -0.074 N 
ATOM     12  H21 UNL     1      16.949   1.957  15.766  1.00  0.00     0.277 HD
ATOM     13  H22 UNL     1      16.990   3.337  16.493  1.00  0.00     0.277 HD
HETATM   14  C11 UNL     1      17.126   3.513  14.475  1.00  0.00     0.244 C 
ENDROOT
BRANCH   1  15
HETATM   15  O1  UNL     1      17.564   4.124  12.048  1.00  0.00    -0.388 OA
HETATM   16  C1  UNL     1      17.195   3.873  10.739  1.00  0.00     0.202 C 
ENDBRANCH   1  15
TORSDOF 1
ENDMDL
