MODEL 1
REMARK VINA RESULT: -5.058156807      0.000      0.000
REMARK  2 active torsions:
REMARK  status: ('A' for Active; 'I' for Inactive)
REMARK    1  A    between atoms: N1_2  and  O1_3 
REMARK    2  A    between atoms: N1_2  and  N2_5 
ROOT
HETATM    1  N2  UNL     1      16.588   1.668  15.731  1.00  0.00    -0.166 NA
HETATM    2  C2  UNL     1      15.434   1.191  16.508  1.00  0.00     0.124 C 
HETATM    3  C3  UNL     1      15.028   2.207  17.510  1.00  0.00     0.018 C 
HETATM    4  C4  UNL     1      14.318   3.390  16.999  1.00  0.00     0.013 C 
HETATM    5  C5  UNL     1      14.803   3.996  15.743  1.00  0.00     0.093 C 
HETATM    6  S1  UNL     1      15.901   2.996  14.758  1.00  0.00    -0.065 SA
ENDROOT
BRANCH   1   7
HETATM    7  N1  UNL     1      16.977   0.620  14.895  1.00  0.00    -0.122 NA
HETATM    8  C1  UNL     1      16.674   0.859  13.516  1.00  0.00     0.165 C 
BRANCH   7   9
HETATM    9  O1  UNL     1      16.286  -0.491  15.274  1.00  0.00    -0.298 OA
ATOM     10  H1  UNL     1      16.391  -0.582  16.213  1.00  0.00     0.238 HD
ENDBRANCH   7   9
ENDBRANCH   1   7
TORSDOF 2
ENDMDL
MODEL 2
REMARK VINA RESULT: -5.048579694      1.384      1.611
REMARK  2 active torsions:
REMARK  status: ('A' for Active; 'I' for Inactive)
REMARK    1  A    between atoms: N1_2  and  O1_3 
REMARK    2  A    between atoms: N1_2  and  N2_5 
ROOT
HETATM    1  N2  UNL     1      16.123   1.920  16.828  1.00  0.00    -0.166 NA
HETATM    2  C2  UNL     1      14.686   2.112  16.579  1.00  0.00     0.124 C 
HETATM    3  C3  UNL     1      14.297   3.519  16.844  1.00  0.00     0.018 C 
HETATM    4  C4  UNL     1      14.702   4.515  15.840  1.00  0.00     0.013 C 
HETATM    5  C5  UNL     1      16.056   4.401  15.263  1.00  0.00     0.093 C 
HETATM    6  S1  UNL     1      16.889   2.845  15.508  1.00  0.00    -0.065 SA
ENDROOT
BRANCH   1   7
HETATM    7  N1  UNL     1      16.386   0.559  16.667  1.00  0.00    -0.122 NA
HETATM    8  C1  UNL     1      16.662   0.196  15.310  1.00  0.00     0.165 C 
BRANCH   7   9
HETATM    9  O1  UNL     1      15.273  -0.127  17.051  1.00  0.00    -0.298 OA
ATOM     10  H1  UNL     1      14.953   0.277  17.849  1.00  0.00     0.238 HD
ENDBRANCH   7   9
ENDBRANCH   1   7
TORSDOF 2
ENDMDL
MODEL 3
REMARK VINA RESULT: -4.859169231      1.290      1.803
REMARK  2 active torsions:
REMARK  status: ('A' for Active; 'I' for Inactive)
REMARK    1  A    between atoms: N1_2  and  O1_3 
REMARK    2  A    between atoms: N1_2  and  N2_5 
ROOT
HETATM    1  N2  UNL     1      15.674   1.466  14.793  1.00  0.00    -0.166 NA
HETATM    2  C2  UNL     1      16.130   2.861  14.691  1.00  0.00     0.124 C 
HETATM    3  C3  UNL     1      15.013   3.794  14.980  1.00  0.00     0.018 C 
HETATM    4  C4  UNL     1      14.612   3.927  16.388  1.00  0.00     0.013 C 
HETATM    5  C5  UNL     1      14.550   2.700  17.206  1.00  0.00     0.093 C 
HETATM    6  S1  UNL     1      15.372   1.266  16.539  1.00  0.00    -0.065 SA
ENDROOT
BRANCH   1   7
HETATM    7  N1  UNL     1      16.743   0.659  14.401  1.00  0.00    -0.122 NA
HETATM    8  C1  UNL     1      16.805   0.457  12.985  1.00  0.00     0.165 C 
BRANCH   7   9
HETATM    9  O1  UNL     1      16.573  -0.564  14.977  1.00  0.00    -0.298 OA
ATOM     10  H1  UNL     1      16.430  -1.188  14.276  1.00  0.00     0.238 HD
ENDBRANCH   7   9
ENDBRANCH   1   7
TORSDOF 2
ENDMDL
MODEL 4
REMARK VINA RESULT: -4.823874142      1.058      1.150
REMARK  2 active torsions:
REMARK  status: ('A' for Active; 'I' for Inactive)
REMARK    1  A    between atoms: N1_2  and  O1_3 
REMARK    2  A    between atoms: N1_2  and  N2_5 
ROOT
HETATM    1  N2  UNL     1      16.584   2.104  15.201  1.00  0.00    -0.166 NA
HETATM    2  C2  UNL     1      15.900   1.019  15.921  1.00  0.00     0.124 C 
HETATM    3  C3  UNL     1      15.614   1.425  17.319  1.00  0.00     0.018 C 
HETATM    4  C4  UNL     1      14.513   2.380  17.516  1.00  0.00     0.013 C 
HETATM    5  C5  UNL     1      14.397   3.504  16.566  1.00  0.00     0.093 C 
HETATM    6  S1  UNL     1      15.317   3.350  15.047  1.00  0.00    -0.065 SA
ENDROOT
BRANCH   1   7
HETATM    7  N1  UNL     1      16.916   1.608  13.939  1.00  0.00    -0.122 NA
HETATM    8  C1  UNL     1      16.155   2.203  12.883  1.00  0.00     0.165 C 
BRANCH   7   9
HETATM    9  O1  UNL     1      16.644   0.273  13.932  1.00  0.00    -0.298 OA
ATOM     10  H1  UNL     1      17.405  -0.169  13.577  1.00  0.00     0.238 HD
ENDBRANCH   7   9
ENDBRANCH   1   7
TORSDOF 2
ENDMDL
MODEL 5
REMARK VINA RESULT: -4.743977603      1.659      2.576
REMARK  2 active torsions:
REMARK  status: ('A' for Active; 'I' for Inactive)
REMARK    1  A    between atoms: N1_2  and  O1_3 
REMARK    2  A    between atoms: N1_2  and  N2_5 
ROOT
HETATM    1  N2  UNL     1      15.293   1.547  15.450  1.00  0.00    -0.166 NA
HETATM    2  C2  UNL     1      16.476   2.170  14.837  1.00  0.00     0.124 C 
HETATM    3  C3  UNL     1      16.072   3.278  13.937  1.00  0.00     0.018 C 
HETATM    4  C4  UNL     1      15.632   4.524  14.582  1.00  0.00     0.013 C 
HETATM    5  C5  UNL     1      14.763   4.416  15.772  1.00  0.00     0.093 C 
HETATM    6  S1  UNL     1      14.695   2.815  16.553  1.00  0.00    -0.065 SA
ENDROOT
BRANCH   1   7
HETATM    7  N1  UNL     1      15.745   0.452  16.187  1.00  0.00    -0.122 NA
HETATM    8  C1  UNL     1      15.207   0.406  17.512  1.00  0.00     0.165 C 
BRANCH   7   9
HETATM    9  O1  UNL     1      17.098   0.561  16.304  1.00  0.00    -0.298 OA
ATOM     10  H1  UNL     1      17.467   0.440  15.437  1.00  0.00     0.238 HD
ENDBRANCH   7   9
ENDBRANCH   1   7
TORSDOF 2
ENDMDL
