MODEL 1
REMARK VINA RESULT: -5.545771337      0.000      0.000
REMARK  2 active torsions:
REMARK  status: ('A' for Active; 'I' for Inactive)
REMARK    1  A    between atoms: O1_2  and  C2_3 
REMARK    2  A    between atoms: C3_4  and  O2_5 
ROOT
HETATM    1  C2  UNL     1      15.735   1.999  15.532  1.00  0.00     0.204 C 
HETATM    2  C3  UNL     1      16.505   1.205  16.576  1.00  0.00     0.288 C 
HETATM    3  O3  UNL     1      15.722   0.313  17.261  1.00  0.00    -0.351 OA
HETATM    4  C4  UNL     1      14.583   0.879  17.814  1.00  0.00     0.151 C 
HETATM    5  C5  UNL     1      14.874   2.212  18.473  1.00  0.00     0.200 C 
HETATM    6  O4  UNL     1      15.068   3.108  17.459  1.00  0.00    -0.381 OA
HETATM    7  C6  UNL     1      14.547   2.612  16.292  1.00  0.00     0.157 C 
HETATM    8  C7  UNL     1      13.690   1.395  16.674  1.00  0.00     0.069 C 
ENDROOT
BRANCH   1   9
HETATM    9  O1  UNL     1      16.564   2.982  15.027  1.00  0.00    -0.383 OA
HETATM   10  C1  UNL     1      16.434   3.036  13.620  1.00  0.00     0.202 C 
ENDBRANCH   1   9
BRANCH   2  11
HETATM   11  O2  UNL     1      17.491   0.501  15.887  1.00  0.00    -0.369 OA
ATOM     12  H2  UNL     1      17.917  -0.059  16.526  1.00  0.00     0.212 HD
ENDBRANCH   2  11
TORSDOF 2
ENDMDL
MODEL 2
REMARK VINA RESULT: -5.323654996      1.393      3.469
REMARK  2 active torsions:
REMARK  status: ('A' for Active; 'I' for Inactive)
REMARK    1  A    between atoms: O1_2  and  C2_3 
REMARK    2  A    between atoms: C3_4  and  O2_5 
ROOT
HETATM    1  C2  UNL     1      15.478   2.218  16.099  1.00  0.00     0.204 C 
HETATM    2  C3  UNL     1      16.843   1.873  15.522  1.00  0.00     0.288 C 
HETATM    3  O3  UNL     1      17.681   2.954  15.438  1.00  0.00    -0.351 OA
HETATM    4  C4  UNL     1      17.128   4.040  14.776  1.00  0.00     0.151 C 
HETATM    5  C5  UNL     1      16.386   3.624  13.522  1.00  0.00     0.200 C 
HETATM    6  O4  UNL     1      15.226   3.034  13.940  1.00  0.00    -0.381 OA
HETATM    7  C6  UNL     1      14.966   3.386  15.239  1.00  0.00     0.157 C 
HETATM    8  C7  UNL     1      15.919   4.540  15.583  1.00  0.00     0.069 C 
ENDROOT
BRANCH   1   9
HETATM    9  O1  UNL     1      14.658   1.114  15.979  1.00  0.00    -0.383 OA
HETATM   10  C1  UNL     1      13.738   1.087  17.053  1.00  0.00     0.202 C 
ENDBRANCH   1   9
BRANCH   2  11
HETATM   11  O2  UNL     1      17.407   0.933  16.384  1.00  0.00    -0.369 OA
ATOM     12  H2  UNL     1      16.687   0.551  16.872  1.00  0.00     0.212 HD
ENDBRANCH   2  11
TORSDOF 2
ENDMDL
MODEL 3
REMARK VINA RESULT: -5.087092368      0.981      2.496
REMARK  2 active torsions:
REMARK  status: ('A' for Active; 'I' for Inactive)
REMARK    1  A    between atoms: O1_2  and  C2_3 
REMARK    2  A    between atoms: C3_4  and  O2_5 
ROOT
HETATM    1  C2  UNL     1      16.590   1.577  16.616  1.00  0.00     0.204 C 
HETATM    2  C3  UNL     1      15.747   2.241  15.537  1.00  0.00     0.288 C 
HETATM    3  O3  UNL     1      14.832   3.130  16.038  1.00  0.00    -0.351 OA
HETATM    4  C4  UNL     1      14.026   2.598  17.035  1.00  0.00     0.151 C 
HETATM    5  C5  UNL     1      13.541   1.204  16.690  1.00  0.00     0.200 C 
HETATM    6  O4  UNL     1      14.617   0.375  16.842  1.00  0.00    -0.381 OA
HETATM    7  C6  UNL     1      15.574   0.988  17.609  1.00  0.00     0.157 C 
HETATM    8  C7  UNL     1      14.912   2.226  18.233  1.00  0.00     0.069 C 
ENDROOT
BRANCH   1   9
HETATM    9  O1  UNL     1      17.349   0.584  16.031  1.00  0.00    -0.383 OA
HETATM   10  C1  UNL     1      16.697   0.110  14.869  1.00  0.00     0.202 C 
ENDBRANCH   1   9
BRANCH   2  11
HETATM   11  O2  UNL     1      16.636   2.930  14.712  1.00  0.00    -0.369 OA
ATOM     12  H2  UNL     1      16.681   2.441  13.899  1.00  0.00     0.212 HD
ENDBRANCH   2  11
TORSDOF 2
ENDMDL
MODEL 4
REMARK VINA RESULT: -5.018602098      2.021      2.927
REMARK  2 active torsions:
REMARK  status: ('A' for Active; 'I' for Inactive)
REMARK    1  A    between atoms: O1_2  and  C2_3 
REMARK    2  A    between atoms: C3_4  and  O2_5 
ROOT
HETATM    1  C2  UNL     1      16.259   1.422  13.754  1.00  0.00     0.204 C 
HETATM    2  C3  UNL     1      16.694   1.015  15.154  1.00  0.00     0.288 C 
HETATM    3  O3  UNL     1      16.018   1.681  16.143  1.00  0.00    -0.351 OA
HETATM    4  C4  UNL     1      16.038   3.061  16.002  1.00  0.00     0.151 C 
HETATM    5  C5  UNL     1      17.413   3.573  15.620  1.00  0.00     0.200 C 
HETATM    6  O4  UNL     1      17.597   3.236  14.308  1.00  0.00    -0.381 OA
HETATM    7  C6  UNL     1      16.388   2.954  13.725  1.00  0.00     0.157 C 
HETATM    8  C7  UNL     1      15.305   3.431  14.704  1.00  0.00     0.069 C 
ENDROOT
BRANCH   1   9
HETATM    9  O1  UNL     1      17.111   0.832  12.841  1.00  0.00    -0.383 OA
HETATM   10  C1  UNL     1      16.456   0.705  11.594  1.00  0.00     0.202 C 
ENDBRANCH   1   9
BRANCH   2  11
HETATM   11  O2  UNL     1      16.427  -0.348  15.268  1.00  0.00    -0.369 OA
ATOM     12  H2  UNL     1      16.952  -0.664  15.995  1.00  0.00     0.212 HD
ENDBRANCH   2  11
TORSDOF 2
ENDMDL
MODEL 5
REMARK VINA RESULT: -5.010778594      1.531      3.446
REMARK  2 active torsions:
REMARK  status: ('A' for Active; 'I' for Inactive)
REMARK    1  A    between atoms: O1_2  and  C2_3 
REMARK    2  A    between atoms: C3_4  and  O2_5 
ROOT
HETATM    1  C2  UNL     1      16.478   1.073  15.682  1.00  0.00     0.204 C 
HETATM    2  C3  UNL     1      16.346   1.212  14.173  1.00  0.00     0.288 C 
HETATM    3  O3  UNL     1      17.062   2.263  13.663  1.00  0.00    -0.351 OA
HETATM    4  C4  UNL     1      16.803   3.472  14.293  1.00  0.00     0.151 C 
HETATM    5  C5  UNL     1      15.322   3.680  14.538  1.00  0.00     0.200 C 
HETATM    6  O4  UNL     1      14.982   2.844  15.565  1.00  0.00    -0.381 OA
HETATM    7  C6  UNL     1      16.108   2.456  16.243  1.00  0.00     0.157 C 
HETATM    8  C7  UNL     1      17.249   3.365  15.759  1.00  0.00     0.069 C 
ENDROOT
BRANCH   1   9
HETATM    9  O1  UNL     1      15.591   0.107  16.114  1.00  0.00    -0.383 OA
HETATM   10  C1  UNL     1      15.221   0.367  17.453  1.00  0.00     0.202 C 
ENDBRANCH   1   9
BRANCH   2  11
HETATM   11  O2  UNL     1      16.836   0.027  13.625  1.00  0.00    -0.369 OA
ATOM     12  H2  UNL     1      16.518  -0.006  12.730  1.00  0.00     0.212 HD
ENDBRANCH   2  11
TORSDOF 2
ENDMDL
