MODEL 1
REMARK VINA RESULT: -7.027486584      0.000      0.000
REMARK  3 active torsions:
REMARK  status: ('A' for Active; 'I' for Inactive)
REMARK       I    between atoms: N1_2  and  C3_4 
REMARK    1  A    between atoms: C3_4  and  C4_6 
REMARK    2  A    between atoms: C5_9  and  N3_10 
REMARK    3  A    between atoms: C7_16  and  C8_17 
ROOT
HETATM    1  C4  UNL     1      45.712   4.233  18.756  1.00  0.00     0.130 A 
HETATM    2  N2  UNL     1      44.802   5.088  18.182  1.00  0.00    -0.186 N 
ATOM      3  H2  UNL     1      44.441   5.854  18.750  1.00  0.00     0.184 HD
HETATM    4  C5  UNL     1      44.365   4.979  16.938  1.00  0.00     0.676 A 
HETATM    5  N4  UNL     1      44.859   3.961  16.216  1.00  0.00    -0.201 N 
ATOM      6  H4  UNL     1      44.552   3.843  15.251  1.00  0.00     0.183 HD
HETATM    7  C6  UNL     1      45.735   3.104  16.721  1.00  0.00     0.122 A 
HETATM    8  C7  UNL     1      46.219   3.196  18.069  1.00  0.00     0.042 A 
ENDROOT
BRANCH   8   9
HETATM    9  C8  UNL     1      46.868   1.986  18.573  1.00  0.00     0.077 A 
HETATM   10  N5  UNL     1      45.997   1.147  19.132  1.00  0.00    -0.296 N 
HETATM   11  N6  UNL     1      46.308  -0.058  19.697  1.00  0.00    -0.273 N 
ATOM     12  H5  UNL     1      45.016   1.427  19.139  1.00  0.00     0.187 HD
HETATM   13  C9  UNL     1      47.654  -0.495  19.748  1.00  0.00     0.207 A 
ATOM     14  H6  UNL     1      45.568  -0.645  20.084  1.00  0.00     0.189 HD
HETATM   15  N7  UNL     1      48.024  -1.762  20.302  1.00  0.00    -0.062 NA
HETATM   16  N8  UNL     1      48.519   0.306  19.272  1.00  0.00    -0.337 N 
HETATM   17  C10 UNL     1      48.253   1.620  18.701  1.00  0.00     0.122 A 
ATOM     18  H8  UNL     1      49.492  -0.002  19.290  1.00  0.00     0.168 HD
ENDBRANCH   8   9
BRANCH   1  19
HETATM   19  C3  UNL     1      46.228   4.615  20.065  1.00  0.00     0.271 C 
HETATM   20  N1  UNL     1      45.581   4.251  21.267  1.00  0.00    -0.355 N 
HETATM   21  C1  UNL     1      46.181   4.698  22.532  1.00  0.00     0.152 C 
HETATM   22  C2  UNL     1      44.382   3.459  21.356  1.00  0.00     0.152 C 
HETATM   23  O1  UNL     1      47.259   5.276  20.189  1.00  0.00    -0.266 OA
ENDBRANCH   1  19
BRANCH   4  24
HETATM   24  N3  UNL     1      43.503   5.793  16.410  1.00  0.00    -0.234 N 
ATOM     25  H32 UNL     1      43.688   6.215  15.500  1.00  0.00     0.174 HD
ATOM     26  H31 UNL     1      42.623   6.046  16.859  1.00  0.00     0.174 HD
ENDBRANCH   4  24
TORSDOF 3
ENDMDL
MODEL 2
REMARK VINA RESULT: -6.854106645      2.072      2.524
REMARK  3 active torsions:
REMARK  status: ('A' for Active; 'I' for Inactive)
REMARK       I    between atoms: N1_2  and  C3_4 
REMARK    1  A    between atoms: C3_4  and  C4_6 
REMARK    2  A    between atoms: C5_9  and  N3_10 
REMARK    3  A    between atoms: C7_16  and  C8_17 
ROOT
HETATM    1  C4  UNL     1      46.968   4.525  18.610  1.00  0.00     0.130 A 
HETATM    2  N2  UNL     1      47.319   5.406  17.616  1.00  0.00    -0.186 N 
ATOM      3  H2  UNL     1      47.059   6.386  17.732  1.00  0.00     0.184 HD
HETATM    4  C5  UNL     1      47.974   5.064  16.518  1.00  0.00     0.676 A 
HETATM    5  N4  UNL     1      48.302   3.768  16.396  1.00  0.00    -0.201 N 
ATOM      6  H4  UNL     1      48.811   3.462  15.567  1.00  0.00     0.183 HD
HETATM    7  C6  UNL     1      47.984   2.874  17.321  1.00  0.00     0.122 A 
HETATM    8  C7  UNL     1      47.269   3.219  18.516  1.00  0.00     0.042 A 
ENDROOT
BRANCH   8   9
HETATM    9  C8  UNL     1      46.680   2.084  19.229  1.00  0.00     0.077 A 
HETATM   10  N5  UNL     1      47.550   1.087  19.387  1.00  0.00    -0.296 N 
HETATM   11  N6  UNL     1      47.288  -0.103  20.005  1.00  0.00    -0.273 N 
ATOM     12  H5  UNL     1      48.490   1.224  19.015  1.00  0.00     0.187 HD
HETATM   13  C9  UNL     1      45.994  -0.370  20.516  1.00  0.00     0.207 A 
ATOM     14  H6  UNL     1      48.025  -0.802  20.097  1.00  0.00     0.189 HD
HETATM   15  N7  UNL     1      45.681  -1.589  21.198  1.00  0.00    -0.062 NA
HETATM   16  N8  UNL     1      45.123   0.539  20.336  1.00  0.00    -0.337 N 
HETATM   17  C10 UNL     1      45.332   1.805  19.645  1.00  0.00     0.122 A 
ATOM     18  H8  UNL     1      44.191   0.365  20.711  1.00  0.00     0.168 HD
ENDBRANCH   8   9
BRANCH   1  19
HETATM   19  C3  UNL     1      46.427   5.104  19.833  1.00  0.00     0.271 C 
HETATM   20  N1  UNL     1      45.093   5.561  19.926  1.00  0.00    -0.355 N 
HETATM   21  C1  UNL     1      44.653   6.139  21.204  1.00  0.00     0.152 C 
HETATM   22  C2  UNL     1      44.118   5.492  18.870  1.00  0.00     0.152 C 
HETATM   23  O1  UNL     1      47.108   5.225  20.851  1.00  0.00    -0.266 OA
ENDBRANCH   1  19
BRANCH   4  24
HETATM   24  N3  UNL     1      48.296   5.908  15.587  1.00  0.00    -0.234 N 
ATOM     25  H32 UNL     1      48.747   6.790  15.829  1.00  0.00     0.174 HD
ATOM     26  H31 UNL     1      48.125   5.741  14.595  1.00  0.00     0.174 HD
ENDBRANCH   4  24
TORSDOF 3
ENDMDL
MODEL 3
REMARK VINA RESULT: -6.652939823      1.805      5.310
REMARK  3 active torsions:
REMARK  status: ('A' for Active; 'I' for Inactive)
REMARK       I    between atoms: N1_2  and  C3_4 
REMARK    1  A    between atoms: C3_4  and  C4_6 
REMARK    2  A    between atoms: C5_9  and  N3_10 
REMARK    3  A    between atoms: C7_16  and  C8_17 
ROOT
HETATM    1  C4  UNL     1      46.548   2.484  19.012  1.00  0.00     0.130 A 
HETATM    2  N2  UNL     1      47.604   1.673  19.353  1.00  0.00    -0.186 N 
ATOM      3  H2  UNL     1      47.597   1.244  20.278  1.00  0.00     0.184 HD
HETATM    4  C5  UNL     1      48.628   1.415  18.556  1.00  0.00     0.676 A 
HETATM    5  N4  UNL     1      48.606   1.995  17.345  1.00  0.00    -0.201 N 
ATOM      6  H4  UNL     1      49.374   1.818  16.698  1.00  0.00     0.183 HD
HETATM    7  C6  UNL     1      47.616   2.790  16.966  1.00  0.00     0.122 A 
HETATM    8  C7  UNL     1      46.499   3.091  17.814  1.00  0.00     0.042 A 
ENDROOT
BRANCH   8   9
HETATM    9  C8  UNL     1      45.710   4.253  17.402  1.00  0.00     0.077 A 
HETATM   10  N5  UNL     1      44.964   3.995  16.328  1.00  0.00    -0.296 N 
HETATM   11  N6  UNL     1      44.132   4.885  15.708  1.00  0.00    -0.273 N 
ATOM     12  H5  UNL     1      45.019   3.055  15.935  1.00  0.00     0.187 HD
HETATM   13  C9  UNL     1      44.031   6.216  16.184  1.00  0.00     0.207 A 
ATOM     14  H6  UNL     1      43.582   4.590  14.901  1.00  0.00     0.189 HD
HETATM   15  N7  UNL     1      43.151   7.174  15.587  1.00  0.00    -0.062 NA
HETATM   16  N8  UNL     1      44.770   6.512  17.175  1.00  0.00    -0.337 N 
HETATM   17  C10 UNL     1      45.709   5.621  17.845  1.00  0.00     0.122 A 
ATOM     18  H8  UNL     1      44.698   7.463  17.536  1.00  0.00     0.168 HD
ENDBRANCH   8   9
BRANCH   1  19
HETATM   19  C3  UNL     1      45.416   2.501  19.930  1.00  0.00     0.271 C 
HETATM   20  N1  UNL     1      45.310   3.442  20.979  1.00  0.00    -0.355 N 
HETATM   21  C1  UNL     1      44.132   3.363  21.855  1.00  0.00     0.152 C 
HETATM   22  C2  UNL     1      46.259   4.489  21.254  1.00  0.00     0.152 C 
HETATM   23  O1  UNL     1      44.492   1.694  19.838  1.00  0.00    -0.266 OA
ENDBRANCH   1  19
BRANCH   4  24
HETATM   24  N3  UNL     1      49.619   0.648  18.893  1.00  0.00    -0.234 N 
ATOM     25  H32 UNL     1      49.569   0.093  19.747  1.00  0.00     0.174 HD
ATOM     26  H31 UNL     1      50.472   0.560  18.341  1.00  0.00     0.174 HD
ENDBRANCH   4  24
TORSDOF 3
ENDMDL
MODEL 4
REMARK VINA RESULT: -6.567716538      2.308      2.862
REMARK  3 active torsions:
REMARK  status: ('A' for Active; 'I' for Inactive)
REMARK       I    between atoms: N1_2  and  C3_4 
REMARK    1  A    between atoms: C3_4  and  C4_6 
REMARK    2  A    between atoms: C5_9  and  N3_10 
REMARK    3  A    between atoms: C7_16  and  C8_17 
ROOT
HETATM    1  C4  UNL     1      46.589   4.645  18.649  1.00  0.00     0.130 A 
HETATM    2  N2  UNL     1      47.156   5.447  17.687  1.00  0.00    -0.186 N 
ATOM      3  H2  UNL     1      47.164   6.454  17.847  1.00  0.00     0.184 HD
HETATM    4  C5  UNL     1      47.693   4.993  16.566  1.00  0.00     0.676 A 
HETATM    5  N4  UNL     1      47.668   3.663  16.385  1.00  0.00    -0.201 N 
ATOM      6  H4  UNL     1      48.075   3.271  15.536  1.00  0.00     0.183 HD
HETATM    7  C6  UNL     1      47.129   2.844  17.277  1.00  0.00     0.122 A 
HETATM    8  C7  UNL     1      46.534   3.312  18.496  1.00  0.00     0.042 A 
ENDROOT
BRANCH   8   9
HETATM    9  C8  UNL     1      45.670   2.342  19.170  1.00  0.00     0.077 A 
HETATM   10  N5  UNL     1      45.530   1.221  18.463  1.00  0.00    -0.296 N 
HETATM   11  N6  UNL     1      44.778   0.140  18.830  1.00  0.00    -0.273 N 
ATOM     12  H5  UNL     1      46.025   1.165  17.573  1.00  0.00     0.187 HD
HETATM   13  C9  UNL     1      44.041   0.164  20.039  1.00  0.00     0.207 A 
ATOM     14  H6  UNL     1      44.748  -0.685  18.232  1.00  0.00     0.189 HD
HETATM   15  N7  UNL     1      43.264  -0.954  20.480  1.00  0.00    -0.062 NA
HETATM   16  N8  UNL     1      44.108   1.240  20.714  1.00  0.00    -0.337 N 
HETATM   17  C10 UNL     1      44.854   2.439  20.350  1.00  0.00     0.122 A 
ATOM     18  H8  UNL     1      43.592   1.266  21.594  1.00  0.00     0.168 HD
ENDBRANCH   8   9
BRANCH   1  19
HETATM   19  C3  UNL     1      46.224   5.292  19.903  1.00  0.00     0.271 C 
HETATM   20  N1  UNL     1      44.973   5.920  20.092  1.00  0.00    -0.355 N 
HETATM   21  C1  UNL     1      44.711   6.552  21.393  1.00  0.00     0.152 C 
HETATM   22  C2  UNL     1      43.918   5.979  19.114  1.00  0.00     0.152 C 
HETATM   23  O1  UNL     1      46.991   5.324  20.865  1.00  0.00    -0.266 OA
ENDBRANCH   1  19
BRANCH   4  24
HETATM   24  N3  UNL     1      48.224   5.762  15.666  1.00  0.00    -0.234 N 
ATOM     25  H32 UNL     1      47.636   6.390  15.117  1.00  0.00     0.174 HD
ATOM     26  H31 UNL     1      49.223   5.783  15.464  1.00  0.00     0.174 HD
ENDBRANCH   4  24
TORSDOF 3
ENDMDL
MODEL 5
REMARK VINA RESULT: -6.538965729      5.871      9.080
REMARK  3 active torsions:
REMARK  status: ('A' for Active; 'I' for Inactive)
REMARK       I    between atoms: N1_2  and  C3_4 
REMARK    1  A    between atoms: C3_4  and  C4_6 
REMARK    2  A    between atoms: C5_9  and  N3_10 
REMARK    3  A    between atoms: C7_16  and  C8_17 
ROOT
HETATM    1  C4  UNL     1      45.993   0.841  25.656  1.00  0.00     0.130 A 
HETATM    2  N2  UNL     1      46.969  -0.102  25.437  1.00  0.00    -0.186 N 
ATOM      3  H2  UNL     1      47.686   0.105  24.742  1.00  0.00     0.184 HD
HETATM    4  C5  UNL     1      47.037  -1.260  26.073  1.00  0.00     0.676 A 
HETATM    5  N4  UNL     1      46.080  -1.502  26.982  1.00  0.00    -0.201 N 
ATOM      6  H4  UNL     1      46.098  -2.382  27.497  1.00  0.00     0.183 HD
HETATM    7  C6  UNL     1      45.112  -0.632  27.229  1.00  0.00     0.122 A 
HETATM    8  C7  UNL     1      45.012   0.627  26.548  1.00  0.00     0.042 A 
ENDROOT
BRANCH   8   9
HETATM    9  C8  UNL     1      43.709   1.284  26.660  1.00  0.00     0.077 A 
HETATM   10  N5  UNL     1      43.717   2.262  27.565  1.00  0.00    -0.296 N 
HETATM   11  N6  UNL     1      42.648   3.047  27.895  1.00  0.00    -0.273 N 
ATOM     12  H5  UNL     1      44.596   2.441  28.052  1.00  0.00     0.187 HD
HETATM   13  C9  UNL     1      41.391   2.833  27.278  1.00  0.00     0.207 A 
ATOM     14  H6  UNL     1      42.755   3.788  28.587  1.00  0.00     0.189 HD
HETATM   15  N7  UNL     1      40.251   3.648  27.569  1.00  0.00    -0.062 NA
HETATM   16  N8  UNL     1      41.332   1.872  26.448  1.00  0.00    -0.337 N 
HETATM   17  C10 UNL     1      42.424   0.974  26.092  1.00  0.00     0.122 A 
ATOM     18  H8  UNL     1      40.436   1.715  25.986  1.00  0.00     0.168 HD
ENDBRANCH   8   9
BRANCH   1  19
HETATM   19  C3  UNL     1      46.181   2.135  25.014  1.00  0.00     0.271 C 
HETATM   20  N1  UNL     1      45.581   2.459  23.776  1.00  0.00    -0.355 N 
HETATM   21  C1  UNL     1      45.846   3.790  23.211  1.00  0.00     0.152 C 
HETATM   22  C2  UNL     1      44.713   1.592  23.024  1.00  0.00     0.152 C 
HETATM   23  O1  UNL     1      46.875   3.017  25.520  1.00  0.00    -0.266 OA
ENDBRANCH   1  19
BRANCH   4  24
HETATM   24  N3  UNL     1      47.965  -2.141  25.854  1.00  0.00    -0.234 N 
ATOM     25  H32 UNL     1      48.875  -2.049  26.305  1.00  0.00     0.174 HD
ATOM     26  H31 UNL     1      47.840  -2.947  25.241  1.00  0.00     0.174 HD
ENDBRANCH   4  24
TORSDOF 3
ENDMDL
