MODEL 1
REMARK VINA RESULT: -7.691432415      0.000      0.000
REMARK  7 active torsions:
REMARK  status: ('A' for Active; 'I' for Inactive)
REMARK    1  A    between atoms: C2_2  and  C3_3 
REMARK    2  A    between atoms: C3_3  and  C4_4 
REMARK    3  A    between atoms: C4_4  and  N1_5 
REMARK    4  A    between atoms: N1_5  and  C5_7 
REMARK    5  A    between atoms: C7_9  and  C8_10 
REMARK    6  A    between atoms: C8_10  and  N2_11 
REMARK    7  A    between atoms: C15_22  and  C16_23 
REMARK       I    between atoms: C16_23  and  N4_25 
ROOT
HETATM    1  C5  UNL     1     -15.091 -10.750 -20.504  1.00  0.00     0.103 A 
HETATM    2  C6  UNL     1     -15.906 -11.423 -21.383  1.00  0.00     0.058 A 
HETATM    3  C7  UNL     1     -16.024 -12.817 -21.339  1.00  0.00    -0.016 A 
HETATM    4  C15 UNL     1     -15.285 -13.472 -20.375  1.00  0.00     0.096 A 
HETATM    5  C19 UNL     1     -14.466 -12.751 -19.497  1.00  0.00     0.206 A 
HETATM    6  F1  UNL     1     -13.736 -13.380 -18.547  1.00  0.00    -0.185 F 
HETATM    7  N5  UNL     1     -14.383 -11.407 -19.576  1.00  0.00    -0.318 N 
ATOM      8  H5  UNL     1     -13.782 -10.892 -18.931  1.00  0.00     0.169 HD
ENDROOT
BRANCH   3   9
HETATM    9  C8  UNL     1     -16.863 -13.606 -22.237  1.00  0.00     0.166 C 
BRANCH   9  10
HETATM   10  N2  UNL     1     -18.204 -13.073 -22.379  1.00  0.00    -0.337 N 
HETATM   11  C9  UNL     1     -18.741 -12.033 -21.522  1.00  0.00     0.228 C 
HETATM   12  C10 UNL     1     -20.158 -12.323 -21.195  1.00  0.00     0.236 C 
HETATM   13  O1  UNL     1     -20.580 -12.097 -20.033  1.00  0.00    -0.272 OA
HETATM   14  N3  UNL     1     -21.029 -12.852 -22.187  1.00  0.00    -0.342 N 
HETATM   15  C11 UNL     1     -20.498 -13.263 -23.490  1.00  0.00     0.106 C 
ATOM     16  H3  UNL     1     -22.025 -12.946 -21.990  1.00  0.00     0.163 HD
HETATM   17  C12 UNL     1     -20.705 -12.220 -24.538  1.00  0.00     0.048 C 
HETATM   18  C13 UNL     1     -21.200 -14.545 -23.948  1.00  0.00     0.048 C 
HETATM   19  C14 UNL     1     -19.057 -13.579 -23.400  1.00  0.00     0.248 C 
HETATM   20  O2  UNL     1     -18.527 -14.334 -24.263  1.00  0.00    -0.271 OA
ENDBRANCH   9  10
ENDBRANCH   3   9
BRANCH   4  21
HETATM   21  C16 UNL     1     -15.308 -14.924 -20.205  1.00  0.00     0.258 C 
HETATM   22  O3  UNL     1     -16.153 -15.510 -19.475  1.00  0.00    -0.267 OA
HETATM   23  N4  UNL     1     -14.349 -15.729 -20.876  1.00  0.00    -0.356 N 
HETATM   24  C17 UNL     1     -13.353 -15.115 -21.731  1.00  0.00     0.152 C 
HETATM   25  C18 UNL     1     -14.316 -17.172 -20.747  1.00  0.00     0.152 C 
ENDBRANCH   4  21
BRANCH   1  26
HETATM   26  N1  UNL     1     -15.012  -9.490 -20.576  1.00  0.00    -0.376 N 
ATOM     27  H1  UNL     1     -15.871  -8.975 -20.386  1.00  0.00     0.161 HD
BRANCH  26  28
HETATM   28  C4  UNL     1     -13.869  -8.704 -20.892  1.00  0.00     0.121 C 
BRANCH  28  29
HETATM   29  C3  UNL     1     -13.237  -9.054 -22.213  1.00  0.00     0.019 C 
BRANCH  29  30
HETATM   30  C2  UNL     1     -11.920  -9.740 -21.916  1.00  0.00    -0.003 C 
HETATM   31  C1  UNL     1     -11.897 -11.169 -22.355  1.00  0.00     0.005 C 
ENDBRANCH  29  30
ENDBRANCH  28  29
ENDBRANCH  26  28
ENDBRANCH   1  26
TORSDOF 7
ENDMDL
MODEL 2
REMARK VINA RESULT: -7.576476255      2.589      5.956
REMARK  7 active torsions:
REMARK  status: ('A' for Active; 'I' for Inactive)
REMARK    1  A    between atoms: C2_2  and  C3_3 
REMARK    2  A    between atoms: C3_3  and  C4_4 
REMARK    3  A    between atoms: C4_4  and  N1_5 
REMARK    4  A    between atoms: N1_5  and  C5_7 
REMARK    5  A    between atoms: C7_9  and  C8_10 
REMARK    6  A    between atoms: C8_10  and  N2_11 
REMARK    7  A    between atoms: C15_22  and  C16_23 
REMARK       I    between atoms: C16_23  and  N4_25 
ROOT
HETATM    1  C5  UNL     1     -16.767 -15.203 -21.123  1.00  0.00     0.103 A 
HETATM    2  C6  UNL     1     -16.142 -14.299 -20.296  1.00  0.00     0.058 A 
HETATM    3  C7  UNL     1     -14.782 -14.418 -19.990  1.00  0.00    -0.016 A 
HETATM    4  C15 UNL     1     -14.110 -15.480 -20.556  1.00  0.00     0.096 A 
HETATM    5  C19 UNL     1     -14.781 -16.381 -21.393  1.00  0.00     0.206 A 
HETATM    6  F1  UNL     1     -14.134 -17.428 -21.956  1.00  0.00    -0.185 F 
HETATM    7  N5  UNL     1     -16.094 -16.228 -21.661  1.00  0.00    -0.318 N 
ATOM      8  H5  UNL     1     -16.573 -16.890 -22.272  1.00  0.00     0.169 HD
ENDROOT
BRANCH   3   9
HETATM    9  C8  UNL     1     -14.046 -13.503 -19.120  1.00  0.00     0.166 C 
BRANCH   9  10
HETATM   10  N2  UNL     1     -14.337 -12.108 -19.384  1.00  0.00    -0.337 N 
HETATM   11  C9  UNL     1     -15.496 -11.421 -18.847  1.00  0.00     0.228 C 
HETATM   12  C10 UNL     1     -16.075 -10.519 -19.871  1.00  0.00     0.236 C 
HETATM   13  O1  UNL     1     -17.324 -10.425 -19.973  1.00  0.00    -0.272 OA
HETATM   14  N3  UNL     1     -15.224  -9.769 -20.729  1.00  0.00    -0.342 N 
HETATM   15  C11 UNL     1     -13.777  -9.999 -20.716  1.00  0.00     0.106 C 
ATOM     16  H3  UNL     1     -15.622  -9.068 -21.354  1.00  0.00     0.163 HD
HETATM   17  C12 UNL     1     -13.052  -8.988 -19.889  1.00  0.00     0.048 C 
HETATM   18  C13 UNL     1     -13.233  -9.925 -22.145  1.00  0.00     0.048 C 
HETATM   19  C14 UNL     1     -13.459 -11.352 -20.211  1.00  0.00     0.248 C 
HETATM   20  O2  UNL     1     -12.356 -11.889 -20.513  1.00  0.00    -0.271 OA
ENDBRANCH   9  10
ENDBRANCH   3   9
BRANCH   4  21
HETATM   21  C16 UNL     1     -12.687 -15.733 -20.333  1.00  0.00     0.258 C 
HETATM   22  O3  UNL     1     -11.788 -15.276 -21.089  1.00  0.00    -0.267 OA
HETATM   23  N4  UNL     1     -12.275 -16.523 -19.226  1.00  0.00    -0.356 N 
HETATM   24  C17 UNL     1     -13.261 -17.075 -18.318  1.00  0.00     0.152 C 
HETATM   25  C18 UNL     1     -10.882 -16.812 -18.951  1.00  0.00     0.152 C 
ENDBRANCH   4  21
BRANCH   1  26
HETATM   26  N1  UNL     1     -17.999 -15.061 -21.374  1.00  0.00    -0.376 N 
ATOM     27  H1  UNL     1     -18.555 -15.915 -21.392  1.00  0.00     0.161 HD
BRANCH  26  28
HETATM   28  C4  UNL     1     -18.702 -13.852 -21.637  1.00  0.00     0.121 C 
BRANCH  28  29
HETATM   29  C3  UNL     1     -19.948 -13.683 -20.808  1.00  0.00     0.019 C 
BRANCH  29  30
HETATM   30  C2  UNL     1     -20.299 -12.210 -20.819  1.00  0.00    -0.003 C 
HETATM   31  C1  UNL     1     -20.432 -11.635 -19.446  1.00  0.00     0.005 C 
ENDBRANCH  29  30
ENDBRANCH  28  29
ENDBRANCH  26  28
ENDBRANCH   1  26
TORSDOF 7
ENDMDL
MODEL 3
REMARK VINA RESULT: -7.528361512      2.219      5.434
REMARK  7 active torsions:
REMARK  status: ('A' for Active; 'I' for Inactive)
REMARK    1  A    between atoms: C2_2  and  C3_3 
REMARK    2  A    between atoms: C3_3  and  C4_4 
REMARK    3  A    between atoms: C4_4  and  N1_5 
REMARK    4  A    between atoms: N1_5  and  C5_7 
REMARK    5  A    between atoms: C7_9  and  C8_10 
REMARK    6  A    between atoms: C8_10  and  N2_11 
REMARK    7  A    between atoms: C15_22  and  C16_23 
REMARK       I    between atoms: C16_23  and  N4_25 
ROOT
HETATM    1  C5  UNL     1     -15.830 -10.878 -20.874  1.00  0.00     0.103 A 
HETATM    2  C6  UNL     1     -15.208 -12.083 -21.099  1.00  0.00     0.058 A 
HETATM    3  C7  UNL     1     -15.944 -13.227 -21.431  1.00  0.00    -0.016 A 
HETATM    4  C15 UNL     1     -17.312 -13.079 -21.521  1.00  0.00     0.096 A 
HETATM    5  C19 UNL     1     -17.909 -11.835 -21.285  1.00  0.00     0.206 A 
HETATM    6  F1  UNL     1     -19.250 -11.675 -21.370  1.00  0.00    -0.185 F 
HETATM    7  N5  UNL     1     -17.161 -10.758 -20.967  1.00  0.00    -0.318 N 
ATOM      8  H5  UNL     1     -17.607  -9.856 -20.797  1.00  0.00     0.169 HD
ENDROOT
BRANCH   3   9
HETATM    9  C8  UNL     1     -15.360 -14.542 -21.681  1.00  0.00     0.166 C 
BRANCH   9  10
HETATM   10  N2  UNL     1     -14.831 -15.168 -20.485  1.00  0.00    -0.337 N 
HETATM   11  C9  UNL     1     -15.569 -15.252 -19.238  1.00  0.00     0.228 C 
HETATM   12  C10 UNL     1     -14.663 -15.006 -18.092  1.00  0.00     0.236 C 
HETATM   13  O1  UNL     1     -15.072 -14.325 -17.118  1.00  0.00    -0.272 OA
HETATM   14  N3  UNL     1     -13.343 -15.536 -18.095  1.00  0.00    -0.342 N 
HETATM   15  C11 UNL     1     -12.815 -16.192 -19.294  1.00  0.00     0.106 C 
ATOM     16  H3  UNL     1     -12.762 -15.460 -17.259  1.00  0.00     0.163 HD
HETATM   17  C12 UNL     1     -12.907 -17.681 -19.211  1.00  0.00     0.048 C 
HETATM   18  C13 UNL     1     -11.342 -15.815 -19.478  1.00  0.00     0.048 C 
HETATM   19  C14 UNL     1     -13.525 -15.732 -20.506  1.00  0.00     0.248 C 
HETATM   20  O2  UNL     1     -12.966 -15.834 -21.635  1.00  0.00    -0.271 OA
ENDBRANCH   9  10
ENDBRANCH   3   9
BRANCH   4  21
HETATM   21  C16 UNL     1     -18.211 -14.181 -21.862  1.00  0.00     0.258 C 
HETATM   22  O3  UNL     1     -18.652 -14.990 -21.002  1.00  0.00    -0.267 OA
HETATM   23  N4  UNL     1     -18.618 -14.368 -23.210  1.00  0.00    -0.356 N 
HETATM   24  C17 UNL     1     -18.148 -13.470 -24.245  1.00  0.00     0.152 C 
HETATM   25  C18 UNL     1     -19.505 -15.441 -23.613  1.00  0.00     0.152 C 
ENDBRANCH   4  21
BRANCH   1  26
HETATM   26  N1  UNL     1     -15.130  -9.868 -20.575  1.00  0.00    -0.376 N 
ATOM     27  H1  UNL     1     -15.635  -9.067 -20.198  1.00  0.00     0.161 HD
BRANCH  26  28
HETATM   28  C4  UNL     1     -13.721  -9.714 -20.703  1.00  0.00     0.121 C 
BRANCH  28  29
HETATM   29  C3  UNL     1     -13.292  -9.120 -22.019  1.00  0.00     0.019 C 
BRANCH  29  30
HETATM   30  C2  UNL     1     -12.043  -9.854 -22.459  1.00  0.00    -0.003 C 
HETATM   31  C1  UNL     1     -11.570  -9.435 -23.814  1.00  0.00     0.005 C 
ENDBRANCH  29  30
ENDBRANCH  28  29
ENDBRANCH  26  28
ENDBRANCH   1  26
TORSDOF 7
ENDMDL
MODEL 4
REMARK VINA RESULT: -7.466037596      1.532      4.115
REMARK  7 active torsions:
REMARK  status: ('A' for Active; 'I' for Inactive)
REMARK    1  A    between atoms: C2_2  and  C3_3 
REMARK    2  A    between atoms: C3_3  and  C4_4 
REMARK    3  A    between atoms: C4_4  and  N1_5 
REMARK    4  A    between atoms: N1_5  and  C5_7 
REMARK    5  A    between atoms: C7_9  and  C8_10 
REMARK    6  A    between atoms: C8_10  and  N2_11 
REMARK    7  A    between atoms: C15_22  and  C16_23 
REMARK       I    between atoms: C16_23  and  N4_25 
ROOT
HETATM    1  C5  UNL     1     -15.500 -14.741 -19.136  1.00  0.00     0.103 A 
HETATM    2  C6  UNL     1     -16.016 -14.345 -20.348  1.00  0.00     0.058 A 
HETATM    3  C7  UNL     1     -15.961 -13.007 -20.755  1.00  0.00    -0.016 A 
HETATM    4  C15 UNL     1     -15.367 -12.118 -19.884  1.00  0.00     0.096 A 
HETATM    5  C19 UNL     1     -14.853 -12.559 -18.659  1.00  0.00     0.206 A 
HETATM    6  F1  UNL     1     -14.267 -11.699 -17.795  1.00  0.00    -0.185 F 
HETATM    7  N5  UNL     1     -14.928 -13.860 -18.307  1.00  0.00    -0.318 N 
ATOM      8  H5  UNL     1     -14.551 -14.170 -17.411  1.00  0.00     0.169 HD
ENDROOT
BRANCH   3   9
HETATM    9  C8  UNL     1     -16.487 -12.505 -22.022  1.00  0.00     0.166 C 
BRANCH   9  10
HETATM   10  N2  UNL     1     -17.935 -12.448 -22.055  1.00  0.00    -0.337 N 
HETATM   11  C9  UNL     1     -18.718 -11.597 -21.179  1.00  0.00     0.228 C 
HETATM   12  C10 UNL     1     -19.929 -12.316 -20.717  1.00  0.00     0.236 C 
HETATM   13  O1  UNL     1     -20.311 -12.179 -19.528  1.00  0.00    -0.272 OA
HETATM   14  N3  UNL     1     -20.650 -13.154 -21.612  1.00  0.00    -0.342 N 
HETATM   15  C11 UNL     1     -20.117 -13.438 -22.947  1.00  0.00     0.106 C 
ATOM     16  H3  UNL     1     -21.542 -13.558 -21.324  1.00  0.00     0.163 HD
HETATM   17  C12 UNL     1     -20.737 -12.577 -23.998  1.00  0.00     0.048 C 
HETATM   18  C13 UNL     1     -20.389 -14.901 -23.307  1.00  0.00     0.048 C 
HETATM   19  C14 UNL     1     -18.649 -13.259 -22.981  1.00  0.00     0.248 C 
HETATM   20  O2  UNL     1     -17.969 -13.845 -23.869  1.00  0.00    -0.271 OA
ENDBRANCH   9  10
ENDBRANCH   3   9
BRANCH   4  21
HETATM   21  C16 UNL     1     -15.232 -10.690 -20.172  1.00  0.00     0.258 C 
HETATM   22  O3  UNL     1     -16.094  -9.840 -19.817  1.00  0.00    -0.267 OA
HETATM   23  N4  UNL     1     -14.094 -10.216 -20.879  1.00  0.00    -0.356 N 
HETATM   24  C17 UNL     1     -13.067 -11.143 -21.311  1.00  0.00     0.152 C 
HETATM   25  C18 UNL     1     -13.902  -8.816 -21.196  1.00  0.00     0.152 C 
ENDBRANCH   4  21
BRANCH   1  26
HETATM   26  N1  UNL     1     -15.571 -15.960 -18.805  1.00  0.00    -0.376 N 
ATOM     27  H1  UNL     1     -16.187 -16.177 -18.022  1.00  0.00     0.161 HD
BRANCH  26  28
HETATM   28  C4  UNL     1     -14.894 -17.064 -19.392  1.00  0.00     0.121 C 
BRANCH  28  29
HETATM   29  C3  UNL     1     -13.395 -16.915 -19.415  1.00  0.00     0.019 C 
BRANCH  29  30
HETATM   30  C2  UNL     1     -12.985 -16.703 -20.858  1.00  0.00    -0.003 C 
HETATM   31  C1  UNL     1     -12.450 -15.331 -21.113  1.00  0.00     0.005 C 
ENDBRANCH  29  30
ENDBRANCH  28  29
ENDBRANCH  26  28
ENDBRANCH   1  26
TORSDOF 7
ENDMDL
MODEL 5
REMARK VINA RESULT: -7.453316899      2.515      5.835
REMARK  7 active torsions:
REMARK  status: ('A' for Active; 'I' for Inactive)
REMARK    1  A    between atoms: C2_2  and  C3_3 
REMARK    2  A    between atoms: C3_3  and  C4_4 
REMARK    3  A    between atoms: C4_4  and  N1_5 
REMARK    4  A    between atoms: N1_5  and  C5_7 
REMARK    5  A    between atoms: C7_9  and  C8_10 
REMARK    6  A    between atoms: C8_10  and  N2_11 
REMARK    7  A    between atoms: C15_22  and  C16_23 
REMARK       I    between atoms: C16_23  and  N4_25 
ROOT
HETATM    1  C5  UNL     1     -16.957 -15.197 -20.947  1.00  0.00     0.103 A 
HETATM    2  C6  UNL     1     -16.300 -14.238 -20.212  1.00  0.00     0.058 A 
HETATM    3  C7  UNL     1     -15.094 -14.524 -19.562  1.00  0.00    -0.016 A 
HETATM    4  C15 UNL     1     -14.605 -15.806 -19.698  1.00  0.00     0.096 A 
HETATM    5  C19 UNL     1     -15.303 -16.756 -20.456  1.00  0.00     0.206 A 
HETATM    6  F1  UNL     1     -14.835 -18.017 -20.598  1.00  0.00    -0.185 F 
HETATM    7  N5  UNL     1     -16.463 -16.436 -21.066  1.00  0.00    -0.318 N 
ATOM      8  H5  UNL     1     -16.963 -17.136 -21.614  1.00  0.00     0.169 HD
ENDROOT
BRANCH   3   9
HETATM    9  C8  UNL     1     -14.338 -13.565 -18.760  1.00  0.00     0.166 C 
BRANCH   9  10
HETATM   10  N2  UNL     1     -14.568 -12.189 -19.153  1.00  0.00    -0.337 N 
HETATM   11  C9  UNL     1     -15.721 -11.420 -18.723  1.00  0.00     0.228 C 
HETATM   12  C10 UNL     1     -16.227 -10.591 -19.843  1.00  0.00     0.236 C 
HETATM   13  O1  UNL     1     -17.467 -10.464 -20.003  1.00  0.00    -0.272 OA
HETATM   14  N3  UNL     1     -15.317  -9.945 -20.725  1.00  0.00    -0.342 N 
HETATM   15  C11 UNL     1     -13.880 -10.221 -20.633  1.00  0.00     0.106 C 
ATOM     16  H3  UNL     1     -15.665  -9.288 -21.423  1.00  0.00     0.163 HD
HETATM   17  C12 UNL     1     -13.151  -9.168 -19.866  1.00  0.00     0.048 C 
HETATM   18  C13 UNL     1     -13.281 -10.288 -22.040  1.00  0.00     0.048 C 
HETATM   19  C14 UNL     1     -13.632 -11.536 -20.003  1.00  0.00     0.248 C 
HETATM   20  O2  UNL     1     -12.539 -12.133 -20.214  1.00  0.00    -0.271 OA
ENDBRANCH   9  10
ENDBRANCH   3   9
BRANCH   4  21
HETATM   21  C16 UNL     1     -13.357 -16.253 -19.081  1.00  0.00     0.258 C 
HETATM   22  O3  UNL     1     -13.314 -16.776 -17.934  1.00  0.00    -0.267 OA
HETATM   23  N4  UNL     1     -12.130 -16.102 -19.781  1.00  0.00    -0.356 N 
HETATM   24  C17 UNL     1     -12.113 -15.511 -21.103  1.00  0.00     0.152 C 
HETATM   25  C18 UNL     1     -10.860 -16.523 -19.224  1.00  0.00     0.152 C 
ENDBRANCH   4  21
BRANCH   1  26
HETATM   26  N1  UNL     1     -18.044 -14.899 -21.519  1.00  0.00    -0.376 N 
ATOM     27  H1  UNL     1     -18.522 -15.661 -22.000  1.00  0.00     0.161 HD
BRANCH  26  28
HETATM   28  C4  UNL     1     -18.682 -13.629 -21.573  1.00  0.00     0.121 C 
BRANCH  28  29
HETATM   29  C3  UNL     1     -19.959 -13.556 -20.777  1.00  0.00     0.019 C 
BRANCH  29  30
HETATM   30  C2  UNL     1     -20.379 -12.102 -20.731  1.00  0.00    -0.003 C 
HETATM   31  C1  UNL     1     -20.500 -11.577 -19.336  1.00  0.00     0.005 C 
ENDBRANCH  29  30
ENDBRANCH  28  29
ENDBRANCH  26  28
ENDBRANCH   1  26
TORSDOF 7
ENDMDL
