MODEL 1
REMARK VINA RESULT: -6.696594649      0.000      0.000
REMARK  9 active torsions:
REMARK  status: ('A' for Active; 'I' for Inactive)
REMARK    1  A    between atoms: C2_2  and  S1_3 
REMARK    2  A    between atoms: C2_2  and  C13_17 
REMARK    3  A    between atoms: S1_3  and  C3_4 
REMARK    4  A    between atoms: C3_4  and  C4_5 
REMARK    5  A    between atoms: C4_5  and  S2_6 
REMARK    6  A    between atoms: S2_6  and  C5_9 
REMARK    7  A    between atoms: C5_9  and  C6_10 
REMARK    8  A    between atoms: C13_17  and  O3_18 
REMARK    9  A    between atoms: N1_20  and  O4_22 
ROOT
HETATM    1  C4  UNL     1      13.446 -28.237  -8.371  1.00  0.00     0.150 C 
ENDROOT
BRANCH   1   2
HETATM    2  C3  UNL     1      12.620 -27.425  -9.309  1.00  0.00     0.089 C 
BRANCH   2   3
HETATM    3  S1  UNL     1      12.565 -25.716  -8.808  1.00  0.00    -0.155 SA
BRANCH   3   4
HETATM    4  C2  UNL     1      11.461 -24.745  -9.843  1.00  0.00     0.119 C 
HETATM    5  C1  UNL     1      12.051 -23.481 -10.355  1.00  0.00     0.030 C 
BRANCH   4   6
HETATM    6  C13 UNL     1      10.209 -24.565  -9.057  1.00  0.00     0.149 C 
HETATM    7  N1  UNL     1       9.233 -23.854  -9.349  1.00  0.00    -0.250 N 
ATOM      8  H1  UNL     1       8.483 -23.886  -8.659  1.00  0.00     0.196 HD
BRANCH   6   9
HETATM    9  O3  UNL     1      10.175 -25.302  -7.848  1.00  0.00    -0.347 OA
ATOM     10  H3  UNL     1       9.608 -24.929  -7.184  1.00  0.00     0.219 HD
ENDBRANCH   6   9
BRANCH   7  11
HETATM   11  O4  UNL     1       8.972 -23.059 -10.386  1.00  0.00    -0.288 OA
ATOM     12  H4  UNL     1       8.544 -23.209 -11.221  1.00  0.00     0.244 HD
ENDBRANCH   7  11
ENDBRANCH   4   6
ENDBRANCH   3   4
ENDBRANCH   2   3
ENDBRANCH   1   2
BRANCH   1  13
HETATM   13  S2  UNL     1      14.628 -29.140  -9.392  1.00  0.00     0.145 S 
HETATM   14  O1  UNL     1      14.381 -28.703 -10.801  1.00  0.00    -0.228 OA
HETATM   15  O2  UNL     1      14.476 -30.614  -9.217  1.00  0.00    -0.228 OA
BRANCH  13  16
HETATM   16  C5  UNL     1      16.250 -28.620  -8.866  1.00  0.00     0.145 C 
BRANCH  16  17
HETATM   17  C6  UNL     1      16.632 -27.413  -9.636  1.00  0.00     0.007 C 
HETATM   18  C7  UNL     1      17.505 -26.398  -8.955  1.00  0.00    -0.009 C 
HETATM   19  C8  UNL     1      18.586 -27.003  -8.114  1.00  0.00     0.005 C 
HETATM   20  C12 UNL     1      18.107 -26.114 -10.340  1.00  0.00     0.010 C 
HETATM   21  C9  UNL     1      19.518 -27.877  -8.911  1.00  0.00     0.001 C 
HETATM   22  C10 UNL     1      18.884 -28.406 -10.169  1.00  0.00     0.005 C 
HETATM   23  C11 UNL     1      17.735 -27.573 -10.655  1.00  0.00    -0.009 C 
ENDBRANCH  16  17
ENDBRANCH  13  16
ENDBRANCH   1  13
TORSDOF 9
ENDMDL
MODEL 2
REMARK VINA RESULT: -6.666309566      0.899      1.209
REMARK  9 active torsions:
REMARK  status: ('A' for Active; 'I' for Inactive)
REMARK    1  A    between atoms: C2_2  and  S1_3 
REMARK    2  A    between atoms: C2_2  and  C13_17 
REMARK    3  A    between atoms: S1_3  and  C3_4 
REMARK    4  A    between atoms: C3_4  and  C4_5 
REMARK    5  A    between atoms: C4_5  and  S2_6 
REMARK    6  A    between atoms: S2_6  and  C5_9 
REMARK    7  A    between atoms: C5_9  and  C6_10 
REMARK    8  A    between atoms: C13_17  and  O3_18 
REMARK    9  A    between atoms: N1_20  and  O4_22 
ROOT
HETATM    1  C4  UNL     1      13.629 -28.359  -9.910  1.00  0.00     0.150 C 
ENDROOT
BRANCH   1   2
HETATM    2  C3  UNL     1      13.608 -26.901  -9.596  1.00  0.00     0.089 C 
BRANCH   2   3
HETATM    3  S1  UNL     1      12.038 -26.410  -8.912  1.00  0.00    -0.155 SA
BRANCH   3   4
HETATM    4  C2  UNL     1      11.272 -25.092  -9.864  1.00  0.00     0.119 C 
HETATM    5  C1  UNL     1      12.204 -24.011 -10.281  1.00  0.00     0.030 C 
BRANCH   4   6
HETATM    6  C13 UNL     1      10.108 -24.623  -9.060  1.00  0.00     0.149 C 
HETATM    7  N1  UNL     1       9.279 -23.753  -9.374  1.00  0.00    -0.250 N 
ATOM      8  H1  UNL     1       8.563 -23.596  -8.665  1.00  0.00     0.196 HD
BRANCH   6   9
HETATM    9  O3  UNL     1       9.977 -25.267  -7.806  1.00  0.00    -0.347 OA
ATOM     10  H3  UNL     1       9.259 -24.940  -7.277  1.00  0.00     0.219 HD
ENDBRANCH   6   9
BRANCH   7  11
HETATM   11  O4  UNL     1       9.140 -22.985 -10.453  1.00  0.00    -0.288 OA
ATOM     12  H4  UNL     1       9.722 -22.774 -11.174  1.00  0.00     0.244 HD
ENDBRANCH   7  11
ENDBRANCH   4   6
ENDBRANCH   3   4
ENDBRANCH   2   3
ENDBRANCH   1   2
BRANCH   1  13
HETATM   13  S2  UNL     1      15.352 -28.877  -9.788  1.00  0.00     0.145 S 
HETATM   14  O1  UNL     1      15.721 -29.417 -11.133  1.00  0.00    -0.228 OA
HETATM   15  O2  UNL     1      15.538 -29.881  -8.699  1.00  0.00    -0.228 OA
BRANCH  13  16
HETATM   16  C5  UNL     1      16.297 -27.407  -9.438  1.00  0.00     0.145 C 
BRANCH  16  17
HETATM   17  C6  UNL     1      17.402 -27.311 -10.421  1.00  0.00     0.007 C 
HETATM   18  C7  UNL     1      18.180 -26.026 -10.475  1.00  0.00    -0.009 C 
HETATM   19  C8  UNL     1      18.453 -25.433  -9.128  1.00  0.00     0.005 C 
HETATM   20  C12 UNL     1      19.398 -26.880 -10.855  1.00  0.00     0.010 C 
HETATM   21  C9  UNL     1      19.246 -26.355  -8.240  1.00  0.00     0.001 C 
HETATM   22  C10 UNL     1      19.103 -27.801  -8.631  1.00  0.00     0.005 C 
HETATM   23  C11 UNL     1      18.699 -27.997 -10.062  1.00  0.00    -0.009 C 
ENDBRANCH  16  17
ENDBRANCH  13  16
ENDBRANCH   1  13
TORSDOF 9
ENDMDL
MODEL 3
REMARK VINA RESULT: -6.608952929      1.107      1.368
REMARK  9 active torsions:
REMARK  status: ('A' for Active; 'I' for Inactive)
REMARK    1  A    between atoms: C2_2  and  S1_3 
REMARK    2  A    between atoms: C2_2  and  C13_17 
REMARK    3  A    between atoms: S1_3  and  C3_4 
REMARK    4  A    between atoms: C3_4  and  C4_5 
REMARK    5  A    between atoms: C4_5  and  S2_6 
REMARK    6  A    between atoms: S2_6  and  C5_9 
REMARK    7  A    between atoms: C5_9  and  C6_10 
REMARK    8  A    between atoms: C13_17  and  O3_18 
REMARK    9  A    between atoms: N1_20  and  O4_22 
ROOT
HETATM    1  C4  UNL     1      14.737 -27.048  -9.251  1.00  0.00     0.150 C 
ENDROOT
BRANCH   1   2
HETATM    2  C3  UNL     1      13.353 -27.341  -9.720  1.00  0.00     0.089 C 
BRANCH   2   3
HETATM    3  S1  UNL     1      12.148 -26.402  -8.803  1.00  0.00    -0.155 SA
BRANCH   3   4
HETATM    4  C2  UNL     1      11.296 -25.205  -9.838  1.00  0.00     0.119 C 
HETATM    5  C1  UNL     1      12.171 -24.143 -10.399  1.00  0.00     0.030 C 
BRANCH   4   6
HETATM    6  C13 UNL     1      10.153 -24.697  -9.029  1.00  0.00     0.149 C 
HETATM    7  N1  UNL     1       9.344 -23.809  -9.345  1.00  0.00    -0.250 N 
ATOM      8  H1  UNL     1       8.639 -23.625  -8.630  1.00  0.00     0.196 HD
BRANCH   6   9
HETATM    9  O3  UNL     1      10.018 -25.322  -7.765  1.00  0.00    -0.347 OA
ATOM     10  H3  UNL     1       9.122 -25.380  -7.457  1.00  0.00     0.219 HD
ENDBRANCH   6   9
BRANCH   7  11
HETATM   11  O4  UNL     1       9.214 -23.050 -10.432  1.00  0.00    -0.288 OA
ATOM     12  H4  UNL     1       9.072 -23.256 -11.349  1.00  0.00     0.244 HD
ENDBRANCH   7  11
ENDBRANCH   4   6
ENDBRANCH   3   4
ENDBRANCH   2   3
ENDBRANCH   1   2
BRANCH   1  13
HETATM   13  S2  UNL     1      15.734 -28.487  -9.691  1.00  0.00     0.145 S 
HETATM   14  O1  UNL     1      14.981 -29.201 -10.767  1.00  0.00    -0.228 OA
HETATM   15  O2  UNL     1      15.986 -29.351  -8.501  1.00  0.00    -0.228 OA
BRANCH  13  16
HETATM   16  C5  UNL     1      17.272 -27.858 -10.333  1.00  0.00     0.145 C 
BRANCH  16  17
HETATM   17  C6  UNL     1      17.496 -26.502  -9.778  1.00  0.00     0.007 C 
HETATM   18  C7  UNL     1      18.464 -26.365  -8.637  1.00  0.00    -0.009 C 
HETATM   19  C8  UNL     1      19.685 -27.221  -8.780  1.00  0.00     0.005 C 
HETATM   20  C12 UNL     1      18.806 -24.980  -9.207  1.00  0.00     0.010 C 
HETATM   21  C9  UNL     1      20.471 -26.903 -10.025  1.00  0.00     0.001 C 
HETATM   22  C10 UNL     1      19.629 -26.262 -11.094  1.00  0.00     0.005 C 
HETATM   23  C11 UNL     1      18.402 -25.583 -10.563  1.00  0.00    -0.009 C 
ENDBRANCH  16  17
ENDBRANCH  13  16
ENDBRANCH   1  13
TORSDOF 9
ENDMDL
MODEL 4
REMARK VINA RESULT: -6.550483397      2.244      3.291
REMARK  9 active torsions:
REMARK  status: ('A' for Active; 'I' for Inactive)
REMARK    1  A    between atoms: C2_2  and  S1_3 
REMARK    2  A    between atoms: C2_2  and  C13_17 
REMARK    3  A    between atoms: S1_3  and  C3_4 
REMARK    4  A    between atoms: C3_4  and  C4_5 
REMARK    5  A    between atoms: C4_5  and  S2_6 
REMARK    6  A    between atoms: S2_6  and  C5_9 
REMARK    7  A    between atoms: C5_9  and  C6_10 
REMARK    8  A    between atoms: C13_17  and  O3_18 
REMARK    9  A    between atoms: N1_20  and  O4_22 
ROOT
HETATM    1  C4  UNL     1      13.213 -28.311  -9.950  1.00  0.00     0.150 C 
ENDROOT
BRANCH   1   2
HETATM    2  C3  UNL     1      13.577 -26.918  -9.562  1.00  0.00     0.089 C 
BRANCH   2   3
HETATM    3  S1  UNL     1      12.236 -26.113  -8.711  1.00  0.00    -0.155 SA
BRANCH   3   4
HETATM    4  C2  UNL     1      11.369 -24.947  -9.769  1.00  0.00     0.119 C 
HETATM    5  C1  UNL     1      12.187 -23.785 -10.204  1.00  0.00     0.030 C 
BRANCH   4   6
HETATM    6  C13 UNL     1      10.119 -24.582  -9.047  1.00  0.00     0.149 C 
HETATM    7  N1  UNL     1       9.258 -23.760  -9.401  1.00  0.00    -0.250 N 
ATOM      8  H1  UNL     1       8.481 -23.673  -8.746  1.00  0.00     0.196 HD
BRANCH   6   9
HETATM    9  O3  UNL     1       9.938 -25.270  -7.823  1.00  0.00    -0.347 OA
ATOM     10  H3  UNL     1      10.733 -25.655  -7.474  1.00  0.00     0.219 HD
ENDBRANCH   6   9
BRANCH   7  11
HETATM   11  O4  UNL     1       9.147 -22.970 -10.468  1.00  0.00    -0.288 OA
ATOM     12  H4  UNL     1       8.603 -23.010 -11.247  1.00  0.00     0.244 HD
ENDBRANCH   7  11
ENDBRANCH   4   6
ENDBRANCH   3   4
ENDBRANCH   2   3
ENDBRANCH   1   2
BRANCH   1  13
HETATM   13  S2  UNL     1      14.696 -29.308  -9.704  1.00  0.00     0.145 S 
HETATM   14  O1  UNL     1      15.593 -29.014 -10.864  1.00  0.00    -0.228 OA
HETATM   15  O2  UNL     1      14.359 -30.758  -9.596  1.00  0.00    -0.228 OA
BRANCH  13  16
HETATM   16  C5  UNL     1      15.444 -28.735  -8.191  1.00  0.00     0.145 C 
BRANCH  16  17
HETATM   17  C6  UNL     1      14.821 -29.453  -7.055  1.00  0.00     0.007 C 
HETATM   18  C7  UNL     1      15.677 -29.735  -5.853  1.00  0.00    -0.009 C 
HETATM   19  C8  UNL     1      16.590 -28.605  -5.488  1.00  0.00     0.005 C 
HETATM   20  C12 UNL     1      14.400 -29.581  -5.014  1.00  0.00     0.010 C 
HETATM   21  C9  UNL     1      15.842 -27.338  -5.170  1.00  0.00     0.001 C 
HETATM   22  C10 UNL     1      14.481 -27.292  -5.810  1.00  0.00     0.005 C 
HETATM   23  C11 UNL     1      13.929 -28.647  -6.141  1.00  0.00    -0.009 C 
ENDBRANCH  16  17
ENDBRANCH  13  16
ENDBRANCH   1  13
TORSDOF 9
ENDMDL
MODEL 5
REMARK VINA RESULT: -6.524284037      0.701      1.610
REMARK  9 active torsions:
REMARK  status: ('A' for Active; 'I' for Inactive)
REMARK    1  A    between atoms: C2_2  and  S1_3 
REMARK    2  A    between atoms: C2_2  and  C13_17 
REMARK    3  A    between atoms: S1_3  and  C3_4 
REMARK    4  A    between atoms: C3_4  and  C4_5 
REMARK    5  A    between atoms: C4_5  and  S2_6 
REMARK    6  A    between atoms: S2_6  and  C5_9 
REMARK    7  A    between atoms: C5_9  and  C6_10 
REMARK    8  A    between atoms: C13_17  and  O3_18 
REMARK    9  A    between atoms: N1_20  and  O4_22 
ROOT
HETATM    1  C4  UNL     1      13.499 -28.334  -8.642  1.00  0.00     0.150 C 
ENDROOT
BRANCH   1   2
HETATM    2  C3  UNL     1      12.882 -27.379  -9.606  1.00  0.00     0.089 C 
BRANCH   2   3
HETATM    3  S1  UNL     1      12.518 -25.819  -8.826  1.00  0.00    -0.155 SA
BRANCH   3   4
HETATM    4  C2  UNL     1      11.446 -24.793  -9.840  1.00  0.00     0.119 C 
HETATM    5  C1  UNL     1      12.079 -23.541 -10.333  1.00  0.00     0.030 C 
BRANCH   4   6
HETATM    6  C13 UNL     1      10.203 -24.582  -9.047  1.00  0.00     0.149 C 
HETATM    7  N1  UNL     1       9.238 -23.858  -9.340  1.00  0.00    -0.250 N 
ATOM      8  H1  UNL     1       8.492 -23.869  -8.644  1.00  0.00     0.196 HD
BRANCH   6   9
HETATM    9  O3  UNL     1      10.165 -25.307  -7.831  1.00  0.00    -0.347 OA
ATOM     10  H3  UNL     1      10.959 -25.236  -7.315  1.00  0.00     0.219 HD
ENDBRANCH   6   9
BRANCH   7  11
HETATM   11  O4  UNL     1       8.983 -23.069 -10.383  1.00  0.00    -0.288 OA
ATOM     12  H4  UNL     1       9.449 -22.903 -11.195  1.00  0.00     0.244 HD
ENDBRANCH   7  11
ENDBRANCH   4   6
ENDBRANCH   3   4
ENDBRANCH   2   3
ENDBRANCH   1   2
BRANCH   1  13
HETATM   13  S2  UNL     1      15.132 -28.731  -9.299  1.00  0.00     0.145 S 
HETATM   14  O1  UNL     1      14.942 -28.987 -10.760  1.00  0.00    -0.228 OA
HETATM   15  O2  UNL     1      15.730 -29.899  -8.589  1.00  0.00    -0.228 OA
BRANCH  13  16
HETATM   16  C5  UNL     1      16.139 -27.280  -9.058  1.00  0.00     0.145 C 
BRANCH  16  17
HETATM   17  C6  UNL     1      17.505 -27.711  -8.681  1.00  0.00     0.007 C 
HETATM   18  C7  UNL     1      18.470 -28.025  -9.789  1.00  0.00    -0.009 C 
HETATM   19  C8  UNL     1      18.381 -27.079 -10.947  1.00  0.00     0.005 C 
HETATM   20  C12 UNL     1      19.575 -27.506  -8.857  1.00  0.00     0.010 C 
HETATM   21  C9  UNL     1      18.661 -25.654 -10.551  1.00  0.00     0.001 C 
HETATM   22  C10 UNL     1      18.403 -25.396  -9.092  1.00  0.00     0.005 C 
HETATM   23  C11 UNL     1      18.467 -26.632  -8.245  1.00  0.00    -0.009 C 
ENDBRANCH  16  17
ENDBRANCH  13  16
ENDBRANCH   1  13
TORSDOF 9
ENDMDL
