MODEL 1
REMARK VINA RESULT: -6.827512159      0.000      0.000
REMARK  11 active torsions:
REMARK  status: ('A' for Active; 'I' for Inactive)
REMARK    1  A    between atoms: C3_3  and  C4_4 
REMARK    2  A    between atoms: C4_4  and  C5_5 
REMARK    3  A    between atoms: C5_5  and  C6_6 
REMARK    4  A    between atoms: C6_6  and  N1_7 
REMARK    5  A    between atoms: N2_10  and  C9_11 
REMARK    6  A    between atoms: C9_11  and  C10_12 
REMARK    7  A    between atoms: C11_13  and  C12_14 
REMARK    8  A    between atoms: C13_15  and  C14_16 
REMARK    9  A    between atoms: C14_16  and  N3_17 
REMARK   10  A    between atoms: N3_17  and  C15_18 
REMARK   11  A    between atoms: C15_18  and  N4_20 
ROOT
HETATM    1  C1  UNL     1      11.914  -7.154  24.636  1.00  0.00     0.012 C 
HETATM    2  C2  UNL     1      12.231  -8.074  23.920  1.00  0.00    -0.117 C 
HETATM    3  C3  UNL     1      12.616  -9.176  23.028  1.00  0.00     0.093 C 
ENDROOT
BRANCH   3   4
HETATM    4  C4  UNL     1      11.757 -10.371  23.408  1.00  0.00     0.014 C 
BRANCH   4   5
HETATM    5  C5  UNL     1      11.793 -11.330  22.236  1.00  0.00     0.021 C 
BRANCH   5   6
HETATM    6  C6  UNL     1      12.309 -10.620  21.011  1.00  0.00     0.141 C 
BRANCH   6   7
HETATM    7  N1  UNL     1      13.314 -11.422  20.322  1.00  0.00    -0.217 N 
HETATM    8  C7  UNL     1      13.164 -12.706  19.706  1.00  0.00     0.161 C 
HETATM    9  C8  UNL     1      14.450 -12.956  18.994  1.00  0.00     0.162 C 
HETATM   10  N2  UNL     1      15.405 -12.000  19.495  1.00  0.00    -0.206 N 
HETATM   11  C19 UNL     1      14.660 -11.007  20.159  1.00  0.00     0.672 C 
HETATM   12  N6  UNL     1      15.172  -9.868  20.558  1.00  0.00    -0.235 N 
ATOM     13  H62 UNL     1      14.632  -9.148  21.038  1.00  0.00     0.174 HD
ATOM     14  H61 UNL     1      16.140  -9.569  20.441  1.00  0.00     0.174 HD
BRANCH  10  15
HETATM   15  C9  UNL     1      16.825 -12.051  19.352  1.00  0.00     0.236 C 
BRANCH  15  16
HETATM   16  C10 UNL     1      17.473 -12.532  20.599  1.00  0.00    -0.072 C 
HETATM   17  C11 UNL     1      17.997 -12.903  21.621  1.00  0.00    -0.013 C 
BRANCH  17  18
HETATM   18  C12 UNL     1      18.613 -13.315  22.832  1.00  0.00    -0.013 C 
HETATM   19  C13 UNL     1      19.130 -13.647  23.876  1.00  0.00    -0.062 C 
BRANCH  19  20
HETATM   20  C14 UNL     1      19.761 -14.026  25.149  1.00  0.00     0.366 C 
BRANCH  20  21
HETATM   21  N3  UNL     1      21.048 -13.343  25.315  1.00  0.00     0.094 N 
HETATM   22  C18 UNL     1      21.036 -11.938  25.382  1.00  0.00     0.413 A 
HETATM   23  N5  UNL     1      21.249 -12.647  26.547  1.00  0.00    -0.006 NA
BRANCH  21  24
HETATM   24  C15 UNL     1      22.197 -14.037  24.891  1.00  0.00     0.297 C 
HETATM   25  S1  UNL     1      23.403 -13.241  24.123  1.00  0.00    -0.032 SA
BRANCH  24  26
HETATM   26  N4  UNL     1      22.304 -15.423  25.132  1.00  0.00    -0.359 N 
HETATM   27  C16 UNL     1      22.458 -15.904  26.484  1.00  0.00     0.151 C 
HETATM   28  C17 UNL     1      22.264 -16.394  24.044  1.00  0.00     0.151 C 
ENDBRANCH  24  26
ENDBRANCH  21  24
ENDBRANCH  20  21
ENDBRANCH  19  20
ENDBRANCH  17  18
ENDBRANCH  15  16
ENDBRANCH  10  15
ENDBRANCH   6   7
ENDBRANCH   5   6
ENDBRANCH   4   5
ENDBRANCH   3   4
TORSDOF 11
ENDMDL
MODEL 2
REMARK VINA RESULT: -6.703929175      1.586      2.304
REMARK  11 active torsions:
REMARK  status: ('A' for Active; 'I' for Inactive)
REMARK    1  A    between atoms: C3_3  and  C4_4 
REMARK    2  A    between atoms: C4_4  and  C5_5 
REMARK    3  A    between atoms: C5_5  and  C6_6 
REMARK    4  A    between atoms: C6_6  and  N1_7 
REMARK    5  A    between atoms: N2_10  and  C9_11 
REMARK    6  A    between atoms: C9_11  and  C10_12 
REMARK    7  A    between atoms: C11_13  and  C12_14 
REMARK    8  A    between atoms: C13_15  and  C14_16 
REMARK    9  A    between atoms: C14_16  and  N3_17 
REMARK   10  A    between atoms: N3_17  and  C15_18 
REMARK   11  A    between atoms: C15_18  and  N4_20 
ROOT
HETATM    1  C1  UNL     1      12.278  -7.157  24.586  1.00  0.00     0.012 C 
HETATM    2  C2  UNL     1      11.967  -8.267  24.225  1.00  0.00    -0.117 C 
HETATM    3  C3  UNL     1      11.600  -9.627  23.809  1.00  0.00     0.093 C 
ENDROOT
BRANCH   3   4
HETATM    4  C4  UNL     1      11.957  -9.748  22.336  1.00  0.00     0.014 C 
BRANCH   4   5
HETATM    5  C5  UNL     1      11.715 -11.190  21.941  1.00  0.00     0.021 C 
BRANCH   5   6
HETATM    6  C6  UNL     1      12.976 -11.991  22.139  1.00  0.00     0.141 C 
BRANCH   6   7
HETATM    7  N1  UNL     1      13.657 -12.224  20.870  1.00  0.00    -0.217 N 
HETATM    8  C7  UNL     1      13.360 -13.195  19.861  1.00  0.00     0.161 C 
HETATM    9  C8  UNL     1      14.244 -12.855  18.710  1.00  0.00     0.162 C 
HETATM   10  N2  UNL     1      15.247 -11.944  19.201  1.00  0.00    -0.206 N 
HETATM   11  C19 UNL     1      14.776 -11.467  20.440  1.00  0.00     0.672 C 
HETATM   12  N6  UNL     1      15.321 -10.460  21.079  1.00  0.00    -0.235 N 
ATOM     13  H62 UNL     1      14.980 -10.114  21.976  1.00  0.00     0.174 HD
ATOM     14  H61 UNL     1      16.126  -9.916  20.769  1.00  0.00     0.174 HD
BRANCH  10  15
HETATM   15  C9  UNL     1      16.476 -11.596  18.563  1.00  0.00     0.236 C 
BRANCH  15  16
HETATM   16  C10 UNL     1      17.639 -11.897  19.438  1.00  0.00    -0.072 C 
HETATM   17  C11 UNL     1      18.570 -12.151  20.162  1.00  0.00    -0.013 C 
BRANCH  17  18
HETATM   18  C12 UNL     1      19.648 -12.460  21.032  1.00  0.00    -0.013 C 
HETATM   19  C13 UNL     1      20.557 -12.743  21.781  1.00  0.00    -0.062 C 
BRANCH  19  20
HETATM   20  C14 UNL     1      21.645 -13.100  22.705  1.00  0.00     0.366 C 
BRANCH  20  21
HETATM   21  N3  UNL     1      21.248 -14.218  23.567  1.00  0.00     0.094 N 
HETATM   22  C18 UNL     1      21.321 -15.515  23.028  1.00  0.00     0.413 A 
HETATM   23  N5  UNL     1      22.280 -15.132  23.944  1.00  0.00    -0.006 NA
BRANCH  21  24
HETATM   24  C15 UNL     1      20.370 -13.924  24.628  1.00  0.00     0.297 C 
HETATM   25  S1  UNL     1      20.826 -12.892  25.813  1.00  0.00    -0.032 SA
BRANCH  24  26
HETATM   26  N4  UNL     1      19.094 -14.526  24.665  1.00  0.00    -0.359 N 
HETATM   27  C16 UNL     1      18.926 -15.805  25.311  1.00  0.00     0.151 C 
HETATM   28  C17 UNL     1      17.929 -13.887  24.064  1.00  0.00     0.151 C 
ENDBRANCH  24  26
ENDBRANCH  21  24
ENDBRANCH  20  21
ENDBRANCH  19  20
ENDBRANCH  17  18
ENDBRANCH  15  16
ENDBRANCH  10  15
ENDBRANCH   6   7
ENDBRANCH   5   6
ENDBRANCH   4   5
ENDBRANCH   3   4
TORSDOF 11
ENDMDL
MODEL 3
REMARK VINA RESULT: -6.355191600      1.509      1.883
REMARK  11 active torsions:
REMARK  status: ('A' for Active; 'I' for Inactive)
REMARK    1  A    between atoms: C3_3  and  C4_4 
REMARK    2  A    between atoms: C4_4  and  C5_5 
REMARK    3  A    between atoms: C5_5  and  C6_6 
REMARK    4  A    between atoms: C6_6  and  N1_7 
REMARK    5  A    between atoms: N2_10  and  C9_11 
REMARK    6  A    between atoms: C9_11  and  C10_12 
REMARK    7  A    between atoms: C11_13  and  C12_14 
REMARK    8  A    between atoms: C13_15  and  C14_16 
REMARK    9  A    between atoms: C14_16  and  N3_17 
REMARK   10  A    between atoms: N3_17  and  C15_18 
REMARK   11  A    between atoms: C15_18  and  N4_20 
ROOT
HETATM    1  C1  UNL     1      11.975  -7.349  24.663  1.00  0.00     0.012 C 
HETATM    2  C2  UNL     1      12.277  -8.200  23.861  1.00  0.00    -0.117 C 
HETATM    3  C3  UNL     1      12.643  -9.217  22.866  1.00  0.00     0.093 C 
ENDROOT
BRANCH   3   4
HETATM    4  C4  UNL     1      11.870 -10.478  23.221  1.00  0.00     0.014 C 
BRANCH   4   5
HETATM    5  C5  UNL     1      12.405 -11.585  22.337  1.00  0.00     0.021 C 
BRANCH   5   6
HETATM    6  C6  UNL     1      12.560 -11.082  20.925  1.00  0.00     0.141 C 
BRANCH   6   7
HETATM    7  N1  UNL     1      13.715 -11.688  20.273  1.00  0.00    -0.217 N 
HETATM    8  C7  UNL     1      13.821 -12.978  19.660  1.00  0.00     0.161 C 
HETATM    9  C8  UNL     1      15.153 -12.992  18.992  1.00  0.00     0.162 C 
HETATM   10  N2  UNL     1      15.903 -11.879  19.519  1.00  0.00    -0.206 N 
HETATM   11  C19 UNL     1      14.969 -11.036  20.153  1.00  0.00     0.672 C 
HETATM   12  N6  UNL     1      15.253  -9.824  20.562  1.00  0.00    -0.235 N 
ATOM     13  H62 UNL     1      14.576  -9.214  21.020  1.00  0.00     0.174 HD
ATOM     14  H61 UNL     1      16.154  -9.355  20.475  1.00  0.00     0.174 HD
BRANCH  10  15
HETATM   15  C9  UNL     1      17.313 -11.671  19.423  1.00  0.00     0.236 C 
BRANCH  15  16
HETATM   16  C10 UNL     1      18.009 -12.140  20.649  1.00  0.00    -0.072 C 
HETATM   17  C11 UNL     1      18.558 -12.511  21.657  1.00  0.00    -0.013 C 
BRANCH  17  18
HETATM   18  C12 UNL     1      19.188 -12.934  22.857  1.00  0.00    -0.013 C 
HETATM   19  C13 UNL     1      19.708 -13.309  23.885  1.00  0.00    -0.062 C 
BRANCH  19  20
HETATM   20  C14 UNL     1      20.316 -13.771  25.142  1.00  0.00     0.366 C 
BRANCH  20  21
HETATM   21  N3  UNL     1      21.163 -14.945  24.908  1.00  0.00     0.094 N 
HETATM   22  C18 UNL     1      22.532 -14.726  24.667  1.00  0.00     0.413 A 
HETATM   23  N5  UNL     1      22.155 -15.227  25.897  1.00  0.00    -0.006 NA
BRANCH  21  24
HETATM   24  C15 UNL     1      20.524 -16.108  24.436  1.00  0.00     0.297 C 
HETATM   25  S1  UNL     1      19.236 -16.723  25.237  1.00  0.00    -0.032 SA
BRANCH  24  26
HETATM   26  N4  UNL     1      21.000 -16.742  23.268  1.00  0.00    -0.359 N 
HETATM   27  C16 UNL     1      21.879 -17.880  23.382  1.00  0.00     0.151 C 
HETATM   28  C17 UNL     1      20.626 -16.275  21.938  1.00  0.00     0.151 C 
ENDBRANCH  24  26
ENDBRANCH  21  24
ENDBRANCH  20  21
ENDBRANCH  19  20
ENDBRANCH  17  18
ENDBRANCH  15  16
ENDBRANCH  10  15
ENDBRANCH   6   7
ENDBRANCH   5   6
ENDBRANCH   4   5
ENDBRANCH   3   4
TORSDOF 11
ENDMDL
MODEL 4
REMARK VINA RESULT: -6.171149129      1.346      2.039
REMARK  11 active torsions:
REMARK  status: ('A' for Active; 'I' for Inactive)
REMARK    1  A    between atoms: C3_3  and  C4_4 
REMARK    2  A    between atoms: C4_4  and  C5_5 
REMARK    3  A    between atoms: C5_5  and  C6_6 
REMARK    4  A    between atoms: C6_6  and  N1_7 
REMARK    5  A    between atoms: N2_10  and  C9_11 
REMARK    6  A    between atoms: C9_11  and  C10_12 
REMARK    7  A    between atoms: C11_13  and  C12_14 
REMARK    8  A    between atoms: C13_15  and  C14_16 
REMARK    9  A    between atoms: C14_16  and  N3_17 
REMARK   10  A    between atoms: N3_17  and  C15_18 
REMARK   11  A    between atoms: C15_18  and  N4_20 
ROOT
HETATM    1  C1  UNL     1      12.273  -7.061  24.852  1.00  0.00     0.012 C 
HETATM    2  C2  UNL     1      12.305  -7.920  24.004  1.00  0.00    -0.117 C 
HETATM    3  C3  UNL     1      12.335  -8.946  22.953  1.00  0.00     0.093 C 
ENDROOT
BRANCH   3   4
HETATM    4  C4  UNL     1      11.660 -10.182  23.525  1.00  0.00     0.014 C 
BRANCH   4   5
HETATM    5  C5  UNL     1      12.139 -11.364  22.708  1.00  0.00     0.021 C 
BRANCH   5   6
HETATM    6  C6  UNL     1      12.279 -10.961  21.262  1.00  0.00     0.141 C 
BRANCH   6   7
HETATM    7  N1  UNL     1      13.476 -11.545  20.667  1.00  0.00    -0.217 N 
HETATM    8  C7  UNL     1      13.684 -12.885  20.207  1.00  0.00     0.161 C 
HETATM    9  C8  UNL     1      15.008 -12.869  19.523  1.00  0.00     0.162 C 
HETATM   10  N2  UNL     1      15.667 -11.644  19.903  1.00  0.00    -0.206 N 
HETATM   11  C19 UNL     1      14.670 -10.812  20.450  1.00  0.00     0.672 C 
HETATM   12  N6  UNL     1      14.856  -9.541  20.709  1.00  0.00    -0.235 N 
ATOM     13  H62 UNL     1      14.135  -8.937  21.104  1.00  0.00     0.174 HD
ATOM     14  H61 UNL     1      15.715  -9.014  20.552  1.00  0.00     0.174 HD
BRANCH  10  15
HETATM   15  C9  UNL     1      17.054 -11.336  19.760  1.00  0.00     0.236 C 
BRANCH  15  16
HETATM   16  C10 UNL     1      17.904 -12.412  20.330  1.00  0.00    -0.072 C 
HETATM   17  C11 UNL     1      18.582 -13.286  20.811  1.00  0.00    -0.013 C 
BRANCH  17  18
HETATM   18  C12 UNL     1      19.366 -14.314  21.400  1.00  0.00    -0.013 C 
HETATM   19  C13 UNL     1      20.026 -15.184  21.922  1.00  0.00    -0.062 C 
BRANCH  19  20
HETATM   20  C14 UNL     1      20.828 -16.228  22.578  1.00  0.00     0.366 C 
BRANCH  20  21
HETATM   21  N3  UNL     1      20.925 -15.979  24.020  1.00  0.00     0.094 N 
HETATM   22  C18 UNL     1      19.737 -16.026  24.772  1.00  0.00     0.413 A 
HETATM   23  N5  UNL     1      20.623 -17.079  24.881  1.00  0.00    -0.006 NA
BRANCH  21  24
HETATM   24  C15 UNL     1      22.033 -15.231  24.465  1.00  0.00     0.297 C 
HETATM   25  S1  UNL     1      23.540 -15.863  24.382  1.00  0.00    -0.032 SA
BRANCH  24  26
HETATM   26  N4  UNL     1      21.836 -13.934  24.983  1.00  0.00    -0.359 N 
HETATM   27  C16 UNL     1      22.004 -13.696  26.397  1.00  0.00     0.151 C 
HETATM   28  C17 UNL     1      21.463 -12.815  24.125  1.00  0.00     0.151 C 
ENDBRANCH  24  26
ENDBRANCH  21  24
ENDBRANCH  20  21
ENDBRANCH  19  20
ENDBRANCH  17  18
ENDBRANCH  15  16
ENDBRANCH  10  15
ENDBRANCH   6   7
ENDBRANCH   5   6
ENDBRANCH   4   5
ENDBRANCH   3   4
TORSDOF 11
ENDMDL
MODEL 5
REMARK VINA RESULT: -6.010367472      1.910      2.641
REMARK  11 active torsions:
REMARK  status: ('A' for Active; 'I' for Inactive)
REMARK    1  A    between atoms: C3_3  and  C4_4 
REMARK    2  A    between atoms: C4_4  and  C5_5 
REMARK    3  A    between atoms: C5_5  and  C6_6 
REMARK    4  A    between atoms: C6_6  and  N1_7 
REMARK    5  A    between atoms: N2_10  and  C9_11 
REMARK    6  A    between atoms: C9_11  and  C10_12 
REMARK    7  A    between atoms: C11_13  and  C12_14 
REMARK    8  A    between atoms: C13_15  and  C14_16 
REMARK    9  A    between atoms: C14_16  and  N3_17 
REMARK   10  A    between atoms: N3_17  and  C15_18 
REMARK   11  A    between atoms: C15_18  and  N4_20 
ROOT
HETATM    1  C1  UNL     1      12.262  -6.982  24.592  1.00  0.00     0.012 C 
HETATM    2  C2  UNL     1      11.945  -8.135  24.425  1.00  0.00    -0.117 C 
HETATM    3  C3  UNL     1      11.576  -9.546  24.244  1.00  0.00     0.093 C 
ENDROOT
BRANCH   3   4
HETATM    4  C4  UNL     1      11.581  -9.813  22.747  1.00  0.00     0.014 C 
BRANCH   4   5
HETATM    5  C5  UNL     1      13.028  -9.798  22.301  1.00  0.00     0.021 C 
BRANCH   5   6
HETATM    6  C6  UNL     1      13.101  -9.921  20.801  1.00  0.00     0.141 C 
BRANCH   6   7
HETATM    7  N1  UNL     1      13.142 -11.320  20.389  1.00  0.00    -0.217 N 
HETATM    8  C7  UNL     1      12.311 -12.404  20.820  1.00  0.00     0.161 C 
HETATM    9  C8  UNL     1      12.665 -13.551  19.937  1.00  0.00     0.162 C 
HETATM   10  N2  UNL     1      13.900 -13.211  19.276  1.00  0.00    -0.206 N 
HETATM   11  C19 UNL     1      14.070 -11.823  19.442  1.00  0.00     0.672 C 
HETATM   12  N6  UNL     1      14.971 -11.124  18.795  1.00  0.00    -0.235 N 
ATOM     13  H62 UNL     1      15.093 -10.119  18.915  1.00  0.00     0.174 HD
ATOM     14  H61 UNL     1      15.638 -11.486  18.114  1.00  0.00     0.174 HD
BRANCH  10  15
HETATM   15  C9  UNL     1      14.781 -14.103  18.591  1.00  0.00     0.236 C 
BRANCH  15  16
HETATM   16  C10 UNL     1      15.776 -14.694  19.523  1.00  0.00    -0.072 C 
HETATM   17  C11 UNL     1      16.585 -15.155  20.290  1.00  0.00    -0.013 C 
BRANCH  17  18
HETATM   18  C12 UNL     1      17.538 -15.674  21.205  1.00  0.00    -0.013 C 
HETATM   19  C13 UNL     1      18.368 -16.107  21.973  1.00  0.00    -0.062 C 
BRANCH  19  20
HETATM   20  C14 UNL     1      19.393 -16.636  22.887  1.00  0.00     0.366 C 
BRANCH  20  21
HETATM   21  N3  UNL     1      19.630 -15.706  23.995  1.00  0.00     0.094 N 
HETATM   22  C18 UNL     1      18.513 -15.269  24.731  1.00  0.00     0.413 A 
HETATM   23  N5  UNL     1      19.357 -16.194  25.310  1.00  0.00    -0.006 NA
BRANCH  21  24
HETATM   24  C15 UNL     1      20.805 -14.932  23.938  1.00  0.00     0.297 C 
HETATM   25  S1  UNL     1      22.264 -15.632  24.179  1.00  0.00    -0.032 SA
BRANCH  24  26
HETATM   26  N4  UNL     1      20.717 -13.549  23.673  1.00  0.00    -0.359 N 
HETATM   27  C16 UNL     1      20.970 -12.601  24.732  1.00  0.00     0.151 C 
HETATM   28  C17 UNL     1      20.376 -13.043  22.348  1.00  0.00     0.151 C 
ENDBRANCH  24  26
ENDBRANCH  21  24
ENDBRANCH  20  21
ENDBRANCH  19  20
ENDBRANCH  17  18
ENDBRANCH  15  16
ENDBRANCH  10  15
ENDBRANCH   6   7
ENDBRANCH   5   6
ENDBRANCH   4   5
ENDBRANCH   3   4
TORSDOF 11
ENDMDL
