MODEL 1
REMARK VINA RESULT: -8.214522019      0.000      0.000
REMARK  14 active torsions:
REMARK  status: ('A' for Active; 'I' for Inactive)
REMARK       I    between atoms: C1_4  and  N3_6 
REMARK    1  A    between atoms: C5_10  and  C6_11 
REMARK       I    between atoms: C6_11  and  N4_13 
REMARK    2  A    between atoms: N4_13  and  C7_15 
REMARK    3  A    between atoms: C7_15  and  C8_16 
REMARK    4  A    between atoms: C7_15  and  C24_41 
REMARK    5  A    between atoms: C8_16  and  C9_17 
REMARK    6  A    between atoms: C9_17  and  C10_18 
REMARK    7  A    between atoms: C13_21  and  O2_22 
REMARK    8  A    between atoms: O2_22  and  C14_23 
REMARK    9  A    between atoms: C14_23  and  C15_24 
REMARK   10  A    between atoms: C17_29  and  C18_30 
REMARK   11  A    between atoms: C18_30  and  C19_31 
REMARK   12  A    between atoms: C19_31  and  C20_32 
REMARK   13  A    between atoms: C20_32  and  N6_33 
REMARK   14  A    between atoms: C24_41  and  C25_42 
ROOT
HETATM    1  C8  UNL     1      19.762  47.115  43.925  1.00  0.00     0.030 C 
ENDROOT
BRANCH   1   2
HETATM    2  C7  UNL     1      19.112  45.859  43.537  1.00  0.00     0.089 C 
BRANCH   2   3
HETATM    3  N4  UNL     1      18.587  46.180  42.140  1.00  0.00    -0.354 N 
HETATM    4  C6  UNL     1      17.318  45.719  41.834  1.00  0.00     0.241 C 
HETATM    5  O1  UNL     1      16.656  45.062  42.708  1.00  0.00    -0.271 OA
ATOM      6  H4  UNL     1      19.142  46.707  41.466  1.00  0.00     0.162 HD
BRANCH   4   7
HETATM    7  C5  UNL     1      16.665  45.943  40.542  1.00  0.00     0.179 C 
HETATM    8  N3  UNL     1      15.717  44.936  40.156  1.00  0.00    -0.342 N 
HETATM    9  C1  UNL     1      16.042  43.612  39.777  1.00  0.00     0.184 C 
HETATM   10  C2  UNL     1      14.368  45.483  40.197  1.00  0.00     0.126 C 
HETATM   11  N1  UNL     1      15.161  42.669  39.767  1.00  0.00    -0.374 N 
HETATM   12  N2  UNL     1      17.358  43.269  39.391  1.00  0.00    -0.064 NA
ATOM     13  H12 UNL     1      15.395  41.714  39.493  1.00  0.00     0.158 HD
ATOM     14  H11 UNL     1      14.211  42.917  40.045  1.00  0.00     0.158 HD
HETATM   15  C3  UNL     1      14.619  46.947  39.886  1.00  0.00     0.022 C 
HETATM   16  C4  UNL     1      15.885  47.216  40.633  1.00  0.00     0.037 C 
ENDBRANCH   4   7
ENDBRANCH   2   3
BRANCH   2  17
HETATM   17  C24 UNL     1      19.914  44.649  43.345  1.00  0.00     0.063 C 
BRANCH  17  18
HETATM   18  C25 UNL     1      20.775  44.121  44.405  1.00  0.00    -0.056 A 
HETATM   19  C26 UNL     1      20.241  43.521  45.541  1.00  0.00     0.010 A 
HETATM   20  C27 UNL     1      21.026  42.957  46.494  1.00  0.00     0.043 A 
HETATM   21  C28 UNL     1      22.408  42.958  46.369  1.00  0.00     0.116 A 
HETATM   22  F1  UNL     1      23.231  42.413  47.281  1.00  0.00    -0.206 F 
HETATM   23  C29 UNL     1      22.966  43.542  45.257  1.00  0.00     0.043 A 
HETATM   24  C30 UNL     1      22.166  44.106  44.307  1.00  0.00     0.010 A 
ENDBRANCH  17  18
ENDBRANCH   2  17
ENDBRANCH   1   2
BRANCH   1  25
HETATM   25  C9  UNL     1      21.123  47.450  43.467  1.00  0.00     0.040 C 
BRANCH  25  26
HETATM   26  C10 UNL     1      21.789  48.185  44.611  1.00  0.00    -0.058 A 
HETATM   27  C11 UNL     1      21.901  49.550  44.562  1.00  0.00     0.010 A 
HETATM   28  C12 UNL     1      22.477  50.263  45.592  1.00  0.00     0.037 A 
HETATM   29  C13 UNL     1      22.951  49.564  46.709  1.00  0.00     0.068 A 
HETATM   30  C22 UNL     1      22.813  48.153  46.717  1.00  0.00     0.037 A 
HETATM   31  C23 UNL     1      22.244  47.460  45.693  1.00  0.00     0.010 A 
BRANCH  29  32
HETATM   32  O2  UNL     1      23.497  50.196  47.697  1.00  0.00    -0.350 OA
BRANCH  32  33
HETATM   33  C14 UNL     1      24.013  50.806  48.709  1.00  0.00     0.189 C 
BRANCH  33  34
HETATM   34  C15 UNL     1      23.289  50.712  50.047  1.00  0.00     0.107 C 
HETATM   35  C16 UNL     1      24.126  51.043  51.231  1.00  0.00     0.247 C 
HETATM   36  N5  UNL     1      23.396  50.418  52.321  1.00  0.00    -0.063 N 
HETATM   37  C17 UNL     1      22.889  49.164  51.797  1.00  0.00     0.255 C 
ATOM     38  H52 UNL     1      23.948  50.310  53.172  1.00  0.00     0.278 HD
ATOM     39  H51 UNL     1      22.670  51.014  52.720  1.00  0.00     0.278 HD
HETATM   40  C21 UNL     1      22.861  49.330  50.328  1.00  0.00     0.165 C 
HETATM   41  O3  UNL     1      22.550  48.500  49.507  1.00  0.00    -0.295 OA
BRANCH  37  42
HETATM   42  C18 UNL     1      21.524  48.800  52.338  1.00  0.00     0.042 C 
BRANCH  42  43
HETATM   43  C19 UNL     1      21.205  47.340  52.150  1.00  0.00     0.030 C 
BRANCH  43  44
HETATM   44  C20 UNL     1      19.699  47.158  52.070  1.00  0.00     0.230 C 
BRANCH  44  45
HETATM   45  N6  UNL     1      19.035  47.636  53.266  1.00  0.00    -0.079 N 
ATOM     46  H63 UNL     1      19.681  48.146  53.870  1.00  0.00     0.274 HD
ATOM     47  H62 UNL     1      18.385  48.392  53.052  1.00  0.00     0.274 HD
ATOM     48  H61 UNL     1      18.572  46.880  53.770  1.00  0.00     0.274 HD
ENDBRANCH  44  45
ENDBRANCH  43  44
ENDBRANCH  42  43
ENDBRANCH  37  42
ENDBRANCH  33  34
ENDBRANCH  32  33
ENDBRANCH  29  32
ENDBRANCH  25  26
ENDBRANCH   1  25
TORSDOF 14
ENDMDL
MODEL 2
REMARK VINA RESULT: -7.818491263      1.317      1.808
REMARK  14 active torsions:
REMARK  status: ('A' for Active; 'I' for Inactive)
REMARK       I    between atoms: C1_4  and  N3_6 
REMARK    1  A    between atoms: C5_10  and  C6_11 
REMARK       I    between atoms: C6_11  and  N4_13 
REMARK    2  A    between atoms: N4_13  and  C7_15 
REMARK    3  A    between atoms: C7_15  and  C8_16 
REMARK    4  A    between atoms: C7_15  and  C24_41 
REMARK    5  A    between atoms: C8_16  and  C9_17 
REMARK    6  A    between atoms: C9_17  and  C10_18 
REMARK    7  A    between atoms: C13_21  and  O2_22 
REMARK    8  A    between atoms: O2_22  and  C14_23 
REMARK    9  A    between atoms: C14_23  and  C15_24 
REMARK   10  A    between atoms: C17_29  and  C18_30 
REMARK   11  A    between atoms: C18_30  and  C19_31 
REMARK   12  A    between atoms: C19_31  and  C20_32 
REMARK   13  A    between atoms: C20_32  and  N6_33 
REMARK   14  A    between atoms: C24_41  and  C25_42 
ROOT
HETATM    1  C8  UNL     1      19.528  46.655  44.161  1.00  0.00     0.030 C 
ENDROOT
BRANCH   1   2
HETATM    2  C7  UNL     1      19.383  45.345  43.517  1.00  0.00     0.089 C 
BRANCH   2   3
HETATM    3  N4  UNL     1      18.882  45.719  42.124  1.00  0.00    -0.354 N 
HETATM    4  C6  UNL     1      17.545  45.475  41.860  1.00  0.00     0.241 C 
HETATM    5  O1  UNL     1      16.805  44.963  42.767  1.00  0.00    -0.271 OA
ATOM      6  H4  UNL     1      19.501  46.127  41.423  1.00  0.00     0.162 HD
BRANCH   4   7
HETATM    7  C5  UNL     1      16.905  45.779  40.578  1.00  0.00     0.179 C 
HETATM    8  N3  UNL     1      15.884  44.854  40.174  1.00  0.00    -0.342 N 
HETATM    9  C1  UNL     1      16.108  43.519  39.761  1.00  0.00     0.184 C 
HETATM   10  C2  UNL     1      14.579  45.498  40.236  1.00  0.00     0.126 C 
HETATM   11  N1  UNL     1      15.159  42.644  39.734  1.00  0.00    -0.374 N 
HETATM   12  N2  UNL     1      17.394  43.089  39.359  1.00  0.00    -0.064 NA
ATOM     13  H12 UNL     1      15.321  41.682  39.437  1.00  0.00     0.158 HD
ATOM     14  H11 UNL     1      14.232  42.955  40.024  1.00  0.00     0.158 HD
HETATM   15  C3  UNL     1      14.936  46.947  39.958  1.00  0.00     0.022 C 
HETATM   16  C4  UNL     1      16.222  47.103  40.703  1.00  0.00     0.037 C 
ENDBRANCH   4   7
ENDBRANCH   2   3
BRANCH   2  17
HETATM   17  C24 UNL     1      20.566  44.521  43.260  1.00  0.00     0.063 C 
BRANCH  17  18
HETATM   18  C25 UNL     1      21.920  45.036  43.462  1.00  0.00    -0.056 A 
HETATM   19  C26 UNL     1      22.672  44.681  44.577  1.00  0.00     0.010 A 
HETATM   20  C27 UNL     1      23.958  45.088  44.739  1.00  0.00     0.043 A 
HETATM   21  C28 UNL     1      24.576  45.884  43.785  1.00  0.00     0.116 A 
HETATM   22  F1  UNL     1      25.845  46.312  43.895  1.00  0.00    -0.206 F 
HETATM   23  C29 UNL     1      23.860  46.251  42.672  1.00  0.00     0.043 A 
HETATM   24  C30 UNL     1      22.570  45.836  42.522  1.00  0.00     0.010 A 
ENDBRANCH  17  18
ENDBRANCH   2  17
ENDBRANCH   1   2
BRANCH   1  25
HETATM   25  C9  UNL     1      20.294  47.743  43.526  1.00  0.00     0.040 C 
BRANCH  25  26
HETATM   26  C10 UNL     1      21.060  48.429  44.636  1.00  0.00    -0.058 A 
HETATM   27  C11 UNL     1      21.556  47.685  45.674  1.00  0.00     0.010 A 
HETATM   28  C12 UNL     1      22.281  48.264  46.694  1.00  0.00     0.037 A 
HETATM   29  C13 UNL     1      22.511  49.645  46.654  1.00  0.00     0.068 A 
HETATM   30  C22 UNL     1      21.979  50.375  45.560  1.00  0.00     0.037 A 
HETATM   31  C23 UNL     1      21.263  49.792  44.561  1.00  0.00     0.010 A 
BRANCH  29  32
HETATM   32  O2  UNL     1      23.187  50.227  47.591  1.00  0.00    -0.350 OA
BRANCH  32  33
HETATM   33  C14 UNL     1      23.833  50.790  48.555  1.00  0.00     0.189 C 
BRANCH  33  34
HETATM   34  C15 UNL     1      23.230  50.725  49.954  1.00  0.00     0.107 C 
HETATM   35  C16 UNL     1      24.160  51.112  51.049  1.00  0.00     0.247 C 
HETATM   36  N5  UNL     1      23.542  50.509  52.218  1.00  0.00    -0.063 N 
HETATM   37  C17 UNL     1      23.021  49.228  51.780  1.00  0.00     0.255 C 
ATOM     38  H52 UNL     1      24.169  50.441  53.020  1.00  0.00     0.278 HD
ATOM     39  H51 UNL     1      22.840  51.103  52.660  1.00  0.00     0.278 HD
HETATM   40  C21 UNL     1      22.861  49.344  50.314  1.00  0.00     0.165 C 
HETATM   41  O3  UNL     1      22.499  48.481  49.550  1.00  0.00    -0.295 OA
BRANCH  37  42
HETATM   42  C18 UNL     1      21.717  48.854  52.450  1.00  0.00     0.042 C 
BRANCH  42  43
HETATM   43  C19 UNL     1      21.315  47.430  52.165  1.00  0.00     0.030 C 
BRANCH  43  44
HETATM   44  C20 UNL     1      19.803  47.348  52.042  1.00  0.00     0.230 C 
BRANCH  44  45
HETATM   45  N6  UNL     1      19.144  47.664  53.292  1.00  0.00    -0.079 N 
ATOM     46  H63 UNL     1      19.792  47.611  54.078  1.00  0.00     0.274 HD
ATOM     47  H62 UNL     1      18.906  48.654  53.346  1.00  0.00     0.274 HD
ATOM     48  H61 UNL     1      18.324  47.077  53.447  1.00  0.00     0.274 HD
ENDBRANCH  44  45
ENDBRANCH  43  44
ENDBRANCH  42  43
ENDBRANCH  37  42
ENDBRANCH  33  34
ENDBRANCH  32  33
ENDBRANCH  29  32
ENDBRANCH  25  26
ENDBRANCH   1  25
TORSDOF 14
ENDMDL
MODEL 3
REMARK VINA RESULT: -7.638911582      3.154     10.364
REMARK  14 active torsions:
REMARK  status: ('A' for Active; 'I' for Inactive)
REMARK       I    between atoms: C1_4  and  N3_6 
REMARK    1  A    between atoms: C5_10  and  C6_11 
REMARK       I    between atoms: C6_11  and  N4_13 
REMARK    2  A    between atoms: N4_13  and  C7_15 
REMARK    3  A    between atoms: C7_15  and  C8_16 
REMARK    4  A    between atoms: C7_15  and  C24_41 
REMARK    5  A    between atoms: C8_16  and  C9_17 
REMARK    6  A    between atoms: C9_17  and  C10_18 
REMARK    7  A    between atoms: C13_21  and  O2_22 
REMARK    8  A    between atoms: O2_22  and  C14_23 
REMARK    9  A    between atoms: C14_23  and  C15_24 
REMARK   10  A    between atoms: C17_29  and  C18_30 
REMARK   11  A    between atoms: C18_30  and  C19_31 
REMARK   12  A    between atoms: C19_31  and  C20_32 
REMARK   13  A    between atoms: C20_32  and  N6_33 
REMARK   14  A    between atoms: C24_41  and  C25_42 
ROOT
HETATM    1  C8  UNL     1      20.670  45.979  45.920  1.00  0.00     0.030 C 
ENDROOT
BRANCH   1   2
HETATM    2  C7  UNL     1      21.519  46.666  44.940  1.00  0.00     0.089 C 
BRANCH   2   3
HETATM    3  N4  UNL     1      22.598  47.290  45.822  1.00  0.00    -0.354 N 
HETATM    4  C6  UNL     1      22.459  48.636  46.113  1.00  0.00     0.241 C 
HETATM    5  O1  UNL     1      21.462  49.284  45.645  1.00  0.00    -0.271 OA
ATOM      6  H4  UNL     1      23.381  46.743  46.179  1.00  0.00     0.162 HD
BRANCH   4   7
HETATM    7  C5  UNL     1      23.402  49.386  46.946  1.00  0.00     0.179 C 
HETATM    8  N3  UNL     1      23.119  50.788  47.075  1.00  0.00    -0.342 N 
HETATM    9  C1  UNL     1      23.250  51.746  46.042  1.00  0.00     0.184 C 
HETATM   10  C2  UNL     1      22.689  51.084  48.435  1.00  0.00     0.126 C 
HETATM   11  N1  UNL     1      22.677  52.900  46.105  1.00  0.00    -0.374 N 
HETATM   12  N2  UNL     1      24.023  51.470  44.890  1.00  0.00    -0.064 NA
ATOM     13  H12 UNL     1      22.772  53.591  45.360  1.00  0.00     0.158 HD
ATOM     14  H11 UNL     1      22.119  53.098  46.935  1.00  0.00     0.158 HD
HETATM   15  C3  UNL     1      23.430  50.024  49.231  1.00  0.00     0.022 C 
HETATM   16  C4  UNL     1      23.334  48.832  48.334  1.00  0.00     0.037 C 
ENDBRANCH   4   7
ENDBRANCH   2   3
BRANCH   2  17
HETATM   17  C24 UNL     1      22.272  45.890  43.953  1.00  0.00     0.063 C 
BRANCH  17  18
HETATM   18  C25 UNL     1      23.670  45.517  44.174  1.00  0.00    -0.056 A 
HETATM   19  C26 UNL     1      24.703  46.428  43.979  1.00  0.00     0.010 A 
HETATM   20  C27 UNL     1      25.997  46.120  44.255  1.00  0.00     0.043 A 
HETATM   21  C28 UNL     1      26.340  44.869  44.748  1.00  0.00     0.116 A 
HETATM   22  F1  UNL     1      27.603  44.514  45.039  1.00  0.00    -0.206 F 
HETATM   23  C29 UNL     1      25.342  43.948  44.953  1.00  0.00     0.043 A 
HETATM   24  C30 UNL     1      24.047  44.269  44.671  1.00  0.00     0.010 A 
ENDBRANCH  17  18
ENDBRANCH   2  17
ENDBRANCH   1   2
BRANCH   1  25
HETATM   25  C9  UNL     1      20.245  44.581  45.723  1.00  0.00     0.040 C 
BRANCH  25  26
HETATM   26  C10 UNL     1      19.247  44.596  44.586  1.00  0.00    -0.058 A 
HETATM   27  C11 UNL     1      19.495  45.363  43.479  1.00  0.00     0.010 A 
HETATM   28  C12 UNL     1      18.627  45.388  42.408  1.00  0.00     0.037 A 
HETATM   29  C13 UNL     1      17.468  44.603  42.466  1.00  0.00     0.068 A 
HETATM   30  C22 UNL     1      17.252  43.824  43.631  1.00  0.00     0.037 A 
HETATM   31  C23 UNL     1      18.116  43.810  44.682  1.00  0.00     0.010 A 
BRANCH  29  32
HETATM   32  O2  UNL     1      16.627  44.598  41.483  1.00  0.00    -0.350 OA
BRANCH  32  33
HETATM   33  C14 UNL     1      15.818  44.617  40.480  1.00  0.00     0.189 C 
BRANCH  33  34
HETATM   34  C15 UNL     1      15.297  45.969  40.006  1.00  0.00     0.107 C 
HETATM   35  C16 UNL     1      16.140  47.131  40.396  1.00  0.00     0.247 C 
HETATM   36  N5  UNL     1      15.217  48.247  40.276  1.00  0.00    -0.063 N 
HETATM   37  C17 UNL     1      13.936  47.760  40.753  1.00  0.00     0.255 C 
ATOM     38  H52 UNL     1      15.534  49.090  40.753  1.00  0.00     0.278 HD
ATOM     39  H51 UNL     1      15.177  48.644  39.337  1.00  0.00     0.278 HD
HETATM   40  C21 UNL     1      13.997  46.288  40.624  1.00  0.00     0.165 C 
HETATM   41  O3  UNL     1      13.153  45.492  40.959  1.00  0.00    -0.295 OA
BRANCH  37  42
HETATM   42  C18 UNL     1      12.760  48.332  39.992  1.00  0.00     0.042 C 
BRANCH  42  43
HETATM   43  C19 UNL     1      12.844  48.053  38.514  1.00  0.00     0.030 C 
BRANCH  43  44
HETATM   44  C20 UNL     1      11.449  48.079  37.914  1.00  0.00     0.230 C 
BRANCH  44  45
HETATM   45  N6  UNL     1      11.358  49.005  36.804  1.00  0.00    -0.079 N 
ATOM     46  H63 UNL     1      12.257  49.450  36.617  1.00  0.00     0.274 HD
ATOM     47  H62 UNL     1      11.235  48.513  35.919  1.00  0.00     0.274 HD
ATOM     48  H61 UNL     1      10.623  49.698  36.948  1.00  0.00     0.274 HD
ENDBRANCH  44  45
ENDBRANCH  43  44
ENDBRANCH  42  43
ENDBRANCH  37  42
ENDBRANCH  33  34
ENDBRANCH  32  33
ENDBRANCH  29  32
ENDBRANCH  25  26
ENDBRANCH   1  25
TORSDOF 14
ENDMDL
MODEL 4
REMARK VINA RESULT: -7.588067972      3.486     10.128
REMARK  14 active torsions:
REMARK  status: ('A' for Active; 'I' for Inactive)
REMARK       I    between atoms: C1_4  and  N3_6 
REMARK    1  A    between atoms: C5_10  and  C6_11 
REMARK       I    between atoms: C6_11  and  N4_13 
REMARK    2  A    between atoms: N4_13  and  C7_15 
REMARK    3  A    between atoms: C7_15  and  C8_16 
REMARK    4  A    between atoms: C7_15  and  C24_41 
REMARK    5  A    between atoms: C8_16  and  C9_17 
REMARK    6  A    between atoms: C9_17  and  C10_18 
REMARK    7  A    between atoms: C13_21  and  O2_22 
REMARK    8  A    between atoms: O2_22  and  C14_23 
REMARK    9  A    between atoms: C14_23  and  C15_24 
REMARK   10  A    between atoms: C17_29  and  C18_30 
REMARK   11  A    between atoms: C18_30  and  C19_31 
REMARK   12  A    between atoms: C19_31  and  C20_32 
REMARK   13  A    between atoms: C20_32  and  N6_33 
REMARK   14  A    between atoms: C24_41  and  C25_42 
ROOT
HETATM    1  C8  UNL     1      20.772  46.991  46.161  1.00  0.00     0.030 C 
ENDROOT
BRANCH   1   2
HETATM    2  C7  UNL     1      22.112  47.387  46.607  1.00  0.00     0.089 C 
BRANCH   2   3
HETATM    3  N4  UNL     1      23.010  46.759  45.543  1.00  0.00    -0.354 N 
HETATM    4  C6  UNL     1      23.072  47.409  44.322  1.00  0.00     0.241 C 
HETATM    5  O1  UNL     1      22.397  48.478  44.140  1.00  0.00    -0.271 OA
ATOM      6  H4  UNL     1      23.536  45.904  45.723  1.00  0.00     0.162 HD
BRANCH   4   7
HETATM    7  C5  UNL     1      23.887  46.942  43.198  1.00  0.00     0.179 C 
HETATM    8  N3  UNL     1      24.554  45.688  43.409  1.00  0.00    -0.342 N 
HETATM    9  C1  UNL     1      25.636  45.478  44.297  1.00  0.00     0.184 C 
HETATM   10  C2  UNL     1      23.963  44.662  42.561  1.00  0.00     0.126 C 
HETATM   11  N1  UNL     1      25.973  44.298  44.696  1.00  0.00    -0.374 N 
HETATM   12  N2  UNL     1      26.396  46.566  44.786  1.00  0.00    -0.064 NA
ATOM     13  H12 UNL     1      26.752  44.147  45.337  1.00  0.00     0.158 HD
ATOM     14  H11 UNL     1      25.424  43.514  44.344  1.00  0.00     0.158 HD
HETATM   15  C3  UNL     1      23.488  45.480  41.373  1.00  0.00     0.022 C 
HETATM   16  C4  UNL     1      22.981  46.724  42.029  1.00  0.00     0.037 C 
ENDBRANCH   4   7
ENDBRANCH   2   3
BRANCH   2  17
HETATM   17  C24 UNL     1      22.496  48.800  46.605  1.00  0.00     0.063 C 
BRANCH  17  18
HETATM   18  C25 UNL     1      23.024  49.453  47.803  1.00  0.00    -0.056 A 
HETATM   19  C26 UNL     1      23.387  50.797  47.796  1.00  0.00     0.010 A 
HETATM   20  C27 UNL     1      23.804  51.437  48.918  1.00  0.00     0.043 A 
HETATM   21  C28 UNL     1      23.885  50.765  50.130  1.00  0.00     0.116 A 
HETATM   22  F1  UNL     1      24.290  51.351  51.270  1.00  0.00    -0.206 F 
HETATM   23  C29 UNL     1      23.533  49.438  50.170  1.00  0.00     0.043 A 
HETATM   24  C30 UNL     1      23.116  48.807  49.035  1.00  0.00     0.010 A 
ENDBRANCH  17  18
ENDBRANCH   2  17
ENDBRANCH   1   2
BRANCH   1  25
HETATM   25  C9  UNL     1      20.347  45.578  46.165  1.00  0.00     0.040 C 
BRANCH  25  26
HETATM   26  C10 UNL     1      19.577  45.361  44.880  1.00  0.00    -0.058 A 
HETATM   27  C11 UNL     1      18.756  44.270  44.761  1.00  0.00     0.010 A 
HETATM   28  C12 UNL     1      18.016  44.046  43.620  1.00  0.00     0.037 A 
HETATM   29  C13 UNL     1      18.113  44.964  42.566  1.00  0.00     0.068 A 
HETATM   30  C22 UNL     1      18.974  46.078  42.734  1.00  0.00     0.037 A 
HETATM   31  C23 UNL     1      19.701  46.287  43.865  1.00  0.00     0.010 A 
BRANCH  29  32
HETATM   32  O2  UNL     1      17.435  44.791  41.478  1.00  0.00    -0.350 OA
BRANCH  32  33
HETATM   33  C14 UNL     1      16.751  44.661  40.393  1.00  0.00     0.189 C 
BRANCH  33  34
HETATM   34  C15 UNL     1      15.880  45.832  39.951  1.00  0.00     0.107 C 
HETATM   35  C16 UNL     1      16.460  47.174  40.222  1.00  0.00     0.247 C 
HETATM   36  N5  UNL     1      15.292  48.039  40.182  1.00  0.00    -0.063 N 
HETATM   37  C17 UNL     1      14.218  47.289  40.807  1.00  0.00     0.255 C 
ATOM     38  H52 UNL     1      15.449  48.954  40.605  1.00  0.00     0.278 HD
ATOM     39  H51 UNL     1      15.064  48.372  39.246  1.00  0.00     0.278 HD
HETATM   40  C21 UNL     1      14.612  45.868  40.702  1.00  0.00     0.165 C 
HETATM   41  O3  UNL     1      14.018  44.913  41.144  1.00  0.00    -0.295 OA
BRANCH  37  42
HETATM   42  C18 UNL     1      12.869  47.537  40.168  1.00  0.00     0.042 C 
BRANCH  42  43
HETATM   43  C19 UNL     1      12.985  47.921  38.716  1.00  0.00     0.030 C 
BRANCH  43  44
HETATM   44  C20 UNL     1      11.607  47.912  38.079  1.00  0.00     0.230 C 
BRANCH  44  45
HETATM   45  N6  UNL     1      11.569  48.704  36.867  1.00  0.00    -0.079 N 
ATOM     46  H63 UNL     1      12.277  49.439  36.881  1.00  0.00     0.274 HD
ATOM     47  H62 UNL     1      11.906  48.172  36.065  1.00  0.00     0.274 HD
ATOM     48  H61 UNL     1      10.640  49.087  36.693  1.00  0.00     0.274 HD
ENDBRANCH  44  45
ENDBRANCH  43  44
ENDBRANCH  42  43
ENDBRANCH  37  42
ENDBRANCH  33  34
ENDBRANCH  32  33
ENDBRANCH  29  32
ENDBRANCH  25  26
ENDBRANCH   1  25
TORSDOF 14
ENDMDL
MODEL 5
REMARK VINA RESULT: -7.408000338      3.202     10.475
REMARK  14 active torsions:
REMARK  status: ('A' for Active; 'I' for Inactive)
REMARK       I    between atoms: C1_4  and  N3_6 
REMARK    1  A    between atoms: C5_10  and  C6_11 
REMARK       I    between atoms: C6_11  and  N4_13 
REMARK    2  A    between atoms: N4_13  and  C7_15 
REMARK    3  A    between atoms: C7_15  and  C8_16 
REMARK    4  A    between atoms: C7_15  and  C24_41 
REMARK    5  A    between atoms: C8_16  and  C9_17 
REMARK    6  A    between atoms: C9_17  and  C10_18 
REMARK    7  A    between atoms: C13_21  and  O2_22 
REMARK    8  A    between atoms: O2_22  and  C14_23 
REMARK    9  A    between atoms: C14_23  and  C15_24 
REMARK   10  A    between atoms: C17_29  and  C18_30 
REMARK   11  A    between atoms: C18_30  and  C19_31 
REMARK   12  A    between atoms: C19_31  and  C20_32 
REMARK   13  A    between atoms: C20_32  and  N6_33 
REMARK   14  A    between atoms: C24_41  and  C25_42 
ROOT
HETATM    1  C8  UNL     1      20.475  46.286  46.218  1.00  0.00     0.030 C 
ENDROOT
BRANCH   1   2
HETATM    2  C7  UNL     1      21.624  46.911  45.554  1.00  0.00     0.089 C 
BRANCH   2   3
HETATM    3  N4  UNL     1      22.212  47.778  46.665  1.00  0.00    -0.354 N 
HETATM    4  C6  UNL     1      23.124  48.745  46.279  1.00  0.00     0.241 C 
HETATM    5  O1  UNL     1      23.428  48.870  45.044  1.00  0.00    -0.271 OA
ATOM      6  H4  UNL     1      21.946  47.651  47.641  1.00  0.00     0.162 HD
BRANCH   4   7
HETATM    7  C5  UNL     1      23.777  49.661  47.217  1.00  0.00     0.179 C 
HETATM    8  N3  UNL     1      23.128  50.932  47.377  1.00  0.00    -0.342 N 
HETATM    9  C1  UNL     1      23.076  51.952  46.398  1.00  0.00     0.184 C 
HETATM   10  C2  UNL     1      22.543  51.025  48.708  1.00  0.00     0.126 C 
HETATM   11  N1  UNL     1      22.217  52.913  46.458  1.00  0.00    -0.374 N 
HETATM   12  N2  UNL     1      23.972  51.955  45.304  1.00  0.00    -0.064 NA
ATOM     13  H12 UNL     1      22.179  53.648  45.752  1.00  0.00     0.158 HD
ATOM     14  H11 UNL     1      21.571  52.910  47.247  1.00  0.00     0.158 HD
HETATM   15  C3  UNL     1      23.479  50.146  49.519  1.00  0.00     0.022 C 
HETATM   16  C4  UNL     1      23.761  49.027  48.570  1.00  0.00     0.037 C 
ENDBRANCH   4   7
ENDBRANCH   2   3
BRANCH   2  17
HETATM   17  C24 UNL     1      22.751  46.088  45.112  1.00  0.00     0.063 C 
BRANCH  17  18
HETATM   18  C25 UNL     1      23.059  45.905  43.694  1.00  0.00    -0.056 A 
HETATM   19  C26 UNL     1      23.462  44.671  43.193  1.00  0.00     0.010 A 
HETATM   20  C27 UNL     1      23.676  44.466  41.867  1.00  0.00     0.043 A 
HETATM   21  C28 UNL     1      23.498  45.494  40.952  1.00  0.00     0.116 A 
HETATM   22  F1  UNL     1      23.694  45.345  39.631  1.00  0.00    -0.206 F 
HETATM   23  C29 UNL     1      23.099  46.724  41.416  1.00  0.00     0.043 A 
HETATM   24  C30 UNL     1      22.889  46.917  42.749  1.00  0.00     0.010 A 
ENDBRANCH  17  18
ENDBRANCH   2  17
ENDBRANCH   1   2
BRANCH   1  25
HETATM   25  C9  UNL     1      20.161  44.857  46.028  1.00  0.00     0.040 C 
BRANCH  25  26
HETATM   26  C10 UNL     1      19.316  44.769  44.775  1.00  0.00    -0.058 A 
HETATM   27  C11 UNL     1      18.243  43.918  44.743  1.00  0.00     0.010 A 
HETATM   28  C12 UNL     1      17.431  43.824  43.633  1.00  0.00     0.037 A 
HETATM   29  C13 UNL     1      17.719  44.625  42.520  1.00  0.00     0.068 A 
HETATM   30  C22 UNL     1      18.839  45.491  42.599  1.00  0.00     0.037 A 
HETATM   31  C23 UNL     1      19.635  45.574  43.700  1.00  0.00     0.010 A 
BRANCH  29  32
HETATM   32  O2  UNL     1      16.981  44.567  41.459  1.00  0.00    -0.350 OA
BRANCH  32  33
HETATM   33  C14 UNL     1      16.242  44.553  40.403  1.00  0.00     0.189 C 
BRANCH  33  34
HETATM   34  C15 UNL     1      15.586  45.860  39.971  1.00  0.00     0.107 C 
HETATM   35  C16 UNL     1      16.371  47.083  40.287  1.00  0.00     0.247 C 
HETATM   36  N5  UNL     1      15.363  48.128  40.242  1.00  0.00    -0.063 N 
HETATM   37  C17 UNL     1      14.164  47.553  40.824  1.00  0.00     0.255 C 
ATOM     38  H52 UNL     1      15.656  48.996  40.690  1.00  0.00     0.278 HD
ATOM     39  H51 UNL     1      15.217  48.514  39.309  1.00  0.00     0.278 HD
HETATM   40  C21 UNL     1      14.322  46.089  40.694  1.00  0.00     0.165 C 
HETATM   41  O3  UNL     1      13.568  45.236  41.099  1.00  0.00    -0.295 OA
BRANCH  37  42
HETATM   42  C18 UNL     1      12.892  48.033  40.161  1.00  0.00     0.042 C 
BRANCH  42  43
HETATM   43  C19 UNL     1      12.966  47.958  38.658  1.00  0.00     0.030 C 
BRANCH  43  44
HETATM   44  C20 UNL     1      11.562  48.003  38.080  1.00  0.00     0.230 C 
BRANCH  44  45
HETATM   45  N6  UNL     1      11.479  48.885  36.935  1.00  0.00    -0.079 N 
ATOM     46  H63 UNL     1      11.824  48.428  36.089  1.00  0.00     0.274 HD
ATOM     47  H62 UNL     1      10.511  49.036  36.651  1.00  0.00     0.274 HD
ATOM     48  H61 UNL     1      11.959  49.769  37.101  1.00  0.00     0.274 HD
ENDBRANCH  44  45
ENDBRANCH  43  44
ENDBRANCH  42  43
ENDBRANCH  37  42
ENDBRANCH  33  34
ENDBRANCH  32  33
ENDBRANCH  29  32
ENDBRANCH  25  26
ENDBRANCH   1  25
TORSDOF 14
ENDMDL
