MODEL 1
REMARK VINA RESULT: -7.859780922      0.000      0.000
REMARK  11 active torsions:
REMARK  status: ('A' for Active; 'I' for Inactive)
REMARK    1  A    between atoms: O1_2  and  C2_3 
REMARK    2  A    between atoms: C2_3  and  C3_5 
REMARK    3  A    between atoms: C4_6  and  O3_7 
REMARK    4  A    between atoms: O3_7  and  C5_8 
REMARK    5  A    between atoms: C5_8  and  C6_9 
REMARK    6  A    between atoms: C6_9  and  C7_10 
REMARK    7  A    between atoms: C7_10  and  C8_11 
REMARK    8  A    between atoms: C8_11  and  N1_12 
REMARK    9  A    between atoms: C11_18  and  C12_19 
REMARK   10  A    between atoms: N2_20  and  N3_22 
REMARK   11  A    between atoms: C13_23  and  N4_24 
ROOT
HETATM    1  C3  UNL     1      44.662  49.412   8.270  1.00  0.00     0.097 A 
HETATM    2  C4  UNL     1      44.309  49.909   9.536  1.00  0.00     0.086 A 
HETATM    3  C9  UNL     1      43.745  51.160   9.674  1.00  0.00     0.039 A 
HETATM    4  C10 UNL     1      43.533  51.918   8.541  1.00  0.00     0.017 A 
HETATM    5  C11 UNL     1      43.871  51.451   7.290  1.00  0.00     0.006 A 
HETATM    6  C16 UNL     1      44.444  50.177   7.169  1.00  0.00     0.077 A 
HETATM    7  N7  UNL     1      44.802  49.670   5.884  1.00  0.00    -0.100 NA
ENDROOT
BRANCH   5   8
HETATM    8  C12 UNL     1      43.651  52.245   6.089  1.00  0.00     0.121 C 
HETATM    9  N2  UNL     1      42.926  51.839   5.132  1.00  0.00    -0.286 N 
ATOM     10  H2  UNL     1      42.497  50.919   5.240  1.00  0.00     0.187 HD
BRANCH   9  11
HETATM   11  N3  UNL     1      42.658  52.511   3.964  1.00  0.00    -0.032 N 
HETATM   12  C13 UNL     1      43.488  52.431   2.906  1.00  0.00     0.705 A 
HETATM   13  N5  UNL     1      43.232  53.086   1.761  1.00  0.00    -0.139 N 
HETATM   14  C14 UNL     1      42.118  53.833   1.686  1.00  0.00     0.342 A 
ATOM     15  H5  UNL     1      43.870  53.017   0.968  1.00  0.00     0.189 HD
HETATM   16  O4  UNL     1      41.848  54.470   0.607  1.00  0.00    -0.246 OA
HETATM   17  N6  UNL     1      41.295  53.909   2.746  1.00  0.00    -0.258 N 
HETATM   18  C15 UNL     1      41.544  53.259   3.890  1.00  0.00     0.364 A 
ATOM     19  H6  UNL     1      40.453  54.481   2.676  1.00  0.00     0.175 HD
HETATM   20  O5  UNL     1      40.748  53.365   4.835  1.00  0.00    -0.244 OA
BRANCH  12  21
HETATM   21  N4  UNL     1      44.535  51.714   3.008  1.00  0.00    -0.233 N 
ATOM     22  H42 UNL     1      45.456  52.144   2.923  1.00  0.00     0.174 HD
ATOM     23  H41 UNL     1      44.427  50.713   3.173  1.00  0.00     0.174 HD
ENDBRANCH  12  21
ENDBRANCH   9  11
ENDBRANCH   5   8
BRANCH   1  24
HETATM   24  C2  UNL     1      45.260  48.084   8.128  1.00  0.00     0.297 C 
HETATM   25  O2  UNL     1      44.539  47.094   7.849  1.00  0.00    -0.259 OA
BRANCH  24  26
HETATM   26  O1  UNL     1      46.616  47.844   8.289  1.00  0.00    -0.322 OA
HETATM   27  C1  UNL     1      47.101  46.543   8.610  1.00  0.00     0.213 C 
ENDBRANCH  24  26
ENDBRANCH   1  24
BRANCH   2  28
HETATM   28  O3  UNL     1      44.571  49.055  10.575  1.00  0.00    -0.350 OA
BRANCH  28  29
HETATM   29  C5  UNL     1      43.988  48.936  11.826  1.00  0.00     0.175 C 
BRANCH  29  30
HETATM   30  C6  UNL     1      44.728  48.130  12.841  1.00  0.00     0.028 C 
BRANCH  30  31
HETATM   31  C7  UNL     1      43.917  48.033  14.142  1.00  0.00     0.029 C 
BRANCH  31  32
HETATM   32  C8  UNL     1      44.793  47.438  15.243  1.00  0.00     0.230 C 
BRANCH  32  33
HETATM   33  N1  UNL     1      45.430  48.482  15.983  1.00  0.00    -0.079 N 
ATOM     34  H13 UNL     1      45.390  49.376  15.492  1.00  0.00     0.274 HD
ATOM     35  H12 UNL     1      44.897  48.743  16.812  1.00  0.00     0.274 HD
ATOM     36  H11 UNL     1      46.387  48.216  16.213  1.00  0.00     0.274 HD
ENDBRANCH  32  33
ENDBRANCH  31  32
ENDBRANCH  30  31
ENDBRANCH  29  30
ENDBRANCH  28  29
ENDBRANCH   2  28
TORSDOF 11
ENDMDL
MODEL 2
REMARK VINA RESULT: -7.737025890      3.417      5.172
REMARK  11 active torsions:
REMARK  status: ('A' for Active; 'I' for Inactive)
REMARK    1  A    between atoms: O1_2  and  C2_3 
REMARK    2  A    between atoms: C2_3  and  C3_5 
REMARK    3  A    between atoms: C4_6  and  O3_7 
REMARK    4  A    between atoms: O3_7  and  C5_8 
REMARK    5  A    between atoms: C5_8  and  C6_9 
REMARK    6  A    between atoms: C6_9  and  C7_10 
REMARK    7  A    between atoms: C7_10  and  C8_11 
REMARK    8  A    between atoms: C8_11  and  N1_12 
REMARK    9  A    between atoms: C11_18  and  C12_19 
REMARK   10  A    between atoms: N2_20  and  N3_22 
REMARK   11  A    between atoms: C13_23  and  N4_24 
ROOT
HETATM    1  C3  UNL     1      46.823  46.202  10.164  1.00  0.00     0.097 A 
HETATM    2  C4  UNL     1      46.867  46.416  11.552  1.00  0.00     0.086 A 
HETATM    3  C9  UNL     1      46.171  47.457  12.131  1.00  0.00     0.039 A 
HETATM    4  C10 UNL     1      45.429  48.289  11.316  1.00  0.00     0.017 A 
HETATM    5  C11 UNL     1      45.373  48.098   9.954  1.00  0.00     0.006 A 
HETATM    6  C16 UNL     1      46.087  47.034   9.384  1.00  0.00     0.077 A 
HETATM    7  N7  UNL     1      46.044  46.814   7.974  1.00  0.00    -0.100 NA
ENDROOT
BRANCH   5   8
HETATM    8  C12 UNL     1      44.593  48.972   9.088  1.00  0.00     0.121 C 
HETATM    9  N2  UNL     1      45.131  49.846   8.345  1.00  0.00    -0.286 N 
ATOM     10  H2  UNL     1      46.149  49.913   8.379  1.00  0.00     0.187 HD
BRANCH   9  11
HETATM   11  N3  UNL     1      44.484  50.713   7.498  1.00  0.00    -0.032 N 
HETATM   12  C13 UNL     1      43.886  51.826   7.962  1.00  0.00     0.705 A 
HETATM   13  N5  UNL     1      43.251  52.678   7.139  1.00  0.00    -0.139 N 
HETATM   14  C14 UNL     1      43.221  52.398   5.825  1.00  0.00     0.342 A 
ATOM     15  H5  UNL     1      42.801  53.518   7.504  1.00  0.00     0.189 HD
HETATM   16  O4  UNL     1      42.623  53.191   5.016  1.00  0.00    -0.246 OA
HETATM   17  N6  UNL     1      43.820  51.284   5.370  1.00  0.00    -0.258 N 
HETATM   18  C15 UNL     1      44.455  50.431   6.184  1.00  0.00     0.364 A 
ATOM     19  H6  UNL     1      43.790  51.082   4.370  1.00  0.00     0.175 HD
HETATM   20  O5  UNL     1      44.990  49.419   5.707  1.00  0.00    -0.244 OA
BRANCH  12  21
HETATM   21  N4  UNL     1      43.931  52.066   9.212  1.00  0.00    -0.233 N 
ATOM     22  H42 UNL     1      43.240  51.648   9.835  1.00  0.00     0.174 HD
ATOM     23  H41 UNL     1      44.667  52.677   9.565  1.00  0.00     0.174 HD
ENDBRANCH  12  21
ENDBRANCH   9  11
ENDBRANCH   5   8
BRANCH   1  24
HETATM   24  C2  UNL     1      47.563  45.096   9.556  1.00  0.00     0.297 C 
HETATM   25  O2  UNL     1      48.712  45.287   9.087  1.00  0.00    -0.259 OA
BRANCH  24  26
HETATM   26  O1  UNL     1      47.057  43.807   9.463  1.00  0.00    -0.322 OA
HETATM   27  C1  UNL     1      45.662  43.574   9.285  1.00  0.00     0.213 C 
ENDBRANCH  24  26
ENDBRANCH   1  24
BRANCH   2  28
HETATM   28  O3  UNL     1      47.637  45.518  12.243  1.00  0.00    -0.350 OA
BRANCH  28  29
HETATM   29  C5  UNL     1      48.776  45.696  13.012  1.00  0.00     0.175 C 
BRANCH  29  30
HETATM   30  C6  UNL     1      49.589  44.480  13.304  1.00  0.00     0.028 C 
BRANCH  30  31
HETATM   31  C7  UNL     1      49.778  43.643  12.029  1.00  0.00     0.029 C 
BRANCH  31  32
HETATM   32  C8  UNL     1      49.105  42.284  12.210  1.00  0.00     0.230 C 
BRANCH  32  33
HETATM   33  N1  UNL     1      47.689  42.414  12.072  1.00  0.00    -0.079 N 
ATOM     34  H13 UNL     1      47.422  42.696  11.129  1.00  0.00     0.274 HD
ATOM     35  H12 UNL     1      47.217  41.510  12.096  1.00  0.00     0.274 HD
ATOM     36  H11 UNL     1      47.325  43.053  12.779  1.00  0.00     0.274 HD
ENDBRANCH  32  33
ENDBRANCH  31  32
ENDBRANCH  30  31
ENDBRANCH  29  30
ENDBRANCH  28  29
ENDBRANCH   2  28
TORSDOF 11
ENDMDL
MODEL 3
REMARK VINA RESULT: -7.640897918      4.463      8.927
REMARK  11 active torsions:
REMARK  status: ('A' for Active; 'I' for Inactive)
REMARK    1  A    between atoms: O1_2  and  C2_3 
REMARK    2  A    between atoms: C2_3  and  C3_5 
REMARK    3  A    between atoms: C4_6  and  O3_7 
REMARK    4  A    between atoms: O3_7  and  C5_8 
REMARK    5  A    between atoms: C5_8  and  C6_9 
REMARK    6  A    between atoms: C6_9  and  C7_10 
REMARK    7  A    between atoms: C7_10  and  C8_11 
REMARK    8  A    between atoms: C8_11  and  N1_12 
REMARK    9  A    between atoms: C11_18  and  C12_19 
REMARK   10  A    between atoms: N2_20  and  N3_22 
REMARK   11  A    between atoms: C13_23  and  N4_24 
ROOT
HETATM    1  C3  UNL     1      44.530  49.860   8.844  1.00  0.00     0.097 A 
HETATM    2  C4  UNL     1      43.833  50.554   9.847  1.00  0.00     0.086 A 
HETATM    3  C9  UNL     1      43.740  50.045  11.126  1.00  0.00     0.039 A 
HETATM    4  C10 UNL     1      44.345  48.835  11.401  1.00  0.00     0.017 A 
HETATM    5  C11 UNL     1      45.032  48.138  10.433  1.00  0.00     0.006 A 
HETATM    6  C16 UNL     1      45.117  48.671   9.139  1.00  0.00     0.077 A 
HETATM    7  N7  UNL     1      45.825  47.969   8.118  1.00  0.00    -0.100 NA
ENDROOT
BRANCH   5   8
HETATM    8  C12 UNL     1      45.673  46.862  10.716  1.00  0.00     0.121 C 
HETATM    9  N2  UNL     1      46.929  46.750  10.852  1.00  0.00    -0.286 N 
ATOM     10  H2  UNL     1      47.479  47.603  10.754  1.00  0.00     0.187 HD
BRANCH   9  11
HETATM   11  N3  UNL     1      47.624  45.595  11.119  1.00  0.00    -0.032 N 
HETATM   12  C13 UNL     1      48.086  44.812  10.125  1.00  0.00     0.705 A 
HETATM   13  N5  UNL     1      48.766  43.682  10.378  1.00  0.00    -0.139 N 
HETATM   14  C14 UNL     1      48.984  43.339  11.659  1.00  0.00     0.342 A 
ATOM     15  H5  UNL     1      49.109  43.098   9.616  1.00  0.00     0.189 HD
HETATM   16  O4  UNL     1      49.630  42.266  11.933  1.00  0.00    -0.246 OA
HETATM   17  N6  UNL     1      48.520  44.125  12.646  1.00  0.00    -0.258 N 
HETATM   18  C15 UNL     1      47.841  45.253  12.401  1.00  0.00     0.364 A 
ATOM     19  H6  UNL     1      48.691  43.853  13.615  1.00  0.00     0.175 HD
HETATM   20  O5  UNL     1      47.437  45.939  13.352  1.00  0.00    -0.244 OA
BRANCH  12  21
HETATM   21  N4  UNL     1      47.865  45.164   8.921  1.00  0.00    -0.233 N 
ATOM     22  H42 UNL     1      48.637  45.473   8.332  1.00  0.00     0.174 HD
ATOM     23  H41 UNL     1      46.908  45.127   8.570  1.00  0.00     0.174 HD
ENDBRANCH  12  21
ENDBRANCH   9  11
ENDBRANCH   5   8
BRANCH   1  24
HETATM   24  C2  UNL     1      44.627  50.405   7.489  1.00  0.00     0.297 C 
HETATM   25  O2  UNL     1      43.698  50.216   6.665  1.00  0.00    -0.259 OA
BRANCH  24  26
HETATM   26  O1  UNL     1      45.716  51.140   7.045  1.00  0.00    -0.322 OA
HETATM   27  C1  UNL     1      45.827  51.543   5.682  1.00  0.00     0.213 C 
ENDBRANCH  24  26
ENDBRANCH   1  24
BRANCH   2  28
HETATM   28  O3  UNL     1      43.282  51.741   9.441  1.00  0.00    -0.350 OA
BRANCH  28  29
HETATM   29  C5  UNL     1      42.374  52.583  10.060  1.00  0.00     0.175 C 
BRANCH  29  30
HETATM   30  C6  UNL     1      42.867  53.363  11.232  1.00  0.00     0.028 C 
BRANCH  30  31
HETATM   31  C7  UNL     1      41.809  54.382  11.681  1.00  0.00     0.029 C 
BRANCH  31  32
HETATM   32  C8  UNL     1      41.699  54.363  13.205  1.00  0.00     0.230 C 
BRANCH  32  33
HETATM   33  N1  UNL     1      41.297  55.648  13.685  1.00  0.00    -0.079 N 
ATOM     34  H13 UNL     1      41.714  56.405  13.143  1.00  0.00     0.274 HD
ATOM     35  H12 UNL     1      40.317  55.842  13.481  1.00  0.00     0.274 HD
ATOM     36  H11 UNL     1      41.504  55.732  14.680  1.00  0.00     0.274 HD
ENDBRANCH  32  33
ENDBRANCH  31  32
ENDBRANCH  30  31
ENDBRANCH  29  30
ENDBRANCH  28  29
ENDBRANCH   2  28
TORSDOF 11
ENDMDL
MODEL 4
REMARK VINA RESULT: -7.600496450      4.363      8.999
REMARK  11 active torsions:
REMARK  status: ('A' for Active; 'I' for Inactive)
REMARK    1  A    between atoms: O1_2  and  C2_3 
REMARK    2  A    between atoms: C2_3  and  C3_5 
REMARK    3  A    between atoms: C4_6  and  O3_7 
REMARK    4  A    between atoms: O3_7  and  C5_8 
REMARK    5  A    between atoms: C5_8  and  C6_9 
REMARK    6  A    between atoms: C6_9  and  C7_10 
REMARK    7  A    between atoms: C7_10  and  C8_11 
REMARK    8  A    between atoms: C8_11  and  N1_12 
REMARK    9  A    between atoms: C11_18  and  C12_19 
REMARK   10  A    between atoms: N2_20  and  N3_22 
REMARK   11  A    between atoms: C13_23  and  N4_24 
ROOT
HETATM    1  C3  UNL     1      44.528  49.865   8.799  1.00  0.00     0.097 A 
HETATM    2  C4  UNL     1      43.846  50.558   9.813  1.00  0.00     0.086 A 
HETATM    3  C9  UNL     1      43.767  50.045  11.091  1.00  0.00     0.039 A 
HETATM    4  C10 UNL     1      44.372  48.833  11.355  1.00  0.00     0.017 A 
HETATM    5  C11 UNL     1      45.044  48.136  10.376  1.00  0.00     0.006 A 
HETATM    6  C16 UNL     1      45.115  48.674   9.083  1.00  0.00     0.077 A 
HETATM    7  N7  UNL     1      45.807  47.972   8.050  1.00  0.00    -0.100 NA
ENDROOT
BRANCH   5   8
HETATM    8  C12 UNL     1      45.685  46.857  10.647  1.00  0.00     0.121 C 
HETATM    9  N2  UNL     1      46.920  46.761  10.917  1.00  0.00    -0.286 N 
ATOM     10  H2  UNL     1      47.454  47.631  10.936  1.00  0.00     0.187 HD
BRANCH   9  11
HETATM   11  N3  UNL     1      47.613  45.606  11.185  1.00  0.00    -0.032 N 
HETATM   12  C13 UNL     1      47.909  45.247  12.449  1.00  0.00     0.705 A 
HETATM   13  N5  UNL     1      48.587  44.118  12.718  1.00  0.00    -0.139 N 
HETATM   14  C14 UNL     1      48.970  43.340  11.692  1.00  0.00     0.342 A 
ATOM     15  H5  UNL     1      48.806  43.858  13.680  1.00  0.00     0.189 HD
HETATM   16  O4  UNL     1      49.618  42.258  11.917  1.00  0.00    -0.246 OA
HETATM   17  N6  UNL     1      48.672  43.705  10.433  1.00  0.00    -0.258 N 
HETATM   18  C15 UNL     1      47.997  44.829  10.157  1.00  0.00     0.364 A 
ATOM     19  H6  UNL     1      48.969  43.107   9.662  1.00  0.00     0.175 HD
HETATM   20  O5  UNL     1      47.748  45.115   8.976  1.00  0.00    -0.244 OA
BRANCH  12  21
HETATM   21  N4  UNL     1      47.532  46.004  13.401  1.00  0.00    -0.233 N 
ATOM     22  H42 UNL     1      46.934  46.806  13.205  1.00  0.00     0.174 HD
ATOM     23  H41 UNL     1      47.842  45.787  14.348  1.00  0.00     0.174 HD
ENDBRANCH  12  21
ENDBRANCH   9  11
ENDBRANCH   5   8
BRANCH   1  24
HETATM   24  C2  UNL     1      44.610  50.414   7.445  1.00  0.00     0.297 C 
HETATM   25  O2  UNL     1      43.670  50.231   6.632  1.00  0.00    -0.259 OA
BRANCH  24  26
HETATM   26  O1  UNL     1      45.696  51.148   6.989  1.00  0.00    -0.322 OA
HETATM   27  C1  UNL     1      45.798  51.542   5.623  1.00  0.00     0.213 C 
ENDBRANCH  24  26
ENDBRANCH   1  24
BRANCH   2  28
HETATM   28  O3  UNL     1      43.294  51.748   9.417  1.00  0.00    -0.350 OA
BRANCH  28  29
HETATM   29  C5  UNL     1      42.385  52.584  10.045  1.00  0.00     0.175 C 
BRANCH  29  30
HETATM   30  C6  UNL     1      42.878  53.351  11.226  1.00  0.00     0.028 C 
BRANCH  30  31
HETATM   31  C7  UNL     1      41.822  54.370  11.681  1.00  0.00     0.029 C 
BRANCH  31  32
HETATM   32  C8  UNL     1      41.725  54.353  13.206  1.00  0.00     0.230 C 
BRANCH  32  33
HETATM   33  N1  UNL     1      41.334  55.641  13.687  1.00  0.00    -0.079 N 
ATOM     34  H13 UNL     1      41.952  55.975  14.427  1.00  0.00     0.274 HD
ATOM     35  H12 UNL     1      41.511  56.375  13.002  1.00  0.00     0.274 HD
ATOM     36  H11 UNL     1      40.358  55.623  13.983  1.00  0.00     0.274 HD
ENDBRANCH  32  33
ENDBRANCH  31  32
ENDBRANCH  30  31
ENDBRANCH  29  30
ENDBRANCH  28  29
ENDBRANCH   2  28
TORSDOF 11
ENDMDL
MODEL 5
REMARK VINA RESULT: -7.561590958      3.224      4.810
REMARK  11 active torsions:
REMARK  status: ('A' for Active; 'I' for Inactive)
REMARK    1  A    between atoms: O1_2  and  C2_3 
REMARK    2  A    between atoms: C2_3  and  C3_5 
REMARK    3  A    between atoms: C4_6  and  O3_7 
REMARK    4  A    between atoms: O3_7  and  C5_8 
REMARK    5  A    between atoms: C5_8  and  C6_9 
REMARK    6  A    between atoms: C6_9  and  C7_10 
REMARK    7  A    between atoms: C7_10  and  C8_11 
REMARK    8  A    between atoms: C8_11  and  N1_12 
REMARK    9  A    between atoms: C11_18  and  C12_19 
REMARK   10  A    between atoms: N2_20  and  N3_22 
REMARK   11  A    between atoms: C13_23  and  N4_24 
ROOT
HETATM    1  C3  UNL     1      46.639  46.277   9.946  1.00  0.00     0.097 A 
HETATM    2  C4  UNL     1      46.708  46.502  11.332  1.00  0.00     0.086 A 
HETATM    3  C9  UNL     1      46.052  47.569  11.909  1.00  0.00     0.039 A 
HETATM    4  C10 UNL     1      45.326  48.416  11.097  1.00  0.00     0.017 A 
HETATM    5  C11 UNL     1      45.246  48.216   9.737  1.00  0.00     0.006 A 
HETATM    6  C16 UNL     1      45.918  47.125   9.168  1.00  0.00     0.077 A 
HETATM    7  N7  UNL     1      45.850  46.894   7.761  1.00  0.00    -0.100 NA
ENDROOT
BRANCH   5   8
HETATM    8  C12 UNL     1      44.482  49.105   8.874  1.00  0.00     0.121 C 
HETATM    9  N2  UNL     1      45.038  49.938   8.097  1.00  0.00    -0.286 N 
ATOM     10  H2  UNL     1      46.058  49.959   8.101  1.00  0.00     0.187 HD
BRANCH   9  11
HETATM   11  N3  UNL     1      44.406  50.816   7.249  1.00  0.00    -0.032 N 
HETATM   12  C13 UNL     1      44.421  50.631   5.915  1.00  0.00     0.705 A 
HETATM   13  N5  UNL     1      43.806  51.485   5.080  1.00  0.00    -0.139 N 
HETATM   14  C14 UNL     1      43.165  52.544   5.604  1.00  0.00     0.342 A 
ATOM     15  H5  UNL     1      43.825  51.333   4.072  1.00  0.00     0.189 HD
HETATM   16  O4  UNL     1      42.569  53.376   4.833  1.00  0.00    -0.246 OA
HETATM   17  N6  UNL     1      43.155  52.722   6.936  1.00  0.00    -0.258 N 
HETATM   18  C15 UNL     1      43.767  51.875   7.775  1.00  0.00     0.364 A 
ATOM     19  H6  UNL     1      42.666  53.530   7.322  1.00  0.00     0.175 HD
HETATM   20  O5  UNL     1      43.724  52.090   8.995  1.00  0.00    -0.244 OA
BRANCH  12  21
HETATM   21  N4  UNL     1      45.035  49.618   5.448  1.00  0.00    -0.233 N 
ATOM     22  H42 UNL     1      45.708  49.119   6.030  1.00  0.00     0.174 HD
ATOM     23  H41 UNL     1      44.838  49.327   4.491  1.00  0.00     0.174 HD
ENDBRANCH  12  21
ENDBRANCH   9  11
ENDBRANCH   5   8
BRANCH   1  24
HETATM   24  C2  UNL     1      47.336  45.143   9.338  1.00  0.00     0.297 C 
HETATM   25  O2  UNL     1      48.486  45.294   8.856  1.00  0.00    -0.259 OA
BRANCH  24  26
HETATM   26  O1  UNL     1      46.787  43.871   9.260  1.00  0.00    -0.322 OA
HETATM   27  C1  UNL     1      45.378  43.681   9.168  1.00  0.00     0.213 C 
ENDBRANCH  24  26
ENDBRANCH   1  24
BRANCH   2  28
HETATM   28  O3  UNL     1      47.459  45.586  12.020  1.00  0.00    -0.350 OA
BRANCH  28  29
HETATM   29  C5  UNL     1      48.521  45.752  12.894  1.00  0.00     0.175 C 
BRANCH  29  30
HETATM   30  C6  UNL     1      49.387  44.561  13.137  1.00  0.00     0.028 C 
BRANCH  30  31
HETATM   31  C7  UNL     1      49.586  43.770  11.835  1.00  0.00     0.029 C 
BRANCH  31  32
HETATM   32  C8  UNL     1      48.979  42.376  11.990  1.00  0.00     0.230 C 
BRANCH  32  33
HETATM   33  N1  UNL     1      47.571  42.425  11.748  1.00  0.00    -0.079 N 
ATOM     34  H13 UNL     1      47.201  41.517  11.466  1.00  0.00     0.274 HD
ATOM     35  H12 UNL     1      47.039  42.541  12.610  1.00  0.00     0.274 HD
ATOM     36  H11 UNL     1      47.357  43.153  11.067  1.00  0.00     0.274 HD
ENDBRANCH  32  33
ENDBRANCH  31  32
ENDBRANCH  30  31
ENDBRANCH  29  30
ENDBRANCH  28  29
ENDBRANCH   2  28
TORSDOF 11
ENDMDL
