MODEL 1
REMARK VINA RESULT: -9.511915556      0.000      0.000
REMARK  12 active torsions:
REMARK  status: ('A' for Active; 'I' for Inactive)
REMARK    1  A    between atoms: C2_2  and  C3_3 
REMARK    2  A    between atoms: C3_3  and  N1_4 
REMARK    3  A    between atoms: C5_8  and  C6_9 
REMARK    4  A    between atoms: C6_9  and  C7_10 
REMARK    5  A    between atoms: C7_10  and  N3_11 
REMARK    6  A    between atoms: C7_10  and  C17_27 
REMARK       I    between atoms: N3_11  and  C8_13 
REMARK    7  A    between atoms: C8_13  and  C9_15 
REMARK    8  A    between atoms: C9_15  and  N4_16 
REMARK       I    between atoms: N4_16  and  C10_18 
REMARK    9  A    between atoms: C10_18  and  O3_20 
REMARK       I    between atoms: C17_27  and  N5_29 
REMARK   10  A    between atoms: N6_32  and  C20_33 
REMARK   11  A    between atoms: C20_33  and  C21_34 
REMARK   12  A    between atoms: C21_34  and  N7_35 
ROOT
HETATM    1  C7  UNL     1      17.937  23.711  19.176  1.00  0.00     0.182 C 
ENDROOT
BRANCH   1   2
HETATM    2  C6  UNL     1      18.361  23.989  20.605  1.00  0.00     0.093 C 
BRANCH   2   3
HETATM    3  C5  UNL     1      19.738  24.531  20.698  1.00  0.00     0.028 A 
HETATM    4  N2  UNL     1      20.118  25.762  21.061  1.00  0.00    -0.354 N 
HETATM    5  C4  UNL     1      21.450  25.877  21.016  1.00  0.00     0.183 A 
ATOM      6  H2  UNL     1      19.480  26.510  21.334  1.00  0.00     0.166 HD
HETATM    7  N1  UNL     1      21.949  24.672  20.608  1.00  0.00    -0.348 N 
HETATM    8  C30 UNL     1      20.912  23.863  20.417  1.00  0.00     0.117 A 
BRANCH   7   9
HETATM    9  C3  UNL     1      23.360  24.356  20.420  1.00  0.00     0.155 C 
BRANCH   9  10
HETATM   10  C2  UNL     1      24.181  25.017  21.460  1.00  0.00    -0.017 C 
HETATM   11  C1  UNL     1      25.311  24.491  21.913  1.00  0.00     0.008 C 
ENDBRANCH   9  10
ENDBRANCH   7   9
ENDBRANCH   2   3
ENDBRANCH   1   2
BRANCH   1  12
HETATM   12  N3  UNL     1      19.072  24.141  18.342  1.00  0.00    -0.345 N 
HETATM   13  C8  UNL     1      18.939  25.160  17.369  1.00  0.00     0.246 C 
HETATM   14  O1  UNL     1      17.816  25.685  17.240  1.00  0.00    -0.271 OA
ATOM     15  H3  UNL     1      19.980  23.692  18.470  1.00  0.00     0.163 HD
BRANCH  13  16
HETATM   16  C9  UNL     1      20.055  25.618  16.516  1.00  0.00     0.116 C 
HETATM   17  C12 UNL     1      20.375  24.543  15.532  1.00  0.00     0.041 C 
HETATM   18  C13 UNL     1      21.206  24.966  14.364  1.00  0.00     0.003 C 
HETATM   19  C14 UNL     1      21.146  26.445  14.083  1.00  0.00     0.000 C 
HETATM   20  C15 UNL     1      19.722  26.877  14.372  1.00  0.00     0.003 C 
HETATM   21  C16 UNL     1      19.602  26.908  15.878  1.00  0.00     0.041 C 
BRANCH  16  22
HETATM   22  N4  UNL     1      21.177  25.923  17.375  1.00  0.00    -0.319 N 
HETATM   23  C10 UNL     1      21.712  27.188  17.636  1.00  0.00     0.361 C 
HETATM   24  O2  UNL     1      21.287  28.252  17.158  1.00  0.00    -0.238 OA
ATOM     25  H4  UNL     1      21.625  25.133  17.839  1.00  0.00     0.166 HD
BRANCH  23  26
HETATM   26  O3  UNL     1      22.813  27.310  18.499  1.00  0.00    -0.309 OA
HETATM   27  C11 UNL     1      24.130  27.038  18.030  1.00  0.00     0.215 C 
ENDBRANCH  23  26
ENDBRANCH  16  22
ENDBRANCH  13  16
ENDBRANCH   1  12
BRANCH   1  28
HETATM   28  C17 UNL     1      17.617  22.314  18.937  1.00  0.00     0.243 C 
HETATM   29  O4  UNL     1      18.347  21.406  19.388  1.00  0.00    -0.271 OA
HETATM   30  N5  UNL     1      16.470  21.935  18.183  1.00  0.00    -0.347 N 
HETATM   31  C18 UNL     1      16.157  20.529  18.018  1.00  0.00     0.156 C 
HETATM   32  C29 UNL     1      15.680  22.951  17.576  1.00  0.00     0.156 C 
HETATM   33  C19 UNL     1      15.045  20.182  17.113  1.00  0.00     0.293 C 
HETATM   34  N6  UNL     1      14.626  21.268  16.300  1.00  0.00     0.103 N 
HETATM   35  C28 UNL     1      14.310  22.354  17.248  1.00  0.00     0.293 C 
BRANCH  34  36
HETATM   36  C20 UNL     1      13.496  21.087  15.464  1.00  0.00     0.183 C 
HETATM   37  C23 UNL     1      12.960  22.451  15.081  1.00  0.00     0.043 C 
HETATM   38  C24 UNL     1      12.827  22.648  13.592  1.00  0.00     0.003 C 
HETATM   39  C25 UNL     1      14.083  22.421  12.819  1.00  0.00     0.000 C 
HETATM   40  C26 UNL     1      14.816  21.241  13.414  1.00  0.00     0.003 C 
HETATM   41  C27 UNL     1      13.805  20.393  14.157  1.00  0.00     0.043 C 
BRANCH  36  42
HETATM   42  C21 UNL     1      12.392  20.343  16.186  1.00  0.00     0.273 C 
BRANCH  42  43
HETATM   43  N7  UNL     1      11.883  19.229  15.403  1.00  0.00    -0.076 N 
HETATM   44  C22 UNL     1      10.434  19.165  15.459  1.00  0.00     0.267 C 
ATOM     45  H72 UNL     1      12.220  19.264  14.440  1.00  0.00     0.276 HD
ATOM     46  H71 UNL     1      12.309  18.346  15.685  1.00  0.00     0.276 HD
ENDBRANCH  42  43
ENDBRANCH  36  42
ENDBRANCH  34  36
ENDBRANCH   1  28
TORSDOF 12
ENDMDL
MODEL 2
REMARK VINA RESULT: -9.238785220      3.312     10.592
REMARK  12 active torsions:
REMARK  status: ('A' for Active; 'I' for Inactive)
REMARK    1  A    between atoms: C2_2  and  C3_3 
REMARK    2  A    between atoms: C3_3  and  N1_4 
REMARK    3  A    between atoms: C5_8  and  C6_9 
REMARK    4  A    between atoms: C6_9  and  C7_10 
REMARK    5  A    between atoms: C7_10  and  N3_11 
REMARK    6  A    between atoms: C7_10  and  C17_27 
REMARK       I    between atoms: N3_11  and  C8_13 
REMARK    7  A    between atoms: C8_13  and  C9_15 
REMARK    8  A    between atoms: C9_15  and  N4_16 
REMARK       I    between atoms: N4_16  and  C10_18 
REMARK    9  A    between atoms: C10_18  and  O3_20 
REMARK       I    between atoms: C17_27  and  N5_29 
REMARK   10  A    between atoms: N6_32  and  C20_33 
REMARK   11  A    between atoms: C20_33  and  C21_34 
REMARK   12  A    between atoms: C21_34  and  N7_35 
ROOT
HETATM    1  C7  UNL     1      13.995  22.607  15.593  1.00  0.00     0.182 C 
ENDROOT
BRANCH   1   2
HETATM    2  C6  UNL     1      12.924  22.902  14.560  1.00  0.00     0.093 C 
BRANCH   2   3
HETATM    3  C5  UNL     1      11.965  21.783  14.394  1.00  0.00     0.028 A 
HETATM    4  N2  UNL     1      10.739  21.663  14.916  1.00  0.00    -0.354 N 
HETATM    5  C4  UNL     1      10.181  20.504  14.545  1.00  0.00     0.183 A 
ATOM      6  H2  UNL     1      10.291  22.357  15.514  1.00  0.00     0.166 HD
HETATM    7  N1  UNL     1      11.083  19.853  13.753  1.00  0.00    -0.348 N 
HETATM    8  C30 UNL     1      12.159  20.629  13.665  1.00  0.00     0.117 A 
BRANCH   7   9
HETATM    9  C3  UNL     1      10.883  18.549  13.132  1.00  0.00     0.155 C 
BRANCH   9  10
HETATM   10  C2  UNL     1      12.060  18.181  12.312  1.00  0.00    -0.017 C 
HETATM   11  C1  UNL     1      12.308  16.930  11.945  1.00  0.00     0.008 C 
ENDBRANCH   9  10
ENDBRANCH   7   9
ENDBRANCH   2   3
ENDBRANCH   1   2
BRANCH   1  12
HETATM   12  N3  UNL     1      13.737  21.227  16.037  1.00  0.00    -0.345 N 
HETATM   13  C8  UNL     1      13.621  20.896  17.409  1.00  0.00     0.246 C 
HETATM   14  O1  UNL     1      13.745  21.821  18.234  1.00  0.00    -0.271 OA
ATOM     15  H3  UNL     1      13.640  20.491  15.338  1.00  0.00     0.163 HD
BRANCH  13  16
HETATM   16  C9  UNL     1      13.362  19.524  17.893  1.00  0.00     0.116 C 
HETATM   17  C12 UNL     1      14.640  18.757  17.860  1.00  0.00     0.041 C 
HETATM   18  C13 UNL     1      14.652  17.491  18.654  1.00  0.00     0.003 C 
HETATM   19  C14 UNL     1      13.617  17.453  19.747  1.00  0.00     0.000 C 
HETATM   20  C15 UNL     1      13.532  18.859  20.305  1.00  0.00     0.003 C 
HETATM   21  C16 UNL     1      12.773  19.664  19.275  1.00  0.00     0.041 C 
BRANCH  16  22
HETATM   22  N4  UNL     1      12.350  18.935  17.044  1.00  0.00    -0.319 N 
HETATM   23  C10 UNL     1      11.067  18.530  17.425  1.00  0.00     0.361 C 
HETATM   24  O2  UNL     1      10.605  18.625  18.573  1.00  0.00    -0.238 OA
ATOM     25  H4  UNL     1      12.598  18.801  16.064  1.00  0.00     0.166 HD
BRANCH  23  26
HETATM   26  O3  UNL     1      10.204  17.971  16.470  1.00  0.00    -0.309 OA
HETATM   27  C11 UNL     1      10.218  16.569  16.220  1.00  0.00     0.215 C 
ENDBRANCH  23  26
ENDBRANCH  16  22
ENDBRANCH  13  16
ENDBRANCH   1  12
BRANCH   1  28
HETATM   28  C17 UNL     1      15.344  22.740  15.068  1.00  0.00     0.243 C 
HETATM   29  O4  UNL     1      15.611  22.397  13.897  1.00  0.00    -0.271 OA
HETATM   30  N5  UNL     1      16.401  23.260  15.868  1.00  0.00    -0.347 N 
HETATM   31  C18 UNL     1      17.719  23.429  15.288  1.00  0.00     0.156 C 
HETATM   32  C29 UNL     1      16.144  23.564  17.235  1.00  0.00     0.156 C 
HETATM   33  C19 UNL     1      18.812  23.834  16.190  1.00  0.00     0.293 C 
HETATM   34  N6  UNL     1      18.477  23.716  17.565  1.00  0.00     0.103 N 
HETATM   35  C28 UNL     1      17.242  24.510  17.725  1.00  0.00     0.293 C 
BRANCH  34  36
HETATM   36  C20 UNL     1      19.408  24.175  18.529  1.00  0.00     0.183 C 
HETATM   37  C23 UNL     1      18.642  24.772  19.690  1.00  0.00     0.043 C 
HETATM   38  C24 UNL     1      19.013  24.177  21.025  1.00  0.00     0.003 C 
HETATM   39  C25 UNL     1      18.875  22.693  21.105  1.00  0.00     0.000 C 
HETATM   40  C26 UNL     1      19.331  22.089  19.798  1.00  0.00     0.003 C 
HETATM   41  C27 UNL     1      20.260  23.079  19.127  1.00  0.00     0.043 C 
BRANCH  36  42
HETATM   42  C21 UNL     1      20.301  25.257  17.958  1.00  0.00     0.273 C 
BRANCH  42  43
HETATM   43  N7  UNL     1      20.001  26.563  18.521  1.00  0.00    -0.076 N 
HETATM   44  C22 UNL     1      21.108  27.484  18.332  1.00  0.00     0.267 C 
ATOM     45  H72 UNL     1      19.131  26.941  18.147  1.00  0.00     0.276 HD
ATOM     46  H71 UNL     1      19.733  26.496  19.503  1.00  0.00     0.276 HD
ENDBRANCH  42  43
ENDBRANCH  36  42
ENDBRANCH  34  36
ENDBRANCH   1  28
TORSDOF 12
ENDMDL
MODEL 3
REMARK VINA RESULT: -8.982804481      3.692     11.179
REMARK  12 active torsions:
REMARK  status: ('A' for Active; 'I' for Inactive)
REMARK    1  A    between atoms: C2_2  and  C3_3 
REMARK    2  A    between atoms: C3_3  and  N1_4 
REMARK    3  A    between atoms: C5_8  and  C6_9 
REMARK    4  A    between atoms: C6_9  and  C7_10 
REMARK    5  A    between atoms: C7_10  and  N3_11 
REMARK    6  A    between atoms: C7_10  and  C17_27 
REMARK       I    between atoms: N3_11  and  C8_13 
REMARK    7  A    between atoms: C8_13  and  C9_15 
REMARK    8  A    between atoms: C9_15  and  N4_16 
REMARK       I    between atoms: N4_16  and  C10_18 
REMARK    9  A    between atoms: C10_18  and  O3_20 
REMARK       I    between atoms: C17_27  and  N5_29 
REMARK   10  A    between atoms: N6_32  and  C20_33 
REMARK   11  A    between atoms: C20_33  and  C21_34 
REMARK   12  A    between atoms: C21_34  and  N7_35 
ROOT
HETATM    1  C7  UNL     1      13.197  21.388  15.400  1.00  0.00     0.182 C 
ENDROOT
BRANCH   1   2
HETATM    2  C6  UNL     1      12.159  21.358  14.295  1.00  0.00     0.093 C 
BRANCH   2   3
HETATM    3  C5  UNL     1      11.907  19.989  13.783  1.00  0.00     0.028 A 
HETATM    4  N2  UNL     1      12.727  19.214  13.063  1.00  0.00    -0.354 N 
HETATM    5  C4  UNL     1      12.141  18.043  12.783  1.00  0.00     0.183 A 
ATOM      6  H2  UNL     1      13.666  19.479  12.768  1.00  0.00     0.166 HD
HETATM    7  N1  UNL     1      10.897  18.066  13.345  1.00  0.00    -0.348 N 
HETATM    8  C30 UNL     1      10.760  19.242  13.948  1.00  0.00     0.117 A 
BRANCH   7   9
HETATM    9  C3  UNL     1       9.916  16.988  13.281  1.00  0.00     0.155 C 
BRANCH   9  10
HETATM   10  C2  UNL     1      10.504  15.791  12.637  1.00  0.00    -0.017 C 
HETATM   11  C1  UNL     1       9.934  14.595  12.707  1.00  0.00     0.008 C 
ENDBRANCH   9  10
ENDBRANCH   7   9
ENDBRANCH   2   3
ENDBRANCH   1   2
BRANCH   1  12
HETATM   12  N3  UNL     1      13.048  20.106  16.109  1.00  0.00    -0.345 N 
HETATM   13  C8  UNL     1      12.934  20.043  17.519  1.00  0.00     0.246 C 
HETATM   14  O1  UNL     1      12.965  21.120  18.145  1.00  0.00    -0.271 OA
ATOM     15  H3  UNL     1      13.027  19.240  15.569  1.00  0.00     0.163 HD
BRANCH  13  16
HETATM   16  C9  UNL     1      12.783  18.776  18.264  1.00  0.00     0.116 C 
HETATM   17  C12 UNL     1      14.036  18.522  19.031  1.00  0.00     0.041 C 
HETATM   18  C13 UNL     1      13.929  17.503  20.120  1.00  0.00     0.003 C 
HETATM   19  C14 UNL     1      12.521  17.291  20.613  1.00  0.00     0.000 C 
HETATM   20  C15 UNL     1      11.851  18.649  20.589  1.00  0.00     0.003 C 
HETATM   21  C16 UNL     1      11.561  18.937  19.134  1.00  0.00     0.041 C 
BRANCH  16  22
HETATM   22  N4  UNL     1      12.505  17.727  17.309  1.00  0.00    -0.319 N 
HETATM   23  C10 UNL     1      11.341  16.958  17.222  1.00  0.00     0.361 C 
HETATM   24  O2  UNL     1      10.357  17.074  17.970  1.00  0.00    -0.238 OA
ATOM     25  H4  UNL     1      13.236  17.526  16.626  1.00  0.00     0.166 HD
BRANCH  23  26
HETATM   26  O3  UNL     1      11.233  15.971  16.230  1.00  0.00    -0.309 OA
HETATM   27  C11 UNL     1      10.331  14.882  16.393  1.00  0.00     0.215 C 
ENDBRANCH  23  26
ENDBRANCH  16  22
ENDBRANCH  13  16
ENDBRANCH   1  12
BRANCH   1  28
HETATM   28  C17 UNL     1      14.553  21.553  14.904  1.00  0.00     0.243 C 
HETATM   29  O4  UNL     1      14.927  20.973  13.862  1.00  0.00    -0.271 OA
HETATM   30  N5  UNL     1      15.497  22.372  15.586  1.00  0.00    -0.347 N 
HETATM   31  C18 UNL     1      16.822  22.554  15.025  1.00  0.00     0.156 C 
HETATM   32  C29 UNL     1      15.126  22.961  16.827  1.00  0.00     0.156 C 
HETATM   33  C19 UNL     1      17.807  23.292  15.836  1.00  0.00     0.293 C 
HETATM   34  N6  UNL     1      17.403  23.468  17.186  1.00  0.00     0.103 N 
HETATM   35  C28 UNL     1      16.083  24.122  17.106  1.00  0.00     0.293 C 
BRANCH  34  36
HETATM   36  C20 UNL     1      18.220  24.252  18.038  1.00  0.00     0.183 C 
HETATM   37  C23 UNL     1      17.430  24.582  19.288  1.00  0.00     0.043 C 
HETATM   38  C24 UNL     1      18.136  24.195  20.563  1.00  0.00     0.003 C 
HETATM   39  C25 UNL     1      18.536  22.760  20.644  1.00  0.00     0.000 C 
HETATM   40  C26 UNL     1      19.022  22.311  19.285  1.00  0.00     0.003 C 
HETATM   41  C27 UNL     1      19.463  23.541  18.520  1.00  0.00     0.043 C 
BRANCH  36  42
HETATM   42  C21 UNL     1      18.606  25.560  17.377  1.00  0.00     0.273 C 
BRANCH  42  43
HETATM   43  N7  UNL     1      19.755  26.175  18.019  1.00  0.00    -0.076 N 
HETATM   44  C22 UNL     1      20.449  27.070  17.109  1.00  0.00     0.267 C 
ATOM     45  H72 UNL     1      19.493  26.649  18.883  1.00  0.00     0.276 HD
ATOM     46  H71 UNL     1      20.386  25.476  18.410  1.00  0.00     0.276 HD
ENDBRANCH  42  43
ENDBRANCH  36  42
ENDBRANCH  34  36
ENDBRANCH   1  28
TORSDOF 12
ENDMDL
MODEL 4
REMARK VINA RESULT: -8.925799571      5.186     11.867
REMARK  12 active torsions:
REMARK  status: ('A' for Active; 'I' for Inactive)
REMARK    1  A    between atoms: C2_2  and  C3_3 
REMARK    2  A    between atoms: C3_3  and  N1_4 
REMARK    3  A    between atoms: C5_8  and  C6_9 
REMARK    4  A    between atoms: C6_9  and  C7_10 
REMARK    5  A    between atoms: C7_10  and  N3_11 
REMARK    6  A    between atoms: C7_10  and  C17_27 
REMARK       I    between atoms: N3_11  and  C8_13 
REMARK    7  A    between atoms: C8_13  and  C9_15 
REMARK    8  A    between atoms: C9_15  and  N4_16 
REMARK       I    between atoms: N4_16  and  C10_18 
REMARK    9  A    between atoms: C10_18  and  O3_20 
REMARK       I    between atoms: C17_27  and  N5_29 
REMARK   10  A    between atoms: N6_32  and  C20_33 
REMARK   11  A    between atoms: C20_33  and  C21_34 
REMARK   12  A    between atoms: C21_34  and  N7_35 
ROOT
HETATM    1  C7  UNL     1      11.105  19.582  14.728  1.00  0.00     0.182 C 
ENDROOT
BRANCH   1   2
HETATM    2  C6  UNL     1      10.015  18.863  13.956  1.00  0.00     0.093 C 
BRANCH   2   3
HETATM    3  C5  UNL     1      10.266  17.407  13.833  1.00  0.00     0.028 A 
HETATM    4  N2  UNL     1      11.422  16.789  13.562  1.00  0.00    -0.354 N 
HETATM    5  C4  UNL     1      11.250  15.462  13.526  1.00  0.00     0.183 A 
ATOM      6  H2  UNL     1      12.311  17.263  13.404  1.00  0.00     0.166 HD
HETATM    7  N1  UNL     1       9.932  15.216  13.784  1.00  0.00    -0.348 N 
HETATM    8  C30 UNL     1       9.342  16.392  13.969  1.00  0.00     0.117 A 
BRANCH   7   9
HETATM    9  C3  UNL     1       9.308  13.899  13.840  1.00  0.00     0.155 C 
BRANCH   9  10
HETATM   10  C2  UNL     1      10.074  13.001  14.734  1.00  0.00    -0.017 C 
HETATM   11  C1  UNL     1       9.510  11.986  15.375  1.00  0.00     0.008 C 
ENDBRANCH   9  10
ENDBRANCH   7   9
ENDBRANCH   2   3
ENDBRANCH   1   2
BRANCH   1  12
HETATM   12  N3  UNL     1      11.448  18.685  15.844  1.00  0.00    -0.345 N 
HETATM   13  C8  UNL     1      11.052  18.966  17.174  1.00  0.00     0.246 C 
HETATM   14  O1  UNL     1      10.397  20.008  17.369  1.00  0.00    -0.271 OA
ATOM     15  H3  UNL     1      11.985  17.839  15.654  1.00  0.00     0.163 HD
BRANCH  13  16
HETATM   16  C9  UNL     1      11.376  18.090  18.319  1.00  0.00     0.116 C 
HETATM   17  C12 UNL     1      12.808  17.686  18.220  1.00  0.00     0.041 C 
HETATM   18  C13 UNL     1      13.406  17.120  19.467  1.00  0.00     0.003 C 
HETATM   19  C14 UNL     1      12.676  17.521  20.723  1.00  0.00     0.000 C 
HETATM   20  C15 UNL     1      12.224  18.952  20.516  1.00  0.00     0.003 C 
HETATM   21  C16 UNL     1      11.053  18.878  19.564  1.00  0.00     0.041 C 
BRANCH  16  22
HETATM   22  N4  UNL     1      10.484  16.952  18.277  1.00  0.00    -0.319 N 
HETATM   23  C10 UNL     1      10.616  15.813  17.478  1.00  0.00     0.361 C 
HETATM   24  O2  UNL     1      11.540  15.612  16.675  1.00  0.00    -0.238 OA
ATOM     25  H4  UNL     1       9.674  16.984  18.896  1.00  0.00     0.166 HD
BRANCH  23  26
HETATM   26  O3  UNL     1       9.653  14.794  17.558  1.00  0.00    -0.309 OA
HETATM   27  C11 UNL     1       8.280  15.079  17.313  1.00  0.00     0.215 C 
ENDBRANCH  23  26
ENDBRANCH  16  22
ENDBRANCH  13  16
ENDBRANCH   1  12
BRANCH   1  28
HETATM   28  C17 UNL     1      12.276  19.876  13.919  1.00  0.00     0.243 C 
HETATM   29  O4  UNL     1      12.400  19.390  12.775  1.00  0.00    -0.271 OA
HETATM   30  N5  UNL     1      13.317  20.719  14.402  1.00  0.00    -0.347 N 
HETATM   31  C18 UNL     1      14.440  21.031  13.540  1.00  0.00     0.156 C 
HETATM   32  C29 UNL     1      13.245  21.202  15.738  1.00  0.00     0.156 C 
HETATM   33  C19 UNL     1      15.559  21.789  14.131  1.00  0.00     0.293 C 
HETATM   34  N6  UNL     1      15.507  21.852  15.548  1.00  0.00     0.103 N 
HETATM   35  C28 UNL     1      14.176  22.411  15.856  1.00  0.00     0.293 C 
BRANCH  34  36
HETATM   36  C20 UNL     1      16.470  22.641  16.224  1.00  0.00     0.183 C 
HETATM   37  C23 UNL     1      15.829  23.218  17.469  1.00  0.00     0.043 C 
HETATM   38  C24 UNL     1      16.595  22.921  18.733  1.00  0.00     0.003 C 
HETATM   39  C25 UNL     1      16.848  21.472  18.983  1.00  0.00     0.000 C 
HETATM   40  C26 UNL     1      17.167  20.798  17.669  1.00  0.00     0.003 C 
HETATM   41  C27 UNL     1      17.669  21.860  16.712  1.00  0.00     0.043 C 
BRANCH  36  42
HETATM   42  C21 UNL     1      16.934  23.798  15.363  1.00  0.00     0.273 C 
BRANCH  42  43
HETATM   43  N7  UNL     1      16.733  25.079  16.020  1.00  0.00    -0.076 N 
HETATM   44  C22 UNL     1      17.955  25.863  16.029  1.00  0.00     0.267 C 
ATOM     45  H72 UNL     1      15.959  25.597  15.603  1.00  0.00     0.276 HD
ATOM     46  H71 UNL     1      16.354  24.964  16.960  1.00  0.00     0.276 HD
ENDBRANCH  42  43
ENDBRANCH  36  42
ENDBRANCH  34  36
ENDBRANCH   1  28
TORSDOF 12
ENDMDL
MODEL 5
REMARK VINA RESULT: -8.900368906      4.305     11.506
REMARK  12 active torsions:
REMARK  status: ('A' for Active; 'I' for Inactive)
REMARK    1  A    between atoms: C2_2  and  C3_3 
REMARK    2  A    between atoms: C3_3  and  N1_4 
REMARK    3  A    between atoms: C5_8  and  C6_9 
REMARK    4  A    between atoms: C6_9  and  C7_10 
REMARK    5  A    between atoms: C7_10  and  N3_11 
REMARK    6  A    between atoms: C7_10  and  C17_27 
REMARK       I    between atoms: N3_11  and  C8_13 
REMARK    7  A    between atoms: C8_13  and  C9_15 
REMARK    8  A    between atoms: C9_15  and  N4_16 
REMARK       I    between atoms: N4_16  and  C10_18 
REMARK    9  A    between atoms: C10_18  and  O3_20 
REMARK       I    between atoms: C17_27  and  N5_29 
REMARK   10  A    between atoms: N6_32  and  C20_33 
REMARK   11  A    between atoms: C20_33  and  C21_34 
REMARK   12  A    between atoms: C21_34  and  N7_35 
ROOT
HETATM    1  C7  UNL     1      11.996  20.659  14.887  1.00  0.00     0.182 C 
ENDROOT
BRANCH   1   2
HETATM    2  C6  UNL     1      10.931  20.085  13.972  1.00  0.00     0.093 C 
BRANCH   2   3
HETATM    3  C5  UNL     1      11.270  18.728  13.479  1.00  0.00     0.028 A 
HETATM    4  N2  UNL     1      12.259  18.374  12.650  1.00  0.00    -0.354 N 
HETATM    5  C4  UNL     1      12.241  17.054  12.433  1.00  0.00     0.183 A 
ATOM      6  H2  UNL     1      12.933  19.021  12.241  1.00  0.00     0.166 HD
HETATM    7  N1  UNL     1      11.199  16.537  13.149  1.00  0.00    -0.348 N 
HETATM    8  C30 UNL     1      10.616  17.552  13.779  1.00  0.00     0.117 A 
BRANCH   7   9
HETATM    9  C3  UNL     1      10.815  15.131  13.198  1.00  0.00     0.155 C 
BRANCH   9  10
HETATM   10  C2  UNL     1       9.343  15.000  13.286  1.00  0.00    -0.017 C 
HETATM   11  C1  UNL     1       8.739  13.823  13.378  1.00  0.00     0.008 C 
ENDBRANCH   9  10
ENDBRANCH   7   9
ENDBRANCH   2   3
ENDBRANCH   1   2
BRANCH   1  12
HETATM   12  N3  UNL     1      12.368  19.556  15.789  1.00  0.00    -0.345 N 
HETATM   13  C8  UNL     1      11.816  19.437  17.087  1.00  0.00     0.246 C 
HETATM   14  O1  UNL     1      10.997  20.307  17.443  1.00  0.00    -0.271 OA
ATOM     15  H3  UNL     1      13.042  18.859  15.470  1.00  0.00     0.163 HD
BRANCH  13  16
HETATM   16  C9  UNL     1      12.164  18.346  18.020  1.00  0.00     0.116 C 
HETATM   17  C12 UNL     1      13.546  18.577  18.530  1.00  0.00     0.041 C 
HETATM   18  C13 UNL     1      13.921  17.798  19.750  1.00  0.00     0.003 C 
HETATM   19  C14 UNL     1      12.737  17.332  20.557  1.00  0.00     0.000 C 
HETATM   20  C15 UNL     1      11.707  18.441  20.484  1.00  0.00     0.003 C 
HETATM   21  C16 UNL     1      11.110  18.354  19.099  1.00  0.00     0.041 C 
BRANCH  16  22
HETATM   22  N4  UNL     1      12.049  17.094  17.305  1.00  0.00    -0.319 N 
HETATM   23  C10 UNL     1      10.928  16.261  17.249  1.00  0.00     0.361 C 
HETATM   24  O2  UNL     1       9.847  16.486  17.816  1.00  0.00    -0.238 OA
ATOM     25  H4  UNL     1      12.872  16.787  16.787  1.00  0.00     0.166 HD
BRANCH  23  26
HETATM   26  O3  UNL     1      10.984  15.071  16.506  1.00  0.00    -0.309 OA
HETATM   27  C11 UNL     1      10.136  13.976  16.834  1.00  0.00     0.215 C 
ENDBRANCH  23  26
ENDBRANCH  16  22
ENDBRANCH  13  16
ENDBRANCH   1  12
BRANCH   1  28
HETATM   28  C17 UNL     1      13.158  21.156  14.168  1.00  0.00     0.243 C 
HETATM   29  O4  UNL     1      13.280  20.961  12.940  1.00  0.00    -0.271 OA
HETATM   30  N5  UNL     1      14.190  21.873  14.835  1.00  0.00    -0.347 N 
HETATM   31  C18 UNL     1      15.303  22.401  14.070  1.00  0.00     0.156 C 
HETATM   32  C29 UNL     1      14.122  22.020  16.249  1.00  0.00     0.156 C 
HETATM   33  C19 UNL     1      16.416  23.011  14.821  1.00  0.00     0.293 C 
HETATM   34  N6  UNL     1      16.373  22.730  16.212  1.00  0.00     0.103 N 
HETATM   35  C28 UNL     1      15.037  23.179  16.650  1.00  0.00     0.293 C 
BRANCH  34  36
HETATM   36  C20 UNL     1      17.330  23.348  17.054  1.00  0.00     0.183 C 
HETATM   37  C23 UNL     1      16.629  23.820  18.311  1.00  0.00     0.043 C 
HETATM   38  C24 UNL     1      17.262  23.308  19.580  1.00  0.00     0.003 C 
HETATM   39  C25 UNL     1      17.386  21.823  19.660  1.00  0.00     0.000 C 
HETATM   40  C26 UNL     1      17.766  21.291  18.298  1.00  0.00     0.003 C 
HETATM   41  C27 UNL     1      18.423  22.416  17.526  1.00  0.00     0.043 C 
BRANCH  36  42
HETATM   42  C21 UNL     1      17.949  24.559  16.387  1.00  0.00     0.273 C 
BRANCH  42  43
HETATM   43  N7  UNL     1      18.109  25.668  17.313  1.00  0.00    -0.076 N 
HETATM   44  C22 UNL     1      19.489  26.119  17.359  1.00  0.00     0.267 C 
ATOM     45  H72 UNL     1      17.472  26.434  17.094  1.00  0.00     0.276 HD
ATOM     46  H71 UNL     1      17.759  25.434  18.242  1.00  0.00     0.276 HD
ENDBRANCH  42  43
ENDBRANCH  36  42
ENDBRANCH  34  36
ENDBRANCH   1  28
TORSDOF 12
ENDMDL
