MODEL 1
REMARK VINA RESULT: -6.727920440      0.000      0.000
REMARK  5 active torsions:
REMARK  status: ('A' for Active; 'I' for Inactive)
REMARK    1  A    between atoms: C1_2  and  C2_3 
REMARK       I    between atoms: C1_2  and  N1_5 
REMARK    2  A    between atoms: N1_5  and  C3_7 
REMARK    3  A    between atoms: C3_7  and  C4_8 
REMARK    4  A    between atoms: C4_8  and  C5_9 
REMARK    5  A    between atoms: C4_8  and  N6_24 
ROOT
HETATM    1  C4  UNL     1      39.721 -19.483  14.843  1.00  0.00     0.165 C 
ENDROOT
BRANCH   1   2
HETATM    2  C3  UNL     1      40.082 -20.196  16.160  1.00  0.00     0.155 C 
BRANCH   2   3
HETATM    3  N1  UNL     1      39.659 -21.552  16.151  1.00  0.00    -0.358 N 
HETATM    4  C1  UNL     1      40.596 -22.591  15.958  1.00  0.00     0.227 C 
HETATM    5  O1  UNL     1      41.838 -22.344  15.788  1.00  0.00    -0.273 OA
ATOM      6  H1  UNL     1      38.673 -21.777  16.285  1.00  0.00     0.162 HD
BRANCH   4   7
HETATM    7  C2  UNL     1      40.204 -24.025  15.940  1.00  0.00     0.188 C 
HETATM    8  S1  UNL     1      39.006 -24.383  17.254  1.00  0.00    -0.088 SA
ENDBRANCH   4   7
ENDBRANCH   2   3
ENDBRANCH   1   2
BRANCH   1   9
HETATM    9  C5  UNL     1      38.524 -18.683  15.148  1.00  0.00     0.108 A 
HETATM   10  N2  UNL     1      37.746 -18.038  14.278  1.00  0.00    -0.337 N 
HETATM   11  C6  UNL     1      36.743 -17.414  14.913  1.00  0.00     0.147 A 
ATOM     12  H2  UNL     1      37.894 -18.020  13.268  1.00  0.00     0.167 HD
HETATM   13  C7  UNL     1      35.674 -16.618  14.489  1.00  0.00     0.280 A 
HETATM   14  C9  UNL     1      36.915 -17.694  16.252  1.00  0.00     0.143 A 
HETATM   15  O2  UNL     1      35.534 -16.373  13.263  1.00  0.00    -0.265 OA
HETATM   16  N3  UNL     1      34.842 -16.151  15.435  1.00  0.00    -0.273 N 
HETATM   17  C8  UNL     1      35.030 -16.436  16.736  1.00  0.00     0.328 A 
ATOM     18  H3  UNL     1      34.051 -15.569  15.161  1.00  0.00     0.173 HD
HETATM   19  O3  UNL     1      34.186 -15.946  17.558  1.00  0.00    -0.247 OA
HETATM   20  N4  UNL     1      36.051 -17.200  17.162  1.00  0.00    -0.292 N 
ATOM     21  H4  UNL     1      36.170 -17.401  18.155  1.00  0.00     0.172 HD
HETATM   22  N5  UNL     1      38.019 -18.477  16.372  1.00  0.00    -0.328 N 
ATOM     23  H5  UNL     1      38.398 -18.845  17.245  1.00  0.00     0.169 HD
ENDBRANCH   1   9
BRANCH   1  24
HETATM   24  N6  UNL     1      40.827 -18.804  14.295  1.00  0.00    -0.397 N 
HETATM   25  C10 UNL     1      41.833 -19.547  13.635  1.00  0.00     0.145 C 
HETATM   26  C11 UNL     1      42.733 -18.594  12.867  1.00  0.00     0.251 C 
HETATM   27  N7  UNL     1      43.342 -17.620  13.748  1.00  0.00    -0.072 N 
HETATM   28  C12 UNL     1      42.316 -16.865  14.412  1.00  0.00     0.251 C 
ATOM     29  H72 UNL     1      43.991 -18.050  14.407  1.00  0.00     0.277 HD
ATOM     30  H71 UNL     1      44.007 -17.021  13.259  1.00  0.00     0.277 HD
HETATM   31  C13 UNL     1      41.279 -17.725  15.104  1.00  0.00     0.145 C 
ENDBRANCH   1  24
TORSDOF 5
ENDMDL
MODEL 2
REMARK VINA RESULT: -6.673993084      3.576      4.801
REMARK  5 active torsions:
REMARK  status: ('A' for Active; 'I' for Inactive)
REMARK    1  A    between atoms: C1_2  and  C2_3 
REMARK       I    between atoms: C1_2  and  N1_5 
REMARK    2  A    between atoms: N1_5  and  C3_7 
REMARK    3  A    between atoms: C3_7  and  C4_8 
REMARK    4  A    between atoms: C4_8  and  C5_9 
REMARK    5  A    between atoms: C4_8  and  N6_24 
ROOT
HETATM    1  C4  UNL     1      39.954 -17.645  14.916  1.00  0.00     0.165 C 
ENDROOT
BRANCH   1   2
HETATM    2  C3  UNL     1      39.915 -17.195  13.443  1.00  0.00     0.155 C 
BRANCH   2   3
HETATM    3  N1  UNL     1      40.622 -15.978  13.252  1.00  0.00    -0.358 N 
HETATM    4  C1  UNL     1      41.335 -15.747  12.054  1.00  0.00     0.227 C 
HETATM    5  O1  UNL     1      41.364 -16.616  11.118  1.00  0.00    -0.273 OA
ATOM      6  H1  UNL     1      40.616 -15.267  13.983  1.00  0.00     0.162 HD
BRANCH   4   7
HETATM    7  C2  UNL     1      42.091 -14.491  11.806  1.00  0.00     0.188 C 
HETATM    8  S1  UNL     1      43.212 -14.679  10.393  1.00  0.00    -0.088 SA
ENDBRANCH   4   7
ENDBRANCH   2   3
ENDBRANCH   1   2
BRANCH   1   9
HETATM    9  C5  UNL     1      38.549 -17.865  15.293  1.00  0.00     0.108 A 
HETATM   10  N2  UNL     1      37.600 -16.937  15.429  1.00  0.00    -0.337 N 
HETATM   11  C6  UNL     1      36.435 -17.501  15.782  1.00  0.00     0.147 A 
ATOM     12  H2  UNL     1      37.741 -15.937  15.284  1.00  0.00     0.167 HD
HETATM   13  C7  UNL     1      35.157 -16.999  16.048  1.00  0.00     0.280 A 
HETATM   14  C9  UNL     1      36.684 -18.855  15.868  1.00  0.00     0.143 A 
HETATM   15  O2  UNL     1      34.950 -15.761  15.965  1.00  0.00    -0.265 OA
HETATM   16  N3  UNL     1      34.206 -17.887  16.382  1.00  0.00    -0.273 N 
HETATM   17  C8  UNL     1      34.471 -19.203  16.460  1.00  0.00     0.328 A 
ATOM     18  H3  UNL     1      33.261 -17.555  16.580  1.00  0.00     0.173 HD
HETATM   19  O3  UNL     1      33.502 -19.965  16.786  1.00  0.00    -0.247 OA
HETATM   20  N4  UNL     1      35.693 -19.703  16.208  1.00  0.00    -0.292 N 
ATOM     21  H4  UNL     1      35.868 -20.706  16.274  1.00  0.00     0.172 HD
HETATM   22  N5  UNL     1      37.993 -19.054  15.562  1.00  0.00    -0.328 N 
ATOM     23  H5  UNL     1      38.470 -19.955  15.541  1.00  0.00     0.169 HD
ENDBRANCH   1   9
BRANCH   1  24
HETATM   24  N6  UNL     1      40.849 -18.715  15.113  1.00  0.00    -0.397 N 
HETATM   25  C10 UNL     1      42.014 -18.505  15.887  1.00  0.00     0.145 C 
HETATM   26  C11 UNL     1      42.640 -19.849  16.219  1.00  0.00     0.251 C 
HETATM   27  N7  UNL     1      42.976 -20.584  15.018  1.00  0.00    -0.072 N 
HETATM   28  C12 UNL     1      41.789 -20.799  14.239  1.00  0.00     0.251 C 
ATOM     29  H72 UNL     1      43.713 -20.128  14.481  1.00  0.00     0.277 HD
ATOM     30  H71 UNL     1      43.465 -21.456  15.225  1.00  0.00     0.277 HD
HETATM   31  C13 UNL     1      41.007 -19.532  13.960  1.00  0.00     0.145 C 
ENDBRANCH   1  24
TORSDOF 5
ENDMDL
MODEL 3
REMARK VINA RESULT: -6.671643140      2.566      5.852
REMARK  5 active torsions:
REMARK  status: ('A' for Active; 'I' for Inactive)
REMARK    1  A    between atoms: C1_2  and  C2_3 
REMARK       I    between atoms: C1_2  and  N1_5 
REMARK    2  A    between atoms: N1_5  and  C3_7 
REMARK    3  A    between atoms: C3_7  and  C4_8 
REMARK    4  A    between atoms: C4_8  and  C5_9 
REMARK    5  A    between atoms: C4_8  and  N6_24 
ROOT
HETATM    1  C4  UNL     1      39.586 -17.159  14.856  1.00  0.00     0.165 C 
ENDROOT
BRANCH   1   2
HETATM    2  C3  UNL     1      38.409 -17.012  13.872  1.00  0.00     0.155 C 
BRANCH   2   3
HETATM    3  N1  UNL     1      37.276 -16.428  14.499  1.00  0.00    -0.358 N 
HETATM    4  C1  UNL     1      36.166 -17.227  14.856  1.00  0.00     0.227 C 
HETATM    5  O1  UNL     1      36.150 -18.484  14.628  1.00  0.00    -0.273 OA
ATOM      6  H1  UNL     1      37.263 -15.426  14.693  1.00  0.00     0.162 HD
BRANCH   4   7
HETATM    7  C2  UNL     1      34.957 -16.663  15.513  1.00  0.00     0.188 C 
HETATM    8  S1  UNL     1      34.518 -17.622  16.988  1.00  0.00    -0.088 SA
ENDBRANCH   4   7
ENDBRANCH   2   3
ENDBRANCH   1   2
BRANCH   1   9
HETATM    9  C5  UNL     1      39.752 -18.608  15.048  1.00  0.00     0.108 A 
HETATM   10  N2  UNL     1      40.711 -19.381  14.535  1.00  0.00    -0.337 N 
HETATM   11  C6  UNL     1      40.549 -20.655  14.924  1.00  0.00     0.147 A 
ATOM     12  H2  UNL     1      41.463 -19.050  13.931  1.00  0.00     0.167 HD
HETATM   13  C7  UNL     1      41.252 -21.839  14.680  1.00  0.00     0.280 A 
HETATM   14  C9  UNL     1      39.425 -20.664  15.722  1.00  0.00     0.143 A 
HETATM   15  O2  UNL     1      42.275 -21.811  13.948  1.00  0.00    -0.265 OA
HETATM   16  N3  UNL     1      40.785 -22.961  15.253  1.00  0.00    -0.273 N 
HETATM   17  C8  UNL     1      39.685 -22.946  16.028  1.00  0.00     0.328 A 
ATOM     18  H3  UNL     1      41.274 -23.842  15.097  1.00  0.00     0.173 HD
HETATM   19  O3  UNL     1      39.321 -24.062  16.526  1.00  0.00    -0.247 OA
HETATM   20  N4  UNL     1      38.997 -21.818  16.273  1.00  0.00    -0.292 N 
ATOM     21  H4  UNL     1      38.166 -21.834  16.866  1.00  0.00     0.172 HD
HETATM   22  N5  UNL     1      38.951 -19.392  15.784  1.00  0.00    -0.328 N 
ATOM     23  H5  UNL     1      38.128 -19.086  16.301  1.00  0.00     0.169 HD
ENDBRANCH   1   9
BRANCH   1  24
HETATM   24  N6  UNL     1      40.715 -16.431  14.435  1.00  0.00    -0.397 N 
HETATM   25  C10 UNL     1      41.732 -16.135  15.372  1.00  0.00     0.145 C 
HETATM   26  C11 UNL     1      42.962 -15.638  14.632  1.00  0.00     0.251 C 
HETATM   27  N7  UNL     1      42.664 -14.461  13.844  1.00  0.00    -0.072 N 
HETATM   28  C12 UNL     1      41.634 -14.769  12.891  1.00  0.00     0.251 C 
ATOM     29  H72 UNL     1      42.422 -13.659  14.427  1.00  0.00     0.277 HD
ATOM     30  H71 UNL     1      43.496 -14.072  13.401  1.00  0.00     0.277 HD
HETATM   31  C13 UNL     1      40.403 -15.399  13.508  1.00  0.00     0.145 C 
ENDBRANCH   1  24
TORSDOF 5
ENDMDL
MODEL 4
REMARK VINA RESULT: -6.669904096      3.418      4.538
REMARK  5 active torsions:
REMARK  status: ('A' for Active; 'I' for Inactive)
REMARK    1  A    between atoms: C1_2  and  C2_3 
REMARK       I    between atoms: C1_2  and  N1_5 
REMARK    2  A    between atoms: N1_5  and  C3_7 
REMARK    3  A    between atoms: C3_7  and  C4_8 
REMARK    4  A    between atoms: C4_8  and  C5_9 
REMARK    5  A    between atoms: C4_8  and  N6_24 
ROOT
HETATM    1  C4  UNL     1      40.441 -17.576  15.192  1.00  0.00     0.165 C 
ENDROOT
BRANCH   1   2
HETATM    2  C3  UNL     1      40.681 -16.607  14.019  1.00  0.00     0.155 C 
BRANCH   2   3
HETATM    3  N1  UNL     1      41.549 -15.545  14.390  1.00  0.00    -0.358 N 
HETATM    4  C1  UNL     1      42.870 -15.495  13.891  1.00  0.00     0.227 C 
HETATM    5  O1  UNL     1      43.317 -16.393  13.100  1.00  0.00    -0.273 OA
ATOM      6  H1  UNL     1      41.216 -14.815  15.020  1.00  0.00     0.162 HD
BRANCH   4   7
HETATM    7  C2  UNL     1      43.816 -14.405  14.250  1.00  0.00     0.188 C 
HETATM    8  S1  UNL     1      44.976 -14.953  15.532  1.00  0.00    -0.088 SA
ENDBRANCH   4   7
ENDBRANCH   2   3
ENDBRANCH   1   2
BRANCH   1   9
HETATM    9  C5  UNL     1      38.996 -17.857  15.174  1.00  0.00     0.108 A 
HETATM   10  N2  UNL     1      38.074 -17.270  14.410  1.00  0.00    -0.337 N 
HETATM   11  C6  UNL     1      36.858 -17.780  14.661  1.00  0.00     0.147 A 
ATOM     12  H2  UNL     1      38.266 -16.535  13.729  1.00  0.00     0.167 HD
HETATM   13  C7  UNL     1      35.579 -17.528  14.155  1.00  0.00     0.280 A 
HETATM   14  C9  UNL     1      37.047 -18.736  15.636  1.00  0.00     0.143 A 
HETATM   15  O2  UNL     1      35.428 -16.652  13.265  1.00  0.00    -0.265 OA
HETATM   16  N3  UNL     1      34.566 -18.254  14.657  1.00  0.00    -0.273 N 
HETATM   17  C8  UNL     1      34.773 -19.182  15.609  1.00  0.00     0.328 A 
ATOM     18  H3  UNL     1      33.620 -18.098  14.309  1.00  0.00     0.173 HD
HETATM   19  O3  UNL     1      33.747 -19.817  16.022  1.00  0.00    -0.247 OA
HETATM   20  N4  UNL     1      35.995 -19.436  16.107  1.00  0.00    -0.292 N 
ATOM     21  H4  UNL     1      36.124 -20.146  16.829  1.00  0.00     0.172 HD
HETATM   22  N5  UNL     1      38.371 -18.766  15.936  1.00  0.00    -0.328 N 
ATOM     23  H5  UNL     1      38.814 -19.375  16.623  1.00  0.00     0.169 HD
ENDBRANCH   1   9
BRANCH   1  24
HETATM   24  N6  UNL     1      41.313 -18.681  15.146  1.00  0.00    -0.397 N 
HETATM   25  C10 UNL     1      42.502 -18.651  15.910  1.00  0.00     0.145 C 
HETATM   26  C11 UNL     1      43.103 -20.046  15.951  1.00  0.00     0.251 C 
HETATM   27  N7  UNL     1      43.388 -20.536  14.619  1.00  0.00    -0.072 N 
HETATM   28  C12 UNL     1      42.176 -20.569  13.849  1.00  0.00     0.251 C 
ATOM     29  H72 UNL     1      44.122 -19.996  14.160  1.00  0.00     0.277 HD
ATOM     30  H71 UNL     1      43.860 -21.440  14.634  1.00  0.00     0.277 HD
HETATM   31  C13 UNL     1      41.419 -19.257  13.850  1.00  0.00     0.145 C 
ENDBRANCH   1  24
TORSDOF 5
ENDMDL
MODEL 5
REMARK VINA RESULT: -6.631643393      1.955      2.222
REMARK  5 active torsions:
REMARK  status: ('A' for Active; 'I' for Inactive)
REMARK    1  A    between atoms: C1_2  and  C2_3 
REMARK       I    between atoms: C1_2  and  N1_5 
REMARK    2  A    between atoms: N1_5  and  C3_7 
REMARK    3  A    between atoms: C3_7  and  C4_8 
REMARK    4  A    between atoms: C4_8  and  C5_9 
REMARK    5  A    between atoms: C4_8  and  N6_24 
ROOT
HETATM    1  C4  UNL     1      39.863 -18.489  14.781  1.00  0.00     0.165 C 
ENDROOT
BRANCH   1   2
HETATM    2  C3  UNL     1      40.630 -19.331  15.818  1.00  0.00     0.155 C 
BRANCH   2   3
HETATM    3  N1  UNL     1      41.318 -20.412  15.205  1.00  0.00    -0.358 N 
HETATM    4  C1  UNL     1      40.754 -21.708  15.204  1.00  0.00     0.227 C 
HETATM    5  O1  UNL     1      39.622 -21.942  15.749  1.00  0.00    -0.273 OA
ATOM      6  H1  UNL     1      42.223 -20.252  14.763  1.00  0.00     0.162 HD
BRANCH   4   7
HETATM    7  C2  UNL     1      41.434 -22.872  14.576  1.00  0.00     0.188 C 
HETATM    8  S1  UNL     1      41.000 -24.411  15.431  1.00  0.00    -0.088 SA
ENDBRANCH   4   7
ENDBRANCH   2   3
ENDBRANCH   1   2
BRANCH   1   9
HETATM    9  C5  UNL     1      38.466 -18.477  15.246  1.00  0.00     0.108 A 
HETATM   10  N2  UNL     1      37.691 -17.408  15.432  1.00  0.00    -0.337 N 
HETATM   11  C6  UNL     1      36.474 -17.776  15.862  1.00  0.00     0.147 A 
ATOM     12  H2  UNL     1      37.983 -16.444  15.271  1.00  0.00     0.167 HD
HETATM   13  C7  UNL     1      35.314 -17.073  16.201  1.00  0.00     0.280 A 
HETATM   14  C9  UNL     1      36.505 -19.152  15.943  1.00  0.00     0.143 A 
HETATM   15  O2  UNL     1      35.305 -15.818  16.121  1.00  0.00    -0.265 OA
HETATM   16  N3  UNL     1      34.254 -17.795  16.601  1.00  0.00    -0.273 N 
HETATM   17  C8  UNL     1      34.306 -19.137  16.674  1.00  0.00     0.328 A 
ATOM     18  H3  UNL     1      33.390 -17.315  16.855  1.00  0.00     0.173 HD
HETATM   19  O3  UNL     1      33.248 -19.732  17.065  1.00  0.00    -0.247 OA
HETATM   20  N4  UNL     1      35.413 -19.829  16.351  1.00  0.00    -0.292 N 
ATOM     21  H4  UNL     1      35.426 -20.847  16.415  1.00  0.00     0.172 HD
HETATM   22  N5  UNL     1      37.742 -19.561  15.559  1.00  0.00    -0.328 N 
ATOM     23  H5  UNL     1      38.065 -20.528  15.516  1.00  0.00     0.169 HD
ENDBRANCH   1   9
BRANCH   1  24
HETATM   24  N6  UNL     1      40.478 -17.242  14.560  1.00  0.00    -0.397 N 
HETATM   25  C10 UNL     1      40.450 -16.681  13.261  1.00  0.00     0.145 C 
HETATM   26  C11 UNL     1      40.882 -15.226  13.338  1.00  0.00     0.251 C 
HETATM   27  N7  UNL     1      42.211 -15.100  13.898  1.00  0.00    -0.072 N 
HETATM   28  C12 UNL     1      42.232 -15.666  15.218  1.00  0.00     0.251 C 
ATOM     29  H72 UNL     1      42.924 -15.507  13.293  1.00  0.00     0.277 HD
ATOM     30  H71 UNL     1      42.544 -14.136  13.887  1.00  0.00     0.277 HD
HETATM   31  C13 UNL     1      41.692 -17.080  15.282  1.00  0.00     0.145 C 
ENDBRANCH   1  24
TORSDOF 5
ENDMDL
