MODEL 1
REMARK VINA RESULT: -6.794448467      0.000      0.000
REMARK  8 active torsions:
REMARK  status: ('A' for Active; 'I' for Inactive)
REMARK    1  A    between atoms: N1_1  and  C1_4 
REMARK    2  A    between atoms: C4_13  and  C5_14 
REMARK       I    between atoms: C5_14  and  N5_16 
REMARK    3  A    between atoms: N5_16  and  C6_18 
REMARK    4  A    between atoms: C6_18  and  C12_27 
REMARK    5  A    between atoms: C7_19  and  O3_20 
REMARK    6  A    between atoms: C7_19  and  N6_22 
REMARK    7  A    between atoms: C12_27  and  N7_28 
REMARK    8  A    between atoms: C12_27  and  C13_32 
ROOT
HETATM    1  C5  UNL     1      36.268  16.850 -15.461  1.00  0.00     0.263 C 
HETATM    2  O2  UNL     1      36.129  15.616 -15.773  1.00  0.00    -0.267 OA
HETATM    3  N5  UNL     1      37.289  17.297 -14.640  1.00  0.00    -0.320 N 
ATOM      4  H5  UNL     1      37.035  17.534 -13.681  1.00  0.00     0.169 HD
ENDROOT
BRANCH   3   5
HETATM    5  C6  UNL     1      38.563  17.448 -14.973  1.00  0.00     0.102 C 
HETATM    6  C7  UNL     1      39.401  16.358 -14.639  1.00  0.00     0.164 C 
BRANCH   6   7
HETATM    7  O3  UNL     1      38.746  15.353 -14.050  1.00  0.00    -0.345 OA
ATOM      8  H3  UNL     1      39.004  14.498 -14.374  1.00  0.00     0.219 HD
ENDBRANCH   6   7
BRANCH   6   9
HETATM    9  N6  UNL     1      40.771  16.091 -14.789  1.00  0.00    -0.360 N 
HETATM   10  C8  UNL     1      41.750  16.054 -15.825  1.00  0.00     0.125 C 
HETATM   11  C9  UNL     1      43.013  16.642 -15.175  1.00  0.00     0.021 C 
HETATM   12  C10 UNL     1      42.728  16.656 -13.701  1.00  0.00     0.021 C 
HETATM   13  C11 UNL     1      41.598  15.673 -13.590  1.00  0.00     0.125 C 
ENDBRANCH   6   9
BRANCH   5  14
HETATM   14  C12 UNL     1      38.912  18.696 -15.630  1.00  0.00     0.325 C 
BRANCH  14  15
HETATM   15  N7  UNL     1      37.901  19.723 -15.620  1.00  0.00    -0.061 N 
ATOM     16  H73 UNL     1      37.957  20.255 -14.752  1.00  0.00     0.275 HD
ATOM     17  H72 UNL     1      38.139  20.449 -16.296  1.00  0.00     0.275 HD
ATOM     18  H71 UNL     1      36.942  19.410 -15.772  1.00  0.00     0.275 HD
ENDBRANCH  14  15
BRANCH  14  19
HETATM   19  C13 UNL     1      40.214  19.287 -15.238  1.00  0.00     0.268 C 
HETATM   20  N8  UNL     1      41.149  19.658 -16.215  1.00  0.00    -0.060 NA
HETATM   21  O4  UNL     1      40.468  19.448 -14.031  1.00  0.00    -0.274 OA
ENDBRANCH  14  19
ENDBRANCH   5  14
ENDBRANCH   3   5
BRANCH   1  22
HETATM   22  C4  UNL     1      35.289  17.766 -16.019  1.00  0.00     0.117 A 
HETATM   23  C1  UNL     1      34.975  17.685 -17.351  1.00  0.00     0.122 A 
HETATM   24  N2  UNL     1      34.055  18.581 -17.819  1.00  0.00    -0.294 N 
HETATM   25  C2  UNL     1      33.488  19.495 -17.011  1.00  0.00     0.327 A 
ATOM     26  H2  UNL     1      33.793  18.555 -18.804  1.00  0.00     0.172 HD
HETATM   27  O1  UNL     1      32.644  20.305 -17.472  1.00  0.00    -0.247 OA
HETATM   28  N3  UNL     1      33.813  19.554 -15.709  1.00  0.00    -0.296 N 
HETATM   29  C3  UNL     1      34.709  18.706 -15.181  1.00  0.00     0.139 A 
ATOM     30  H3  UNL     1      33.373  20.254 -15.112  1.00  0.00     0.171 HD
HETATM   31  N4  UNL     1      35.033  18.792 -13.803  1.00  0.00    -0.081 NA
BRANCH  23  32
HETATM   32  N1  UNL     1      35.488  16.838 -18.184  1.00  0.00    -0.384 N 
ATOM     33  H12 UNL     1      36.487  16.687 -18.324  1.00  0.00     0.157 HD
ATOM     34  H11 UNL     1      34.856  16.278 -18.756  1.00  0.00     0.157 HD
ENDBRANCH  23  32
ENDBRANCH   1  22
TORSDOF 8
ENDMDL
MODEL 2
REMARK VINA RESULT: -6.554855640      1.470      2.647
REMARK  8 active torsions:
REMARK  status: ('A' for Active; 'I' for Inactive)
REMARK    1  A    between atoms: N1_1  and  C1_4 
REMARK    2  A    between atoms: C4_13  and  C5_14 
REMARK       I    between atoms: C5_14  and  N5_16 
REMARK    3  A    between atoms: N5_16  and  C6_18 
REMARK    4  A    between atoms: C6_18  and  C12_27 
REMARK    5  A    between atoms: C7_19  and  O3_20 
REMARK    6  A    between atoms: C7_19  and  N6_22 
REMARK    7  A    between atoms: C12_27  and  N7_28 
REMARK    8  A    between atoms: C12_27  and  C13_32 
ROOT
HETATM    1  C5  UNL     1      36.044  16.697 -15.210  1.00  0.00     0.263 C 
HETATM    2  O2  UNL     1      35.876  15.477 -15.562  1.00  0.00    -0.267 OA
HETATM    3  N5  UNL     1      36.960  17.071 -14.242  1.00  0.00    -0.320 N 
ATOM      4  H5  UNL     1      36.583  17.315 -13.326  1.00  0.00     0.169 HD
ENDROOT
BRANCH   3   5
HETATM    5  C6  UNL     1      38.275  17.143 -14.383  1.00  0.00     0.102 C 
HETATM    6  C7  UNL     1      38.757  18.384 -14.861  1.00  0.00     0.164 C 
BRANCH   6   7
HETATM    7  O3  UNL     1      37.786  19.276 -15.080  1.00  0.00    -0.345 OA
ATOM      8  H3  UNL     1      37.914  20.091 -14.608  1.00  0.00     0.219 HD
ENDBRANCH   6   7
BRANCH   6   9
HETATM    9  N6  UNL     1      40.031  18.894 -15.160  1.00  0.00    -0.360 N 
HETATM   10  C8  UNL     1      41.038  18.745 -16.157  1.00  0.00     0.125 C 
HETATM   11  C9  UNL     1      41.580  20.170 -16.365  1.00  0.00     0.021 C 
HETATM   12  C10 UNL     1      41.050  20.966 -15.207  1.00  0.00     0.021 C 
HETATM   13  C11 UNL     1      40.689  19.887 -14.224  1.00  0.00     0.125 C 
ENDBRANCH   6   9
BRANCH   5  14
HETATM   14  C12 UNL     1      39.027  15.953 -14.022  1.00  0.00     0.325 C 
BRANCH  14  15
HETATM   15  N7  UNL     1      39.051  14.897 -15.003  1.00  0.00    -0.061 N 
ATOM     16  H73 UNL     1      38.187  14.909 -15.545  1.00  0.00     0.275 HD
ATOM     17  H72 UNL     1      39.729  15.118 -15.733  1.00  0.00     0.275 HD
ATOM     18  H71 UNL     1      39.221  13.956 -14.646  1.00  0.00     0.275 HD
ENDBRANCH  14  15
BRANCH  14  19
HETATM   19  C13 UNL     1      40.404  16.189 -13.524  1.00  0.00     0.268 C 
HETATM   20  N8  UNL     1      41.511  15.733 -14.254  1.00  0.00    -0.060 NA
HETATM   21  O4  UNL     1      40.564  16.793 -12.449  1.00  0.00    -0.274 OA
ENDBRANCH  14  19
ENDBRANCH   5  14
ENDBRANCH   3   5
BRANCH   1  22
HETATM   22  C4  UNL     1      35.215  17.679 -15.887  1.00  0.00     0.117 A 
HETATM   23  C1  UNL     1      35.098  17.633 -17.253  1.00  0.00     0.122 A 
HETATM   24  N2  UNL     1      34.313  18.589 -17.833  1.00  0.00    -0.294 N 
HETATM   25  C2  UNL     1      33.688  19.528 -17.099  1.00  0.00     0.327 A 
ATOM     26  H2  UNL     1      34.199  18.591 -18.847  1.00  0.00     0.172 HD
HETATM   27  O1  UNL     1      32.973  20.394 -17.663  1.00  0.00    -0.247 OA
HETATM   28  N3  UNL     1      33.820  19.552 -15.762  1.00  0.00    -0.296 N 
HETATM   29  C3  UNL     1      34.575  18.644 -15.126  1.00  0.00     0.139 A 
ATOM     30  H3  UNL     1      33.338  20.271 -15.223  1.00  0.00     0.171 HD
HETATM   31  N4  UNL     1      34.694  18.693 -13.714  1.00  0.00    -0.081 NA
BRANCH  23  32
HETATM   32  N1  UNL     1      35.678  16.765 -18.018  1.00  0.00    -0.384 N 
ATOM     33  H12 UNL     1      36.673  16.544 -18.003  1.00  0.00     0.157 HD
ATOM     34  H11 UNL     1      35.108  16.262 -18.699  1.00  0.00     0.157 HD
ENDBRANCH  23  32
ENDBRANCH   1  22
TORSDOF 8
ENDMDL
MODEL 3
REMARK VINA RESULT: -6.352186722      2.633      6.584
REMARK  8 active torsions:
REMARK  status: ('A' for Active; 'I' for Inactive)
REMARK    1  A    between atoms: N1_1  and  C1_4 
REMARK    2  A    between atoms: C4_13  and  C5_14 
REMARK       I    between atoms: C5_14  and  N5_16 
REMARK    3  A    between atoms: N5_16  and  C6_18 
REMARK    4  A    between atoms: C6_18  and  C12_27 
REMARK    5  A    between atoms: C7_19  and  O3_20 
REMARK    6  A    between atoms: C7_19  and  N6_22 
REMARK    7  A    between atoms: C12_27  and  N7_28 
REMARK    8  A    between atoms: C12_27  and  C13_32 
ROOT
HETATM    1  C5  UNL     1      41.598  18.030 -14.166  1.00  0.00     0.263 C 
HETATM    2  O2  UNL     1      42.552  18.335 -14.963  1.00  0.00    -0.267 OA
HETATM    3  N5  UNL     1      40.507  18.857 -13.964  1.00  0.00    -0.320 N 
ATOM      4  H5  UNL     1      40.486  19.382 -13.089  1.00  0.00     0.169 HD
ENDROOT
BRANCH   3   5
HETATM    5  C6  UNL     1      39.486  19.037 -14.790  1.00  0.00     0.102 C 
HETATM    6  C7  UNL     1      38.394  18.161 -14.590  1.00  0.00     0.164 C 
BRANCH   6   7
HETATM    7  O3  UNL     1      38.586  17.303 -13.583  1.00  0.00    -0.345 OA
ATOM      8  H3  UNL     1      38.791  16.423 -13.877  1.00  0.00     0.219 HD
ENDBRANCH   6   7
BRANCH   6   9
HETATM    9  N6  UNL     1      37.147  17.988 -15.212  1.00  0.00    -0.360 N 
HETATM   10  C8  UNL     1      36.625  17.702 -16.507  1.00  0.00     0.125 C 
HETATM   11  C9  UNL     1      35.437  16.763 -16.239  1.00  0.00     0.021 C 
HETATM   12  C10 UNL     1      35.179  16.865 -14.763  1.00  0.00     0.021 C 
HETATM   13  C11 UNL     1      35.871  18.152 -14.412  1.00  0.00     0.125 C 
ENDBRANCH   6   9
BRANCH   5  14
HETATM   14  C12 UNL     1      39.631  20.102 -15.768  1.00  0.00     0.325 C 
BRANCH  14  15
HETATM   15  N7  UNL     1      38.465  20.921 -15.991  1.00  0.00    -0.061 N 
ATOM     16  H73 UNL     1      37.651  20.329 -16.147  1.00  0.00     0.275 HD
ATOM     17  H72 UNL     1      38.194  21.380 -15.121  1.00  0.00     0.275 HD
ATOM     18  H71 UNL     1      38.539  21.612 -16.738  1.00  0.00     0.275 HD
ENDBRANCH  14  15
BRANCH  14  19
HETATM   19  C13 UNL     1      40.817  20.975 -15.597  1.00  0.00     0.268 C 
HETATM   20  N8  UNL     1      41.742  21.127 -16.640  1.00  0.00    -0.060 NA
HETATM   21  O4  UNL     1      40.983  21.568 -14.517  1.00  0.00    -0.274 OA
ENDBRANCH  14  19
ENDBRANCH   5  14
ENDBRANCH   3   5
BRANCH   1  22
HETATM   22  C4  UNL     1      41.721  16.757 -13.478  1.00  0.00     0.117 A 
HETATM   23  C1  UNL     1      41.766  15.599 -14.209  1.00  0.00     0.122 A 
HETATM   24  N2  UNL     1      41.871  14.432 -13.505  1.00  0.00    -0.294 N 
HETATM   25  C2  UNL     1      41.929  14.424 -12.161  1.00  0.00     0.327 A 
ATOM     26  H2  UNL     1      41.908  13.547 -14.011  1.00  0.00     0.172 HD
HETATM   27  O1  UNL     1      42.026  13.335 -11.541  1.00  0.00    -0.247 OA
HETATM   28  N3  UNL     1      41.882  15.574 -11.466  1.00  0.00    -0.296 N 
HETATM   29  C3  UNL     1      41.778  16.756 -12.093  1.00  0.00     0.139 A 
ATOM     30  H3  UNL     1      41.927  15.547 -10.448  1.00  0.00     0.171 HD
HETATM   31  N4  UNL     1      41.732  17.953 -11.334  1.00  0.00    -0.081 NA
BRANCH  23  32
HETATM   32  N1  UNL     1      41.707  15.534 -15.501  1.00  0.00    -0.384 N 
ATOM     33  H12 UNL     1      42.388  15.062 -16.094  1.00  0.00     0.157 HD
ATOM     34  H11 UNL     1      40.928  15.993 -15.974  1.00  0.00     0.157 HD
ENDBRANCH  23  32
ENDBRANCH   1  22
TORSDOF 8
ENDMDL
MODEL 4
REMARK VINA RESULT: -6.134203617      1.912      3.173
REMARK  8 active torsions:
REMARK  status: ('A' for Active; 'I' for Inactive)
REMARK    1  A    between atoms: N1_1  and  C1_4 
REMARK    2  A    between atoms: C4_13  and  C5_14 
REMARK       I    between atoms: C5_14  and  N5_16 
REMARK    3  A    between atoms: N5_16  and  C6_18 
REMARK    4  A    between atoms: C6_18  and  C12_27 
REMARK    5  A    between atoms: C7_19  and  O3_20 
REMARK    6  A    between atoms: C7_19  and  N6_22 
REMARK    7  A    between atoms: C12_27  and  N7_28 
REMARK    8  A    between atoms: C12_27  and  C13_32 
ROOT
HETATM    1  C5  UNL     1      37.414  17.147 -14.296  1.00  0.00     0.263 C 
HETATM    2  O2  UNL     1      37.276  15.874 -14.272  1.00  0.00    -0.267 OA
HETATM    3  N5  UNL     1      38.506  17.785 -13.734  1.00  0.00    -0.320 N 
ATOM      4  H5  UNL     1      38.352  18.257 -12.842  1.00  0.00     0.169 HD
ENDROOT
BRANCH   3   5
HETATM    5  C6  UNL     1      39.732  17.846 -14.234  1.00  0.00     0.102 C 
HETATM    6  C7  UNL     1      40.043  19.052 -14.905  1.00  0.00     0.164 C 
BRANCH   6   7
HETATM    7  O3  UNL     1      39.034  19.929 -14.906  1.00  0.00    -0.345 OA
ATOM      8  H3  UNL     1      39.245  20.740 -15.353  1.00  0.00     0.219 HD
ENDBRANCH   6   7
BRANCH   6   9
HETATM    9  N6  UNL     1      41.178  19.539 -15.574  1.00  0.00    -0.360 N 
HETATM   10  C8  UNL     1      42.454  19.069 -16.003  1.00  0.00     0.125 C 
HETATM   11  C9  UNL     1      42.663  19.735 -17.373  1.00  0.00     0.021 C 
HETATM   12  C10 UNL     1      41.613  20.806 -17.455  1.00  0.00     0.021 C 
HETATM   13  C11 UNL     1      41.237  20.988 -16.011  1.00  0.00     0.125 C 
ENDBRANCH   6   9
BRANCH   5  14
HETATM   14  C12 UNL     1      40.574  16.681 -14.019  1.00  0.00     0.325 C 
BRANCH  14  15
HETATM   15  N7  UNL     1      41.066  16.026 -15.205  1.00  0.00    -0.061 N 
ATOM     16  H73 UNL     1      40.321  15.475 -15.629  1.00  0.00     0.275 HD
ATOM     17  H72 UNL     1      41.225  16.716 -15.940  1.00  0.00     0.275 HD
ATOM     18  H71 UNL     1      41.898  15.448 -15.086  1.00  0.00     0.275 HD
ENDBRANCH  14  15
BRANCH  14  19
HETATM   19  C13 UNL     1      41.691  16.864 -13.061  1.00  0.00     0.268 C 
HETATM   20  N8  UNL     1      41.467  17.471 -11.817  1.00  0.00    -0.060 NA
HETATM   21  O4  UNL     1      42.830  16.475 -13.377  1.00  0.00    -0.274 OA
ENDBRANCH  14  19
ENDBRANCH   5  14
ENDBRANCH   3   5
BRANCH   1  22
HETATM   22  C4  UNL     1      36.356  17.894 -14.952  1.00  0.00     0.117 A 
HETATM   23  C1  UNL     1      36.460  18.176 -16.290  1.00  0.00     0.122 A 
HETATM   24  N2  UNL     1      35.439  18.891 -16.848  1.00  0.00    -0.294 N 
HETATM   25  C2  UNL     1      34.383  19.297 -16.119  1.00  0.00     0.327 A 
ATOM     26  H2  UNL     1      35.477  19.122 -17.840  1.00  0.00     0.172 HD
HETATM   27  O1  UNL     1      33.458  19.953 -16.661  1.00  0.00    -0.247 OA
HETATM   28  N3  UNL     1      34.304  19.009 -14.809  1.00  0.00    -0.296 N 
HETATM   29  C3  UNL     1      35.272  18.311 -14.195  1.00  0.00     0.139 A 
ATOM     30  H3  UNL     1      33.497  19.325 -14.272  1.00  0.00     0.171 HD
HETATM   31  N4  UNL     1      35.161  18.021 -12.811  1.00  0.00    -0.081 NA
BRANCH  23  32
HETATM   32  N1  UNL     1      37.450  17.824 -17.046  1.00  0.00    -0.384 N 
ATOM     33  H12 UNL     1      37.379  17.615 -18.042  1.00  0.00     0.157 HD
ATOM     34  H11 UNL     1      38.376  17.739 -16.626  1.00  0.00     0.157 HD
ENDBRANCH  23  32
ENDBRANCH   1  22
TORSDOF 8
ENDMDL
MODEL 5
REMARK VINA RESULT: -6.129576132      1.895      3.112
REMARK  8 active torsions:
REMARK  status: ('A' for Active; 'I' for Inactive)
REMARK    1  A    between atoms: N1_1  and  C1_4 
REMARK    2  A    between atoms: C4_13  and  C5_14 
REMARK       I    between atoms: C5_14  and  N5_16 
REMARK    3  A    between atoms: N5_16  and  C6_18 
REMARK    4  A    between atoms: C6_18  and  C12_27 
REMARK    5  A    between atoms: C7_19  and  O3_20 
REMARK    6  A    between atoms: C7_19  and  N6_22 
REMARK    7  A    between atoms: C12_27  and  N7_28 
REMARK    8  A    between atoms: C12_27  and  C13_32 
ROOT
HETATM    1  C5  UNL     1      37.267  17.660 -14.061  1.00  0.00     0.263 C 
HETATM    2  O2  UNL     1      36.831  17.182 -12.956  1.00  0.00    -0.267 OA
HETATM    3  N5  UNL     1      38.590  18.025 -14.241  1.00  0.00    -0.320 N 
ATOM      4  H5  UNL     1      38.795  19.025 -14.232  1.00  0.00     0.169 HD
ENDROOT
BRANCH   3   5
HETATM    5  C6  UNL     1      39.619  17.209 -14.423  1.00  0.00     0.102 C 
HETATM    6  C7  UNL     1      40.682  17.749 -15.184  1.00  0.00     0.164 C 
BRANCH   6   7
HETATM    7  O3  UNL     1      40.458  19.006 -15.580  1.00  0.00    -0.345 OA
ATOM      8  H3  UNL     1      39.764  19.434 -15.092  1.00  0.00     0.219 HD
ENDBRANCH   6   7
BRANCH   6   9
HETATM    9  N6  UNL     1      41.924  17.262 -15.619  1.00  0.00    -0.360 N 
HETATM   10  C8  UNL     1      42.499  16.036 -16.065  1.00  0.00     0.125 C 
HETATM   11  C9  UNL     1      43.456  16.454 -17.194  1.00  0.00     0.021 C 
HETATM   12  C10 UNL     1      43.591  17.944 -17.065  1.00  0.00     0.021 C 
HETATM   13  C11 UNL     1      43.129  18.180 -15.655  1.00  0.00     0.125 C 
ENDBRANCH   6   9
BRANCH   5  14
HETATM   14  C12 UNL     1      39.511  15.894 -13.816  1.00  0.00     0.325 C 
BRANCH  14  15
HETATM   15  N7  UNL     1      39.251  14.799 -14.717  1.00  0.00    -0.061 N 
ATOM     16  H73 UNL     1      40.130  14.443 -15.092  1.00  0.00     0.275 HD
ATOM     17  H72 UNL     1      38.934  13.985 -14.190  1.00  0.00     0.275 HD
ATOM     18  H71 UNL     1      38.602  14.990 -15.481  1.00  0.00     0.275 HD
ENDBRANCH  14  15
BRANCH  14  19
HETATM   19  C13 UNL     1      40.611  15.519 -12.896  1.00  0.00     0.268 C 
HETATM   20  N8  UNL     1      41.140  14.220 -12.913  1.00  0.00    -0.060 NA
HETATM   21  O4  UNL     1      41.058  16.369 -12.105  1.00  0.00    -0.274 OA
ENDBRANCH  14  19
ENDBRANCH   5  14
ENDBRANCH   3   5
BRANCH   1  22
HETATM   22  C4  UNL     1      36.292  17.800 -15.128  1.00  0.00     0.117 A 
HETATM   23  C1  UNL     1      35.316  16.849 -15.277  1.00  0.00     0.122 A 
HETATM   24  N2  UNL     1      34.434  17.030 -16.305  1.00  0.00    -0.294 N 
HETATM   25  C2  UNL     1      34.521  18.091 -17.128  1.00  0.00     0.327 A 
ATOM     26  H2  UNL     1      33.693  16.345 -16.451  1.00  0.00     0.172 HD
HETATM   27  O1  UNL     1      33.694  18.230 -18.064  1.00  0.00    -0.247 OA
HETATM   28  N3  UNL     1      35.487  19.010 -16.961  1.00  0.00    -0.296 N 
HETATM   29  C3  UNL     1      36.387  18.895 -15.973  1.00  0.00     0.139 A 
ATOM     30  H3  UNL     1      35.536  19.807 -17.595  1.00  0.00     0.171 HD
HETATM   31  N4  UNL     1      37.394  19.881 -15.821  1.00  0.00    -0.081 NA
BRANCH  23  32
HETATM   32  N1  UNL     1      35.181  15.801 -14.528  1.00  0.00    -0.384 N 
ATOM     33  H12 UNL     1      35.918  15.123 -14.333  1.00  0.00     0.157 HD
ATOM     34  H11 UNL     1      34.272  15.625 -14.101  1.00  0.00     0.157 HD
ENDBRANCH  23  32
ENDBRANCH   1  22
TORSDOF 8
ENDMDL
