MODEL 1
REMARK VINA RESULT: -7.745797119      0.000      0.000
REMARK  3 active torsions:
REMARK  status: ('A' for Active; 'I' for Inactive)
REMARK    1  A    between atoms: C3_7  and  C4_8 
REMARK    2  A    between atoms: C4_8  and  C5_9 
REMARK    3  A    between atoms: C7_16  and  O2_17 
ROOT
HETATM    1  C1  UNL     1      33.153  20.064 -17.535  1.00  0.00     0.049 C 
HETATM    2  C2  UNL     1      33.970  19.114 -17.173  1.00  0.00     0.093 A 
HETATM    3  N1  UNL     1      34.695  18.454 -18.082  1.00  0.00    -0.297 N 
ATOM      4  H1  UNL     1      34.595  18.710 -19.064  1.00  0.00     0.187 HD
HETATM    5  N2  UNL     1      35.534  17.486 -17.763  1.00  0.00    -0.296 N 
ATOM      6  H2  UNL     1      36.052  17.027 -18.512  1.00  0.00     0.187 HD
HETATM    7  C3  UNL     1      35.740  17.074 -16.500  1.00  0.00     0.104 A 
HETATM    8  C8  UNL     1      35.026  17.709 -15.509  1.00  0.00     0.252 A 
HETATM    9  O3  UNL     1      35.163  17.382 -14.324  1.00  0.00    -0.281 OA
HETATM   10  C9  UNL     1      34.144  18.726 -15.847  1.00  0.00     0.251 A 
HETATM   11  O4  UNL     1      33.478  19.325 -14.961  1.00  0.00    -0.281 OA
ENDROOT
BRANCH   7  12
HETATM   12  C4  UNL     1      36.599  16.096 -16.267  1.00  0.00     0.069 C 
BRANCH  12  13
HETATM   13  C5  UNL     1      38.040  16.211 -16.464  1.00  0.00     0.090 A 
HETATM   14  N3  UNL     1      38.801  17.327 -16.577  1.00  0.00    -0.305 N 
HETATM   15  C6  UNL     1      40.092  16.977 -16.749  1.00  0.00     0.326 A 
ATOM     16  H3  UNL     1      38.450  18.284 -16.538  1.00  0.00     0.171 HD
HETATM   17  O1  UNL     1      41.091  17.741 -16.891  1.00  0.00    -0.247 OA
HETATM   18  N4  UNL     1      40.190  15.635 -16.750  1.00  0.00    -0.287 N 
HETATM   19  C7  UNL     1      38.952  15.161 -16.578  1.00  0.00     0.171 A 
ATOM     20  H4  UNL     1      41.043  15.086 -16.860  1.00  0.00     0.172 HD
BRANCH  19  21
HETATM   21  O2  UNL     1      38.649  13.799 -16.524  1.00  0.00    -0.344 OA
ATOM     22  H2  UNL     1      37.855  13.415 -16.171  1.00  0.00     0.219 HD
ENDBRANCH  19  21
ENDBRANCH  12  13
ENDBRANCH   7  12
TORSDOF 3
ENDMDL
MODEL 2
REMARK VINA RESULT: -7.672686828      2.004      5.556
REMARK  3 active torsions:
REMARK  status: ('A' for Active; 'I' for Inactive)
REMARK    1  A    between atoms: C3_7  and  C4_8 
REMARK    2  A    between atoms: C4_8  and  C5_9 
REMARK    3  A    between atoms: C7_16  and  O2_17 
ROOT
HETATM    1  C1  UNL     1      40.573  16.409 -16.357  1.00  0.00     0.049 C 
HETATM    2  C2  UNL     1      39.363  16.689 -15.959  1.00  0.00     0.093 A 
HETATM    3  N1  UNL     1      38.475  17.225 -16.802  1.00  0.00    -0.297 N 
ATOM      4  H1  UNL     1      38.765  17.411 -17.762  1.00  0.00     0.187 HD
HETATM    5  N2  UNL     1      37.239  17.525 -16.446  1.00  0.00    -0.296 N 
ATOM      6  H2  UNL     1      36.619  17.933 -17.145  1.00  0.00     0.187 HD
HETATM    7  C3  UNL     1      36.758  17.319 -15.209  1.00  0.00     0.104 A 
HETATM    8  C8  UNL     1      37.617  16.768 -14.285  1.00  0.00     0.252 A 
HETATM    9  O3  UNL     1      37.243  16.550 -13.126  1.00  0.00    -0.281 OA
HETATM   10  C9  UNL     1      38.916  16.454 -14.662  1.00  0.00     0.251 A 
HETATM   11  O4  UNL     1      39.723  15.949 -13.839  1.00  0.00    -0.281 OA
ENDROOT
BRANCH   7  12
HETATM   12  C4  UNL     1      35.506  17.647 -14.934  1.00  0.00     0.069 C 
BRANCH  12  13
HETATM   13  C5  UNL     1      34.576  18.204 -15.910  1.00  0.00     0.090 A 
HETATM   14  N3  UNL     1      33.948  19.405 -15.903  1.00  0.00    -0.305 N 
HETATM   15  C6  UNL     1      33.174  19.515 -17.002  1.00  0.00     0.326 A 
ATOM     16  H3  UNL     1      34.046  20.117 -15.179  1.00  0.00     0.171 HD
HETATM   17  O1  UNL     1      32.439  20.489 -17.341  1.00  0.00    -0.247 OA
HETATM   18  N4  UNL     1      33.286  18.393 -17.736  1.00  0.00    -0.287 N 
HETATM   19  C7  UNL     1      34.133  17.591 -17.083  1.00  0.00     0.171 A 
ATOM     20  H4  UNL     1      32.816  18.192 -18.619  1.00  0.00     0.172 HD
BRANCH  19  21
HETATM   21  O2  UNL     1      34.502  16.324 -17.540  1.00  0.00    -0.344 OA
ATOM     22  H2  UNL     1      33.916  15.594 -17.698  1.00  0.00     0.219 HD
ENDBRANCH  19  21
ENDBRANCH  12  13
ENDBRANCH   7  12
TORSDOF 3
ENDMDL
MODEL 3
REMARK VINA RESULT: -7.516347798      2.541      5.873
REMARK  3 active torsions:
REMARK  status: ('A' for Active; 'I' for Inactive)
REMARK    1  A    between atoms: C3_7  and  C4_8 
REMARK    2  A    between atoms: C4_8  and  C5_9 
REMARK    3  A    between atoms: C7_16  and  O2_17 
ROOT
HETATM    1  C1  UNL     1      40.789  14.216 -12.793  1.00  0.00     0.049 C 
HETATM    2  C2  UNL     1      40.120  14.983 -13.609  1.00  0.00     0.093 A 
HETATM    3  N1  UNL     1      39.462  14.463 -14.649  1.00  0.00    -0.297 N 
ATOM      4  H1  UNL     1      39.494  13.454 -14.792  1.00  0.00     0.187 HD
HETATM    5  N2  UNL     1      38.772  15.200 -15.501  1.00  0.00    -0.296 N 
ATOM      6  H2  UNL     1      38.297  14.732 -16.273  1.00  0.00     0.187 HD
HETATM    7  C3  UNL     1      38.665  16.536 -15.403  1.00  0.00     0.104 A 
HETATM    8  C8  UNL     1      39.318  17.142 -14.353  1.00  0.00     0.252 A 
HETATM    9  O3  UNL     1      39.265  18.368 -14.199  1.00  0.00    -0.281 OA
HETATM   10  C9  UNL     1      40.043  16.365 -13.460  1.00  0.00     0.251 A 
HETATM   11  O4  UNL     1      40.650  16.892 -12.490  1.00  0.00    -0.281 OA
ENDROOT
BRANCH   7  12
HETATM   12  C4  UNL     1      37.954  17.199 -16.299  1.00  0.00     0.069 C 
BRANCH  12  13
HETATM   13  C5  UNL     1      36.582  17.645 -16.085  1.00  0.00     0.090 A 
HETATM   14  N3  UNL     1      36.060  18.890 -16.197  1.00  0.00    -0.305 N 
HETATM   15  C6  UNL     1      34.743  18.856 -15.909  1.00  0.00     0.326 A 
ATOM     16  H3  UNL     1      36.583  19.726 -16.459  1.00  0.00     0.171 HD
HETATM   17  O1  UNL     1      33.922  19.819 -15.906  1.00  0.00    -0.247 OA
HETATM   18  N4  UNL     1      34.390  17.593 -15.607  1.00  0.00    -0.287 N 
HETATM   19  C7  UNL     1      35.497  16.851 -15.710  1.00  0.00     0.171 A 
ATOM     20  H4  UNL     1      33.458  17.265 -15.350  1.00  0.00     0.172 HD
BRANCH  19  21
HETATM   21  O2  UNL     1      35.528  15.475 -15.470  1.00  0.00    -0.344 OA
ATOM     22  H2  UNL     1      35.491  14.792 -16.128  1.00  0.00     0.219 HD
ENDBRANCH  19  21
ENDBRANCH  12  13
ENDBRANCH   7  12
TORSDOF 3
ENDMDL
MODEL 4
REMARK VINA RESULT: -7.467217359      1.927      5.654
REMARK  3 active torsions:
REMARK  status: ('A' for Active; 'I' for Inactive)
REMARK    1  A    between atoms: C3_7  and  C4_8 
REMARK    2  A    between atoms: C4_8  and  C5_9 
REMARK    3  A    between atoms: C7_16  and  O2_17 
ROOT
HETATM    1  C1  UNL     1      41.241  17.927 -16.662  1.00  0.00     0.049 C 
HETATM    2  C2  UNL     1      39.979  17.803 -16.358  1.00  0.00     0.093 A 
HETATM    3  N1  UNL     1      39.332  18.782 -15.718  1.00  0.00    -0.297 N 
ATOM      4  H1  UNL     1      39.847  19.627 -15.472  1.00  0.00     0.187 HD
HETATM    5  N2  UNL     1      38.055  18.701 -15.390  1.00  0.00    -0.296 N 
ATOM      6  H2  UNL     1      37.630  19.489 -14.901  1.00  0.00     0.187 HD
HETATM    7  C3  UNL     1      37.288  17.634 -15.669  1.00  0.00     0.104 A 
HETATM    8  C8  UNL     1      37.888  16.585 -16.328  1.00  0.00     0.252 A 
HETATM    9  O3  UNL     1      37.243  15.569 -16.617  1.00  0.00    -0.281 OA
HETATM   10  C9  UNL     1      39.230  16.672 -16.671  1.00  0.00     0.251 A 
HETATM   11  O4  UNL     1      39.805  15.728 -17.275  1.00  0.00    -0.281 OA
ENDROOT
BRANCH   7  12
HETATM   12  C4  UNL     1      36.016  17.634 -15.305  1.00  0.00     0.069 C 
BRANCH  12  13
HETATM   13  C5  UNL     1      34.931  18.152 -16.131  1.00  0.00     0.090 A 
HETATM   14  N3  UNL     1      34.357  19.380 -16.117  1.00  0.00    -0.305 N 
HETATM   15  C6  UNL     1      33.386  19.434 -17.051  1.00  0.00     0.326 A 
ATOM     16  H3  UNL     1      34.620  20.145 -15.496  1.00  0.00     0.171 HD
HETATM   17  O1  UNL     1      32.632  20.412 -17.332  1.00  0.00    -0.247 OA
HETATM   18  N4  UNL     1      33.313  18.249 -17.683  1.00  0.00    -0.287 N 
HETATM   19  C7  UNL     1      34.245  17.464 -17.133  1.00  0.00     0.171 A 
ATOM     20  H4  UNL     1      32.672  17.997 -18.436  1.00  0.00     0.172 HD
BRANCH  19  21
HETATM   21  O2  UNL     1      34.475  16.145 -17.530  1.00  0.00    -0.344 OA
ATOM     22  H2  UNL     1      35.323  15.749 -17.693  1.00  0.00     0.219 HD
ENDBRANCH  19  21
ENDBRANCH  12  13
ENDBRANCH   7  12
TORSDOF 3
ENDMDL
MODEL 5
REMARK VINA RESULT: -7.438704956      1.871      5.563
REMARK  3 active torsions:
REMARK  status: ('A' for Active; 'I' for Inactive)
REMARK    1  A    between atoms: C3_7  and  C4_8 
REMARK    2  A    between atoms: C4_8  and  C5_9 
REMARK    3  A    between atoms: C7_16  and  O2_17 
ROOT
HETATM    1  C1  UNL     1      41.463  17.663 -15.112  1.00  0.00     0.049 C 
HETATM    2  C2  UNL     1      40.201  17.447 -15.364  1.00  0.00     0.093 A 
HETATM    3  N1  UNL     1      39.746  17.455 -16.620  1.00  0.00    -0.297 N 
ATOM      4  H1  UNL     1      40.405  17.633 -17.377  1.00  0.00     0.187 HD
HETATM    5  N2  UNL     1      38.478  17.241 -16.923  1.00  0.00    -0.296 N 
ATOM      6  H2  UNL     1      38.204  17.263 -17.905  1.00  0.00     0.187 HD
HETATM    7  C3  UNL     1      37.531  16.995 -16.002  1.00  0.00     0.104 A 
HETATM    8  C8  UNL     1      37.928  16.971 -14.684  1.00  0.00     0.252 A 
HETATM    9  O3  UNL     1      37.110  16.752 -13.782  1.00  0.00    -0.281 OA
HETATM   10  C9  UNL     1      39.260  17.197 -14.368  1.00  0.00     0.251 A 
HETATM   11  O4  UNL     1      39.652  17.181 -13.172  1.00  0.00    -0.281 OA
ENDROOT
BRANCH   7  12
HETATM   12  C4  UNL     1      36.283  16.791 -16.391  1.00  0.00     0.069 C 
BRANCH  12  13
HETATM   13  C5  UNL     1      35.280  17.844 -16.503  1.00  0.00     0.090 A 
HETATM   14  N3  UNL     1      34.904  18.553 -17.595  1.00  0.00    -0.305 N 
HETATM   15  C6  UNL     1      33.939  19.430 -17.253  1.00  0.00     0.326 A 
ATOM     16  H3  UNL     1      35.290  18.439 -18.533  1.00  0.00     0.171 HD
HETATM   17  O1  UNL     1      33.342  20.260 -18.000  1.00  0.00    -0.247 OA
HETATM   18  N4  UNL     1      33.674  19.306 -15.939  1.00  0.00    -0.287 N 
HETATM   19  C7  UNL     1      34.482  18.348 -15.475  1.00  0.00     0.171 A 
ATOM     20  H4  UNL     1      32.990  19.840 -15.402  1.00  0.00     0.172 HD
BRANCH  19  21
HETATM   21  O2  UNL     1      34.498  17.932 -14.142  1.00  0.00    -0.344 OA
ATOM     22  H2  UNL     1      33.957  18.277 -13.442  1.00  0.00     0.219 HD
ENDBRANCH  19  21
ENDBRANCH  12  13
ENDBRANCH   7  12
TORSDOF 3
ENDMDL
