MODEL 1
REMARK VINA RESULT: -7.673100074      0.000      0.000
REMARK  2 active torsions:
REMARK  status: ('A' for Active; 'I' for Inactive)
REMARK    1  A    between atoms: N1_1  and  C1_4 
REMARK    2  A    between atoms: C2_9  and  C3_10 
ROOT
HETATM    1  C1  UNL     1      34.114  19.245 -17.068  1.00  0.00     0.693 A 
HETATM    2  N2  UNL     1      35.438  19.435 -16.624  1.00  0.00    -0.132 N 
ATOM      3  H2  UNL     1      35.755  20.371 -16.372  1.00  0.00     0.205 HD
HETATM    4  N3  UNL     1      36.305  18.375 -16.526  1.00  0.00    -0.281 N 
ATOM      5  H3  UNL     1      37.251  18.572 -16.199  1.00  0.00     0.187 HD
HETATM    6  C2  UNL     1      35.985  17.000 -16.848  1.00  0.00     0.118 A 
HETATM    7  C8  UNL     1      34.638  16.800 -17.301  1.00  0.00     0.287 A 
HETATM    8  O3  UNL     1      34.239  15.662 -17.604  1.00  0.00    -0.265 OA
HETATM    9  N6  UNL     1      33.734  17.920 -17.401  1.00  0.00    -0.153 N 
ATOM     10  H6  UNL     1      32.781  17.752 -17.725  1.00  0.00     0.187 HD
ENDROOT
BRANCH   6  11
HETATM   11  C3  UNL     1      36.905  16.106 -16.670  1.00  0.00     0.055 C 
HETATM   12  C4  UNL     1      38.235  16.180 -16.160  1.00  0.00     0.050 A 
HETATM   13  C5  UNL     1      38.503  16.651 -14.903  1.00  0.00     0.110 A 
HETATM   14  C7  UNL     1      39.361  15.797 -16.900  1.00  0.00     0.261 A 
HETATM   15  N4  UNL     1      39.788  16.724 -14.450  1.00  0.00    -0.318 N 
HETATM   16  C6  UNL     1      40.829  16.340 -15.213  1.00  0.00     0.327 A 
ATOM     17  H4  UNL     1      39.964  17.077 -13.510  1.00  0.00     0.170 HD
HETATM   18  O1  UNL     1      42.011  16.414 -14.780  1.00  0.00    -0.247 OA
HETATM   19  N5  UNL     1      40.603  15.873 -16.449  1.00  0.00    -0.275 N 
ATOM     20  H5  UNL     1      41.382  15.579 -17.037  1.00  0.00     0.173 HD
HETATM   21  O2  UNL     1      39.109  15.361 -18.061  1.00  0.00    -0.267 OA
ENDBRANCH   6  11
BRANCH   1  22
HETATM   22  N1  UNL     1      33.265  20.222 -17.175  1.00  0.00    -0.233 N 
ATOM     23  H12 UNL     1      33.249  20.974 -16.486  1.00  0.00     0.174 HD
ATOM     24  H11 UNL     1      32.589  20.281 -17.937  1.00  0.00     0.174 HD
ENDBRANCH   1  22
TORSDOF 2
ENDMDL
MODEL 2
REMARK VINA RESULT: -7.579797385      1.481      1.515
REMARK  2 active torsions:
REMARK  status: ('A' for Active; 'I' for Inactive)
REMARK    1  A    between atoms: N1_1  and  C1_4 
REMARK    2  A    between atoms: C2_9  and  C3_10 
ROOT
HETATM    1  C1  UNL     1      33.965  19.239 -17.253  1.00  0.00     0.693 A 
HETATM    2  N2  UNL     1      34.929  18.544 -18.010  1.00  0.00    -0.132 N 
ATOM      3  H2  UNL     1      35.022  18.737 -19.007  1.00  0.00     0.205 HD
HETATM    4  N3  UNL     1      35.745  17.610 -17.421  1.00  0.00    -0.281 N 
ATOM      5  H3  UNL     1      36.425  17.137 -18.018  1.00  0.00     0.187 HD
HETATM    6  C2  UNL     1      35.720  17.241 -16.020  1.00  0.00     0.118 A 
HETATM    7  C8  UNL     1      34.741  17.946 -15.245  1.00  0.00     0.287 A 
HETATM    8  O3  UNL     1      34.624  17.722 -14.027  1.00  0.00    -0.265 OA
HETATM    9  N6  UNL     1      33.888  18.926 -15.873  1.00  0.00    -0.153 N 
ATOM     10  H6  UNL     1      33.199  19.414 -15.299  1.00  0.00     0.187 HD
ENDROOT
BRANCH   6  11
HETATM   11  C3  UNL     1      36.580  16.364 -15.609  1.00  0.00     0.055 C 
HETATM   12  C4  UNL     1      37.992  16.416 -15.416  1.00  0.00     0.050 A 
HETATM   13  C5  UNL     1      38.574  17.325 -14.574  1.00  0.00     0.110 A 
HETATM   14  C7  UNL     1      38.887  15.563 -16.075  1.00  0.00     0.261 A 
HETATM   15  N4  UNL     1      39.930  17.358 -14.422  1.00  0.00    -0.318 N 
HETATM   16  C6  UNL     1      40.737  16.511 -15.086  1.00  0.00     0.327 A 
ATOM     17  H4  UNL     1      40.342  18.043 -13.788  1.00  0.00     0.170 HD
HETATM   18  O1  UNL     1      41.989  16.554 -14.936  1.00  0.00    -0.247 OA
HETATM   19  N5  UNL     1      40.201  15.607 -15.919  1.00  0.00    -0.275 N 
ATOM     20  H5  UNL     1      40.801  14.958 -16.428  1.00  0.00     0.173 HD
HETATM   21  O2  UNL     1      38.345  14.724 -16.852  1.00  0.00    -0.267 OA
ENDBRANCH   6  11
BRANCH   1  22
HETATM   22  N1  UNL     1      33.175  20.128 -17.774  1.00  0.00    -0.233 N 
ATOM     23  H12 UNL     1      32.753  19.975 -18.689  1.00  0.00     0.174 HD
ATOM     24  H11 UNL     1      32.945  21.002 -17.301  1.00  0.00     0.174 HD
ENDBRANCH   1  22
TORSDOF 2
ENDMDL
MODEL 3
REMARK VINA RESULT: -7.435444977      1.160      1.169
REMARK  2 active torsions:
REMARK  status: ('A' for Active; 'I' for Inactive)
REMARK    1  A    between atoms: N1_1  and  C1_4 
REMARK    2  A    between atoms: C2_9  and  C3_10 
ROOT
HETATM    1  C1  UNL     1      34.598  19.058 -16.095  1.00  0.00     0.693 A 
HETATM    2  N2  UNL     1      35.943  19.305 -16.440  1.00  0.00    -0.132 N 
ATOM      3  H2  UNL     1      36.235  20.252 -16.681  1.00  0.00     0.205 HD
HETATM    4  N3  UNL     1      36.862  18.286 -16.455  1.00  0.00    -0.281 N 
ATOM      5  H3  UNL     1      37.821  18.523 -16.713  1.00  0.00     0.187 HD
HETATM    6  C2  UNL     1      36.582  16.901 -16.135  1.00  0.00     0.118 A 
HETATM    7  C8  UNL     1      35.216  16.645 -15.782  1.00  0.00     0.287 A 
HETATM    8  O3  UNL     1      34.850  15.495 -15.481  1.00  0.00    -0.265 OA
HETATM    9  N6  UNL     1      34.256  17.722 -15.769  1.00  0.00    -0.153 N 
ATOM     10  H6  UNL     1      33.290  17.513 -15.514  1.00  0.00     0.187 HD
ENDROOT
BRANCH   6  11
HETATM   11  C3  UNL     1      37.569  16.062 -16.162  1.00  0.00     0.055 C 
HETATM   12  C4  UNL     1      38.864  16.077 -15.567  1.00  0.00     0.050 A 
HETATM   13  C5  UNL     1      39.038  16.177 -14.213  1.00  0.00     0.110 A 
HETATM   14  C7  UNL     1      40.050  16.009 -16.311  1.00  0.00     0.261 A 
HETATM   15  N4  UNL     1      40.292  16.205 -13.676  1.00  0.00    -0.318 N 
HETATM   16  C6  UNL     1      41.393  16.136 -14.446  1.00  0.00     0.327 A 
ATOM     17  H4  UNL     1      40.398  16.278 -12.664  1.00  0.00     0.170 HD
HETATM   18  O1  UNL     1      42.546  16.163 -13.935  1.00  0.00    -0.247 OA
HETATM   19  N5  UNL     1      41.260  16.037 -15.777  1.00  0.00    -0.275 N 
ATOM     20  H5  UNL     1      42.086  15.984 -16.373  1.00  0.00     0.173 HD
HETATM   21  O2  UNL     1      39.885  15.915 -17.562  1.00  0.00    -0.267 OA
ENDBRANCH   6  11
BRANCH   1  22
HETATM   22  N1  UNL     1      33.700  19.996 -16.070  1.00  0.00    -0.233 N 
ATOM     23  H12 UNL     1      32.899  19.965 -16.701  1.00  0.00     0.174 HD
ATOM     24  H11 UNL     1      33.752  20.788 -15.430  1.00  0.00     0.174 HD
ENDBRANCH   1  22
TORSDOF 2
ENDMDL
MODEL 4
REMARK VINA RESULT: -7.360773144      2.329      6.218
REMARK  2 active torsions:
REMARK  status: ('A' for Active; 'I' for Inactive)
REMARK    1  A    between atoms: N1_1  and  C1_4 
REMARK    2  A    between atoms: C2_9  and  C3_10 
ROOT
HETATM    1  C1  UNL     1      40.490  18.416 -15.826  1.00  0.00     0.693 A 
HETATM    2  N2  UNL     1      39.466  19.289 -15.405  1.00  0.00    -0.132 N 
ATOM      3  H2  UNL     1      39.707  20.212 -15.043  1.00  0.00     0.205 HD
HETATM    4  N3  UNL     1      38.148  18.912 -15.477  1.00  0.00    -0.281 N 
ATOM      5  H3  UNL     1      37.449  19.584 -15.158  1.00  0.00     0.187 HD
HETATM    6  C2  UNL     1      37.668  17.637 -15.970  1.00  0.00     0.118 A 
HETATM    7  C8  UNL     1      38.706  16.745 -16.400  1.00  0.00     0.287 A 
HETATM    8  O3  UNL     1      38.421  15.620 -16.848  1.00  0.00    -0.265 OA
HETATM    9  N6  UNL     1      40.088  17.150 -16.321  1.00  0.00    -0.153 N 
ATOM     10  H6  UNL     1      40.808  16.498 -16.634  1.00  0.00     0.187 HD
ENDROOT
BRANCH   6  11
HETATM   11  C3  UNL     1      36.387  17.444 -16.006  1.00  0.00     0.055 C 
HETATM   12  C4  UNL     1      35.301  18.266 -16.428  1.00  0.00     0.050 A 
HETATM   13  C5  UNL     1      35.223  18.764 -17.701  1.00  0.00     0.110 A 
HETATM   14  C7  UNL     1      34.247  18.637 -15.582  1.00  0.00     0.261 A 
HETATM   15  N4  UNL     1      34.177  19.560 -18.069  1.00  0.00    -0.318 N 
HETATM   16  C6  UNL     1      33.195  19.882 -17.207  1.00  0.00     0.327 A 
ATOM     17  H4  UNL     1      34.139  19.920 -19.023  1.00  0.00     0.170 HD
HETATM   18  O1  UNL     1      32.236  20.619 -17.563  1.00  0.00    -0.247 OA
HETATM   19  N5  UNL     1      33.240  19.410 -15.953  1.00  0.00    -0.275 N 
ATOM     20  H5  UNL     1      32.502  19.646 -15.289  1.00  0.00     0.173 HD
HETATM   21  O2  UNL     1      34.323  18.173 -14.407  1.00  0.00    -0.267 OA
ENDBRANCH   6  11
BRANCH   1  22
HETATM   22  N1  UNL     1      41.747  18.737 -15.773  1.00  0.00    -0.233 N 
ATOM     23  H12 UNL     1      42.362  18.558 -16.567  1.00  0.00     0.174 HD
ATOM     24  H11 UNL     1      42.168  19.174 -14.953  1.00  0.00     0.174 HD
ENDBRANCH   1  22
TORSDOF 2
ENDMDL
MODEL 5
REMARK VINA RESULT: -7.322796440      1.979      6.127
REMARK  2 active torsions:
REMARK  status: ('A' for Active; 'I' for Inactive)
REMARK    1  A    between atoms: N1_1  and  C1_4 
REMARK    2  A    between atoms: C2_9  and  C3_10 
ROOT
HETATM    1  C1  UNL     1      40.450  16.371 -15.070  1.00  0.00     0.693 A 
HETATM    2  N2  UNL     1      39.621  17.072 -14.172  1.00  0.00    -0.132 N 
ATOM      3  H2  UNL     1      40.039  17.582 -13.393  1.00  0.00     0.205 HD
HETATM    4  N3  UNL     1      38.257  17.078 -14.333  1.00  0.00    -0.281 N 
ATOM      5  H3  UNL     1      37.707  17.602 -13.652  1.00  0.00     0.187 HD
HETATM    6  C2  UNL     1      37.537  16.400 -15.390  1.00  0.00     0.118 A 
HETATM    7  C8  UNL     1      38.376  15.684 -16.308  1.00  0.00     0.287 A 
HETATM    8  O3  UNL     1      37.877  15.064 -17.263  1.00  0.00    -0.265 OA
HETATM    9  N6  UNL     1      39.808  15.684 -16.131  1.00  0.00    -0.153 N 
ATOM     10  H6  UNL     1      40.383  15.168 -16.797  1.00  0.00     0.187 HD
ENDROOT
BRANCH   6  11
HETATM   11  C3  UNL     1      36.248  16.529 -15.425  1.00  0.00     0.055 C 
HETATM   12  C4  UNL     1      35.394  17.508 -16.012  1.00  0.00     0.050 A 
HETATM   13  C5  UNL     1      35.419  17.781 -17.353  1.00  0.00     0.110 A 
HETATM   14  C7  UNL     1      34.482  18.272 -15.270  1.00  0.00     0.261 A 
HETATM   15  N4  UNL     1      34.599  18.736 -17.881  1.00  0.00    -0.318 N 
HETATM   16  C6  UNL     1      33.745  19.437 -17.113  1.00  0.00     0.327 A 
ATOM     17  H4  UNL     1      34.633  18.922 -18.883  1.00  0.00     0.170 HD
HETATM   18  O1  UNL     1      32.993  20.316 -17.616  1.00  0.00    -0.247 OA
HETATM   19  N5  UNL     1      33.693  19.195 -15.795  1.00  0.00    -0.275 N 
ATOM     20  H5  UNL     1      33.050  19.719 -15.202  1.00  0.00     0.173 HD
HETATM   21  O2  UNL     1      34.461  18.016 -14.031  1.00  0.00    -0.267 OA
ENDBRANCH   6  11
BRANCH   1  22
HETATM   22  N1  UNL     1      41.743  16.342 -14.951  1.00  0.00    -0.233 N 
ATOM     23  H12 UNL     1      42.334  16.897 -15.569  1.00  0.00     0.174 HD
ATOM     24  H11 UNL     1      42.217  15.774 -14.247  1.00  0.00     0.174 HD
ENDBRANCH   1  22
TORSDOF 2
ENDMDL
