MODEL 1
REMARK VINA RESULT: -8.258912128      0.000      0.000
REMARK  6 active torsions:
REMARK  status: ('A' for Active; 'I' for Inactive)
REMARK    1  A    between atoms: C2_2  and  C3_3 
REMARK    2  A    between atoms: N1_5  and  C5_6 
REMARK    3  A    between atoms: C5_6  and  C6_7 
REMARK    4  A    between atoms: C6_7  and  C7_8 
REMARK    5  A    between atoms: C7_8  and  C8_9 
REMARK    6  A    between atoms: C8_9  and  N2_10 
ROOT
HETATM    1  C7  UNL     1      18.928 -11.912  19.821  1.00  0.00     0.032 C 
ENDROOT
BRANCH   1   2
HETATM    2  C6  UNL     1      20.226 -12.380  20.379  1.00  0.00     0.022 C 
BRANCH   2   3
HETATM    3  C5  UNL     1      20.107 -13.784  20.876  1.00  0.00     0.126 C 
BRANCH   3   4
HETATM    4  N1  UNL     1      20.450 -13.959  22.271  1.00  0.00    -0.342 N 
HETATM    5  C4  UNL     1      21.470 -13.077  22.798  1.00  0.00     0.151 C 
HETATM    6  C3  UNL     1      21.660 -13.191  24.272  1.00  0.00     0.102 C 
HETATM    7  N4  UNL     1      21.546 -14.540  24.770  1.00  0.00    -0.347 N 
HETATM    8  C18 UNL     1      20.372 -15.269  24.359  1.00  0.00     0.309 C 
ATOM      9  H4  UNL     1      22.254 -14.953  25.376  1.00  0.00     0.163 HD
HETATM   10  C17 UNL     1      19.796 -14.957  23.038  1.00  0.00     0.311 C 
HETATM   11  O3  UNL     1      19.827 -16.146  25.073  1.00  0.00    -0.262 OA
HETATM   12  O2  UNL     1      18.783 -15.569  22.659  1.00  0.00    -0.262 OA
BRANCH   6  13
HETATM   13  C2  UNL     1      20.634 -12.340  25.003  1.00  0.00     0.022 C 
HETATM   14  C1  UNL     1      20.850 -12.340  26.494  1.00  0.00     0.007 C 
ENDBRANCH   6  13
ENDBRANCH   3   4
ENDBRANCH   2   3
ENDBRANCH   1   2
BRANCH   1  15
HETATM   15  C8  UNL     1      17.818 -12.341  20.777  1.00  0.00     0.272 C 
BRANCH  15  16
HETATM   16  N2  UNL     1      16.565 -12.513  20.041  1.00  0.00     0.088 N 
HETATM   17  C9  UNL     1      15.574 -12.935  21.014  1.00  0.00     0.273 C 
HETATM   18  C10 UNL     1      15.062 -11.660  21.678  1.00  0.00     0.049 C 
HETATM   19  C11 UNL     1      14.086 -11.018  20.735  1.00  0.00     0.045 C 
HETATM   20  C12 UNL     1      12.735 -11.647  20.969  1.00  0.00     0.039 C 
HETATM   21  C14 UNL     1      13.842  -9.600  21.027  1.00  0.00     0.226 C 
HETATM   22  C15 UNL     1      14.587 -11.246  19.327  1.00  0.00     0.049 C 
HETATM   23  C13 UNL     1      12.272 -10.890  22.218  1.00  0.00     0.123 C 
HETATM   24  N3  UNL     1      12.746  -9.536  21.925  1.00  0.00    -0.360 N 
ATOM     25  H3  UNL     1      12.350  -8.679  22.309  1.00  0.00     0.162 HD
HETATM   26  O1  UNL     1      14.506  -8.647  20.547  1.00  0.00    -0.273 OA
HETATM   27  C16 UNL     1      16.117 -11.297  19.438  1.00  0.00     0.273 C 
ENDBRANCH  15  16
ENDBRANCH   1  15
TORSDOF 6
ENDMDL
MODEL 2
REMARK VINA RESULT: -7.866719842      0.833      1.073
REMARK  6 active torsions:
REMARK  status: ('A' for Active; 'I' for Inactive)
REMARK    1  A    between atoms: C2_2  and  C3_3 
REMARK    2  A    between atoms: N1_5  and  C5_6 
REMARK    3  A    between atoms: C5_6  and  C6_7 
REMARK    4  A    between atoms: C6_7  and  C7_8 
REMARK    5  A    between atoms: C7_8  and  C8_9 
REMARK    6  A    between atoms: C8_9  and  N2_10 
ROOT
HETATM    1  C7  UNL     1      18.272 -13.703  21.113  1.00  0.00     0.032 C 
ENDROOT
BRANCH   1   2
HETATM    2  C6  UNL     1      19.736 -13.843  20.875  1.00  0.00     0.022 C 
BRANCH   2   3
HETATM    3  C5  UNL     1      20.293 -14.967  21.685  1.00  0.00     0.126 C 
BRANCH   3   4
HETATM    4  N1  UNL     1      20.867 -14.570  22.952  1.00  0.00    -0.342 N 
HETATM    5  C4  UNL     1      21.357 -13.209  23.037  1.00  0.00     0.151 C 
HETATM    6  C3  UNL     1      21.780 -12.808  24.409  1.00  0.00     0.102 C 
HETATM    7  N4  UNL     1      22.440 -13.859  25.144  1.00  0.00    -0.347 N 
HETATM    8  C18 UNL     1      21.758 -15.128  25.182  1.00  0.00     0.309 C 
ATOM      9  H4  UNL     1      23.337 -13.712  25.608  1.00  0.00     0.163 HD
HETATM   10  C17 UNL     1      20.928 -15.499  24.022  1.00  0.00     0.311 C 
HETATM   11  O3  UNL     1      21.843 -15.920  26.153  1.00  0.00    -0.262 OA
HETATM   12  O2  UNL     1      20.327 -16.587  24.029  1.00  0.00    -0.262 OA
BRANCH   6  13
HETATM   13  C2  UNL     1      20.577 -12.360  25.222  1.00  0.00     0.022 C 
HETATM   14  C1  UNL     1      20.882 -12.277  26.696  1.00  0.00     0.007 C 
ENDBRANCH   6  13
ENDBRANCH   3   4
ENDBRANCH   2   3
ENDBRANCH   1   2
BRANCH   1  15
HETATM   15  C8  UNL     1      17.820 -12.370  20.523  1.00  0.00     0.272 C 
BRANCH  15  16
HETATM   16  N2  UNL     1      16.521 -12.529  19.870  1.00  0.00     0.088 N 
HETATM   17  C9  UNL     1      15.598 -12.971  20.901  1.00  0.00     0.273 C 
HETATM   18  C10 UNL     1      15.132 -11.708  21.622  1.00  0.00     0.049 C 
HETATM   19  C11 UNL     1      14.095 -11.050  20.758  1.00  0.00     0.045 C 
HETATM   20  C12 UNL     1      12.763 -11.683  21.071  1.00  0.00     0.039 C 
HETATM   21  C14 UNL     1      13.872  -9.637  21.093  1.00  0.00     0.226 C 
HETATM   22  C15 UNL     1      14.499 -11.250  19.316  1.00  0.00     0.049 C 
HETATM   23  C13 UNL     1      12.386 -10.951  22.363  1.00  0.00     0.123 C 
HETATM   24  N3  UNL     1      12.840  -9.591  22.064  1.00  0.00    -0.360 N 
ATOM     25  H3  UNL     1      12.470  -8.741  22.490  1.00  0.00     0.162 HD
HETATM   26  O1  UNL     1      14.503  -8.675  20.588  1.00  0.00    -0.273 OA
HETATM   27  C16 UNL     1      16.034 -11.303  19.322  1.00  0.00     0.273 C 
ENDBRANCH  15  16
ENDBRANCH   1  15
TORSDOF 6
ENDMDL
MODEL 3
REMARK VINA RESULT: -7.706578124      1.580      2.120
REMARK  6 active torsions:
REMARK  status: ('A' for Active; 'I' for Inactive)
REMARK    1  A    between atoms: C2_2  and  C3_3 
REMARK    2  A    between atoms: N1_5  and  C5_6 
REMARK    3  A    between atoms: C5_6  and  C6_7 
REMARK    4  A    between atoms: C6_7  and  C7_8 
REMARK    5  A    between atoms: C7_8  and  C8_9 
REMARK    6  A    between atoms: C8_9  and  N2_10 
ROOT
HETATM    1  C7  UNL     1      18.964 -11.890  19.596  1.00  0.00     0.032 C 
ENDROOT
BRANCH   1   2
HETATM    2  C6  UNL     1      20.112 -12.070  20.526  1.00  0.00     0.022 C 
BRANCH   2   3
HETATM    3  C5  UNL     1      20.125 -13.458  21.080  1.00  0.00     0.126 C 
BRANCH   3   4
HETATM    4  N1  UNL     1      20.007 -13.533  22.520  1.00  0.00    -0.342 N 
HETATM    5  C4  UNL     1      18.702 -13.884  23.041  1.00  0.00     0.151 C 
HETATM    6  C3  UNL     1      18.685 -14.108  24.515  1.00  0.00     0.102 C 
HETATM    7  N4  UNL     1      19.535 -13.205  25.250  1.00  0.00    -0.347 N 
HETATM    8  C18 UNL     1      20.893 -13.089  24.778  1.00  0.00     0.309 C 
ATOM      9  H4  UNL     1      19.196 -12.679  26.055  1.00  0.00     0.163 HD
HETATM   10  C17 UNL     1      21.137 -13.264  23.335  1.00  0.00     0.311 C 
HETATM   11  O3  UNL     1      21.862 -12.849  25.538  1.00  0.00    -0.262 OA
HETATM   12  O2  UNL     1      22.297 -13.171  22.901  1.00  0.00    -0.262 OA
BRANCH   6  13
HETATM   13  C2  UNL     1      19.127 -15.526  24.837  1.00  0.00     0.022 C 
HETATM   14  C1  UNL     1      17.965 -16.423  25.177  1.00  0.00     0.007 C 
ENDBRANCH   6  13
ENDBRANCH   3   4
ENDBRANCH   2   3
ENDBRANCH   1   2
BRANCH   1  15
HETATM   15  C8  UNL     1      17.774 -11.377  20.404  1.00  0.00     0.272 C 
BRANCH  15  16
HETATM   16  N2  UNL     1      16.548 -12.040  19.960  1.00  0.00     0.088 N 
HETATM   17  C9  UNL     1      15.806 -12.374  21.162  1.00  0.00     0.273 C 
HETATM   18  C10 UNL     1      15.039 -11.113  21.551  1.00  0.00     0.049 C 
HETATM   19  C11 UNL     1      13.840 -11.017  20.653  1.00  0.00     0.045 C 
HETATM   20  C12 UNL     1      12.735 -11.841  21.266  1.00  0.00     0.039 C 
HETATM   21  C14 UNL     1      13.255  -9.670  20.606  1.00  0.00     0.226 C 
HETATM   22  C15 UNL     1      14.243 -11.525  19.288  1.00  0.00     0.049 C 
HETATM   23  C13 UNL     1      12.211 -10.880  22.337  1.00  0.00     0.123 C 
HETATM   24  N3  UNL     1      12.275  -9.600  21.629  1.00  0.00    -0.360 N 
ATOM     25  H3  UNL     1      11.703  -8.782  21.839  1.00  0.00     0.162 HD
HETATM   26  O1  UNL     1      13.590  -8.774  19.792  1.00  0.00    -0.273 OA
HETATM   27  C16 UNL     1      15.735 -11.190  19.148  1.00  0.00     0.273 C 
ENDBRANCH  15  16
ENDBRANCH   1  15
TORSDOF 6
ENDMDL
MODEL 4
REMARK VINA RESULT: -7.650194563      1.917      7.539
REMARK  6 active torsions:
REMARK  status: ('A' for Active; 'I' for Inactive)
REMARK    1  A    between atoms: C2_2  and  C3_3 
REMARK    2  A    between atoms: N1_5  and  C5_6 
REMARK    3  A    between atoms: C5_6  and  C6_7 
REMARK    4  A    between atoms: C6_7  and  C7_8 
REMARK    5  A    between atoms: C7_8  and  C8_9 
REMARK    6  A    between atoms: C8_9  and  N2_10 
ROOT
HETATM    1  C7  UNL     1      17.756 -15.859  21.086  1.00  0.00     0.032 C 
ENDROOT
BRANCH   1   2
HETATM    2  C6  UNL     1      16.517 -15.293  20.486  1.00  0.00     0.022 C 
BRANCH   2   3
HETATM    3  C5  UNL     1      15.876 -14.323  21.425  1.00  0.00     0.126 C 
BRANCH   3   4
HETATM    4  N1  UNL     1      15.740 -12.980  20.904  1.00  0.00    -0.342 N 
HETATM    5  C4  UNL     1      16.710 -12.577  19.907  1.00  0.00     0.151 C 
HETATM    6  C3  UNL     1      16.421 -11.252  19.289  1.00  0.00     0.102 C 
HETATM    7  N4  UNL     1      15.894 -10.281  20.217  1.00  0.00    -0.347 N 
HETATM    8  C18 UNL     1      14.777 -10.714  21.019  1.00  0.00     0.309 C 
ATOM      9  H4  UNL     1      16.289  -9.344  20.300  1.00  0.00     0.163 HD
HETATM   10  C17 UNL     1      14.700 -12.141  21.379  1.00  0.00     0.311 C 
HETATM   11  O3  UNL     1      13.879  -9.933  21.417  1.00  0.00    -0.262 OA
HETATM   12  O2  UNL     1      13.747 -12.542  22.068  1.00  0.00    -0.262 OA
BRANCH   6  13
HETATM   13  C2  UNL     1      15.415 -11.405  18.160  1.00  0.00     0.022 C 
HETATM   14  C1  UNL     1      16.074 -11.764  16.853  1.00  0.00     0.007 C 
ENDBRANCH   6  13
ENDBRANCH   3   4
ENDBRANCH   2   3
ENDBRANCH   1   2
BRANCH   1  15
HETATM   15  C8  UNL     1      17.944 -15.236  22.466  1.00  0.00     0.272 C 
BRANCH  15  16
HETATM   16  N2  UNL     1      18.846 -14.087  22.375  1.00  0.00     0.088 N 
HETATM   17  C9  UNL     1      18.567 -13.257  23.534  1.00  0.00     0.273 C 
HETATM   18  C10 UNL     1      19.370 -13.855  24.687  1.00  0.00     0.049 C 
HETATM   19  C11 UNL     1      20.796 -13.415  24.522  1.00  0.00     0.045 C 
HETATM   20  C12 UNL     1      20.938 -12.058  25.166  1.00  0.00     0.039 C 
HETATM   21  C14 UNL     1      21.749 -14.237  25.278  1.00  0.00     0.226 C 
HETATM   22  C15 UNL     1      21.101 -13.381  23.042  1.00  0.00     0.049 C 
HETATM   23  C13 UNL     1      21.059 -12.446  26.643  1.00  0.00     0.123 C 
HETATM   24  N3  UNL     1      21.897 -13.643  26.557  1.00  0.00    -0.360 N 
ATOM     25  H3  UNL     1      22.496 -13.996  27.303  1.00  0.00     0.162 HD
HETATM   26  O1  UNL     1      22.308 -15.271  24.835  1.00  0.00    -0.273 OA
HETATM   27  C16 UNL     1      20.221 -14.472  22.415  1.00  0.00     0.273 C 
ENDBRANCH  15  16
ENDBRANCH   1  15
TORSDOF 6
ENDMDL
MODEL 5
REMARK VINA RESULT: -7.629386808      1.751      2.255
REMARK  6 active torsions:
REMARK  status: ('A' for Active; 'I' for Inactive)
REMARK    1  A    between atoms: C2_2  and  C3_3 
REMARK    2  A    between atoms: N1_5  and  C5_6 
REMARK    3  A    between atoms: C5_6  and  C6_7 
REMARK    4  A    between atoms: C6_7  and  C7_8 
REMARK    5  A    between atoms: C7_8  and  C8_9 
REMARK    6  A    between atoms: C8_9  and  N2_10 
ROOT
HETATM    1  C7  UNL     1      18.048 -14.056  21.011  1.00  0.00     0.032 C 
ENDROOT
BRANCH   1   2
HETATM    2  C6  UNL     1      18.126 -14.166  22.494  1.00  0.00     0.022 C 
BRANCH   2   3
HETATM    3  C5  UNL     1      18.799 -12.965  23.074  1.00  0.00     0.126 C 
BRANCH   3   4
HETATM    4  N1  UNL     1      20.034 -13.246  23.774  1.00  0.00    -0.342 N 
HETATM    5  C4  UNL     1      19.911 -13.633  25.164  1.00  0.00     0.151 C 
HETATM    6  C3  UNL     1      21.195 -14.070  25.782  1.00  0.00     0.102 C 
HETATM    7  N4  UNL     1      22.339 -13.309  25.344  1.00  0.00    -0.347 N 
HETATM    8  C18 UNL     1      22.494 -13.164  23.918  1.00  0.00     0.309 C 
ATOM      9  H4  UNL     1      22.999 -12.898  26.004  1.00  0.00     0.163 HD
HETATM   10  C17 UNL     1      21.273 -13.132  23.093  1.00  0.00     0.311 C 
HETATM   11  O3  UNL     1      23.613 -13.066  23.359  1.00  0.00    -0.262 OA
HETATM   12  O2  UNL     1      21.377 -13.010  21.861  1.00  0.00    -0.262 OA
BRANCH   6  13
HETATM   13  C2  UNL     1      21.462 -15.532  25.463  1.00  0.00     0.022 C 
HETATM   14  C1  UNL     1      22.386 -16.175  26.465  1.00  0.00     0.007 C 
ENDBRANCH   6  13
ENDBRANCH   3   4
ENDBRANCH   2   3
ENDBRANCH   1   2
BRANCH   1  15
HETATM   15  C8  UNL     1      17.595 -12.641  20.663  1.00  0.00     0.272 C 
BRANCH  15  16
HETATM   16  N2  UNL     1      16.308 -12.687  19.967  1.00  0.00     0.088 N 
HETATM   17  C9  UNL     1      15.319 -13.056  20.963  1.00  0.00     0.273 C 
HETATM   18  C10 UNL     1      14.936 -11.763  21.680  1.00  0.00     0.049 C 
HETATM   19  C11 UNL     1      13.987 -11.015  20.790  1.00  0.00     0.045 C 
HETATM   20  C12 UNL     1      12.597 -11.537  21.054  1.00  0.00     0.039 C 
HETATM   21  C14 UNL     1      13.872  -9.591  21.130  1.00  0.00     0.226 C 
HETATM   22  C15 UNL     1      14.420 -11.239  19.360  1.00  0.00     0.049 C 
HETATM   23  C13 UNL     1      12.240 -10.784  22.340  1.00  0.00     0.123 C 
HETATM   24  N3  UNL     1      12.815  -9.465  22.068  1.00  0.00    -0.360 N 
ATOM     25  H3  UNL     1      12.504  -8.590  22.489  1.00  0.00     0.162 HD
HETATM   26  O1  UNL     1      14.597  -8.682  20.654  1.00  0.00    -0.273 OA
HETATM   27  C16 UNL     1      15.944 -11.420  19.415  1.00  0.00     0.273 C 
ENDBRANCH  15  16
ENDBRANCH   1  15
TORSDOF 6
ENDMDL
