MODEL 1
REMARK VINA RESULT: -6.310803274      0.000      0.000
REMARK  5 active torsions:
REMARK  status: ('A' for Active; 'I' for Inactive)
REMARK    1  A    between atoms: C5_6  and  N2_7 
REMARK    2  A    between atoms: N2_7  and  C6_9 
REMARK    3  A    between atoms: C6_9  and  C7_10 
REMARK    4  A    between atoms: C11_15  and  C12_16 
REMARK    5  A    between atoms: C12_16  and  C13_17 
ROOT
HETATM    1  C7  UNL     1      25.398  -6.870   5.281  1.00  0.00     0.094 C 
HETATM    2  C8  UNL     1      25.380  -8.178   4.540  1.00  0.00     0.029 C 
HETATM    3  C9  UNL     1      26.736  -8.699   4.197  1.00  0.00     0.041 C 
HETATM    4  C10 UNL     1      27.508  -7.562   3.547  1.00  0.00     0.192 C 
HETATM    5  F1  UNL     1      28.735  -8.082   3.167  1.00  0.00    -0.247 F 
HETATM    6  C11 UNL     1      27.639  -6.386   4.478  1.00  0.00     0.113 C 
HETATM    7  N3  UNL     1      26.723  -6.380   5.567  1.00  0.00    -0.409 N 
ATOM      8  H3  UNL     1      26.988  -6.048   6.495  1.00  0.00     0.154 HD
ENDROOT
BRANCH   1   9
HETATM    9  C6  UNL     1      24.728  -7.035   6.660  1.00  0.00     0.139 C 
BRANCH   9  10
HETATM   10  N2  UNL     1      25.736  -7.005   7.643  1.00  0.00    -0.413 N 
ATOM     11  H2  UNL     1      26.587  -7.556   7.524  1.00  0.00     0.153 HD
BRANCH  10  12
HETATM   12  C5  UNL     1      25.558  -6.205   8.795  1.00  0.00     0.105 C 
HETATM   13  C4  UNL     1      24.257  -5.422   8.610  1.00  0.00     0.028 C 
HETATM   14  C3  UNL     1      23.896  -4.670   9.861  1.00  0.00     0.032 C 
HETATM   15  C2  UNL     1      25.122  -4.191  10.605  1.00  0.00     0.272 C 
HETATM   16  N1  UNL     1      26.238  -4.034   9.715  1.00  0.00     0.086 N 
HETATM   17  C1  UNL     1      26.077  -2.996   8.749  1.00  0.00     0.310 C 
HETATM   18  C14 UNL     1      26.698  -5.295   9.146  1.00  0.00     0.296 C 
ENDBRANCH  10  12
ENDBRANCH   9  10
ENDBRANCH   1   9
BRANCH   6  19
HETATM   19  C12 UNL     1      27.688  -5.066   3.711  1.00  0.00     0.059 C 
BRANCH  19  20
HETATM   20  C13 UNL     1      28.766  -4.176   4.291  1.00  0.00     0.224 C 
HETATM   21  F2  UNL     1      29.472  -3.567   3.268  1.00  0.00    -0.255 F 
ENDBRANCH  19  20
ENDBRANCH   6  19
TORSDOF 5
ENDMDL
MODEL 2
REMARK VINA RESULT: -6.085299466      3.034      4.843
REMARK  5 active torsions:
REMARK  status: ('A' for Active; 'I' for Inactive)
REMARK    1  A    between atoms: C5_6  and  N2_7 
REMARK    2  A    between atoms: N2_7  and  C6_9 
REMARK    3  A    between atoms: C6_9  and  C7_10 
REMARK    4  A    between atoms: C11_15  and  C12_16 
REMARK    5  A    between atoms: C12_16  and  C13_17 
ROOT
HETATM    1  C7  UNL     1      25.882  -6.065   8.307  1.00  0.00     0.094 C 
HETATM    2  C8  UNL     1      25.859  -5.316   9.612  1.00  0.00     0.029 C 
HETATM    3  C9  UNL     1      25.613  -3.851   9.465  1.00  0.00     0.041 C 
HETATM    4  C10 UNL     1      26.572  -3.334   8.403  1.00  0.00     0.192 C 
HETATM    5  F1  UNL     1      26.384  -1.964   8.333  1.00  0.00    -0.247 F 
HETATM    6  C11 UNL     1      26.347  -4.019   7.082  1.00  0.00     0.113 C 
HETATM    7  N3  UNL     1      25.617  -5.239   7.156  1.00  0.00    -0.409 N 
ATOM      8  H3  UNL     1      24.947  -5.513   6.437  1.00  0.00     0.154 HD
ENDROOT
BRANCH   1   9
HETATM    9  C6  UNL     1      24.773  -7.136   8.294  1.00  0.00     0.139 C 
BRANCH   9  10
HETATM   10  N2  UNL     1      23.790  -6.758   9.229  1.00  0.00    -0.413 N 
ATOM     11  H2  UNL     1      24.024  -6.678  10.219  1.00  0.00     0.153 HD
BRANCH  10  12
HETATM   12  C5  UNL     1      22.474  -6.491   8.782  1.00  0.00     0.105 C 
HETATM   13  C4  UNL     1      22.112  -5.080   9.247  1.00  0.00     0.028 C 
HETATM   14  C3  UNL     1      20.794  -4.643   8.671  1.00  0.00     0.032 C 
HETATM   15  C2  UNL     1      19.833  -5.802   8.519  1.00  0.00     0.272 C 
HETATM   16  N1  UNL     1      20.140  -6.853   9.447  1.00  0.00     0.086 N 
HETATM   17  C1  UNL     1      19.938  -6.505  10.817  1.00  0.00     0.310 C 
HETATM   18  C14 UNL     1      21.428  -7.487   9.189  1.00  0.00     0.296 C 
ENDBRANCH  10  12
ENDBRANCH   9  10
ENDBRANCH   1   9
BRANCH   6  19
HETATM   19  C12 UNL     1      27.641  -4.128   6.279  1.00  0.00     0.059 C 
BRANCH  19  20
HETATM   20  C13 UNL     1      27.378  -4.855   4.977  1.00  0.00     0.224 C 
HETATM   21  F2  UNL     1      28.554  -5.405   4.501  1.00  0.00    -0.255 F 
ENDBRANCH  19  20
ENDBRANCH   6  19
TORSDOF 5
ENDMDL
MODEL 3
REMARK VINA RESULT: -6.059855488      2.196      3.805
REMARK  5 active torsions:
REMARK  status: ('A' for Active; 'I' for Inactive)
REMARK    1  A    between atoms: C5_6  and  N2_7 
REMARK    2  A    between atoms: N2_7  and  C6_9 
REMARK    3  A    between atoms: C6_9  and  C7_10 
REMARK    4  A    between atoms: C11_15  and  C12_16 
REMARK    5  A    between atoms: C12_16  and  C13_17 
ROOT
HETATM    1  C7  UNL     1      26.378  -5.784   5.065  1.00  0.00     0.094 C 
HETATM    2  C8  UNL     1      27.304  -5.524   3.908  1.00  0.00     0.029 C 
HETATM    3  C9  UNL     1      28.560  -4.813   4.286  1.00  0.00     0.041 C 
HETATM    4  C10 UNL     1      28.164  -3.605   5.121  1.00  0.00     0.192 C 
HETATM    5  F1  UNL     1      29.332  -2.914   5.398  1.00  0.00    -0.247 F 
HETATM    6  C11 UNL     1      27.424  -4.018   6.365  1.00  0.00     0.113 C 
HETATM    7  N3  UNL     1      26.893  -5.338   6.335  1.00  0.00    -0.409 N 
ATOM      8  H3  UNL     1      26.877  -5.934   7.163  1.00  0.00     0.154 HD
ENDROOT
BRANCH   1   9
HETATM    9  C6  UNL     1      26.157  -7.300   5.233  1.00  0.00     0.139 C 
BRANCH   9  10
HETATM   10  N2  UNL     1      24.769  -7.538   5.268  1.00  0.00    -0.413 N 
ATOM     11  H2  UNL     1      24.220  -7.507   4.408  1.00  0.00     0.153 HD
BRANCH  10  12
HETATM   12  C5  UNL     1      24.144  -7.821   6.505  1.00  0.00     0.105 C 
HETATM   13  C4  UNL     1      23.382  -6.564   6.929  1.00  0.00     0.028 C 
HETATM   14  C3  UNL     1      22.546  -6.826   8.150  1.00  0.00     0.032 C 
HETATM   15  C2  UNL     1      23.201  -7.823   9.080  1.00  0.00     0.272 C 
HETATM   16  N1  UNL     1      24.627  -7.828   8.911  1.00  0.00     0.086 N 
HETATM   17  C1  UNL     1      25.269  -6.616   9.307  1.00  0.00     0.310 C 
HETATM   18  C14 UNL     1      25.047  -8.309   7.600  1.00  0.00     0.296 C 
ENDBRANCH  10  12
ENDBRANCH   9  10
ENDBRANCH   1   9
BRANCH   6  19
HETATM   19  C12 UNL     1      26.410  -2.960   6.792  1.00  0.00     0.059 C 
BRANCH  19  20
HETATM   20  C13 UNL     1      26.275  -2.958   8.300  1.00  0.00     0.224 C 
HETATM   21  F2  UNL     1      26.607  -1.711   8.799  1.00  0.00    -0.255 F 
ENDBRANCH  19  20
ENDBRANCH   6  19
TORSDOF 5
ENDMDL
MODEL 4
REMARK VINA RESULT: -6.033328853      2.862      4.618
REMARK  5 active torsions:
REMARK  status: ('A' for Active; 'I' for Inactive)
REMARK    1  A    between atoms: C5_6  and  N2_7 
REMARK    2  A    between atoms: N2_7  and  C6_9 
REMARK    3  A    between atoms: C6_9  and  C7_10 
REMARK    4  A    between atoms: C11_15  and  C12_16 
REMARK    5  A    between atoms: C12_16  and  C13_17 
ROOT
HETATM    1  C7  UNL     1      26.159  -5.907   8.652  1.00  0.00     0.094 C 
HETATM    2  C8  UNL     1      26.105  -4.922   9.788  1.00  0.00     0.029 C 
HETATM    3  C9  UNL     1      25.690  -3.547   9.378  1.00  0.00     0.041 C 
HETATM    4  C10 UNL     1      26.542  -3.155   8.181  1.00  0.00     0.192 C 
HETATM    5  F1  UNL     1      26.199  -1.851   7.862  1.00  0.00    -0.247 F 
HETATM    6  C11 UNL     1      26.342  -4.106   7.032  1.00  0.00     0.113 C 
HETATM    7  N3  UNL     1      25.757  -5.355   7.382  1.00  0.00    -0.409 N 
ATOM      8  H3  UNL     1      25.094  -5.832   6.772  1.00  0.00     0.154 HD
ENDROOT
BRANCH   1   9
HETATM    9  C6  UNL     1      25.177  -7.067   8.912  1.00  0.00     0.139 C 
BRANCH   9  10
HETATM   10  N2  UNL     1      23.933  -6.720   8.352  1.00  0.00    -0.413 N 
ATOM     11  H2  UNL     1      23.824  -6.656   7.340  1.00  0.00     0.153 HD
BRANCH  10  12
HETATM   12  C5  UNL     1      22.835  -6.463   9.206  1.00  0.00     0.105 C 
HETATM   13  C4  UNL     1      21.730  -7.457   8.841  1.00  0.00     0.028 C 
HETATM   14  C3  UNL     1      20.586  -7.372   9.812  1.00  0.00     0.032 C 
HETATM   15  C2  UNL     1      20.380  -5.963  10.320  1.00  0.00     0.272 C 
HETATM   16  N1  UNL     1      20.876  -4.997   9.381  1.00  0.00     0.086 N 
HETATM   17  C1  UNL     1      20.157  -4.954   8.148  1.00  0.00     0.310 C 
HETATM   18  C14 UNL     1      22.323  -5.053   9.212  1.00  0.00     0.296 C 
ENDBRANCH  10  12
ENDBRANCH   9  10
ENDBRANCH   1   9
BRANCH   6  19
HETATM   19  C12 UNL     1      27.607  -4.238   6.186  1.00  0.00     0.059 C 
BRANCH  19  20
HETATM   20  C13 UNL     1      27.296  -3.909   4.742  1.00  0.00     0.224 C 
HETATM   21  F2  UNL     1      28.285  -4.420   3.921  1.00  0.00    -0.255 F 
ENDBRANCH  19  20
ENDBRANCH   6  19
TORSDOF 5
ENDMDL
MODEL 5
REMARK VINA RESULT: -6.010615370      2.948      6.007
REMARK  5 active torsions:
REMARK  status: ('A' for Active; 'I' for Inactive)
REMARK    1  A    between atoms: C5_6  and  N2_7 
REMARK    2  A    between atoms: N2_7  and  C6_9 
REMARK    3  A    between atoms: C6_9  and  C7_10 
REMARK    4  A    between atoms: C11_15  and  C12_16 
REMARK    5  A    between atoms: C12_16  and  C13_17 
ROOT
HETATM    1  C7  UNL     1      26.361  -4.511   6.894  1.00  0.00     0.094 C 
HETATM    2  C8  UNL     1      26.152  -3.040   7.126  1.00  0.00     0.029 C 
HETATM    3  C9  UNL     1      26.502  -2.589   8.505  1.00  0.00     0.041 C 
HETATM    4  C10 UNL     1      25.815  -3.533   9.479  1.00  0.00     0.192 C 
HETATM    5  F1  UNL     1      26.086  -3.056  10.751  1.00  0.00    -0.247 F 
HETATM    6  C11 UNL     1      26.273  -4.953   9.281  1.00  0.00     0.113 C 
HETATM    7  N3  UNL     1      26.905  -5.210   8.032  1.00  0.00    -0.409 N 
ATOM      8  H3  UNL     1      27.694  -5.850   7.946  1.00  0.00     0.154 HD
ENDROOT
BRANCH   1   9
HETATM    9  C6  UNL     1      27.389  -4.727   5.765  1.00  0.00     0.139 C 
BRANCH   9  10
HETATM   10  N2  UNL     1      26.684  -4.909   4.560  1.00  0.00    -0.413 N 
ATOM     11  H2  UNL     1      26.627  -4.154   3.878  1.00  0.00     0.153 HD
BRANCH  10  12
HETATM   12  C5  UNL     1      26.056  -6.151   4.306  1.00  0.00     0.105 C 
HETATM   13  C4  UNL     1      24.627  -6.058   4.843  1.00  0.00     0.028 C 
HETATM   14  C3  UNL     1      23.828  -7.274   4.464  1.00  0.00     0.032 C 
HETATM   15  C2  UNL     1      24.682  -8.521   4.425  1.00  0.00     0.272 C 
HETATM   16  N1  UNL     1      25.827  -8.391   5.282  1.00  0.00     0.086 N 
HETATM   17  C1  UNL     1      25.513  -8.313   6.672  1.00  0.00     0.310 C 
HETATM   18  C14 UNL     1      26.762  -7.365   4.836  1.00  0.00     0.296 C 
ENDBRANCH  10  12
ENDBRANCH   9  10
ENDBRANCH   1   9
BRANCH   6  19
HETATM   19  C12 UNL     1      25.171  -5.952   9.627  1.00  0.00     0.059 C 
BRANCH  19  20
HETATM   20  C13 UNL     1      23.819  -5.360   9.292  1.00  0.00     0.224 C 
HETATM   21  F2  UNL     1      23.409  -5.801   8.047  1.00  0.00    -0.255 F 
ENDBRANCH  19  20
ENDBRANCH   6  19
TORSDOF 5
ENDMDL
