MODEL 1
REMARK VINA RESULT: -6.302204958      0.000      0.000
REMARK  5 active torsions:
REMARK  status: ('A' for Active; 'I' for Inactive)
REMARK    1  A    between atoms: C3_8  and  C4_9 
REMARK    2  A    between atoms: C4_9  and  N2_10 
REMARK    3  A    between atoms: N2_10  and  C5_13 
REMARK    4  A    between atoms: C5_13  and  C6_14 
REMARK    5  A    between atoms: C6_14  and  N3_15 
ROOT
HETATM    1  N2  UNL     1      26.864  -3.018   7.830  1.00  0.00    -0.071 N 
ATOM      2  H21 UNL     1      27.254  -2.097   8.031  1.00  0.00     0.277 HD
ATOM      3  H22 UNL     1      27.728  -3.543   7.701  1.00  0.00     0.277 HD
ENDROOT
BRANCH   1   4
HETATM    4  C4  UNL     1      26.100  -2.991   6.617  1.00  0.00     0.265 C 
BRANCH   4   5
HETATM    5  C3  UNL     1      27.031  -3.271   5.443  1.00  0.00     0.217 C 
HETATM    6  N1  UNL     1      28.413  -3.368   5.836  1.00  0.00    -0.064 N 
HETATM    7  C2  UNL     1      29.050  -4.108   4.760  1.00  0.00     0.311 C 
ATOM      8  H12 UNL     1      28.555  -3.776   6.760  1.00  0.00     0.277 HD
ATOM      9  H11 UNL     1      28.851  -2.469   6.039  1.00  0.00     0.277 HD
HETATM   10  C1  UNL     1      27.975  -4.947   4.126  1.00  0.00     0.269 C 
HETATM   11  F1  UNL     1      28.314  -6.287   4.105  1.00  0.00    -0.204 F 
HETATM   12  F2  UNL     1      27.663  -4.511   2.853  1.00  0.00    -0.204 F 
HETATM   13  C14 UNL     1      26.761  -4.693   4.995  1.00  0.00     0.115 C 
ENDBRANCH   4   5
ENDBRANCH   1   4
BRANCH   1  14
HETATM   14  C5  UNL     1      26.117  -3.525   8.978  1.00  0.00     0.262 C 
BRANCH  14  15
HETATM   15  C6  UNL     1      26.415  -5.009   9.016  1.00  0.00     0.300 C 
BRANCH  15  16
HETATM   16  N3  UNL     1      25.354  -5.818   9.562  1.00  0.00     0.095 N 
HETATM   17  C7  UNL     1      24.110  -5.149   9.203  1.00  0.00     0.277 C 
HETATM   18  C8  UNL     1      23.294  -5.951   8.260  1.00  0.00     0.014 C 
HETATM   19  C9  UNL     1      22.890  -7.229   8.956  1.00  0.00     0.008 C 
HETATM   20  C13 UNL     1      24.156  -6.270   7.042  1.00  0.00     0.008 C 
HETATM   21  C10 UNL     1      24.175  -7.937   9.352  1.00  0.00     0.036 C 
HETATM   22  C11 UNL     1      25.399  -7.144   8.957  1.00  0.00     0.223 C 
HETATM   23  C12 UNL     1      25.351  -7.078   7.428  1.00  0.00     0.036 C 
ENDBRANCH  15  16
ENDBRANCH  14  15
ENDBRANCH   1  14
TORSDOF 5
ENDMDL
MODEL 2
REMARK VINA RESULT: -5.889796955      3.333      4.632
REMARK  5 active torsions:
REMARK  status: ('A' for Active; 'I' for Inactive)
REMARK    1  A    between atoms: C3_8  and  C4_9 
REMARK    2  A    between atoms: C4_9  and  N2_10 
REMARK    3  A    between atoms: N2_10  and  C5_13 
REMARK    4  A    between atoms: C5_13  and  C6_14 
REMARK    5  A    between atoms: C6_14  and  N3_15 
ROOT
HETATM    1  N2  UNL     1      27.841  -4.966   5.771  1.00  0.00    -0.071 N 
ATOM      2  H21 UNL     1      27.757  -5.801   6.351  1.00  0.00     0.277 HD
ATOM      3  H22 UNL     1      28.856  -4.885   5.737  1.00  0.00     0.277 HD
ENDROOT
BRANCH   1   4
HETATM    4  C4  UNL     1      27.262  -3.830   6.429  1.00  0.00     0.265 C 
BRANCH   4   5
HETATM    5  C3  UNL     1      26.355  -4.322   7.550  1.00  0.00     0.217 C 
HETATM    6  N1  UNL     1      26.944  -5.388   8.320  1.00  0.00    -0.064 N 
HETATM    7  C2  UNL     1      26.219  -5.375   9.580  1.00  0.00     0.311 C 
ATOM      8  H12 UNL     1      27.956  -5.316   8.423  1.00  0.00     0.277 HD
ATOM      9  H11 UNL     1      26.940  -6.292   7.848  1.00  0.00     0.277 HD
HETATM   10  C1  UNL     1      25.711  -3.971   9.763  1.00  0.00     0.269 C 
HETATM   11  F1  UNL     1      26.118  -3.429  10.968  1.00  0.00    -0.204 F 
HETATM   12  F2  UNL     1      24.336  -3.901   9.646  1.00  0.00    -0.204 F 
HETATM   13  C14 UNL     1      26.297  -3.219   8.587  1.00  0.00     0.115 C 
ENDBRANCH   4   5
ENDBRANCH   1   4
BRANCH   1  14
HETATM   14  C5  UNL     1      27.296  -5.207   4.437  1.00  0.00     0.262 C 
BRANCH  14  15
HETATM   15  C6  UNL     1      26.869  -6.660   4.443  1.00  0.00     0.300 C 
BRANCH  15  16
HETATM   16  N3  UNL     1      25.815  -6.968   5.377  1.00  0.00     0.095 N 
HETATM   17  C7  UNL     1      24.572  -6.916   4.617  1.00  0.00     0.277 C 
HETATM   18  C8  UNL     1      23.922  -8.245   4.513  1.00  0.00     0.014 C 
HETATM   19  C9  UNL     1      23.535  -8.689   5.904  1.00  0.00     0.008 C 
HETATM   20  C13 UNL     1      24.930  -9.220   3.915  1.00  0.00     0.008 C 
HETATM   21  C10 UNL     1      24.818  -8.736   6.720  1.00  0.00     0.036 C 
HETATM   22  C11 UNL     1      26.018  -8.311   5.906  1.00  0.00     0.223 C 
HETATM   23  C12 UNL     1      26.130  -9.356   4.793  1.00  0.00     0.036 C 
ENDBRANCH  15  16
ENDBRANCH  14  15
ENDBRANCH   1  14
TORSDOF 5
ENDMDL
MODEL 3
REMARK VINA RESULT: -5.867328483      2.698      3.860
REMARK  5 active torsions:
REMARK  status: ('A' for Active; 'I' for Inactive)
REMARK    1  A    between atoms: C3_8  and  C4_9 
REMARK    2  A    between atoms: C4_9  and  N2_10 
REMARK    3  A    between atoms: N2_10  and  C5_13 
REMARK    4  A    between atoms: C5_13  and  C6_14 
REMARK    5  A    between atoms: C6_14  and  N3_15 
ROOT
HETATM    1  N2  UNL     1      24.160  -6.095   7.389  1.00  0.00    -0.071 N 
ATOM      2  H21 UNL     1      23.513  -6.649   6.827  1.00  0.00     0.277 HD
ATOM      3  H22 UNL     1      23.907  -5.162   7.067  1.00  0.00     0.277 HD
ENDROOT
BRANCH   1   4
HETATM    4  C4  UNL     1      25.519  -6.401   7.049  1.00  0.00     0.265 C 
BRANCH   4   5
HETATM    5  C3  UNL     1      26.127  -5.200   6.334  1.00  0.00     0.217 C 
HETATM    6  N1  UNL     1      27.278  -4.666   7.017  1.00  0.00    -0.064 N 
HETATM    7  C2  UNL     1      27.994  -3.916   5.999  1.00  0.00     0.311 C 
ATOM      8  H12 UNL     1      27.845  -5.370   7.490  1.00  0.00     0.277 HD
ATOM      9  H11 UNL     1      27.051  -4.123   7.850  1.00  0.00     0.277 HD
HETATM   10  C1  UNL     1      27.628  -4.536   4.678  1.00  0.00     0.269 C 
HETATM   11  F1  UNL     1      28.746  -4.930   3.967  1.00  0.00    -0.204 F 
HETATM   12  F2  UNL     1      26.845  -3.694   3.913  1.00  0.00    -0.204 F 
HETATM   13  C14 UNL     1      26.766  -5.720   5.063  1.00  0.00     0.115 C 
ENDBRANCH   4   5
ENDBRANCH   1   4
BRANCH   1  14
HETATM   14  C5  UNL     1      23.868  -6.247   8.813  1.00  0.00     0.262 C 
BRANCH  14  15
HETATM   15  C6  UNL     1      22.366  -6.425   8.889  1.00  0.00     0.300 C 
BRANCH  15  16
HETATM   16  N3  UNL     1      21.607  -5.279   8.454  1.00  0.00     0.095 N 
HETATM   17  C7  UNL     1      20.384  -5.806   7.859  1.00  0.00     0.277 C 
HETATM   18  C8  UNL     1      19.178  -5.437   8.639  1.00  0.00     0.014 C 
HETATM   19  C9  UNL     1      19.038  -3.933   8.606  1.00  0.00     0.008 C 
HETATM   20  C13 UNL     1      19.379  -5.912  10.075  1.00  0.00     0.008 C 
HETATM   21  C10 UNL     1      20.311  -3.362   9.210  1.00  0.00     0.036 C 
HETATM   22  C11 UNL     1      21.282  -4.450   9.608  1.00  0.00     0.223 C 
HETATM   23  C12 UNL     1      20.559  -5.243  10.699  1.00  0.00     0.036 C 
ENDBRANCH  15  16
ENDBRANCH  14  15
ENDBRANCH   1  14
TORSDOF 5
ENDMDL
MODEL 4
REMARK VINA RESULT: -5.851790652      3.290      4.778
REMARK  5 active torsions:
REMARK  status: ('A' for Active; 'I' for Inactive)
REMARK    1  A    between atoms: C3_8  and  C4_9 
REMARK    2  A    between atoms: C4_9  and  N2_10 
REMARK    3  A    between atoms: N2_10  and  C5_13 
REMARK    4  A    between atoms: C5_13  and  C6_14 
REMARK    5  A    between atoms: C6_14  and  N3_15 
ROOT
HETATM    1  N2  UNL     1      27.868  -4.850   5.902  1.00  0.00    -0.071 N 
ATOM      2  H21 UNL     1      27.963  -5.618   6.567  1.00  0.00     0.277 HD
ATOM      3  H22 UNL     1      28.853  -4.661   5.720  1.00  0.00     0.277 HD
ENDROOT
BRANCH   1   4
HETATM    4  C4  UNL     1      27.239  -3.718   6.520  1.00  0.00     0.265 C 
BRANCH   4   5
HETATM    5  C3  UNL     1      26.336  -4.211   7.643  1.00  0.00     0.217 C 
HETATM    6  N1  UNL     1      26.920  -5.288   8.401  1.00  0.00    -0.064 N 
HETATM    7  C2  UNL     1      26.205  -5.279   9.665  1.00  0.00     0.311 C 
ATOM      8  H12 UNL     1      27.934  -5.226   8.497  1.00  0.00     0.277 HD
ATOM      9  H11 UNL     1      26.906  -6.189   7.921  1.00  0.00     0.277 HD
HETATM   10  C1  UNL     1      25.710  -3.873   9.864  1.00  0.00     0.269 C 
HETATM   11  F1  UNL     1      26.130  -3.344  11.070  1.00  0.00    -0.204 F 
HETATM   12  F2  UNL     1      24.335  -3.790   9.757  1.00  0.00    -0.204 F 
HETATM   13  C14 UNL     1      26.295  -3.116   8.690  1.00  0.00     0.115 C 
ENDBRANCH   4   5
ENDBRANCH   1   4
BRANCH   1  14
HETATM   14  C5  UNL     1      27.193  -5.299   4.686  1.00  0.00     0.262 C 
BRANCH  14  15
HETATM   15  C6  UNL     1      26.487  -6.580   5.080  1.00  0.00     0.300 C 
BRANCH  15  16
HETATM   16  N3  UNL     1      25.287  -6.854   4.329  1.00  0.00     0.095 N 
HETATM   17  C7  UNL     1      25.060  -8.290   4.438  1.00  0.00     0.277 C 
HETATM   18  C8  UNL     1      23.825  -8.606   5.197  1.00  0.00     0.014 C 
HETATM   19  C9  UNL     1      22.647  -8.060   4.426  1.00  0.00     0.008 C 
HETATM   20  C13 UNL     1      23.919  -7.925   6.559  1.00  0.00     0.008 C 
HETATM   21  C10 UNL     1      22.871  -6.562   4.288  1.00  0.00     0.036 C 
HETATM   22  C11 UNL     1      24.171  -6.127   4.923  1.00  0.00     0.223 C 
HETATM   23  C12 UNL     1      24.008  -6.442   6.411  1.00  0.00     0.036 C 
ENDBRANCH  15  16
ENDBRANCH  14  15
ENDBRANCH   1  14
TORSDOF 5
ENDMDL
MODEL 5
REMARK VINA RESULT: -5.826936535      3.178      4.756
REMARK  5 active torsions:
REMARK  status: ('A' for Active; 'I' for Inactive)
REMARK    1  A    between atoms: C3_8  and  C4_9 
REMARK    2  A    between atoms: C4_9  and  N2_10 
REMARK    3  A    between atoms: N2_10  and  C5_13 
REMARK    4  A    between atoms: C5_13  and  C6_14 
REMARK    5  A    between atoms: C6_14  and  N3_15 
ROOT
HETATM    1  N2  UNL     1      28.068  -4.672   6.044  1.00  0.00    -0.071 N 
ATOM      2  H21 UNL     1      28.125  -5.422   6.733  1.00  0.00     0.277 HD
ATOM      3  H22 UNL     1      29.040  -4.365   6.046  1.00  0.00     0.277 HD
ENDROOT
BRANCH   1   4
HETATM    4  C4  UNL     1      27.204  -3.624   6.505  1.00  0.00     0.265 C 
BRANCH   4   5
HETATM    5  C3  UNL     1      26.334  -4.166   7.633  1.00  0.00     0.217 C 
HETATM    6  N1  UNL     1      26.976  -5.217   8.380  1.00  0.00    -0.064 N 
HETATM    7  C2  UNL     1      26.271  -5.249   9.650  1.00  0.00     0.311 C 
ATOM      8  H12 UNL     1      27.986  -5.107   8.469  1.00  0.00     0.277 HD
ATOM      9  H11 UNL     1      27.001  -6.115   7.895  1.00  0.00     0.277 HD
HETATM   10  C1  UNL     1      25.710  -3.870   9.860  1.00  0.00     0.269 C 
HETATM   11  F1  UNL     1      26.113  -3.328  11.065  1.00  0.00    -0.204 F 
HETATM   12  F2  UNL     1      24.332  -3.853   9.763  1.00  0.00    -0.204 F 
HETATM   13  C14 UNL     1      26.248  -3.080   8.685  1.00  0.00     0.115 C 
ENDBRANCH   4   5
ENDBRANCH   1   4
BRANCH   1  14
HETATM   14  C5  UNL     1      27.695  -5.200   4.734  1.00  0.00     0.262 C 
BRANCH  14  15
HETATM   15  C6  UNL     1      26.192  -5.381   4.797  1.00  0.00     0.300 C 
BRANCH  15  16
HETATM   16  N3  UNL     1      25.722  -6.646   4.291  1.00  0.00     0.095 N 
HETATM   17  C7  UNL     1      26.524  -7.670   4.949  1.00  0.00     0.277 C 
HETATM   18  C8  UNL     1      25.715  -8.520   5.855  1.00  0.00     0.014 C 
HETATM   19  C9  UNL     1      24.701  -9.265   5.020  1.00  0.00     0.008 C 
HETATM   20  C13 UNL     1      25.004  -7.609   6.850  1.00  0.00     0.008 C 
HETATM   21  C10 UNL     1      23.860  -8.214   4.312  1.00  0.00     0.036 C 
HETATM   22  C11 UNL     1      24.317  -6.812   4.643  1.00  0.00     0.223 C 
HETATM   23  C12 UNL     1      24.081  -6.666   6.149  1.00  0.00     0.036 C 
ENDBRANCH  15  16
ENDBRANCH  14  15
ENDBRANCH   1  14
TORSDOF 5
ENDMDL
