MODEL 1
REMARK VINA RESULT: -7.179607141      0.000      0.000
REMARK  4 active torsions:
REMARK  status: ('A' for Active; 'I' for Inactive)
REMARK    1  A    between atoms: C4_7  and  S2_8 
REMARK    2  A    between atoms: S2_8  and  C5_9 
REMARK    3  A    between atoms: C5_9  and  C7_11 
REMARK       I    between atoms: C7_11  and  N2_13 
REMARK    4  A    between atoms: N2_13  and  C8_15 
ROOT
HETATM    1  S2  UNL     1      16.168  15.685  63.630  1.00  0.00    -0.091 SA
ENDROOT
BRANCH   1   2
HETATM    2  C4  UNL     1      17.916  16.037  63.350  1.00  0.00     0.115 A 
HETATM    3  N1  UNL     1      18.521  17.193  63.218  1.00  0.00    -0.338 N 
HETATM    4  C3  UNL     1      19.821  17.242  63.018  1.00  0.00     0.096 A 
ATOM      5  H1  UNL     1      17.982  18.057  63.269  1.00  0.00     0.167 HD
HETATM    6  S1  UNL     1      20.953  18.670  62.795  1.00  0.00    -0.095 SA
HETATM    7  C13 UNL     1      20.491  16.073  62.957  1.00  0.00     0.078 A 
HETATM    8  C2  UNL     1      22.583  17.971  63.140  1.00  0.00     0.117 C 
HETATM    9  C1  UNL     1      23.645  18.484  62.209  1.00  0.00     0.033 C 
HETATM   10  S4  UNL     1      22.259  16.232  62.684  1.00  0.00    -0.104 SA
HETATM   11  S3  UNL     1      19.201  14.932  63.195  1.00  0.00    -0.055 SA
ENDBRANCH   1   2
BRANCH   1  12
HETATM   12  C5  UNL     1      15.833  15.605  65.417  1.00  0.00     0.142 C 
HETATM   13  C6  UNL     1      16.996  14.901  66.062  1.00  0.00     0.031 C 
BRANCH  12  14
HETATM   14  C7  UNL     1      14.539  14.911  65.624  1.00  0.00     0.231 C 
HETATM   15  O1  UNL     1      14.393  14.053  66.530  1.00  0.00    -0.272 OA
HETATM   16  N2  UNL     1      13.423  15.197  64.799  1.00  0.00    -0.355 N 
ATOM     17  H2  UNL     1      13.517  15.889  64.056  1.00  0.00     0.162 HD
BRANCH  16  18
HETATM   18  C8  UNL     1      12.174  14.539  64.985  1.00  0.00     0.084 C 
HETATM   19  C9  UNL     1      11.146  15.366  65.718  1.00  0.00     0.025 C 
HETATM   20  C10 UNL     1       9.891  14.509  65.514  1.00  0.00     0.002 C 
HETATM   21  C11 UNL     1      10.042  13.958  64.112  1.00  0.00     0.002 C 
HETATM   22  C12 UNL     1      11.454  14.275  63.667  1.00  0.00     0.025 C 
ENDBRANCH  16  18
ENDBRANCH  12  14
ENDBRANCH   1  12
TORSDOF 4
ENDMDL
MODEL 2
REMARK VINA RESULT: -7.153239443      1.840      2.228
REMARK  4 active torsions:
REMARK  status: ('A' for Active; 'I' for Inactive)
REMARK    1  A    between atoms: C4_7  and  S2_8 
REMARK    2  A    between atoms: S2_8  and  C5_9 
REMARK    3  A    between atoms: C5_9  and  C7_11 
REMARK       I    between atoms: C7_11  and  N2_13 
REMARK    4  A    between atoms: N2_13  and  C8_15 
ROOT
HETATM    1  S2  UNL     1      16.960  15.671  63.586  1.00  0.00    -0.091 SA
ENDROOT
BRANCH   1   2
HETATM    2  C4  UNL     1      18.754  15.547  63.431  1.00  0.00     0.115 A 
HETATM    3  N1  UNL     1      19.528  14.494  63.546  1.00  0.00    -0.338 N 
HETATM    4  C3  UNL     1      20.831  14.608  63.395  1.00  0.00     0.096 A 
ATOM      5  H1  UNL     1      19.119  13.583  63.754  1.00  0.00     0.167 HD
HETATM    6  S1  UNL     1      22.170  13.357  63.490  1.00  0.00    -0.095 SA
HETATM    7  C13 UNL     1      21.325  15.833  63.120  1.00  0.00     0.078 A 
HETATM    8  C2  UNL     1      23.548  14.150  62.633  1.00  0.00     0.117 C 
HETATM    9  C1  UNL     1      24.870  13.905  63.303  1.00  0.00     0.033 C 
HETATM   10  S4  UNL     1      23.109  15.899  62.928  1.00  0.00    -0.104 SA
HETATM   11  S3  UNL     1      19.870  16.785  63.091  1.00  0.00    -0.055 SA
ENDBRANCH   1   2
BRANCH   1  12
HETATM   12  C5  UNL     1      16.495  15.734  65.344  1.00  0.00     0.142 C 
HETATM   13  C6  UNL     1      17.548  14.984  66.115  1.00  0.00     0.031 C 
BRANCH  12  14
HETATM   14  C7  UNL     1      15.137  15.159  65.494  1.00  0.00     0.231 C 
HETATM   15  O1  UNL     1      14.855  14.382  66.441  1.00  0.00    -0.272 OA
HETATM   16  N2  UNL     1      14.112  15.471  64.567  1.00  0.00    -0.355 N 
ATOM     17  H2  UNL     1      14.317  16.098  63.789  1.00  0.00     0.162 HD
BRANCH  16  18
HETATM   18  C8  UNL     1      12.802  14.926  64.697  1.00  0.00     0.084 C 
HETATM   19  C9  UNL     1      11.842  15.807  65.460  1.00  0.00     0.025 C 
HETATM   20  C10 UNL     1      10.516  15.087  65.188  1.00  0.00     0.002 C 
HETATM   21  C11 UNL     1      10.643  14.600  63.761  1.00  0.00     0.002 C 
HETATM   22  C12 UNL     1      12.088  14.804  63.356  1.00  0.00     0.025 C 
ENDBRANCH  16  18
ENDBRANCH  12  14
ENDBRANCH   1  12
TORSDOF 4
ENDMDL
MODEL 3
REMARK VINA RESULT: -7.145551107      1.602      1.811
REMARK  4 active torsions:
REMARK  status: ('A' for Active; 'I' for Inactive)
REMARK    1  A    between atoms: C4_7  and  S2_8 
REMARK    2  A    between atoms: S2_8  and  C5_9 
REMARK    3  A    between atoms: C5_9  and  C7_11 
REMARK       I    between atoms: C7_11  and  N2_13 
REMARK    4  A    between atoms: N2_13  and  C8_15 
ROOT
HETATM    1  S2  UNL     1      16.439  15.537  63.681  1.00  0.00    -0.091 SA
ENDROOT
BRANCH   1   2
HETATM    2  C4  UNL     1      18.165  15.019  63.569  1.00  0.00     0.115 A 
HETATM    3  N1  UNL     1      19.239  15.742  63.363  1.00  0.00    -0.338 N 
HETATM    4  C3  UNL     1      20.424  15.172  63.316  1.00  0.00     0.096 A 
ATOM      5  H1  UNL     1      19.156  16.752  63.240  1.00  0.00     0.167 HD
HETATM    6  S1  UNL     1      22.095  15.884  63.050  1.00  0.00    -0.095 SA
HETATM    7  C13 UNL     1      20.484  13.835  63.485  1.00  0.00     0.078 A 
HETATM    8  C2  UNL     1      23.203  14.600  63.673  1.00  0.00     0.117 C 
HETATM    9  C1  UNL     1      24.425  14.420  62.818  1.00  0.00     0.033 C 
HETATM   10  S4  UNL     1      22.138  13.139  63.408  1.00  0.00    -0.104 SA
HETATM   11  S3  UNL     1      18.804  13.449  63.710  1.00  0.00    -0.055 SA
ENDBRANCH   1   2
BRANCH   1  12
HETATM   12  C5  UNL     1      15.944  15.660  65.428  1.00  0.00     0.142 C 
HETATM   13  C6  UNL     1      17.053  15.065  66.252  1.00  0.00     0.031 C 
BRANCH  12  14
HETATM   14  C7  UNL     1      14.646  14.965  65.600  1.00  0.00     0.231 C 
HETATM   15  O1  UNL     1      14.474  14.115  66.509  1.00  0.00    -0.272 OA
HETATM   16  N2  UNL     1      13.556  15.239  64.737  1.00  0.00    -0.355 N 
ATOM     17  H2  UNL     1      13.672  15.924  63.991  1.00  0.00     0.162 HD
BRANCH  16  18
HETATM   18  C8  UNL     1      12.303  14.579  64.890  1.00  0.00     0.084 C 
HETATM   19  C9  UNL     1      11.282  15.370  65.671  1.00  0.00     0.025 C 
HETATM   20  C10 UNL     1      10.022  14.534  65.422  1.00  0.00     0.002 C 
HETATM   21  C11 UNL     1      10.166  14.060  63.992  1.00  0.00     0.002 C 
HETATM   22  C12 UNL     1      11.579  14.393  63.561  1.00  0.00     0.025 C 
ENDBRANCH  16  18
ENDBRANCH  12  14
ENDBRANCH   1  12
TORSDOF 4
ENDMDL
MODEL 4
REMARK VINA RESULT: -7.141059459      2.282      2.922
REMARK  4 active torsions:
REMARK  status: ('A' for Active; 'I' for Inactive)
REMARK    1  A    between atoms: C4_7  and  S2_8 
REMARK    2  A    between atoms: S2_8  and  C5_9 
REMARK    3  A    between atoms: C5_9  and  C7_11 
REMARK       I    between atoms: C7_11  and  N2_13 
REMARK    4  A    between atoms: N2_13  and  C8_15 
ROOT
HETATM    1  S2  UNL     1      18.213  14.392  63.755  1.00  0.00    -0.091 SA
ENDROOT
BRANCH   1   2
HETATM    2  C4  UNL     1      19.928  14.885  63.482  1.00  0.00     0.115 A 
HETATM    3  N1  UNL     1      21.021  14.161  63.537  1.00  0.00    -0.338 N 
HETATM    4  C3  UNL     1      22.193  14.711  63.302  1.00  0.00     0.096 A 
ATOM      5  H1  UNL     1      20.962  13.169  63.765  1.00  0.00     0.167 HD
HETATM    6  S1  UNL     1      23.883  13.993  63.300  1.00  0.00    -0.095 SA
HETATM    7  C13 UNL     1      22.221  16.026  63.005  1.00  0.00     0.078 A 
HETATM    8  C2  UNL     1      24.849  15.196  62.360  1.00  0.00     0.117 C 
HETATM    9  C1  UNL     1      26.215  15.427  62.941  1.00  0.00     0.033 C 
HETATM   10  S4  UNL     1      23.860  16.694  62.697  1.00  0.00    -0.104 SA
HETATM   11  S3  UNL     1      20.530  16.424  63.079  1.00  0.00    -0.055 SA
ENDBRANCH   1   2
BRANCH   1  12
HETATM   12  C5  UNL     1      17.407  15.565  64.889  1.00  0.00     0.142 C 
HETATM   13  C6  UNL     1      17.380  14.927  66.251  1.00  0.00     0.031 C 
BRANCH  12  14
HETATM   14  C7  UNL     1      16.058  15.879  64.361  1.00  0.00     0.231 C 
HETATM   15  O1  UNL     1      15.905  16.468  63.262  1.00  0.00    -0.272 OA
HETATM   16  N2  UNL     1      14.895  15.522  65.087  1.00  0.00    -0.355 N 
ATOM     17  H2  UNL     1      14.993  15.044  65.982  1.00  0.00     0.162 HD
BRANCH  16  18
HETATM   18  C8  UNL     1      13.591  15.817  64.593  1.00  0.00     0.084 C 
HETATM   19  C9  UNL     1      13.159  14.946  63.438  1.00  0.00     0.025 C 
HETATM   20  C10 UNL     1      11.676  15.322  63.337  1.00  0.00     0.002 C 
HETATM   21  C11 UNL     1      11.241  15.514  64.774  1.00  0.00     0.002 C 
HETATM   22  C12 UNL     1      12.501  15.514  65.615  1.00  0.00     0.025 C 
ENDBRANCH  16  18
ENDBRANCH  12  14
ENDBRANCH   1  12
TORSDOF 4
ENDMDL
MODEL 5
REMARK VINA RESULT: -7.109178277      2.574      9.015
REMARK  4 active torsions:
REMARK  status: ('A' for Active; 'I' for Inactive)
REMARK    1  A    between atoms: C4_7  and  S2_8 
REMARK    2  A    between atoms: S2_8  and  C5_9 
REMARK    3  A    between atoms: C5_9  and  C7_11 
REMARK       I    between atoms: C7_11  and  N2_13 
REMARK    4  A    between atoms: N2_13  and  C8_15 
ROOT
HETATM    1  S2  UNL     1      17.587  15.413  65.199  1.00  0.00    -0.091 SA
ENDROOT
BRANCH   1   2
HETATM    2  C4  UNL     1      15.814  15.360  64.864  1.00  0.00     0.115 A 
HETATM    3  N1  UNL     1      14.835  14.942  65.630  1.00  0.00    -0.338 N 
HETATM    4  C3  UNL     1      13.591  14.986  65.200  1.00  0.00     0.096 A 
ATOM      5  H1  UNL     1      15.037  14.582  66.563  1.00  0.00     0.167 HD
HETATM    6  S1  UNL     1      12.019  14.488  66.007  1.00  0.00    -0.095 SA
HETATM    7  C13 UNL     1      13.373  15.470  63.961  1.00  0.00     0.078 A 
HETATM    8  C2  UNL     1      10.761  15.357  65.046  1.00  0.00     0.117 C 
HETATM    9  C1  UNL     1       9.537  14.522  64.799  1.00  0.00     0.033 C 
HETATM   10  S4  UNL     1      11.650  15.495  63.455  1.00  0.00    -0.104 SA
HETATM   11  S3  UNL     1      14.993  15.850  63.457  1.00  0.00    -0.055 SA
ENDBRANCH   1   2
BRANCH   1  12
HETATM   12  C5  UNL     1      18.514  15.283  63.639  1.00  0.00     0.142 C 
HETATM   13  C6  UNL     1      19.613  14.277  63.852  1.00  0.00     0.031 C 
BRANCH  12  14
HETATM   14  C7  UNL     1      19.015  16.630  63.274  1.00  0.00     0.231 C 
HETATM   15  O1  UNL     1      18.226  17.571  63.006  1.00  0.00    -0.272 OA
HETATM   16  N2  UNL     1      20.405  16.895  63.215  1.00  0.00    -0.355 N 
ATOM     17  H2  UNL     1      21.065  16.147  63.427  1.00  0.00     0.162 HD
BRANCH  16  18
HETATM   18  C8  UNL     1      20.902  18.184  62.866  1.00  0.00     0.084 C 
HETATM   19  C9  UNL     1      22.110  18.614  63.661  1.00  0.00     0.025 C 
HETATM   20  C10 UNL     1      22.535  19.864  62.881  1.00  0.00     0.002 C 
HETATM   21  C11 UNL     1      22.256  19.513  61.436  1.00  0.00     0.002 C 
HETATM   22  C12 UNL     1      21.452  18.230  61.445  1.00  0.00     0.025 C 
ENDBRANCH  16  18
ENDBRANCH  12  14
ENDBRANCH   1  12
TORSDOF 4
ENDMDL
