MODEL 1
REMARK VINA RESULT: -7.401151118      0.000      0.000
REMARK  4 active torsions:
REMARK  status: ('A' for Active; 'I' for Inactive)
REMARK       I    between atoms: C2_2  and  N1_4 
REMARK    1  A    between atoms: N1_4  and  N2_6 
REMARK    2  A    between atoms: C3_7  and  C4_8 
REMARK    3  A    between atoms: C8_13  and  C9_14 
REMARK    4  A    between atoms: C9_14  and  C10_16 
ROOT
HETATM    1  N2  UNL     1      23.499  16.827  61.724  1.00  0.00    -0.232 N 
HETATM    2  C3  UNL     1      22.262  17.292  61.753  1.00  0.00     0.113 A 
HETATM    3  C8  UNL     1      21.438  16.893  62.749  1.00  0.00     0.085 A 
HETATM    4  S1  UNL     1      22.470  15.851  63.685  1.00  0.00    -0.053 SA
HETATM    5  C16 UNL     1      23.851  15.976  62.755  1.00  0.00     0.165 A 
HETATM    6  S2  UNL     1      25.349  15.269  62.963  1.00  0.00    -0.050 SA
ENDROOT
BRANCH   3   7
HETATM    7  C9  UNL     1      19.981  17.027  62.990  1.00  0.00     0.173 C 
HETATM    8  O3  UNL     1      19.361  18.036  62.625  1.00  0.00    -0.291 OA
BRANCH   7   9
HETATM    9  C10 UNL     1      19.240  15.945  63.673  1.00  0.00     0.061 C 
HETATM   10  C11 UNL     1      19.269  14.627  62.950  1.00  0.00     0.012 C 
HETATM   11  C12 UNL     1      18.874  13.569  63.959  1.00  0.00     0.001 C 
HETATM   12  C13 UNL     1      17.625  13.853  64.704  1.00  0.00     0.000 C 
HETATM   13  C14 UNL     1      17.447  15.284  65.150  1.00  0.00     0.001 C 
HETATM   14  C15 UNL     1      17.839  16.265  64.059  1.00  0.00     0.012 C 
ENDBRANCH   7   9
ENDBRANCH   3   7
BRANCH   2  15
HETATM   15  C4  UNL     1      21.901  18.547  60.965  1.00  0.00     0.105 A 
HETATM   16  C5  UNL     1      21.422  18.542  59.647  1.00  0.00     0.041 A 
HETATM   17  C6  UNL     1      21.197  19.849  59.294  1.00  0.00     0.027 A 
HETATM   18  C7  UNL     1      21.537  20.600  60.388  1.00  0.00     0.142 A 
HETATM   19  O2  UNL     1      21.925  19.771  61.286  1.00  0.00    -0.320 OA
ENDBRANCH   2  15
BRANCH   1  20
HETATM   20  N1  UNL     1      24.444  16.844  60.653  1.00  0.00    -0.262 N 
HETATM   21  C2  UNL     1      25.379  17.823  60.338  1.00  0.00     0.232 C 
HETATM   22  C1  UNL     1      26.333  17.578  59.159  1.00  0.00     0.119 C 
HETATM   23  O1  UNL     1      25.569  18.934  60.902  1.00  0.00    -0.272 OA
ATOM     24  H1  UNL     1      24.430  16.030  60.038  1.00  0.00     0.190 HD
ENDBRANCH   1  20
TORSDOF 4
ENDMDL
MODEL 2
REMARK VINA RESULT: -7.396421440      2.648      6.194
REMARK  4 active torsions:
REMARK  status: ('A' for Active; 'I' for Inactive)
REMARK       I    between atoms: C2_2  and  N1_4 
REMARK    1  A    between atoms: N1_4  and  N2_6 
REMARK    2  A    between atoms: C3_7  and  C4_8 
REMARK    3  A    between atoms: C8_13  and  C9_14 
REMARK    4  A    between atoms: C9_14  and  C10_16 
ROOT
HETATM    1  N2  UNL     1      19.264  15.433  63.259  1.00  0.00    -0.232 N 
HETATM    2  C3  UNL     1      20.180  16.383  63.187  1.00  0.00     0.113 A 
HETATM    3  C8  UNL     1      21.478  16.055  63.380  1.00  0.00     0.085 A 
HETATM    4  S1  UNL     1      21.387  14.336  63.641  1.00  0.00    -0.053 SA
HETATM    5  C16 UNL     1      19.733  14.157  63.505  1.00  0.00     0.165 A 
HETATM    6  S2  UNL     1      18.792  12.782  63.625  1.00  0.00    -0.050 SA
ENDROOT
BRANCH   3   7
HETATM    7  C9  UNL     1      22.717  16.844  63.578  1.00  0.00     0.173 C 
HETATM    8  O3  UNL     1      22.783  17.728  64.444  1.00  0.00    -0.291 OA
BRANCH   7   9
HETATM    9  C10 UNL     1      23.904  16.583  62.736  1.00  0.00     0.061 C 
HETATM   10  C11 UNL     1      23.590  16.325  61.290  1.00  0.00     0.012 C 
HETATM   11  C12 UNL     1      24.879  16.522  60.521  1.00  0.00     0.001 C 
HETATM   12  C13 UNL     1      26.043  15.777  61.056  1.00  0.00     0.000 C 
HETATM   13  C14 UNL     1      26.170  15.765  62.560  1.00  0.00     0.001 C 
HETATM   14  C15 UNL     1      24.830  15.530  63.235  1.00  0.00     0.012 C 
ENDBRANCH   7   9
ENDBRANCH   3   7
BRANCH   2  15
HETATM   15  C4  UNL     1      19.856  17.704  62.493  1.00  0.00     0.105 A 
HETATM   16  C5  UNL     1      20.692  18.331  61.560  1.00  0.00     0.041 A 
HETATM   17  C6  UNL     1      20.055  19.476  61.151  1.00  0.00     0.027 A 
HETATM   18  C7  UNL     1      18.868  19.512  61.834  1.00  0.00     0.142 A 
HETATM   19  O2  UNL     1      18.847  18.462  62.571  1.00  0.00    -0.320 OA
ENDBRANCH   2  15
BRANCH   1  20
HETATM   20  N1  UNL     1      17.847  15.556  63.396  1.00  0.00    -0.262 N 
HETATM   21  C2  UNL     1      17.094  15.645  64.562  1.00  0.00     0.232 C 
HETATM   22  C1  UNL     1      15.575  15.833  64.444  1.00  0.00     0.119 C 
HETATM   23  O1  UNL     1      17.493  15.593  65.756  1.00  0.00    -0.272 OA
ATOM     24  H1  UNL     1      17.319  15.580  62.524  1.00  0.00     0.190 HD
ENDBRANCH   1  20
TORSDOF 4
ENDMDL
MODEL 3
REMARK VINA RESULT: -7.366594161      2.636      3.972
REMARK  4 active torsions:
REMARK  status: ('A' for Active; 'I' for Inactive)
REMARK       I    between atoms: C2_2  and  N1_4 
REMARK    1  A    between atoms: N1_4  and  N2_6 
REMARK    2  A    between atoms: C3_7  and  C4_8 
REMARK    3  A    between atoms: C8_13  and  C9_14 
REMARK    4  A    between atoms: C9_14  and  C10_16 
ROOT
HETATM    1  N2  UNL     1      21.998  19.543  60.670  1.00  0.00    -0.232 N 
HETATM    2  C3  UNL     1      22.451  18.565  61.436  1.00  0.00     0.113 A 
HETATM    3  C8  UNL     1      21.579  17.897  62.225  1.00  0.00     0.085 A 
HETATM    4  S1  UNL     1      20.068  18.669  61.840  1.00  0.00    -0.053 SA
HETATM    5  C16 UNL     1      20.638  19.780  60.732  1.00  0.00     0.165 A 
HETATM    6  S2  UNL     1      19.813  20.941  59.859  1.00  0.00    -0.050 SA
ENDROOT
BRANCH   3   7
HETATM    7  C9  UNL     1      21.737  16.921  63.330  1.00  0.00     0.173 C 
HETATM    8  O3  UNL     1      22.450  17.174  64.311  1.00  0.00    -0.291 OA
BRANCH   7   9
HETATM    9  C10 UNL     1      21.037  15.619  63.275  1.00  0.00     0.061 C 
HETATM   10  C11 UNL     1      19.607  15.669  63.732  1.00  0.00     0.012 C 
HETATM   11  C12 UNL     1      18.937  14.418  63.206  1.00  0.00     0.001 C 
HETATM   12  C13 UNL     1      19.652  13.154  63.506  1.00  0.00     0.000 C 
HETATM   13  C14 UNL     1      21.153  13.209  63.358  1.00  0.00     0.001 C 
HETATM   14  C15 UNL     1      21.730  14.485  63.944  1.00  0.00     0.012 C 
ENDBRANCH   7   9
ENDBRANCH   3   7
BRANCH   2  15
HETATM   15  C4  UNL     1      23.801  17.923  61.132  1.00  0.00     0.105 A 
HETATM   16  C5  UNL     1      24.077  17.169  59.983  1.00  0.00     0.041 A 
HETATM   17  C6  UNL     1      25.390  16.780  60.059  1.00  0.00     0.027 A 
HETATM   18  C7  UNL     1      25.871  17.301  61.231  1.00  0.00     0.142 A 
HETATM   19  O2  UNL     1      24.894  17.934  61.770  1.00  0.00    -0.320 OA
ENDBRANCH   2  15
BRANCH   1  20
HETATM   20  N1  UNL     1      22.725  20.574  60.000  1.00  0.00    -0.262 N 
HETATM   21  C2  UNL     1      23.456  21.619  60.553  1.00  0.00     0.232 C 
HETATM   22  C1  UNL     1      24.207  22.572  59.611  1.00  0.00     0.119 C 
HETATM   23  O1  UNL     1      23.601  21.914  61.770  1.00  0.00    -0.272 OA
ATOM     24  H1  UNL     1      22.706  20.538  58.981  1.00  0.00     0.190 HD
ENDBRANCH   1  20
TORSDOF 4
ENDMDL
MODEL 4
REMARK VINA RESULT: -7.199291745      2.420      3.857
REMARK  4 active torsions:
REMARK  status: ('A' for Active; 'I' for Inactive)
REMARK       I    between atoms: C2_2  and  N1_4 
REMARK    1  A    between atoms: N1_4  and  N2_6 
REMARK    2  A    between atoms: C3_7  and  C4_8 
REMARK    3  A    between atoms: C8_13  and  C9_14 
REMARK    4  A    between atoms: C9_14  and  C10_16 
ROOT
HETATM    1  N2  UNL     1      23.046  18.167  60.925  1.00  0.00    -0.232 N 
HETATM    2  C3  UNL     1      23.156  17.086  61.678  1.00  0.00     0.113 A 
HETATM    3  C8  UNL     1      22.076  16.664  62.375  1.00  0.00     0.085 A 
HETATM    4  S1  UNL     1      20.866  17.828  61.917  1.00  0.00    -0.053 SA
HETATM    5  C16 UNL     1      21.800  18.764  60.901  1.00  0.00     0.165 A 
HETATM    6  S2  UNL     1      21.392  20.124  60.021  1.00  0.00    -0.050 SA
ENDROOT
BRANCH   3   7
HETATM    7  C9  UNL     1      21.876  15.659  63.447  1.00  0.00     0.173 C 
HETATM    8  O3  UNL     1      22.579  15.662  64.467  1.00  0.00    -0.291 OA
BRANCH   7   9
HETATM    9  C10 UNL     1      20.823  14.630  63.310  1.00  0.00     0.061 C 
HETATM   10  C11 UNL     1      19.548  14.953  64.035  1.00  0.00     0.012 C 
HETATM   11  C12 UNL     1      18.473  14.065  63.445  1.00  0.00     0.001 C 
HETATM   12  C13 UNL     1      18.818  12.624  63.388  1.00  0.00     0.000 C 
HETATM   13  C14 UNL     1      20.234  12.313  62.965  1.00  0.00     0.001 C 
HETATM   14  C15 UNL     1      21.235  13.237  63.635  1.00  0.00     0.012 C 
ENDBRANCH   7   9
ENDBRANCH   3   7
BRANCH   2  15
HETATM   15  C4  UNL     1      24.302  16.106  61.443  1.00  0.00     0.105 A 
HETATM   16  C5  UNL     1      24.131  14.765  61.073  1.00  0.00     0.041 A 
HETATM   17  C6  UNL     1      25.384  14.219  60.941  1.00  0.00     0.027 A 
HETATM   18  C7  UNL     1      26.267  15.227  61.225  1.00  0.00     0.142 A 
HETATM   19  O2  UNL     1      25.556  16.260  61.499  1.00  0.00    -0.320 OA
ENDBRANCH   2  15
BRANCH   1  20
HETATM   20  N1  UNL     1      24.076  18.973  60.351  1.00  0.00    -0.262 N 
HETATM   21  C2  UNL     1      25.016  19.769  60.997  1.00  0.00     0.232 C 
HETATM   22  C1  UNL     1      26.068  20.500  60.151  1.00  0.00     0.119 C 
HETATM   23  O1  UNL     1      25.137  19.988  62.233  1.00  0.00    -0.272 OA
ATOM     24  H1  UNL     1      24.128  18.965  59.332  1.00  0.00     0.190 HD
ENDBRANCH   1  20
TORSDOF 4
ENDMDL
MODEL 5
REMARK VINA RESULT: -7.106534258      2.415      3.652
REMARK  4 active torsions:
REMARK  status: ('A' for Active; 'I' for Inactive)
REMARK       I    between atoms: C2_2  and  N1_4 
REMARK    1  A    between atoms: N1_4  and  N2_6 
REMARK    2  A    between atoms: C3_7  and  C4_8 
REMARK    3  A    between atoms: C8_13  and  C9_14 
REMARK    4  A    between atoms: C9_14  and  C10_16 
ROOT
HETATM    1  N2  UNL     1      23.655  18.135  62.391  1.00  0.00    -0.232 N 
HETATM    2  C3  UNL     1      23.241  16.900  62.618  1.00  0.00     0.113 A 
HETATM    3  C8  UNL     1      21.960  16.702  63.006  1.00  0.00     0.085 A 
HETATM    4  S1  UNL     1      21.326  18.323  63.017  1.00  0.00    -0.053 SA
HETATM    5  C16 UNL     1      22.710  19.130  62.552  1.00  0.00     0.165 A 
HETATM    6  S2  UNL     1      22.968  20.762  62.312  1.00  0.00    -0.050 SA
ENDROOT
BRANCH   3   7
HETATM    7  C9  UNL     1      21.218  15.533  63.535  1.00  0.00     0.173 C 
HETATM    8  O3  UNL     1      21.791  14.457  63.756  1.00  0.00    -0.291 OA
BRANCH   7   9
HETATM    9  C10 UNL     1      19.769  15.637  63.809  1.00  0.00     0.061 C 
HETATM   10  C11 UNL     1      19.198  14.469  64.562  1.00  0.00     0.012 C 
HETATM   11  C12 UNL     1      17.871  14.923  65.132  1.00  0.00     0.001 C 
HETATM   12  C13 UNL     1      16.954  15.551  64.152  1.00  0.00     0.000 C 
HETATM   13  C14 UNL     1      17.603  16.493  63.167  1.00  0.00     0.001 C 
HETATM   14  C15 UNL     1      18.908  15.932  62.631  1.00  0.00     0.012 C 
ENDBRANCH   7   9
ENDBRANCH   3   7
BRANCH   2  15
HETATM   15  C4  UNL     1      24.024  15.717  62.055  1.00  0.00     0.105 A 
HETATM   16  C5  UNL     1      25.052  15.054  62.739  1.00  0.00     0.041 A 
HETATM   17  C6  UNL     1      25.496  14.045  61.922  1.00  0.00     0.027 A 
HETATM   18  C7  UNL     1      24.737  14.119  60.784  1.00  0.00     0.142 A 
HETATM   19  O2  UNL     1      23.929  15.101  60.955  1.00  0.00    -0.320 OA
ENDBRANCH   2  15
BRANCH   1  20
HETATM   20  N1  UNL     1      24.990  18.630  62.275  1.00  0.00    -0.262 N 
HETATM   21  C2  UNL     1      25.827  18.614  61.165  1.00  0.00     0.232 C 
HETATM   22  C1  UNL     1      27.211  19.271  61.277  1.00  0.00     0.119 C 
HETATM   23  O1  UNL     1      25.608  18.117  60.027  1.00  0.00    -0.272 OA
ATOM     24  H1  UNL     1      25.380  19.051  63.118  1.00  0.00     0.190 HD
ENDBRANCH   1  20
TORSDOF 4
ENDMDL
