MODEL 1
REMARK VINA RESULT: -5.909862162      0.000      0.000
REMARK  6 active torsions:
REMARK  status: ('A' for Active; 'I' for Inactive)
REMARK    1  A    between atoms: C2_2  and  N1_4 
REMARK    2  A    between atoms: N1_4  and  C5_6 
REMARK    3  A    between atoms: C5_6  and  O1_7 
REMARK    4  A    between atoms: C5_6  and  C6_9 
REMARK    5  A    between atoms: C9_16  and  S1_17 
REMARK    6  A    between atoms: S1_17  and  C10_18 
ROOT
HETATM    1  C6  UNL     1      22.706  16.515  63.300  1.00  0.00     0.102 A 
HETATM    2  N2  UNL     1      21.394  16.395  63.517  1.00  0.00    -0.355 N 
ATOM      3  H2  UNL     1      20.831  17.241  63.602  1.00  0.00     0.166 HD
HETATM    4  C7  UNL     1      20.789  15.204  63.627  1.00  0.00     0.043 A 
HETATM    5  C8  UNL     1      21.597  14.075  63.506  1.00  0.00     0.093 A 
HETATM    6  N3  UNL     1      22.918  14.195  63.288  1.00  0.00    -0.342 N 
ATOM      7  H3  UNL     1      23.491  13.355  63.201  1.00  0.00     0.167 HD
HETATM    8  C9  UNL     1      23.484  15.389  63.184  1.00  0.00     0.098 A 
HETATM    9  S2  UNL     1      20.869  12.448  63.639  1.00  0.00    -0.110 SA
HETATM   10  C14 UNL     1      19.110  12.606  63.296  1.00  0.00     0.081 C 
HETATM   11  C15 UNL     1      18.718  14.008  62.953  1.00  0.00     0.017 C 
HETATM   12  C16 UNL     1      19.327  15.051  63.869  1.00  0.00     0.061 C 
ENDROOT
BRANCH   1  13
HETATM   13  C5  UNL     1      23.316  17.833  63.189  1.00  0.00     0.410 C 
BRANCH  13  14
HETATM   14  N1  UNL     1      23.094  18.505  61.946  1.00  0.00     0.122 N 
HETATM   15  C4  UNL     1      24.300  19.005  61.330  1.00  0.00     0.314 C 
BRANCH  14  16
HETATM   16  C2  UNL     1      22.175  19.609  62.049  1.00  0.00     0.218 C 
HETATM   17  C1  UNL     1      22.698  20.934  61.639  1.00  0.00     0.042 C 
HETATM   18  C3  UNL     1      20.863  19.320  61.345  1.00  0.00     0.042 C 
ENDBRANCH  14  16
ENDBRANCH  13  14
BRANCH  13  19
HETATM   19  O1  UNL     1      22.831  18.634  64.219  1.00  0.00    -0.363 OA
ATOM     20  H1  UNL     1      23.535  19.193  64.525  1.00  0.00     0.212 HD
ENDBRANCH  13  19
ENDBRANCH   1  13
BRANCH   8  21
HETATM   21  S1  UNL     1      25.261  15.579  62.888  1.00  0.00    -0.101 SA
BRANCH  21  22
HETATM   22  C10 UNL     1      25.657  15.211  61.176  1.00  0.00     0.003 C 
HETATM   23  C11 UNL     1      26.803  16.046  60.670  1.00  0.00     0.026 C 
HETATM   24  C12 UNL     1      26.139  13.757  61.139  1.00  0.00     0.026 C 
HETATM   25  C13 UNL     1      24.498  15.310  60.239  1.00  0.00     0.026 C 
ENDBRANCH  21  22
ENDBRANCH   8  21
TORSDOF 6
ENDMDL
MODEL 2
REMARK VINA RESULT: -5.730361863      3.612      7.011
REMARK  6 active torsions:
REMARK  status: ('A' for Active; 'I' for Inactive)
REMARK    1  A    between atoms: C2_2  and  N1_4 
REMARK    2  A    between atoms: N1_4  and  C5_6 
REMARK    3  A    between atoms: C5_6  and  O1_7 
REMARK    4  A    between atoms: C5_6  and  C6_9 
REMARK    5  A    between atoms: C9_16  and  S1_17 
REMARK    6  A    between atoms: S1_17  and  C10_18 
ROOT
HETATM    1  C6  UNL     1      22.161  20.428  60.538  1.00  0.00     0.102 A 
HETATM    2  N2  UNL     1      23.031  21.237  59.927  1.00  0.00    -0.355 N 
ATOM      3  H2  UNL     1      22.860  21.497  58.956  1.00  0.00     0.166 HD
HETATM    4  C7  UNL     1      24.119  21.721  60.543  1.00  0.00     0.043 A 
HETATM    5  C8  UNL     1      24.312  21.338  61.868  1.00  0.00     0.093 A 
HETATM    6  N3  UNL     1      23.438  20.524  62.484  1.00  0.00    -0.342 N 
ATOM      7  H3  UNL     1      23.598  20.257  63.456  1.00  0.00     0.167 HD
HETATM    8  C9  UNL     1      22.371  20.064  61.845  1.00  0.00     0.098 A 
HETATM    9  S2  UNL     1      25.739  21.939  62.763  1.00  0.00    -0.110 SA
HETATM   10  C14 UNL     1      26.319  23.425  61.932  1.00  0.00     0.081 C 
HETATM   11  C15 UNL     1      25.463  23.798  60.763  1.00  0.00     0.017 C 
HETATM   12  C16 UNL     1      25.099  22.623  59.877  1.00  0.00     0.061 C 
ENDROOT
BRANCH   1  13
HETATM   13  C5  UNL     1      20.994  19.929  59.825  1.00  0.00     0.410 C 
BRANCH  13  14
HETATM   14  N1  UNL     1      20.067  20.930  59.394  1.00  0.00     0.122 N 
HETATM   15  C4  UNL     1      20.080  22.123  60.205  1.00  0.00     0.314 C 
BRANCH  14  16
HETATM   16  C2  UNL     1      18.705  20.464  59.338  1.00  0.00     0.218 C 
HETATM   17  C1  UNL     1      18.134  19.962  60.611  1.00  0.00     0.042 C 
HETATM   18  C3  UNL     1      17.780  21.490  58.715  1.00  0.00     0.042 C 
ENDBRANCH  14  16
ENDBRANCH  13  14
BRANCH  13  19
HETATM   19  O1  UNL     1      21.427  19.217  58.709  1.00  0.00    -0.363 OA
ATOM     20  H1  UNL     1      21.617  18.325  58.974  1.00  0.00     0.212 HD
ENDBRANCH  13  19
ENDBRANCH   1  13
BRANCH   8  21
HETATM   21  S1  UNL     1      21.177  18.967  62.652  1.00  0.00    -0.101 SA
BRANCH  21  22
HETATM   22  C10 UNL     1      21.771  17.272  62.638  1.00  0.00     0.003 C 
HETATM   23  C11 UNL     1      22.559  16.961  61.393  1.00  0.00     0.026 C 
HETATM   24  C12 UNL     1      22.753  17.141  63.808  1.00  0.00     0.026 C 
HETATM   25  C13 UNL     1      20.708  16.243  62.843  1.00  0.00     0.026 C 
ENDBRANCH  21  22
ENDBRANCH   8  21
TORSDOF 6
ENDMDL
MODEL 3
REMARK VINA RESULT: -5.723043339      1.485      1.962
REMARK  6 active torsions:
REMARK  status: ('A' for Active; 'I' for Inactive)
REMARK    1  A    between atoms: C2_2  and  N1_4 
REMARK    2  A    between atoms: N1_4  and  C5_6 
REMARK    3  A    between atoms: C5_6  and  O1_7 
REMARK    4  A    between atoms: C5_6  and  C6_9 
REMARK    5  A    between atoms: C9_16  and  S1_17 
REMARK    6  A    between atoms: S1_17  and  C10_18 
ROOT
HETATM    1  C6  UNL     1      21.806  17.316  62.440  1.00  0.00     0.102 A 
HETATM    2  N2  UNL     1      20.697  16.677  62.822  1.00  0.00    -0.355 N 
ATOM      3  H2  UNL     1      19.811  17.183  62.809  1.00  0.00     0.166 HD
HETATM    4  C7  UNL     1      20.704  15.398  63.222  1.00  0.00     0.043 A 
HETATM    5  C8  UNL     1      21.936  14.748  63.225  1.00  0.00     0.093 A 
HETATM    6  N3  UNL     1      23.053  15.389  62.841  1.00  0.00    -0.342 N 
ATOM      7  H3  UNL     1      23.945  14.894  62.850  1.00  0.00     0.167 HD
HETATM    8  C9  UNL     1      23.010  16.656  62.451  1.00  0.00     0.098 A 
HETATM    9  S2  UNL     1      22.034  13.040  63.744  1.00  0.00    -0.110 SA
HETATM   10  C14 UNL     1      20.392  12.324  63.578  1.00  0.00     0.081 C 
HETATM   11  C15 UNL     1      19.398  13.294  63.023  1.00  0.00     0.017 C 
HETATM   12  C16 UNL     1      19.477  14.672  63.652  1.00  0.00     0.061 C 
ENDROOT
BRANCH   1  13
HETATM   13  C5  UNL     1      21.746  18.707  62.014  1.00  0.00     0.410 C 
BRANCH  13  14
HETATM   14  N1  UNL     1      21.003  18.946  60.815  1.00  0.00     0.122 N 
HETATM   15  C4  UNL     1      21.611  18.388  59.631  1.00  0.00     0.314 C 
BRANCH  14  16
HETATM   16  C2  UNL     1      20.766  20.344  60.558  1.00  0.00     0.218 C 
HETATM   17  C1  UNL     1      21.920  21.116  60.038  1.00  0.00     0.042 C 
HETATM   18  C3  UNL     1      19.549  20.560  59.680  1.00  0.00     0.042 C 
ENDBRANCH  14  16
ENDBRANCH  13  14
BRANCH  13  19
HETATM   19  O1  UNL     1      21.183  19.460  63.041  1.00  0.00    -0.363 OA
ATOM     20  H1  UNL     1      21.528  19.147  63.869  1.00  0.00     0.212 HD
ENDBRANCH  13  19
ENDBRANCH   1  13
BRANCH   8  21
HETATM   21  S1  UNL     1      24.500  17.542  61.927  1.00  0.00    -0.101 SA
BRANCH  21  22
HETATM   22  C10 UNL     1      25.498  16.511  60.847  1.00  0.00     0.003 C 
HETATM   23  C11 UNL     1      24.681  15.897  59.741  1.00  0.00     0.026 C 
HETATM   24  C12 UNL     1      26.510  17.440  60.165  1.00  0.00     0.026 C 
HETATM   25  C13 UNL     1      26.282  15.455  61.552  1.00  0.00     0.026 C 
ENDBRANCH  21  22
ENDBRANCH   8  21
TORSDOF 6
ENDMDL
MODEL 4
REMARK VINA RESULT: -5.624512047      3.038      6.261
REMARK  6 active torsions:
REMARK  status: ('A' for Active; 'I' for Inactive)
REMARK    1  A    between atoms: C2_2  and  N1_4 
REMARK    2  A    between atoms: N1_4  and  C5_6 
REMARK    3  A    between atoms: C5_6  and  O1_7 
REMARK    4  A    between atoms: C5_6  and  C6_9 
REMARK    5  A    between atoms: C9_16  and  S1_17 
REMARK    6  A    between atoms: S1_17  and  C10_18 
ROOT
HETATM    1  C6  UNL     1      22.977  19.106  60.769  1.00  0.00     0.102 A 
HETATM    2  N2  UNL     1      23.475  20.341  60.658  1.00  0.00    -0.355 N 
ATOM      3  H2  UNL     1      22.877  21.079  60.288  1.00  0.00     0.166 HD
HETATM    4  C7  UNL     1      24.731  20.646  61.015  1.00  0.00     0.043 A 
HETATM    5  C8  UNL     1      25.512  19.606  61.514  1.00  0.00     0.093 A 
HETATM    6  N3  UNL     1      25.013  18.363  61.626  1.00  0.00    -0.342 N 
ATOM      7  H3  UNL     1      25.602  17.616  61.995  1.00  0.00     0.167 HD
HETATM    8  C9  UNL     1      23.765  18.096  61.264  1.00  0.00     0.098 A 
HETATM    9  S2  UNL     1      27.198  19.927  62.013  1.00  0.00    -0.110 SA
HETATM   10  C14 UNL     1      27.346  21.691  62.336  1.00  0.00     0.081 C 
HETATM   11  C15 UNL     1      26.050  22.416  62.154  1.00  0.00     0.017 C 
HETATM   12  C16 UNL     1      25.301  22.016  60.897  1.00  0.00     0.061 C 
ENDROOT
BRANCH   1  13
HETATM   13  C5  UNL     1      21.606  18.826  60.367  1.00  0.00     0.410 C 
BRANCH  13  14
HETATM   14  N1  UNL     1      20.615  19.683  60.940  1.00  0.00     0.122 N 
HETATM   15  C4  UNL     1      19.680  18.999  61.801  1.00  0.00     0.314 C 
BRANCH  14  16
HETATM   16  C2  UNL     1      19.846  20.405  59.959  1.00  0.00     0.218 C 
HETATM   17  C1  UNL     1      18.380  20.187  59.990  1.00  0.00     0.042 C 
HETATM   18  C3  UNL     1      20.159  21.888  59.975  1.00  0.00     0.042 C 
ENDBRANCH  14  16
ENDBRANCH  13  14
BRANCH  13  19
HETATM   19  O1  UNL     1      21.524  18.918  58.980  1.00  0.00    -0.363 OA
ATOM     20  H1  UNL     1      20.864  19.565  58.759  1.00  0.00     0.212 HD
ENDBRANCH  13  19
ENDBRANCH   1  13
BRANCH   8  21
HETATM   21  S1  UNL     1      23.067  16.431  61.406  1.00  0.00    -0.101 SA
BRANCH  21  22
HETATM   22  C10 UNL     1      22.328  16.195  63.026  1.00  0.00     0.003 C 
HETATM   23  C11 UNL     1      20.864  15.857  62.933  1.00  0.00     0.026 C 
HETATM   24  C12 UNL     1      23.010  14.970  63.646  1.00  0.00     0.026 C 
HETATM   25  C13 UNL     1      22.533  17.333  63.970  1.00  0.00     0.026 C 
ENDBRANCH  21  22
ENDBRANCH   8  21
TORSDOF 6
ENDMDL
MODEL 5
REMARK VINA RESULT: -5.615725709      2.771      6.006
REMARK  6 active torsions:
REMARK  status: ('A' for Active; 'I' for Inactive)
REMARK    1  A    between atoms: C2_2  and  N1_4 
REMARK    2  A    between atoms: N1_4  and  C5_6 
REMARK    3  A    between atoms: C5_6  and  O1_7 
REMARK    4  A    between atoms: C5_6  and  C6_9 
REMARK    5  A    between atoms: C9_16  and  S1_17 
REMARK    6  A    between atoms: S1_17  and  C10_18 
ROOT
HETATM    1  C6  UNL     1      23.453  18.351  60.706  1.00  0.00     0.102 A 
HETATM    2  N2  UNL     1      24.287  19.363  60.454  1.00  0.00    -0.355 N 
ATOM      3  H2  UNL     1      23.917  20.205  60.014  1.00  0.00     0.166 HD
HETATM    4  C7  UNL     1      25.591  19.315  60.759  1.00  0.00     0.043 A 
HETATM    5  C8  UNL     1      26.053  18.145  61.358  1.00  0.00     0.093 A 
HETATM    6  N3  UNL     1      25.215  17.125  61.612  1.00  0.00    -0.342 N 
ATOM      7  H3  UNL     1      25.574  16.277  62.052  1.00  0.00     0.167 HD
HETATM    8  C9  UNL     1      23.929  17.206  61.298  1.00  0.00     0.098 A 
HETATM    9  S2  UNL     1      27.780  17.998  61.797  1.00  0.00    -0.110 SA
HETATM   10  C14 UNL     1      28.455  19.660  61.923  1.00  0.00     0.081 C 
HETATM   11  C15 UNL     1      27.424  20.716  61.680  1.00  0.00     0.017 C 
HETATM   12  C16 UNL     1      26.534  20.434  60.485  1.00  0.00     0.061 C 
ENDROOT
BRANCH   1  13
HETATM   13  C5  UNL     1      22.043  18.453  60.356  1.00  0.00     0.410 C 
BRANCH  13  14
HETATM   14  N1  UNL     1      21.347  19.558  60.939  1.00  0.00     0.122 N 
HETATM   15  C4  UNL     1      20.078  19.203  61.526  1.00  0.00     0.314 C 
BRANCH  14  16
HETATM   16  C2  UNL     1      21.107  20.636  60.014  1.00  0.00     0.218 C 
HETATM   17  C1  UNL     1      19.687  20.931  59.711  1.00  0.00     0.042 C 
HETATM   18  C3  UNL     1      21.833  21.903  60.422  1.00  0.00     0.042 C 
ENDBRANCH  14  16
ENDBRANCH  13  14
BRANCH  13  19
HETATM   19  O1  UNL     1      21.937  18.544  58.970  1.00  0.00    -0.363 OA
ATOM     20  H1  UNL     1      22.180  17.707  58.592  1.00  0.00     0.212 HD
ENDBRANCH  13  19
ENDBRANCH   1  13
BRANCH   8  21
HETATM   21  S1  UNL     1      22.779  15.848  61.630  1.00  0.00    -0.101 SA
BRANCH  21  22
HETATM   22  C10 UNL     1      21.977  16.078  63.221  1.00  0.00     0.003 C 
HETATM   23  C11 UNL     1      20.476  16.089  63.099  1.00  0.00     0.026 C 
HETATM   24  C12 UNL     1      22.327  14.851  64.071  1.00  0.00     0.026 C 
HETATM   25  C13 UNL     1      22.439  17.279  63.978  1.00  0.00     0.026 C 
ENDBRANCH  21  22
ENDBRANCH   8  21
TORSDOF 6
ENDMDL
