MODEL 1
REMARK VINA RESULT: -4.984674001      0.000      0.000
REMARK  2 active torsions:
REMARK  status: ('A' for Active; 'I' for Inactive)
REMARK    1  A    between atoms: C3_6  and  N2_7 
REMARK    2  A    between atoms: N2_7  and  N3_9 
ROOT
HETATM    1  N1  UNL     1      -0.711  31.988  17.627  1.00  0.00    -0.385 N 
ATOM      2  H11 UNL     1      -0.839  32.661  16.871  1.00  0.00     0.157 HD
ATOM      3  H12 UNL     1      -1.078  31.045  17.500  1.00  0.00     0.157 HD
HETATM    4  C1  UNL     1      -0.097  32.356  18.706  1.00  0.00     0.103 A 
HETATM    5  C2  UNL     1       0.076  31.445  19.731  1.00  0.00     0.097 A 
HETATM    6  C3  UNL     1       0.721  31.785  20.895  1.00  0.00     0.123 A 
HETATM    7  N4  UNL     1       1.185  33.030  21.022  1.00  0.00    -0.337 N 
ATOM      8  H4  UNL     1       1.668  33.309  21.876  1.00  0.00     0.168 HD
HETATM    9  C4  UNL     1       1.016  33.926  20.017  1.00  0.00     0.183 A 
HETATM   10  N5  UNL     1       0.386  33.598  18.874  1.00  0.00    -0.339 N 
ATOM     11  H5  UNL     1       0.275  34.292  18.136  1.00  0.00     0.168 HD
ENDROOT
BRANCH   6  12
HETATM   12  N2  UNL     1       0.892  30.841  21.939  1.00  0.00    -0.292 N 
ATOM     13  H2  UNL     1       0.177  30.122  22.049  1.00  0.00     0.188 HD
BRANCH  12  14
HETATM   14  N3  UNL     1       1.951  30.827  22.812  1.00  0.00    -0.344 N 
ATOM     15  H32 UNL     1       2.585  31.626  22.774  1.00  0.00     0.176 HD
ATOM     16  H31 UNL     1       2.140  30.082  23.482  1.00  0.00     0.176 HD
ENDBRANCH  12  14
ENDBRANCH   6  12
TORSDOF 2
ENDMDL
MODEL 2
REMARK VINA RESULT: -4.979458702      1.915      2.710
REMARK  2 active torsions:
REMARK  status: ('A' for Active; 'I' for Inactive)
REMARK    1  A    between atoms: C3_6  and  N2_7 
REMARK    2  A    between atoms: N2_7  and  N3_9 
ROOT
HETATM    1  N1  UNL     1       0.683  35.119  21.410  1.00  0.00    -0.385 N 
ATOM      2  H11 UNL     1      -0.109  35.726  21.194  1.00  0.00     0.157 HD
ATOM      3  H12 UNL     1       1.556  35.554  21.707  1.00  0.00     0.157 HD
HETATM    4  C1  UNL     1       0.547  33.836  21.297  1.00  0.00     0.103 A 
HETATM    5  C2  UNL     1       1.619  33.014  21.589  1.00  0.00     0.097 A 
HETATM    6  C3  UNL     1       1.527  31.647  21.486  1.00  0.00     0.123 A 
HETATM    7  N4  UNL     1       0.365  31.118  21.092  1.00  0.00    -0.337 N 
ATOM      8  H4  UNL     1       0.270  30.106  21.007  1.00  0.00     0.168 HD
HETATM    9  C4  UNL     1      -0.687  31.925  20.804  1.00  0.00     0.183 A 
HETATM   10  N5  UNL     1      -0.602  33.263  20.905  1.00  0.00    -0.339 N 
ATOM     11  H5  UNL     1      -1.412  33.843  20.683  1.00  0.00     0.168 HD
ENDROOT
BRANCH   6  12
HETATM   12  N2  UNL     1       2.633  30.815  21.788  1.00  0.00    -0.292 N 
ATOM     13  H2  UNL     1       3.207  30.489  21.011  1.00  0.00     0.188 HD
BRANCH  12  14
HETATM   14  N3  UNL     1       2.986  30.416  23.054  1.00  0.00    -0.344 N 
ATOM     15  H32 UNL     1       2.479  29.619  23.440  1.00  0.00     0.176 HD
ATOM     16  H31 UNL     1       3.709  30.859  23.620  1.00  0.00     0.176 HD
ENDBRANCH  12  14
ENDBRANCH   6  12
TORSDOF 2
ENDMDL
MODEL 3
REMARK VINA RESULT: -4.973574650      1.303      1.939
REMARK  2 active torsions:
REMARK  status: ('A' for Active; 'I' for Inactive)
REMARK    1  A    between atoms: C3_6  and  N2_7 
REMARK    2  A    between atoms: N2_7  and  N3_9 
ROOT
HETATM    1  N1  UNL     1       0.926  34.320  18.652  1.00  0.00    -0.385 N 
ATOM      2  H11 UNL     1       0.253  34.591  17.935  1.00  0.00     0.157 HD
ATOM      3  H12 UNL     1       1.826  34.799  18.675  1.00  0.00     0.157 HD
HETATM    4  C1  UNL     1       0.612  33.386  19.494  1.00  0.00     0.103 A 
HETATM    5  C2  UNL     1       1.524  33.018  20.466  1.00  0.00     0.097 A 
HETATM    6  C3  UNL     1       1.240  32.035  21.382  1.00  0.00     0.123 A 
HETATM    7  N4  UNL     1       0.051  31.431  21.316  1.00  0.00    -0.337 N 
ATOM      8  H4  UNL     1      -0.185  30.698  21.985  1.00  0.00     0.168 HD
HETATM    9  C4  UNL     1      -0.844  31.792  20.362  1.00  0.00     0.183 A 
HETATM   10  N5  UNL     1      -0.572  32.754  19.463  1.00  0.00    -0.339 N 
ATOM     11  H5  UNL     1      -1.265  33.004  18.759  1.00  0.00     0.168 HD
ENDROOT
BRANCH   6  12
HETATM   12  N2  UNL     1       2.183  31.666  22.374  1.00  0.00    -0.292 N 
ATOM     13  H2  UNL     1       2.980  32.284  22.523  1.00  0.00     0.188 HD
BRANCH  12  14
HETATM   14  N3  UNL     1       2.097  30.537  23.150  1.00  0.00    -0.344 N 
ATOM     15  H32 UNL     1       2.878  29.883  23.093  1.00  0.00     0.176 HD
ATOM     16  H31 UNL     1       1.316  30.315  23.766  1.00  0.00     0.176 HD
ENDBRANCH  12  14
ENDBRANCH   6  12
TORSDOF 2
ENDMDL
MODEL 4
REMARK VINA RESULT: -4.824102266      1.818      3.558
REMARK  2 active torsions:
REMARK  status: ('A' for Active; 'I' for Inactive)
REMARK    1  A    between atoms: C3_6  and  N2_7 
REMARK    2  A    between atoms: N2_7  and  N3_9 
ROOT
HETATM    1  N1  UNL     1       2.696  30.898  21.519  1.00  0.00    -0.385 N 
ATOM      2  H11 UNL     1       2.882  29.940  21.222  1.00  0.00     0.157 HD
ATOM      3  H12 UNL     1       3.370  31.350  22.136  1.00  0.00     0.157 HD
HETATM    4  C1  UNL     1       1.623  31.493  21.104  1.00  0.00     0.103 A 
HETATM    5  C2  UNL     1       1.371  32.791  21.507  1.00  0.00     0.097 A 
HETATM    6  C3  UNL     1       0.247  33.467  21.095  1.00  0.00     0.123 A 
HETATM    7  N4  UNL     1      -0.610  32.838  20.288  1.00  0.00    -0.337 N 
ATOM      8  H4  UNL     1      -1.452  33.316  19.967  1.00  0.00     0.168 HD
HETATM    9  C4  UNL     1      -0.363  31.564  19.892  1.00  0.00     0.183 A 
HETATM   10  N5  UNL     1       0.735  30.898  20.291  1.00  0.00    -0.339 N 
ATOM     11  H5  UNL     1       0.894  29.941  19.976  1.00  0.00     0.168 HD
ENDROOT
BRANCH   6  12
HETATM   12  N2  UNL     1      -0.000  34.797  21.515  1.00  0.00    -0.292 N 
ATOM     13  H2  UNL     1       0.733  35.488  21.358  1.00  0.00     0.188 HD
BRANCH  12  14
HETATM   14  N3  UNL     1      -1.158  35.222  22.117  1.00  0.00    -0.344 N 
ATOM     15  H32 UNL     1      -1.630  36.020  21.690  1.00  0.00     0.176 HD
ATOM     16  H31 UNL     1      -1.567  34.799  22.950  1.00  0.00     0.176 HD
ENDBRANCH  12  14
ENDBRANCH   6  12
TORSDOF 2
ENDMDL
MODEL 5
REMARK VINA RESULT: -4.769731516      1.266      2.050
REMARK  2 active torsions:
REMARK  status: ('A' for Active; 'I' for Inactive)
REMARK    1  A    between atoms: C3_6  and  N2_7 
REMARK    2  A    between atoms: N2_7  and  N3_9 
ROOT
HETATM    1  N1  UNL     1       0.650  34.127  18.637  1.00  0.00    -0.385 N 
ATOM      2  H11 UNL     1       0.633  34.404  17.655  1.00  0.00     0.157 HD
ATOM      3  H12 UNL     1       0.569  34.857  19.345  1.00  0.00     0.157 HD
HETATM    4  C1  UNL     1       0.776  32.874  18.941  1.00  0.00     0.103 A 
HETATM    5  C2  UNL     1       0.800  32.500  20.271  1.00  0.00     0.097 A 
HETATM    6  C3  UNL     1       0.931  31.185  20.646  1.00  0.00     0.123 A 
HETATM    7  N4  UNL     1       1.037  30.260  19.688  1.00  0.00    -0.337 N 
ATOM      8  H4  UNL     1       1.135  29.277  19.939  1.00  0.00     0.168 HD
HETATM    9  C4  UNL     1       1.013  30.628  18.382  1.00  0.00     0.183 A 
HETATM   10  N5  UNL     1       0.884  31.913  18.010  1.00  0.00    -0.339 N 
ATOM     11  H5  UNL     1       0.869  32.158  17.020  1.00  0.00     0.168 HD
ENDROOT
BRANCH   6  12
HETATM   12  N2  UNL     1       0.955  30.813  22.013  1.00  0.00    -0.292 N 
ATOM     13  H2  UNL     1       0.076  30.521  22.440  1.00  0.00     0.188 HD
BRANCH  12  14
HETATM   14  N3  UNL     1       2.078  30.818  22.803  1.00  0.00    -0.344 N 
ATOM     15  H32 UNL     1       2.973  30.927  22.326  1.00  0.00     0.176 HD
ATOM     16  H31 UNL     1       2.072  30.721  23.818  1.00  0.00     0.176 HD
ENDBRANCH  12  14
ENDBRANCH   6  12
TORSDOF 2
ENDMDL
