MODEL 1
REMARK VINA RESULT: -7.109623636      0.000      0.000
REMARK  4 active torsions:
REMARK  status: ('A' for Active; 'I' for Inactive)
REMARK    1  A    between atoms: C6_7  and  C8_9 
REMARK    2  A    between atoms: C8_9  and  O2_10 
REMARK    3  A    between atoms: O2_10  and  C9_11 
REMARK    4  A    between atoms: C18_22  and  O4_23 
ROOT
HETATM    1  C1  UNL     1     -25.901  17.315 -15.720  1.00  0.00     0.019 C 
HETATM    2  C2  UNL     1     -24.679  16.839 -15.775  1.00  0.00    -0.034 C 
HETATM    3  C3  UNL     1     -23.711  16.463 -14.724  1.00  0.00     0.033 C 
HETATM    4  C4  UNL     1     -23.991  16.706 -13.327  1.00  0.00     0.089 C 
HETATM    5  C5  UNL     1     -22.704  16.350 -12.606  1.00  0.00     0.138 C 
HETATM    6  O1  UNL     1     -22.674  16.559 -11.424  1.00  0.00    -0.297 OA
HETATM    7  C6  UNL     1     -21.545  15.779 -13.288  1.00  0.00     0.039 C 
HETATM    8  C7  UNL     1     -21.725  14.251 -13.284  1.00  0.00     0.025 C 
HETATM    9  C11 UNL     1     -21.321  16.282 -14.697  1.00  0.00     0.029 C 
HETATM   10  C12 UNL     1     -22.401  17.144 -15.183  1.00  0.00    -0.027 C 
HETATM   11  C13 UNL     1     -22.276  18.502 -14.461  1.00  0.00     0.016 C 
HETATM   12  C14 UNL     1     -22.649  17.378 -16.561  1.00  0.00     0.052 C 
HETATM   13  C15 UNL     1     -21.854  17.050 -17.716  1.00  0.00     0.051 C 
HETATM   14  C16 UNL     1     -22.924  17.342 -18.784  1.00  0.00     0.097 C 
HETATM   15  O3  UNL     1     -24.148  17.081 -18.142  1.00  0.00    -0.346 OA
HETATM   16  C17 UNL     1     -23.892  16.529 -16.961  1.00  0.00     0.166 C 
HETATM   17 CL1  UNL     1     -23.497  14.803 -16.998  1.00  0.00    -0.083 Cl
HETATM   18  C18 UNL     1     -22.761  16.409 -19.962  1.00  0.00     0.156 C 
HETATM   19  C20 UNL     1     -23.222  17.230 -21.171  1.00  0.00     0.036 C 
HETATM   20  C21 UNL     1     -22.633  18.595 -20.853  1.00  0.00     0.014 C 
HETATM   21  C22 UNL     1     -22.895  18.684 -19.365  1.00  0.00    -0.014 C 
HETATM   22  C23 UNL     1     -21.998  19.718 -18.799  1.00  0.00     0.018 C 
HETATM   23  C24 UNL     1     -24.319  19.270 -19.256  1.00  0.00     0.018 C 
ENDROOT
BRANCH  18  24
HETATM   24  O4  UNL     1     -21.470  16.051 -20.245  1.00  0.00    -0.388 OA
HETATM   25  C19 UNL     1     -21.462  14.779 -20.804  1.00  0.00     0.202 C 
ENDBRANCH  18  24
BRANCH   7  26
HETATM   26  C8  UNL     1     -20.308  16.087 -12.433  1.00  0.00     0.184 C 
BRANCH  26  27
HETATM   27  O2  UNL     1     -19.407  16.878 -13.184  1.00  0.00    -0.390 OA
BRANCH  27  28
HETATM   28  C9  UNL     1     -18.260  17.135 -12.434  1.00  0.00     0.163 C 
HETATM   29  C10 UNL     1     -17.649  18.460 -12.755  1.00  0.00     0.033 C 
ENDBRANCH  27  28
ENDBRANCH  26  27
ENDBRANCH   7  26
TORSDOF 4
ENDMDL
MODEL 2
REMARK VINA RESULT: -7.105521885      1.926      3.762
REMARK  4 active torsions:
REMARK  status: ('A' for Active; 'I' for Inactive)
REMARK    1  A    between atoms: C6_7  and  C8_9 
REMARK    2  A    between atoms: C8_9  and  O2_10 
REMARK    3  A    between atoms: O2_10  and  C9_11 
REMARK    4  A    between atoms: C18_22  and  O4_23 
ROOT
HETATM    1  C1  UNL     1     -22.089  14.207 -17.830  1.00  0.00     0.019 C 
HETATM    2  C2  UNL     1     -22.113  15.287 -17.087  1.00  0.00    -0.034 C 
HETATM    3  C3  UNL     1     -22.219  15.486 -15.625  1.00  0.00     0.033 C 
HETATM    4  C4  UNL     1     -22.445  14.372 -14.733  1.00  0.00     0.089 C 
HETATM    5  C5  UNL     1     -22.665  15.004 -13.372  1.00  0.00     0.138 C 
HETATM    6  O1  UNL     1     -22.961  14.263 -12.475  1.00  0.00    -0.297 OA
HETATM    7  C6  UNL     1     -22.528  16.440 -13.132  1.00  0.00     0.039 C 
HETATM    8  C7  UNL     1     -21.052  16.701 -12.784  1.00  0.00     0.025 C 
HETATM    9  C11 UNL     1     -22.966  17.323 -14.279  1.00  0.00     0.029 C 
HETATM   10  C12 UNL     1     -23.310  16.573 -15.490  1.00  0.00    -0.027 C 
HETATM   11  C13 UNL     1     -24.665  15.878 -15.240  1.00  0.00     0.016 C 
HETATM   12  C14 UNL     1     -23.322  17.152 -16.786  1.00  0.00     0.052 C 
HETATM   13  C15 UNL     1     -23.233  18.532 -17.187  1.00  0.00     0.051 C 
HETATM   14  C16 UNL     1     -23.010  18.289 -18.691  1.00  0.00     0.097 C 
HETATM   15  O3  UNL     1     -22.353  17.047 -18.756  1.00  0.00    -0.346 OA
HETATM   16  C17 UNL     1     -22.036  16.676 -17.521  1.00  0.00     0.166 C 
HETATM   17 CL1  UNL     1     -20.594  17.448 -16.842  1.00  0.00    -0.083 Cl
HETATM   18  C18 UNL     1     -22.121  19.363 -19.272  1.00  0.00     0.156 C 
HETATM   19  C20 UNL     1     -22.606  19.526 -20.716  1.00  0.00     0.036 C 
HETATM   20  C21 UNL     1     -24.113  19.423 -20.543  1.00  0.00     0.014 C 
HETATM   21  C22 UNL     1     -24.212  18.308 -19.525  1.00  0.00    -0.014 C 
HETATM   22  C23 UNL     1     -25.551  18.375 -18.894  1.00  0.00     0.018 C 
HETATM   23  C24 UNL     1     -24.216  17.013 -20.365  1.00  0.00     0.018 C 
ENDROOT
BRANCH  18  24
HETATM   24  O4  UNL     1     -22.262  20.603 -18.707  1.00  0.00    -0.388 OA
HETATM   25  C19 UNL     1     -21.060  20.973 -18.115  1.00  0.00     0.202 C 
ENDBRANCH  18  24
BRANCH   7  26
HETATM   26  C8  UNL     1     -23.351  16.780 -11.882  1.00  0.00     0.184 C 
BRANCH  26  27
HETATM   27  O2  UNL     1     -24.683  17.062 -12.263  1.00  0.00    -0.390 OA
BRANCH  27  28
HETATM   28  C9  UNL     1     -25.572  16.405 -11.413  1.00  0.00     0.163 C 
HETATM   29  C10 UNL     1     -26.634  15.663 -12.154  1.00  0.00     0.033 C 
ENDBRANCH  27  28
ENDBRANCH  26  27
ENDBRANCH   7  26
TORSDOF 4
ENDMDL
MODEL 3
REMARK VINA RESULT: -6.375419988      3.003      5.349
REMARK  4 active torsions:
REMARK  status: ('A' for Active; 'I' for Inactive)
REMARK    1  A    between atoms: C6_7  and  C8_9 
REMARK    2  A    between atoms: C8_9  and  O2_10 
REMARK    3  A    between atoms: O2_10  and  C9_11 
REMARK    4  A    between atoms: C18_22  and  O4_23 
ROOT
HETATM    1  C1  UNL     1     -20.707  15.813 -17.156  1.00  0.00     0.019 C 
HETATM    2  C2  UNL     1     -21.089  16.419 -16.056  1.00  0.00    -0.034 C 
HETATM    3  C3  UNL     1     -22.129  16.099 -15.055  1.00  0.00     0.033 C 
HETATM    4  C4  UNL     1     -23.041  14.995 -15.251  1.00  0.00     0.089 C 
HETATM    5  C5  UNL     1     -24.041  15.112 -14.115  1.00  0.00     0.138 C 
HETATM    6  O1  UNL     1     -24.958  14.338 -14.124  1.00  0.00    -0.297 OA
HETATM    7  C6  UNL     1     -23.919  16.106 -13.051  1.00  0.00     0.039 C 
HETATM    8  C7  UNL     1     -23.052  15.479 -11.944  1.00  0.00     0.025 C 
HETATM    9  C11 UNL     1     -23.346  17.437 -13.482  1.00  0.00     0.029 C 
HETATM   10  C12 UNL     1     -22.872  17.442 -14.869  1.00  0.00    -0.027 C 
HETATM   11  C13 UNL     1     -24.112  17.448 -15.787  1.00  0.00     0.016 C 
HETATM   12  C14 UNL     1     -21.928  18.380 -15.364  1.00  0.00     0.052 C 
HETATM   13  C15 UNL     1     -21.414  19.584 -14.766  1.00  0.00     0.051 C 
HETATM   14  C16 UNL     1     -20.265  19.828 -15.761  1.00  0.00     0.097 C 
HETATM   15  O3  UNL     1     -19.905  18.544 -16.209  1.00  0.00    -0.346 OA
HETATM   16  C17 UNL     1     -20.560  17.647 -15.479  1.00  0.00     0.166 C 
HETATM   17 CL1  UNL     1     -19.875  17.326 -13.878  1.00  0.00    -0.083 Cl
HETATM   18  C18 UNL     1     -19.089  20.469 -15.063  1.00  0.00     0.156 C 
HETATM   19  C20 UNL     1     -18.442  21.355 -16.132  1.00  0.00     0.036 C 
HETATM   20  C21 UNL     1     -19.664  21.934 -16.827  1.00  0.00     0.014 C 
HETATM   21  C22 UNL     1     -20.569  20.722 -16.879  1.00  0.00    -0.014 C 
HETATM   22  C23 UNL     1     -21.957  21.192 -17.097  1.00  0.00     0.018 C 
HETATM   23  C24 UNL     1     -20.170  19.995 -18.180  1.00  0.00     0.018 C 
ENDROOT
BRANCH  18  24
HETATM   24  O4  UNL     1     -19.414  21.321 -14.042  1.00  0.00    -0.388 OA
HETATM   25  C19 UNL     1     -18.288  21.546 -13.260  1.00  0.00     0.202 C 
ENDBRANCH  18  24
BRANCH   7  26
HETATM   26  C8  UNL     1     -25.318  16.320 -12.456  1.00  0.00     0.184 C 
BRANCH  26  27
HETATM   27  O2  UNL     1     -25.215  16.434 -11.051  1.00  0.00    -0.390 OA
BRANCH  27  28
HETATM   28  C9  UNL     1     -26.415  16.054 -10.453  1.00  0.00     0.163 C 
HETATM   29  C10 UNL     1     -27.468  15.697 -11.450  1.00  0.00     0.033 C 
ENDBRANCH  27  28
ENDBRANCH  26  27
ENDBRANCH   7  26
TORSDOF 4
ENDMDL
MODEL 4
REMARK VINA RESULT: -6.369109552      3.332      6.335
REMARK  4 active torsions:
REMARK  status: ('A' for Active; 'I' for Inactive)
REMARK    1  A    between atoms: C6_7  and  C8_9 
REMARK    2  A    between atoms: C8_9  and  O2_10 
REMARK    3  A    between atoms: O2_10  and  C9_11 
REMARK    4  A    between atoms: C18_22  and  O4_23 
ROOT
HETATM    1  C1  UNL     1     -18.671  17.696 -13.055  1.00  0.00     0.019 C 
HETATM    2  C2  UNL     1     -19.404  18.153 -14.043  1.00  0.00    -0.034 C 
HETATM    3  C3  UNL     1     -19.374  19.425 -14.796  1.00  0.00     0.033 C 
HETATM    4  C4  UNL     1     -18.488  20.501 -14.414  1.00  0.00     0.089 C 
HETATM    5  C5  UNL     1     -18.883  21.663 -15.305  1.00  0.00     0.138 C 
HETATM    6  O1  UNL     1     -18.329  22.709 -15.103  1.00  0.00    -0.297 OA
HETATM    7  C6  UNL     1     -19.882  21.546 -16.366  1.00  0.00     0.039 C 
HETATM    8  C7  UNL     1     -19.141  21.095 -17.637  1.00  0.00     0.025 C 
HETATM    9  C11 UNL     1     -21.030  20.610 -16.062  1.00  0.00     0.029 C 
HETATM   10  C12 UNL     1     -20.856  19.867 -14.810  1.00  0.00    -0.027 C 
HETATM   11  C13 UNL     1     -21.084  20.853 -13.646  1.00  0.00     0.016 C 
HETATM   12  C14 UNL     1     -21.535  18.654 -14.526  1.00  0.00     0.052 C 
HETATM   13  C15 UNL     1     -22.629  18.019 -15.215  1.00  0.00     0.051 C 
HETATM   14  C16 UNL     1     -22.560  16.662 -14.490  1.00  0.00     0.097 C 
HETATM   15  O3  UNL     1     -21.206  16.515 -14.138  1.00  0.00    -0.346 OA
HETATM   16  C17 UNL     1     -20.516  17.493 -14.714  1.00  0.00     0.166 C 
HETATM   17 CL1  UNL     1     -20.139  17.250 -16.427  1.00  0.00    -0.083 Cl
HETATM   18  C18 UNL     1     -22.964  15.544 -15.423  1.00  0.00     0.156 C 
HETATM   19  C20 UNL     1     -23.628  14.505 -14.515  1.00  0.00     0.036 C 
HETATM   20  C21 UNL     1     -24.423  15.391 -13.569  1.00  0.00     0.014 C 
HETATM   21  C22 UNL     1     -23.438  16.514 -13.329  1.00  0.00    -0.014 C 
HETATM   22  C23 UNL     1     -24.188  17.684 -12.813  1.00  0.00     0.018 C 
HETATM   23  C24 UNL     1     -22.572  16.026 -12.149  1.00  0.00     0.018 C 
ENDROOT
BRANCH  18  24
HETATM   24  O4  UNL     1     -23.921  15.876 -16.345  1.00  0.00    -0.388 OA
HETATM   25  C19 UNL     1     -23.906  14.942 -17.374  1.00  0.00     0.202 C 
ENDBRANCH  18  24
BRANCH   7  26
HETATM   26  C8  UNL     1     -20.429  22.954 -16.642  1.00  0.00     0.184 C 
BRANCH  26  27
HETATM   27  O2  UNL     1     -19.714  23.529 -17.717  1.00  0.00    -0.390 OA
BRANCH  27  28
HETATM   28  C9  UNL     1     -19.350  24.837 -17.402  1.00  0.00     0.163 C 
HETATM   29  C10 UNL     1     -20.507  25.781 -17.442  1.00  0.00     0.033 C 
ENDBRANCH  27  28
ENDBRANCH  26  27
ENDBRANCH   7  26
TORSDOF 4
ENDMDL
MODEL 5
REMARK VINA RESULT: -6.257954453      3.105      5.546
REMARK  4 active torsions:
REMARK  status: ('A' for Active; 'I' for Inactive)
REMARK    1  A    between atoms: C6_7  and  C8_9 
REMARK    2  A    between atoms: C8_9  and  O2_10 
REMARK    3  A    between atoms: O2_10  and  C9_11 
REMARK    4  A    between atoms: C18_22  and  O4_23 
ROOT
HETATM    1  C1  UNL     1     -20.399  15.933 -17.165  1.00  0.00     0.019 C 
HETATM    2  C2  UNL     1     -20.899  16.496 -16.090  1.00  0.00    -0.034 C 
HETATM    3  C3  UNL     1     -22.012  16.114 -15.195  1.00  0.00     0.033 C 
HETATM    4  C4  UNL     1     -22.862  14.985 -15.498  1.00  0.00     0.089 C 
HETATM    5  C5  UNL     1     -23.963  15.038 -14.455  1.00  0.00     0.138 C 
HETATM    6  O1  UNL     1     -24.847  14.233 -14.564  1.00  0.00    -0.297 OA
HETATM    7  C6  UNL     1     -23.973  16.007 -13.361  1.00  0.00     0.039 C 
HETATM    8  C7  UNL     1     -23.186  15.381 -12.196  1.00  0.00     0.025 C 
HETATM    9  C11 UNL     1     -23.412  17.368 -13.707  1.00  0.00     0.029 C 
HETATM   10  C12 UNL     1     -22.816  17.426 -15.045  1.00  0.00    -0.027 C 
HETATM   11  C13 UNL     1     -23.969  17.414 -16.070  1.00  0.00     0.016 C 
HETATM   12  C14 UNL     1     -21.867  18.408 -15.432  1.00  0.00     0.052 C 
HETATM   13  C15 UNL     1     -21.453  19.613 -14.761  1.00  0.00     0.051 C 
HETATM   14  C16 UNL     1     -20.229  19.922 -15.643  1.00  0.00     0.097 C 
HETATM   15  O3  UNL     1     -19.784  18.663 -16.087  1.00  0.00    -0.346 OA
HETATM   16  C17 UNL     1     -20.468  17.726 -15.440  1.00  0.00     0.166 C 
HETATM   17 CL1  UNL     1     -19.918  17.385 -13.792  1.00  0.00    -0.083 Cl
HETATM   18  C18 UNL     1     -19.144  20.584 -14.827  1.00  0.00     0.156 C 
HETATM   19  C20 UNL     1     -18.437  21.520 -15.812  1.00  0.00     0.036 C 
HETATM   20  C21 UNL     1     -19.612  22.075 -16.601  1.00  0.00     0.014 C 
HETATM   21  C22 UNL     1     -20.464  20.835 -16.762  1.00  0.00    -0.014 C 
HETATM   22  C23 UNL     1     -21.844  21.262 -17.093  1.00  0.00     0.018 C 
HETATM   23  C24 UNL     1     -19.925  20.157 -18.039  1.00  0.00     0.018 C 
ENDROOT
BRANCH  18  24
HETATM   24  O4  UNL     1     -19.590  21.397 -13.820  1.00  0.00    -0.388 OA
HETATM   25  C19 UNL     1     -18.514  21.764 -13.020  1.00  0.00     0.202 C 
ENDBRANCH  18  24
BRANCH   7  26
HETATM   26  C8  UNL     1     -25.426  16.158 -12.890  1.00  0.00     0.184 C 
BRANCH  26  27
HETATM   27  O2  UNL     1     -26.087  17.098 -13.713  1.00  0.00    -0.390 OA
BRANCH  27  28
HETATM   28  C9  UNL     1     -27.335  16.605 -14.092  1.00  0.00     0.163 C 
HETATM   29  C10 UNL     1     -27.487  16.502 -15.574  1.00  0.00     0.033 C 
ENDBRANCH  27  28
ENDBRANCH  26  27
ENDBRANCH   7  26
TORSDOF 4
ENDMDL
