MODEL 1
REMARK VINA RESULT: -8.372795553      0.000      0.000
REMARK  4 active torsions:
REMARK  status: ('A' for Active; 'I' for Inactive)
REMARK    1  A    between atoms: C2_2  and  C3_4 
REMARK    2  A    between atoms: C11_13  and  C12_14 
REMARK    3  A    between atoms: C12_14  and  C13_15 
REMARK    4  A    between atoms: C13_15  and  C14_16 
ROOT
HETATM    1  C3  UNL     1     -19.017  23.008 -16.258  1.00  0.00     0.082 C 
HETATM    2  C4  UNL     1     -20.418  23.290 -16.758  1.00  0.00     0.032 C 
HETATM    3  C5  UNL     1     -18.755  23.488 -14.867  1.00  0.00     0.042 C 
HETATM    4  C6  UNL     1     -19.002  22.425 -13.782  1.00  0.00     0.018 C 
HETATM    5  C7  UNL     1     -20.405  21.886 -14.023  1.00  0.00     0.023 C 
HETATM    6  C8  UNL     1     -17.975  21.384 -14.069  1.00  0.00    -0.057 C 
HETATM    7  C9  UNL     1     -17.832  21.038 -15.325  1.00  0.00     0.056 C 
HETATM    8  C10 UNL     1     -18.608  21.596 -16.451  1.00  0.00     0.165 C 
HETATM    9  O2  UNL     1     -18.889  20.947 -17.455  1.00  0.00    -0.292 OA
HETATM   10  C11 UNL     1     -17.154  20.735 -13.014  1.00  0.00     0.038 C 
HETATM   11  C18 UNL     1     -16.931  21.685 -11.823  1.00  0.00     0.021 C 
HETATM   12  C19 UNL     1     -18.268  22.174 -11.405  1.00  0.00     0.036 C 
HETATM   13  C20 UNL     1     -18.163  22.751 -10.038  1.00  0.00     0.046 C 
HETATM   14  C21 UNL     1     -19.412  22.861  -9.226  1.00  0.00     0.175 C 
HETATM   15  O4  UNL     1     -19.474  24.248  -9.352  1.00  0.00    -0.385 OA
HETATM   16  C22 UNL     1     -18.200  24.215  -9.908  1.00  0.00     0.128 C 
HETATM   17  C23 UNL     1     -17.948  25.010 -11.121  1.00  0.00     0.036 C 
HETATM   18  C24 UNL     1     -18.400  24.473 -12.421  1.00  0.00     0.047 C 
HETATM   19  C25 UNL     1     -18.914  23.064 -12.424  1.00  0.00     0.119 C 
HETATM   20  F1  UNL     1     -20.238  23.183 -11.937  1.00  0.00    -0.241 F 
ENDROOT
BRANCH  10  21
HETATM   21  C12 UNL     1     -17.618  19.404 -12.552  1.00  0.00    -0.021 C 
BRANCH  21  22
HETATM   22  C13 UNL     1     -18.196  18.423 -13.465  1.00  0.00    -0.023 C 
BRANCH  22  23
HETATM   23  C14 UNL     1     -19.611  18.272 -13.707  1.00  0.00     0.034 C 
HETATM   24  C15 UNL     1     -20.288  18.348 -14.997  1.00  0.00     0.037 C 
HETATM   25  C16 UNL     1     -21.703  17.906 -14.588  1.00  0.00     0.168 C 
HETATM   26  O3  UNL     1     -21.576  17.203 -13.420  1.00  0.00    -0.390 OA
HETATM   27  C17 UNL     1     -20.231  16.996 -13.131  1.00  0.00     0.176 C 
ENDBRANCH  22  23
ENDBRANCH  21  22
ENDBRANCH  10  21
BRANCH   1  28
HETATM   28  C2  UNL     1     -18.132  23.788 -17.216  1.00  0.00     0.139 C 
HETATM   29  C1  UNL     1     -18.771  24.690 -18.244  1.00  0.00     0.092 C 
HETATM   30  O1  UNL     1     -16.935  23.738 -17.213  1.00  0.00    -0.297 OA
ENDBRANCH   1  28
TORSDOF 4
ENDMDL
MODEL 2
REMARK VINA RESULT: -8.149798586      1.824      5.551
REMARK  4 active torsions:
REMARK  status: ('A' for Active; 'I' for Inactive)
REMARK    1  A    between atoms: C2_2  and  C3_4 
REMARK    2  A    between atoms: C11_13  and  C12_14 
REMARK    3  A    between atoms: C12_14  and  C13_15 
REMARK    4  A    between atoms: C13_15  and  C14_16 
ROOT
HETATM    1  C3  UNL     1     -21.198  17.855 -15.875  1.00  0.00     0.082 C 
HETATM    2  C4  UNL     1     -22.694  18.084 -15.914  1.00  0.00     0.032 C 
HETATM    3  C5  UNL     1     -20.383  19.069 -16.188  1.00  0.00     0.042 C 
HETATM    4  C6  UNL     1     -19.960  19.874 -14.947  1.00  0.00     0.018 C 
HETATM    5  C7  UNL     1     -21.233  20.140 -14.155  1.00  0.00     0.023 C 
HETATM    6  C8  UNL     1     -19.061  18.942 -14.211  1.00  0.00    -0.057 C 
HETATM    7  C9  UNL     1     -19.475  17.703 -14.097  1.00  0.00     0.056 C 
HETATM    8  C10 UNL     1     -20.749  17.183 -14.632  1.00  0.00     0.165 C 
HETATM    9  O2  UNL     1     -21.378  16.275 -14.094  1.00  0.00    -0.292 OA
HETATM   10  C11 UNL     1     -17.769  19.360 -13.608  1.00  0.00     0.038 C 
HETATM   11  C18 UNL     1     -17.142  20.525 -14.396  1.00  0.00     0.021 C 
HETATM   12  C19 UNL     1     -18.182  21.577 -14.512  1.00  0.00     0.036 C 
HETATM   13  C20 UNL     1     -17.529  22.859 -14.886  1.00  0.00     0.046 C 
HETATM   14  C21 UNL     1     -18.260  24.129 -14.598  1.00  0.00     0.175 C 
HETATM   15  O4  UNL     1     -18.550  24.369 -15.940  1.00  0.00    -0.385 OA
HETATM   16  C22 UNL     1     -17.687  23.330 -16.271  1.00  0.00     0.128 C 
HETATM   17  C23 UNL     1     -18.132  22.348 -17.273  1.00  0.00     0.036 C 
HETATM   18  C24 UNL     1     -19.062  21.281 -16.851  1.00  0.00     0.047 C 
HETATM   19  C25 UNL     1     -19.334  21.171 -15.380  1.00  0.00     0.119 C 
HETATM   20  F1  UNL     1     -20.284  22.191 -15.131  1.00  0.00    -0.241 F 
ENDROOT
BRANCH  10  21
HETATM   21  C12 UNL     1     -17.791  19.652 -12.154  1.00  0.00    -0.021 C 
BRANCH  21  22
HETATM   22  C13 UNL     1     -16.662  20.274 -11.470  1.00  0.00    -0.023 C 
BRANCH  22  23
HETATM   23  C14 UNL     1     -16.715  21.559 -10.814  1.00  0.00     0.034 C 
HETATM   24  C15 UNL     1     -17.705  22.608 -11.028  1.00  0.00     0.037 C 
HETATM   25  C16 UNL     1     -17.315  23.584  -9.905  1.00  0.00     0.168 C 
HETATM   26  O3  UNL     1     -16.624  22.858  -8.972  1.00  0.00    -0.390 OA
HETATM   27  C17 UNL     1     -16.680  21.503  -9.284  1.00  0.00     0.176 C 
ENDBRANCH  22  23
ENDBRANCH  21  22
ENDBRANCH  10  21
BRANCH   1  28
HETATM   28  C2  UNL     1     -20.966  16.821 -16.964  1.00  0.00     0.139 C 
HETATM   29  C1  UNL     1     -21.676  16.971 -18.288  1.00  0.00     0.092 C 
HETATM   30  O1  UNL     1     -20.244  15.873 -16.846  1.00  0.00    -0.297 OA
ENDBRANCH   1  28
TORSDOF 4
ENDMDL
MODEL 3
REMARK VINA RESULT: -8.047954458      3.894      7.462
REMARK  4 active torsions:
REMARK  status: ('A' for Active; 'I' for Inactive)
REMARK    1  A    between atoms: C2_2  and  C3_4 
REMARK    2  A    between atoms: C11_13  and  C12_14 
REMARK    3  A    between atoms: C12_14  and  C13_15 
REMARK    4  A    between atoms: C13_15  and  C14_16 
ROOT
HETATM    1  C3  UNL     1     -23.413  16.891 -19.031  1.00  0.00     0.082 C 
HETATM    2  C4  UNL     1     -23.164  15.630 -19.831  1.00  0.00     0.032 C 
HETATM    3  C5  UNL     1     -23.530  16.668 -17.557  1.00  0.00     0.042 C 
HETATM    4  C6  UNL     1     -22.206  16.838 -16.792  1.00  0.00     0.018 C 
HETATM    5  C7  UNL     1     -21.188  15.952 -17.497  1.00  0.00     0.023 C 
HETATM    6  C8  UNL     1     -21.875  18.279 -16.975  1.00  0.00    -0.057 C 
HETATM    7  C9  UNL     1     -22.014  18.758 -18.187  1.00  0.00     0.056 C 
HETATM    8  C10 UNL     1     -22.462  17.980 -19.360  1.00  0.00     0.165 C 
HETATM    9  O2  UNL     1     -22.081  18.216 -20.503  1.00  0.00    -0.292 OA
HETATM   10  C11 UNL     1     -21.390  19.151 -15.874  1.00  0.00     0.038 C 
HETATM   11  C18 UNL     1     -21.945  18.687 -14.515  1.00  0.00     0.021 C 
HETATM   12  C19 UNL     1     -21.632  17.241 -14.392  1.00  0.00     0.036 C 
HETATM   13  C20 UNL     1     -21.767  16.840 -12.967  1.00  0.00     0.046 C 
HETATM   14  C21 UNL     1     -21.060  15.604 -12.516  1.00  0.00     0.175 C 
HETATM   15  O4  UNL     1     -22.238  14.868 -12.399  1.00  0.00    -0.385 OA
HETATM   16  C22 UNL     1     -22.947  16.049 -12.586  1.00  0.00     0.128 C 
HETATM   17  C23 UNL     1     -24.085  16.039 -13.520  1.00  0.00     0.036 C 
HETATM   18  C24 UNL     1     -23.808  16.116 -14.969  1.00  0.00     0.047 C 
HETATM   19  C25 UNL     1     -22.389  16.391 -15.368  1.00  0.00     0.119 C 
HETATM   20  F1  UNL     1     -21.750  15.134 -15.244  1.00  0.00    -0.241 F 
ENDROOT
BRANCH  10  21
HETATM   21  C12 UNL     1     -19.923  19.362 -15.805  1.00  0.00    -0.021 C 
BRANCH  21  22
HETATM   22  C13 UNL     1     -19.315  20.277 -14.846  1.00  0.00    -0.023 C 
BRANCH  22  23
HETATM   23  C14 UNL     1     -18.501  19.862 -13.728  1.00  0.00     0.034 C 
HETATM   24  C15 UNL     1     -18.242  18.493 -13.297  1.00  0.00     0.037 C 
HETATM   25  C16 UNL     1     -17.173  18.743 -12.221  1.00  0.00     0.168 C 
HETATM   26  O3  UNL     1     -16.617  19.965 -12.492  1.00  0.00    -0.390 OA
HETATM   27  C17 UNL     1     -17.083  20.442 -13.712  1.00  0.00     0.176 C 
ENDBRANCH  22  23
ENDBRANCH  21  22
ENDBRANCH  10  21
BRANCH   1  28
HETATM   28  C2  UNL     1     -24.749  17.389 -19.554  1.00  0.00     0.139 C 
HETATM   29  C1  UNL     1     -25.536  18.388 -18.741  1.00  0.00     0.092 C 
HETATM   30  O1  UNL     1     -25.235  17.038 -20.591  1.00  0.00    -0.297 OA
ENDBRANCH   1  28
TORSDOF 4
ENDMDL
MODEL 4
REMARK VINA RESULT: -8.026712329      1.529      5.704
REMARK  4 active torsions:
REMARK  status: ('A' for Active; 'I' for Inactive)
REMARK    1  A    between atoms: C2_2  and  C3_4 
REMARK    2  A    between atoms: C11_13  and  C12_14 
REMARK    3  A    between atoms: C12_14  and  C13_15 
REMARK    4  A    between atoms: C13_15  and  C14_16 
ROOT
HETATM    1  C3  UNL     1     -21.115  17.852 -15.069  1.00  0.00     0.082 C 
HETATM    2  C4  UNL     1     -22.611  18.022 -14.911  1.00  0.00     0.032 C 
HETATM    3  C5  UNL     1     -20.433  19.008 -15.729  1.00  0.00     0.042 C 
HETATM    4  C6  UNL     1     -19.878  20.051 -14.744  1.00  0.00     0.018 C 
HETATM    5  C7  UNL     1     -21.032  20.426 -13.823  1.00  0.00     0.023 C 
HETATM    6  C8  UNL     1     -18.822  19.308 -14.000  1.00  0.00    -0.057 C 
HETATM    7  C9  UNL     1     -19.138  18.103 -13.591  1.00  0.00     0.056 C 
HETATM    8  C10 UNL     1     -20.443  17.449 -13.810  1.00  0.00     0.165 C 
HETATM    9  O2  UNL     1     -20.928  16.644 -13.018  1.00  0.00    -0.292 OA
HETATM   10  C11 UNL     1     -17.483  19.876 -13.700  1.00  0.00     0.038 C 
HETATM   11  C18 UNL     1     -17.054  20.885 -14.780  1.00  0.00     0.021 C 
HETATM   12  C19 UNL     1     -18.163  21.861 -14.924  1.00  0.00     0.036 C 
HETATM   13  C20 UNL     1     -17.654  23.066 -15.630  1.00  0.00     0.046 C 
HETATM   14  C21 UNL     1     -18.410  24.345 -15.472  1.00  0.00     0.175 C 
HETATM   15  O4  UNL     1     -18.913  24.310 -16.771  1.00  0.00    -0.385 OA
HETATM   16  C22 UNL     1     -18.048  23.254 -17.035  1.00  0.00     0.128 C 
HETATM   17  C23 UNL     1     -18.576  22.082 -17.753  1.00  0.00     0.036 C 
HETATM   18  C24 UNL     1     -19.365  21.090 -16.995  1.00  0.00     0.047 C 
HETATM   19  C25 UNL     1     -19.406  21.258 -15.506  1.00  0.00     0.119 C 
HETATM   20  F1  UNL     1     -20.368  22.277 -15.304  1.00  0.00    -0.241 F 
ENDROOT
BRANCH  10  21
HETATM   21  C12 UNL     1     -17.304  20.445 -12.341  1.00  0.00    -0.021 C 
BRANCH  21  22
HETATM   22  C13 UNL     1     -17.498  21.864 -12.062  1.00  0.00    -0.023 C 
BRANCH  22  23
HETATM   23  C14 UNL     1     -18.416  22.381 -11.075  1.00  0.00     0.034 C 
HETATM   24  C15 UNL     1     -18.079  23.188  -9.907  1.00  0.00     0.037 C 
HETATM   25  C16 UNL     1     -19.488  23.561  -9.417  1.00  0.00     0.168 C 
HETATM   26  O3  UNL     1     -20.329  23.423 -10.490  1.00  0.00    -0.390 OA
HETATM   27  C17 UNL     1     -19.594  23.177 -11.645  1.00  0.00     0.176 C 
ENDBRANCH  22  23
ENDBRANCH  21  22
ENDBRANCH  10  21
BRANCH   1  28
HETATM   28  C2  UNL     1     -20.986  16.634 -15.968  1.00  0.00     0.139 C 
HETATM   29  C1  UNL     1     -22.159  15.695 -16.112  1.00  0.00     0.092 C 
HETATM   30  O1  UNL     1     -19.998  16.359 -16.587  1.00  0.00    -0.297 OA
ENDBRANCH   1  28
TORSDOF 4
ENDMDL
MODEL 5
REMARK VINA RESULT: -8.009461938      3.558      7.209
REMARK  4 active torsions:
REMARK  status: ('A' for Active; 'I' for Inactive)
REMARK    1  A    between atoms: C2_2  and  C3_4 
REMARK    2  A    between atoms: C11_13  and  C12_14 
REMARK    3  A    between atoms: C12_14  and  C13_15 
REMARK    4  A    between atoms: C13_15  and  C14_16 
ROOT
HETATM    1  C3  UNL     1     -22.744  16.917 -14.297  1.00  0.00     0.082 C 
HETATM    2  C4  UNL     1     -21.902  15.845 -13.638  1.00  0.00     0.032 C 
HETATM    3  C5  UNL     1     -22.059  18.240 -14.425  1.00  0.00     0.042 C 
HETATM    4  C6  UNL     1     -21.339  18.443 -15.769  1.00  0.00     0.018 C 
HETATM    5  C7  UNL     1     -20.436  17.231 -15.958  1.00  0.00     0.023 C 
HETATM    6  C8  UNL     1     -22.446  18.443 -16.766  1.00  0.00    -0.057 C 
HETATM    7  C9  UNL     1     -23.353  17.507 -16.628  1.00  0.00     0.056 C 
HETATM    8  C10 UNL     1     -23.349  16.472 -15.575  1.00  0.00     0.165 C 
HETATM    9  O2  UNL     1     -23.806  15.344 -15.745  1.00  0.00    -0.292 OA
HETATM   10  C11 UNL     1     -22.539  19.419 -17.883  1.00  0.00     0.038 C 
HETATM   11  C18 UNL     1     -21.889  20.761 -17.500  1.00  0.00     0.021 C 
HETATM   12  C19 UNL     1     -20.522  20.455 -17.010  1.00  0.00     0.036 C 
HETATM   13  C20 UNL     1     -19.717  21.705 -17.017  1.00  0.00     0.046 C 
HETATM   14  C21 UNL     1     -18.229  21.581 -17.035  1.00  0.00     0.175 C 
HETATM   15  O4  UNL     1     -18.091  21.996 -15.712  1.00  0.00    -0.385 OA
HETATM   16  C22 UNL     1     -19.437  22.347 -15.724  1.00  0.00     0.128 C 
HETATM   17  C23 UNL     1     -20.270  21.951 -14.577  1.00  0.00     0.036 C 
HETATM   18  C24 UNL     1     -20.757  20.559 -14.506  1.00  0.00     0.047 C 
HETATM   19  C25 UNL     1     -20.518  19.702 -15.713  1.00  0.00     0.119 C 
HETATM   20  F1  UNL     1     -19.164  19.306 -15.589  1.00  0.00    -0.241 F 
ENDROOT
BRANCH  10  21
HETATM   21  C12 UNL     1     -22.051  18.950 -19.204  1.00  0.00    -0.021 C 
BRANCH  21  22
HETATM   22  C13 UNL     1     -22.427  17.652 -19.753  1.00  0.00    -0.023 C 
BRANCH  22  23
HETATM   23  C14 UNL     1     -21.564  16.495 -19.773  1.00  0.00     0.034 C 
HETATM   24  C15 UNL     1     -21.676  15.307 -18.934  1.00  0.00     0.037 C 
HETATM   25  C16 UNL     1     -20.612  14.410 -19.587  1.00  0.00     0.168 C 
HETATM   26  O3  UNL     1     -20.427  14.879 -20.861  1.00  0.00    -0.390 OA
HETATM   27  C17 UNL     1     -21.373  15.857 -21.152  1.00  0.00     0.176 C 
ENDBRANCH  22  23
ENDBRANCH  21  22
ENDBRANCH  10  21
BRANCH   1  28
HETATM   28  C2  UNL     1     -23.926  17.071 -13.356  1.00  0.00     0.139 C 
HETATM   29  C1  UNL     1     -23.737  16.811 -11.881  1.00  0.00     0.092 C 
HETATM   30  O1  UNL     1     -25.025  17.393 -13.708  1.00  0.00    -0.297 OA
ENDBRANCH   1  28
TORSDOF 4
ENDMDL
