MODEL 1
REMARK VINA RESULT: -7.599251015      0.000      0.000
REMARK  3 active torsions:
REMARK  status: ('A' for Active; 'I' for Inactive)
REMARK    1  A    between atoms: O1_2  and  C2_3 
REMARK    2  A    between atoms: C14_18  and  C15_19 
REMARK    3  A    between atoms: C14_18  and  C16_21 
ROOT
HETATM    1  C2  UNL     1     -20.341  20.748 -15.088  1.00  0.00     0.283 C 
HETATM    2  C3  UNL     1     -20.931  21.161 -16.367  1.00  0.00     0.296 C 
HETATM    3  O2  UNL     1     -20.613  21.882 -17.328  1.00  0.00    -0.262 OA
HETATM    4  O3  UNL     1     -22.043  20.393 -16.067  1.00  0.00    -0.277 OA
HETATM    5  C4  UNL     1     -21.255  19.612 -15.256  1.00  0.00     0.218 C 
HETATM    6  O4  UNL     1     -21.833  19.138 -14.078  1.00  0.00    -0.345 OA
HETATM    7  C5  UNL     1     -21.898  17.892 -14.706  1.00  0.00     0.139 C 
HETATM    8  C6  UNL     1     -23.275  17.686 -15.268  1.00  0.00     0.034 C 
HETATM    9  C7  UNL     1     -23.290  16.386 -15.955  1.00  0.00     0.016 C 
HETATM   10  C8  UNL     1     -23.743  16.416 -17.439  1.00  0.00    -0.022 C 
HETATM   11  C9  UNL     1     -24.751  17.503 -17.495  1.00  0.00     0.020 C 
HETATM   12  C10 UNL     1     -24.470  15.125 -17.556  1.00  0.00    -0.021 C 
HETATM   13  C11 UNL     1     -25.182  14.729 -18.732  1.00  0.00    -0.030 C 
HETATM   14  C12 UNL     1     -25.033  15.429 -20.010  1.00  0.00     0.027 C 
HETATM   15  C13 UNL     1     -23.926  16.321 -20.268  1.00  0.00     0.015 C 
HETATM   16  C14 UNL     1     -22.560  16.112 -19.701  1.00  0.00    -0.020 C 
HETATM   17  C19 UNL     1     -22.484  16.554 -18.238  1.00  0.00     0.007 C 
HETATM   18  C20 UNL     1     -21.741  17.816 -17.954  1.00  0.00     0.007 C 
HETATM   19  C21 UNL     1     -20.659  17.754 -16.926  1.00  0.00     0.018 C 
HETATM   20  C22 UNL     1     -20.823  18.276 -15.589  1.00  0.00     0.042 C 
HETATM   21  C23 UNL     1     -19.493  17.960 -14.842  1.00  0.00     0.024 C 
ENDROOT
BRANCH   1  22
HETATM   22  O1  UNL     1     -18.986  20.560 -15.068  1.00  0.00    -0.375 OA
HETATM   23  C1  UNL     1     -18.390  21.707 -14.494  1.00  0.00     0.202 C 
ENDBRANCH   1  22
BRANCH  16  24
HETATM   24  C15 UNL     1     -21.692  17.019 -20.562  1.00  0.00     0.124 C 
HETATM   25 CL1  UNL     1     -22.488  18.488 -21.113  1.00  0.00    -0.130 Cl
ENDBRANCH  16  24
BRANCH  16  26
HETATM   26  C16 UNL     1     -22.012  14.738 -19.865  1.00  0.00    -0.013 C 
HETATM   27  C17 UNL     1     -21.388  14.307 -21.122  1.00  0.00     0.010 C 
HETATM   28  C18 UNL     1     -20.991  14.385 -18.781  1.00  0.00     0.010 C 
ENDBRANCH  16  26
TORSDOF 3
ENDMDL
MODEL 2
REMARK VINA RESULT: -7.080063923      3.335      5.054
REMARK  3 active torsions:
REMARK  status: ('A' for Active; 'I' for Inactive)
REMARK    1  A    between atoms: O1_2  and  C2_3 
REMARK    2  A    between atoms: C14_18  and  C15_19 
REMARK    3  A    between atoms: C14_18  and  C16_21 
ROOT
HETATM    1  C2  UNL     1     -25.572  15.641 -12.708  1.00  0.00     0.283 C 
HETATM    2  C3  UNL     1     -26.418  15.984 -13.857  1.00  0.00     0.296 C 
HETATM    3  O2  UNL     1     -27.399  16.712 -14.082  1.00  0.00    -0.262 OA
HETATM    4  O3  UNL     1     -25.654  15.132 -14.635  1.00  0.00    -0.277 OA
HETATM    5  C4  UNL     1     -24.607  15.313 -13.763  1.00  0.00     0.218 C 
HETATM    6  O4  UNL     1     -23.799  14.206 -13.505  1.00  0.00    -0.345 OA
HETATM    7  C5  UNL     1     -22.838  14.819 -14.312  1.00  0.00     0.139 C 
HETATM    8  C6  UNL     1     -22.904  14.238 -15.696  1.00  0.00     0.034 C 
HETATM    9  C7  UNL     1     -21.909  14.937 -16.524  1.00  0.00     0.016 C 
HETATM   10  C8  UNL     1     -22.455  15.590 -17.822  1.00  0.00    -0.022 C 
HETATM   11  C9  UNL     1     -23.551  14.688 -18.255  1.00  0.00     0.020 C 
HETATM   12  C10 UNL     1     -21.317  15.394 -18.757  1.00  0.00    -0.021 C 
HETATM   13  C11 UNL     1     -21.374  15.738 -20.144  1.00  0.00    -0.030 C 
HETATM   14  C12 UNL     1     -22.449  16.559 -20.704  1.00  0.00     0.027 C 
HETATM   15  C13 UNL     1     -23.317  17.356 -19.867  1.00  0.00     0.015 C 
HETATM   16  C14 UNL     1     -22.860  18.006 -18.602  1.00  0.00    -0.020 C 
HETATM   17  C19 UNL     1     -22.784  17.002 -17.448  1.00  0.00     0.007 C 
HETATM   18  C20 UNL     1     -23.839  17.105 -16.399  1.00  0.00     0.007 C 
HETATM   19  C21 UNL     1     -23.381  17.214 -14.981  1.00  0.00     0.018 C 
HETATM   20  C22 UNL     1     -23.437  16.107 -14.055  1.00  0.00     0.042 C 
HETATM   21  C23 UNL     1     -22.821  16.631 -12.725  1.00  0.00     0.024 C 
ENDROOT
BRANCH   1  22
HETATM   22  O1  UNL     1     -25.317  16.642 -11.810  1.00  0.00    -0.375 OA
HETATM   23  C1  UNL     1     -25.906  16.287 -10.575  1.00  0.00     0.202 C 
ENDBRANCH   1  22
BRANCH  16  24
HETATM   24  C15 UNL     1     -23.954  19.028 -18.330  1.00  0.00     0.124 C 
HETATM   25 CL1  UNL     1     -25.499  18.667 -19.089  1.00  0.00    -0.130 Cl
ENDBRANCH  16  24
BRANCH  16  26
HETATM   26  C16 UNL     1     -21.592  18.776 -18.712  1.00  0.00    -0.013 C 
HETATM   27  C17 UNL     1     -21.582  20.177 -19.155  1.00  0.00     0.010 C 
HETATM   28  C18 UNL     1     -20.794  18.776 -17.406  1.00  0.00     0.010 C 
ENDBRANCH  16  26
TORSDOF 3
ENDMDL
MODEL 3
REMARK VINA RESULT: -6.868452584      2.409      4.183
REMARK  3 active torsions:
REMARK  status: ('A' for Active; 'I' for Inactive)
REMARK    1  A    between atoms: O1_2  and  C2_3 
REMARK    2  A    between atoms: C14_18  and  C15_19 
REMARK    3  A    between atoms: C14_18  and  C16_21 
ROOT
HETATM    1  C2  UNL     1     -20.400  17.524 -14.092  1.00  0.00     0.283 C 
HETATM    2  C3  UNL     1     -21.614  16.935 -13.512  1.00  0.00     0.296 C 
HETATM    3  O2  UNL     1     -22.337  17.128 -12.522  1.00  0.00    -0.262 OA
HETATM    4  O3  UNL     1     -21.637  16.030 -14.559  1.00  0.00    -0.277 OA
HETATM    5  C4  UNL     1     -20.934  16.931 -15.323  1.00  0.00     0.218 C 
HETATM    6  O4  UNL     1     -19.977  16.411 -16.195  1.00  0.00    -0.345 OA
HETATM    7  C5  UNL     1     -20.875  16.698 -17.225  1.00  0.00     0.139 C 
HETATM    8  C6  UNL     1     -21.635  15.454 -17.585  1.00  0.00     0.034 C 
HETATM    9  C7  UNL     1     -22.597  15.805 -18.640  1.00  0.00     0.016 C 
HETATM   10  C8  UNL     1     -24.080  15.457 -18.340  1.00  0.00    -0.022 C 
HETATM   11  C9  UNL     1     -24.010  14.219 -17.527  1.00  0.00     0.020 C 
HETATM   12  C10 UNL     1     -24.577  15.080 -19.689  1.00  0.00    -0.021 C 
HETATM   13  C11 UNL     1     -25.891  14.567 -19.925  1.00  0.00    -0.030 C 
HETATM   14  C12 UNL     1     -26.948  14.622 -18.912  1.00  0.00     0.027 C 
HETATM   15  C13 UNL     1     -26.856  15.490 -17.760  1.00  0.00     0.015 C 
HETATM   16  C14 UNL     1     -26.187  16.825 -17.794  1.00  0.00    -0.020 C 
HETATM   17  C19 UNL     1     -24.663  16.693 -17.729  1.00  0.00     0.007 C 
HETATM   18  C20 UNL     1     -24.010  17.082 -16.445  1.00  0.00     0.007 C 
HETATM   19  C21 UNL     1     -22.897  18.075 -16.521  1.00  0.00     0.018 C 
HETATM   20  C22 UNL     1     -21.507  17.701 -16.401  1.00  0.00     0.042 C 
HETATM   21  C23 UNL     1     -20.693  19.015 -16.590  1.00  0.00     0.024 C 
ENDROOT
BRANCH   1  22
HETATM   22  O1  UNL     1     -20.255  18.879 -13.971  1.00  0.00    -0.375 OA
HETATM   23  C1  UNL     1     -18.883  19.161 -13.780  1.00  0.00     0.202 C 
ENDBRANCH   1  22
BRANCH  16  24
HETATM   24  C15 UNL     1     -26.704  17.497 -16.530  1.00  0.00     0.124 C 
HETATM   25 CL1  UNL     1     -27.435  16.402 -15.364  1.00  0.00    -0.130 Cl
ENDBRANCH  16  24
BRANCH  16  26
HETATM   26  C16 UNL     1     -26.590  17.704 -18.925  1.00  0.00    -0.013 C 
HETATM   27  C17 UNL     1     -27.487  18.849 -18.723  1.00  0.00     0.010 C 
HETATM   28  C18 UNL     1     -25.387  18.279 -19.674  1.00  0.00     0.010 C 
ENDBRANCH  16  26
TORSDOF 3
ENDMDL
MODEL 4
REMARK VINA RESULT: -6.737115528      3.545      5.315
REMARK  3 active torsions:
REMARK  status: ('A' for Active; 'I' for Inactive)
REMARK    1  A    between atoms: O1_2  and  C2_3 
REMARK    2  A    between atoms: C14_18  and  C15_19 
REMARK    3  A    between atoms: C14_18  and  C16_21 
ROOT
HETATM    1  C2  UNL     1     -25.345  15.146 -12.577  1.00  0.00     0.283 C 
HETATM    2  C3  UNL     1     -26.093  14.601 -13.717  1.00  0.00     0.296 C 
HETATM    3  O2  UNL     1     -27.282  14.491 -14.058  1.00  0.00    -0.262 OA
HETATM    4  O3  UNL     1     -24.888  14.237 -14.293  1.00  0.00    -0.277 OA
HETATM    5  C4  UNL     1     -24.270  15.230 -13.572  1.00  0.00     0.218 C 
HETATM    6  O4  UNL     1     -22.990  14.958 -13.088  1.00  0.00    -0.345 OA
HETATM    7  C5  UNL     1     -22.516  15.807 -14.090  1.00  0.00     0.139 C 
HETATM    8  C6  UNL     1     -22.064  14.988 -15.265  1.00  0.00     0.034 C 
HETATM    9  C7  UNL     1     -21.612  15.917 -16.312  1.00  0.00     0.016 C 
HETATM   10  C8  UNL     1     -22.295  15.751 -17.696  1.00  0.00    -0.022 C 
HETATM   11  C9  UNL     1     -22.564  14.296 -17.803  1.00  0.00     0.020 C 
HETATM   12  C10 UNL     1     -21.178  16.069 -18.622  1.00  0.00    -0.021 C 
HETATM   13  C11 UNL     1     -21.277  15.949 -20.043  1.00  0.00    -0.030 C 
HETATM   14  C12 UNL     1     -22.561  15.767 -20.726  1.00  0.00     0.027 C 
HETATM   15  C13 UNL     1     -23.820  16.042 -20.071  1.00  0.00     0.015 C 
HETATM   16  C14 UNL     1     -23.993  17.123 -19.055  1.00  0.00    -0.020 C 
HETATM   17  C19 UNL     1     -23.452  16.701 -17.686  1.00  0.00     0.007 C 
HETATM   18  C20 UNL     1     -24.461  16.393 -16.631  1.00  0.00     0.007 C 
HETATM   19  C21 UNL     1     -24.323  17.106 -15.327  1.00  0.00     0.018 C 
HETATM   20  C22 UNL     1     -23.797  16.470 -14.141  1.00  0.00     0.042 C 
HETATM   21  C23 UNL     1     -23.777  17.571 -13.040  1.00  0.00     0.024 C 
ENDROOT
BRANCH   1  22
HETATM   22  O1  UNL     1     -25.850  16.276 -11.993  1.00  0.00    -0.375 OA
HETATM   23  C1  UNL     1     -26.115  15.990 -10.635  1.00  0.00     0.202 C 
ENDBRANCH   1  22
BRANCH  16  24
HETATM   24  C15 UNL     1     -25.504  17.287 -18.987  1.00  0.00     0.124 C 
HETATM   25 CL1  UNL     1     -26.411  16.129 -19.952  1.00  0.00    -0.130 Cl
ENDBRANCH  16  24
BRANCH  16  26
HETATM   26  C16 UNL     1     -23.450  18.451 -19.448  1.00  0.00    -0.013 C 
HETATM   27  C17 UNL     1     -24.111  19.279 -20.465  1.00  0.00     0.010 C 
HETATM   28  C18 UNL     1     -23.262  19.383 -18.249  1.00  0.00     0.010 C 
ENDBRANCH  16  26
TORSDOF 3
ENDMDL
MODEL 5
REMARK VINA RESULT: -6.537182709      3.334      7.062
REMARK  3 active torsions:
REMARK  status: ('A' for Active; 'I' for Inactive)
REMARK    1  A    between atoms: O1_2  and  C2_3 
REMARK    2  A    between atoms: C14_18  and  C15_19 
REMARK    3  A    between atoms: C14_18  and  C16_21 
ROOT
HETATM    1  C2  UNL     1     -23.185  16.350 -15.703  1.00  0.00     0.283 C 
HETATM    2  C3  UNL     1     -23.532  17.478 -14.831  1.00  0.00     0.296 C 
HETATM    3  O2  UNL     1     -23.898  17.644 -13.656  1.00  0.00    -0.262 OA
HETATM    4  O3  UNL     1     -23.279  18.334 -15.890  1.00  0.00    -0.277 OA
HETATM    5  C4  UNL     1     -22.438  17.387 -16.423  1.00  0.00     0.218 C 
HETATM    6  O4  UNL     1     -22.430  17.257 -17.812  1.00  0.00    -0.345 OA
HETATM    7  C5  UNL     1     -21.193  17.905 -17.786  1.00  0.00     0.139 C 
HETATM    8  C6  UNL     1     -21.387  19.363 -18.091  1.00  0.00     0.034 C 
HETATM    9  C7  UNL     1     -20.072  20.017 -18.013  1.00  0.00     0.016 C 
HETATM   10  C8  UNL     1     -19.981  21.228 -17.047  1.00  0.00    -0.022 C 
HETATM   11  C9  UNL     1     -21.324  21.855 -17.114  1.00  0.00     0.020 C 
HETATM   12  C10 UNL     1     -19.035  22.117 -17.769  1.00  0.00    -0.021 C 
HETATM   13  C11 UNL     1     -18.703  23.435 -17.326  1.00  0.00    -0.030 C 
HETATM   14  C12 UNL     1     -19.050  23.923 -15.989  1.00  0.00     0.027 C 
HETATM   15  C13 UNL     1     -19.425  23.023 -14.922  1.00  0.00     0.015 C 
HETATM   16  C14 UNL     1     -18.857  21.650 -14.773  1.00  0.00    -0.020 C 
HETATM   17  C19 UNL     1     -19.511  20.662 -15.743  1.00  0.00     0.007 C 
HETATM   18  C20 UNL     1     -20.456  19.669 -15.154  1.00  0.00     0.007 C 
HETATM   19  C21 UNL     1     -20.209  18.229 -15.460  1.00  0.00     0.018 C 
HETATM   20  C22 UNL     1     -20.998  17.488 -16.419  1.00  0.00     0.042 C 
HETATM   21  C23 UNL     1     -20.378  16.060 -16.469  1.00  0.00     0.024 C 
ENDROOT
BRANCH   1  22
HETATM   22  O1  UNL     1     -22.536  15.296 -15.118  1.00  0.00    -0.375 OA
HETATM   23  C1  UNL     1     -23.439  14.211 -15.040  1.00  0.00     0.202 C 
ENDBRANCH   1  22
BRANCH  16  24
HETATM   24  C15 UNL     1     -19.217  21.286 -13.340  1.00  0.00     0.124 C 
HETATM   25 CL1  UNL     1     -19.434  22.662 -12.267  1.00  0.00    -0.130 Cl
ENDBRANCH  16  24
BRANCH  16  26
HETATM   26  C16 UNL     1     -17.374  21.569 -14.860  1.00  0.00    -0.013 C 
HETATM   27  C17 UNL     1     -16.524  22.727 -14.555  1.00  0.00     0.010 C 
HETATM   28  C18 UNL     1     -16.802  20.432 -14.012  1.00  0.00     0.010 C 
ENDBRANCH  16  26
TORSDOF 3
ENDMDL
