MODEL 1
REMARK VINA RESULT: -7.153291440      0.000      0.000
REMARK  4 active torsions:
REMARK  status: ('A' for Active; 'I' for Inactive)
REMARK    1  A    between atoms: N5_15  and  C6_16 
REMARK    2  A    between atoms: C7_17  and  C8_18 
REMARK    3  A    between atoms: C8_18  and  C9_19 
REMARK       I    between atoms: C9_19  and  N6_21 
REMARK    4  A    between atoms: N6_21  and  N7_23 
ROOT
HETATM    1  N1  UNL     1     -10.027 -29.036 -25.436  1.00  0.00    -0.383 N 
ATOM      2  H11 UNL     1     -10.351 -29.592 -24.643  1.00  0.00     0.157 HD
ATOM      3  H12 UNL     1      -9.032 -28.900 -25.615  1.00  0.00     0.157 HD
HETATM    4  C1  UNL     1     -10.860 -28.481 -26.244  1.00  0.00     0.131 A 
HETATM    5  N2  UNL     1     -10.434 -27.749 -27.286  1.00  0.00    -0.337 N 
ATOM      6  H2  UNL     1      -9.434 -27.628 -27.442  1.00  0.00     0.168 HD
HETATM    7  C2  UNL     1     -11.321 -27.168 -28.133  1.00  0.00     0.183 A 
HETATM    8  N3  UNL     1     -12.627 -27.356 -27.884  1.00  0.00    -0.336 N 
ATOM      9  H3  UNL     1     -13.299 -26.921 -28.516  1.00  0.00     0.168 HD
HETATM   10  C3  UNL     1     -13.107 -28.077 -26.858  1.00  0.00     0.144 A 
HETATM   11  C4  UNL     1     -12.221 -28.666 -25.999  1.00  0.00     0.122 A 
HETATM   12  N4  UNL     1     -12.927 -29.319 -25.075  1.00  0.00    -0.346 N 
ATOM     13  H4  UNL     1     -12.530 -29.855 -24.303  1.00  0.00     0.167 HD
HETATM   14  C5  UNL     1     -14.261 -29.161 -25.323  1.00  0.00     0.190 A 
HETATM   15  N5  UNL     1     -14.371 -28.405 -26.410  1.00  0.00    -0.303 N 
ENDROOT
BRANCH  15  16
HETATM   16  C6  UNL     1     -15.529 -27.894 -27.039  1.00  0.00     0.096 C 
HETATM   17  C7  UNL     1     -16.629 -27.504 -26.538  1.00  0.00     0.000 C 
BRANCH  17  18
HETATM   18  C8  UNL     1     -17.089 -27.454 -25.160  1.00  0.00     0.133 C 
BRANCH  18  19
HETATM   19  C9  UNL     1     -16.498 -26.215 -24.469  1.00  0.00     0.238 C 
HETATM   20  O1  UNL     1     -17.040 -25.140 -24.682  1.00  0.00    -0.272 OA
HETATM   21  N6  UNL     1     -15.376 -26.384 -23.635  1.00  0.00    -0.276 N 
ATOM     22  H6  UNL     1     -14.959 -27.304 -23.490  1.00  0.00     0.189 HD
BRANCH  21  23
HETATM   23  N7  UNL     1     -14.853 -25.246 -23.014  1.00  0.00    -0.343 N 
ATOM     24  H72 UNL     1     -15.345 -24.814 -22.232  1.00  0.00     0.176 HD
ATOM     25  H71 UNL     1     -13.973 -24.873 -23.372  1.00  0.00     0.176 HD
ENDBRANCH  21  23
ENDBRANCH  18  19
ENDBRANCH  17  18
ENDBRANCH  15  16
TORSDOF 4
ENDMDL
MODEL 2
REMARK VINA RESULT: -7.056021100      2.291      3.121
REMARK  4 active torsions:
REMARK  status: ('A' for Active; 'I' for Inactive)
REMARK    1  A    between atoms: N5_15  and  C6_16 
REMARK    2  A    between atoms: C7_17  and  C8_18 
REMARK    3  A    between atoms: C8_18  and  C9_19 
REMARK       I    between atoms: C9_19  and  N6_21 
REMARK    4  A    between atoms: N6_21  and  N7_23 
ROOT
HETATM    1  N1  UNL     1     -12.798 -29.720 -26.467  1.00  0.00    -0.383 N 
ATOM      2  H11 UNL     1     -13.520 -30.439 -26.413  1.00  0.00     0.157 HD
ATOM      3  H12 UNL     1     -11.860 -29.936 -26.803  1.00  0.00     0.157 HD
HETATM    4  C1  UNL     1     -13.040 -28.506 -26.113  1.00  0.00     0.131 A 
HETATM    5  N2  UNL     1     -12.091 -27.560 -26.183  1.00  0.00    -0.337 N 
ATOM      6  H2  UNL     1     -11.160 -27.803 -26.522  1.00  0.00     0.168 HD
HETATM    7  C2  UNL     1     -12.356 -26.283 -25.808  1.00  0.00     0.183 A 
HETATM    8  N3  UNL     1     -13.596 -26.014 -25.368  1.00  0.00    -0.336 N 
ATOM      9  H3  UNL     1     -13.803 -25.057 -25.084  1.00  0.00     0.168 HD
HETATM   10  C3  UNL     1     -14.582 -26.921 -25.278  1.00  0.00     0.144 A 
HETATM   11  C4  UNL     1     -14.323 -28.210 -25.653  1.00  0.00     0.122 A 
HETATM   12  N4  UNL     1     -15.441 -28.915 -25.476  1.00  0.00    -0.346 N 
ATOM     13  H4  UNL     1     -15.547 -29.910 -25.675  1.00  0.00     0.167 HD
HETATM   14  C5  UNL     1     -16.424 -28.100 -24.989  1.00  0.00     0.190 A 
HETATM   15  N5  UNL     1     -15.900 -26.885 -24.869  1.00  0.00    -0.303 N 
ENDROOT
BRANCH  15  16
HETATM   16  C6  UNL     1     -16.475 -25.703 -24.348  1.00  0.00     0.096 C 
HETATM   17  C7  UNL     1     -16.500 -25.261 -23.156  1.00  0.00     0.000 C 
BRANCH  17  18
HETATM   18  C8  UNL     1     -15.966 -25.809 -21.920  1.00  0.00     0.133 C 
BRANCH  18  19
HETATM   19  C9  UNL     1     -14.959 -24.819 -21.316  1.00  0.00     0.238 C 
HETATM   20  O1  UNL     1     -15.009 -23.659 -21.699  1.00  0.00    -0.272 OA
HETATM   21  N6  UNL     1     -14.040 -25.297 -20.361  1.00  0.00    -0.276 N 
ATOM     22  H6  UNL     1     -14.036 -26.276 -20.074  1.00  0.00     0.189 HD
BRANCH  21  23
HETATM   23  N7  UNL     1     -13.131 -24.382 -19.821  1.00  0.00    -0.343 N 
ATOM     24  H72 UNL     1     -13.298 -23.973 -18.902  1.00  0.00     0.176 HD
ATOM     25  H71 UNL     1     -12.309 -24.146 -20.378  1.00  0.00     0.176 HD
ENDBRANCH  21  23
ENDBRANCH  18  19
ENDBRANCH  17  18
ENDBRANCH  15  16
TORSDOF 4
ENDMDL
MODEL 3
REMARK VINA RESULT: -7.044552696      2.839      5.868
REMARK  4 active torsions:
REMARK  status: ('A' for Active; 'I' for Inactive)
REMARK    1  A    between atoms: N5_15  and  C6_16 
REMARK    2  A    between atoms: C7_17  and  C8_18 
REMARK    3  A    between atoms: C8_18  and  C9_19 
REMARK       I    between atoms: C9_19  and  N6_21 
REMARK    4  A    between atoms: N6_21  and  N7_23 
ROOT
HETATM    1  N1  UNL     1     -17.951 -28.982 -28.624  1.00  0.00    -0.383 N 
ATOM      2  H11 UNL     1     -17.467 -29.396 -29.421  1.00  0.00     0.157 HD
ATOM      3  H12 UNL     1     -18.965 -29.047 -28.529  1.00  0.00     0.157 HD
HETATM    4  C1  UNL     1     -17.305 -28.357 -27.703  1.00  0.00     0.131 A 
HETATM    5  N2  UNL     1     -17.942 -27.812 -26.655  1.00  0.00    -0.337 N 
ATOM      6  H2  UNL     1     -18.957 -27.891 -26.584  1.00  0.00     0.168 HD
HETATM    7  C2  UNL     1     -17.251 -27.156 -25.688  1.00  0.00     0.183 A 
HETATM    8  N3  UNL     1     -15.918 -27.077 -25.828  1.00  0.00    -0.336 N 
ATOM      9  H3  UNL     1     -15.392 -26.585 -25.106  1.00  0.00     0.168 HD
HETATM   10  C3  UNL     1     -15.231 -27.604 -26.855  1.00  0.00     0.144 A 
HETATM   11  C4  UNL     1     -15.919 -28.266 -27.833  1.00  0.00     0.122 A 
HETATM   12  N4  UNL     1     -15.032 -28.694 -28.733  1.00  0.00    -0.346 N 
ATOM     13  H4  UNL     1     -15.258 -29.222 -29.576  1.00  0.00     0.167 HD
HETATM   14  C5  UNL     1     -13.776 -28.316 -28.351  1.00  0.00     0.190 A 
HETATM   15  N5  UNL     1     -13.897 -27.653 -27.206  1.00  0.00    -0.303 N 
ENDROOT
BRANCH  15  16
HETATM   16  C6  UNL     1     -12.910 -26.996 -26.436  1.00  0.00     0.096 C 
HETATM   17  C7  UNL     1     -11.673 -27.252 -26.299  1.00  0.00     0.000 C 
BRANCH  17  18
HETATM   18  C8  UNL     1     -10.844 -28.303 -26.868  1.00  0.00     0.133 C 
BRANCH  18  19
HETATM   19  C9  UNL     1      -9.945 -28.893 -25.771  1.00  0.00     0.238 C 
HETATM   20  O1  UNL     1      -8.930 -28.276 -25.481  1.00  0.00    -0.272 OA
HETATM   21  N6  UNL     1     -10.334 -30.104 -25.165  1.00  0.00    -0.276 N 
ATOM     22  H6  UNL     1     -11.191 -30.583 -25.443  1.00  0.00     0.189 HD
BRANCH  21  23
HETATM   23  N7  UNL     1      -9.503 -30.626 -24.168  1.00  0.00    -0.343 N 
ATOM     24  H72 UNL     1      -8.763 -31.284 -24.409  1.00  0.00     0.176 HD
ATOM     25  H71 UNL     1      -9.669 -30.324 -23.208  1.00  0.00     0.176 HD
ENDBRANCH  21  23
ENDBRANCH  18  19
ENDBRANCH  17  18
ENDBRANCH  15  16
TORSDOF 4
ENDMDL
MODEL 4
REMARK VINA RESULT: -6.990374208      1.834      2.399
REMARK  4 active torsions:
REMARK  status: ('A' for Active; 'I' for Inactive)
REMARK    1  A    between atoms: N5_15  and  C6_16 
REMARK    2  A    between atoms: C7_17  and  C8_18 
REMARK    3  A    between atoms: C8_18  and  C9_19 
REMARK       I    between atoms: C9_19  and  N6_21 
REMARK    4  A    between atoms: N6_21  and  N7_23 
ROOT
HETATM    1  N1  UNL     1     -10.788 -27.385 -27.791  1.00  0.00    -0.383 N 
ATOM      2  H11 UNL     1     -10.427 -26.774 -27.058  1.00  0.00     0.157 HD
ATOM      3  H12 UNL     1     -10.175 -27.764 -28.512  1.00  0.00     0.157 HD
HETATM    4  C1  UNL     1     -12.034 -27.705 -27.838  1.00  0.00     0.131 A 
HETATM    5  N2  UNL     1     -12.509 -28.509 -28.802  1.00  0.00    -0.337 N 
ATOM      6  H2  UNL     1     -11.874 -28.874 -29.512  1.00  0.00     0.168 HD
HETATM    7  C2  UNL     1     -13.824 -28.841 -28.842  1.00  0.00     0.183 A 
HETATM    8  N3  UNL     1     -14.618 -28.334 -27.886  1.00  0.00    -0.336 N 
ATOM      9  H3  UNL     1     -15.608 -28.578 -27.910  1.00  0.00     0.168 HD
HETATM   10  C3  UNL     1     -14.196 -27.526 -26.900  1.00  0.00     0.144 A 
HETATM   11  C4  UNL     1     -12.873 -27.186 -26.852  1.00  0.00     0.122 A 
HETATM   12  N4  UNL     1     -12.698 -26.387 -25.798  1.00  0.00    -0.346 N 
ATOM     13  H4  UNL     1     -11.809 -25.977 -25.512  1.00  0.00     0.167 HD
HETATM   14  C5  UNL     1     -13.893 -26.203 -25.161  1.00  0.00     0.190 A 
HETATM   15  N5  UNL     1     -14.805 -26.898 -25.832  1.00  0.00    -0.303 N 
ENDROOT
BRANCH  15  16
HETATM   16  C6  UNL     1     -16.201 -26.985 -25.628  1.00  0.00     0.096 C 
HETATM   17  C7  UNL     1     -16.958 -26.327 -24.847  1.00  0.00     0.000 C 
BRANCH  17  18
HETATM   18  C8  UNL     1     -16.662 -25.273 -23.891  1.00  0.00     0.133 C 
BRANCH  18  19
HETATM   19  C9  UNL     1     -16.175 -25.899 -22.575  1.00  0.00     0.238 C 
HETATM   20  O1  UNL     1     -16.805 -26.851 -22.138  1.00  0.00    -0.272 OA
HETATM   21  N6  UNL     1     -15.041 -25.346 -21.950  1.00  0.00    -0.276 N 
ATOM     22  H6  UNL     1     -14.550 -24.549 -22.355  1.00  0.00     0.189 HD
BRANCH  21  23
HETATM   23  N7  UNL     1     -14.612 -25.929 -20.754  1.00  0.00    -0.343 N 
ATOM     24  H72 UNL     1     -15.289 -26.327 -20.104  1.00  0.00     0.176 HD
ATOM     25  H71 UNL     1     -13.609 -25.938 -20.564  1.00  0.00     0.176 HD
ENDBRANCH  21  23
ENDBRANCH  18  19
ENDBRANCH  17  18
ENDBRANCH  15  16
TORSDOF 4
ENDMDL
MODEL 5
REMARK VINA RESULT: -6.943696892      3.102      4.110
REMARK  4 active torsions:
REMARK  status: ('A' for Active; 'I' for Inactive)
REMARK    1  A    between atoms: N5_15  and  C6_16 
REMARK    2  A    between atoms: C7_17  and  C8_18 
REMARK    3  A    between atoms: C8_18  and  C9_19 
REMARK       I    between atoms: C9_19  and  N6_21 
REMARK    4  A    between atoms: N6_21  and  N7_23 
ROOT
HETATM    1  N1  UNL     1     -11.617 -26.539 -25.370  1.00  0.00    -0.383 N 
ATOM      2  H11 UNL     1     -12.281 -26.239 -24.655  1.00  0.00     0.157 HD
ATOM      3  H12 UNL     1     -10.616 -26.377 -25.263  1.00  0.00     0.157 HD
HETATM    4  C1  UNL     1     -12.015 -27.135 -26.439  1.00  0.00     0.131 A 
HETATM    5  N2  UNL     1     -11.142 -27.529 -27.379  1.00  0.00    -0.337 N 
ATOM      6  H2  UNL     1     -10.145 -27.355 -27.248  1.00  0.00     0.168 HD
HETATM    7  C2  UNL     1     -11.570 -28.158 -28.503  1.00  0.00     0.183 A 
HETATM    8  N3  UNL     1     -12.891 -28.363 -28.630  1.00  0.00    -0.336 N 
ATOM      9  H3  UNL     1     -13.221 -28.834 -29.472  1.00  0.00     0.168 HD
HETATM   10  C3  UNL     1     -13.807 -27.989 -27.721  1.00  0.00     0.144 A 
HETATM   11  C4  UNL     1     -13.384 -27.355 -26.586  1.00  0.00     0.122 A 
HETATM   12  N4  UNL     1     -14.461 -27.088 -25.847  1.00  0.00    -0.346 N 
ATOM     13  H4  UNL     1     -14.451 -26.618 -24.941  1.00  0.00     0.167 HD
HETATM   14  C5  UNL     1     -15.580 -27.539 -26.489  1.00  0.00     0.190 A 
HETATM   15  N5  UNL     1     -15.181 -28.090 -27.630  1.00  0.00    -0.303 N 
ENDROOT
BRANCH  15  16
HETATM   16  C6  UNL     1     -15.948 -28.639 -28.683  1.00  0.00     0.096 C 
HETATM   17  C7  UNL     1     -17.179 -28.956 -28.721  1.00  0.00     0.000 C 
BRANCH  17  18
HETATM   18  C8  UNL     1     -18.218 -28.880 -27.708  1.00  0.00     0.133 C 
BRANCH  18  19
HETATM   19  C9  UNL     1     -18.925 -30.240 -27.599  1.00  0.00     0.238 C 
HETATM   20  O1  UNL     1     -19.666 -30.414 -26.642  1.00  0.00    -0.272 OA
HETATM   21  N6  UNL     1     -18.683 -31.203 -28.597  1.00  0.00    -0.276 N 
ATOM     22  H6  UNL     1     -18.054 -31.010 -29.377  1.00  0.00     0.189 HD
BRANCH  21  23
HETATM   23  N7  UNL     1     -19.335 -32.435 -28.482  1.00  0.00    -0.343 N 
ATOM     24  H72 UNL     1     -19.502 -33.008 -29.309  1.00  0.00     0.176 HD
ATOM     25  H71 UNL     1     -19.631 -32.727 -27.550  1.00  0.00     0.176 HD
ENDBRANCH  21  23
ENDBRANCH  18  19
ENDBRANCH  17  18
ENDBRANCH  15  16
TORSDOF 4
ENDMDL
