MODEL 1
REMARK VINA RESULT: -6.481769609      0.000      0.000
REMARK  4 active torsions:
REMARK  status: ('A' for Active; 'I' for Inactive)
REMARK    1  A    between atoms: N1_1  and  C1_4 
REMARK    2  A    between atoms: N7_16  and  C4_17 
REMARK    3  A    between atoms: C4_17  and  O1_18 
REMARK    4  A    between atoms: O1_18  and  N8_19 
ROOT
HETATM    1  C1  UNL     1      52.352  -8.239  28.668  1.00  0.00     0.714 A 
HETATM    2  N2  UNL     1      52.083  -8.177  29.983  1.00  0.00    -0.185 N 
ATOM      3  H2  UNL     1      52.078  -7.276  30.462  1.00  0.00     0.185 HD
HETATM    4  C2  UNL     1      51.819  -9.301  30.664  1.00  0.00     0.215 A 
HETATM    5  N3  UNL     1      51.828 -10.489  30.027  1.00  0.00    -0.183 N 
ATOM      6  H3  UNL     1      51.627 -11.341  30.552  1.00  0.00     0.185 HD
HETATM    7  C3  UNL     1      52.099 -10.574  28.694  1.00  0.00     0.741 A 
HETATM    8  N4  UNL     1      52.361  -9.446  28.021  1.00  0.00     0.107 N 
HETATM    9  N5  UNL     1      52.586  -9.795  26.774  1.00  0.00    -0.191 N 
ATOM     10  H5  UNL     1      52.815  -9.150  26.018  1.00  0.00     0.211 HD
HETATM   11  N6  UNL     1      52.476 -11.089  26.647  1.00  0.00    -0.208 N 
ATOM     12  H6  UNL     1      52.600 -11.620  25.786  1.00  0.00     0.210 HD
HETATM   13  N7  UNL     1      52.176 -11.584  27.820  1.00  0.00    -0.079 N 
ENDROOT
BRANCH  13  14
HETATM   14  C4  UNL     1      51.951 -12.991  28.176  1.00  0.00     0.369 C 
BRANCH  14  15
HETATM   15  O1  UNL     1      52.424 -13.252  29.465  1.00  0.00    -0.265 OA
BRANCH  15  16
HETATM   16  N8  UNL     1      53.127 -14.394  29.403  1.00  0.00    -0.309 N 
ATOM     17  H82 UNL     1      52.859 -15.283  29.826  1.00  0.00     0.184 HD
ATOM     18  H81 UNL     1      53.966 -14.198  28.858  1.00  0.00     0.184 HD
ENDBRANCH  15  16
ENDBRANCH  14  15
ENDBRANCH  13  14
BRANCH   1  19
HETATM   19  N1  UNL     1      52.607  -7.149  28.012  1.00  0.00    -0.232 N 
ATOM     20  H12 UNL     1      53.490  -6.660  28.157  1.00  0.00     0.174 HD
ATOM     21  H11 UNL     1      51.919  -6.783  27.352  1.00  0.00     0.174 HD
ENDBRANCH   1  19
TORSDOF 4
ENDMDL
MODEL 2
REMARK VINA RESULT: -6.259354375      2.761      4.499
REMARK  4 active torsions:
REMARK  status: ('A' for Active; 'I' for Inactive)
REMARK    1  A    between atoms: N1_1  and  C1_4 
REMARK    2  A    between atoms: N7_16  and  C4_17 
REMARK    3  A    between atoms: C4_17  and  O1_18 
REMARK    4  A    between atoms: O1_18  and  N8_19 
ROOT
HETATM    1  C1  UNL     1      53.856 -11.227  29.074  1.00  0.00     0.714 A 
HETATM    2  N2  UNL     1      52.895 -12.154  28.919  1.00  0.00    -0.185 N 
ATOM      3  H2  UNL     1      53.038 -13.102  29.269  1.00  0.00     0.185 HD
HETATM    4  C2  UNL     1      51.748 -11.831  28.306  1.00  0.00     0.215 A 
HETATM    5  N3  UNL     1      51.563 -10.577  27.844  1.00  0.00    -0.183 N 
ATOM      6  H3  UNL     1      50.688 -10.339  27.378  1.00  0.00     0.185 HD
HETATM    7  C3  UNL     1      52.525  -9.623  27.991  1.00  0.00     0.741 A 
HETATM    8  N4  UNL     1      53.668  -9.954  28.605  1.00  0.00     0.107 N 
HETATM    9  N5  UNL     1      54.416  -8.873  28.616  1.00  0.00    -0.191 N 
ATOM     10  H5  UNL     1      55.351  -8.813  29.019  1.00  0.00     0.211 HD
HETATM   11  N6  UNL     1      53.786  -7.890  28.036  1.00  0.00    -0.208 N 
ATOM     12  H6  UNL     1      54.140  -6.942  27.910  1.00  0.00     0.210 HD
HETATM   13  N7  UNL     1      52.619  -8.334  27.644  1.00  0.00    -0.079 N 
ENDROOT
BRANCH  13  14
HETATM   14  C4  UNL     1      51.560  -7.595  26.945  1.00  0.00     0.369 C 
BRANCH  14  15
HETATM   15  O1  UNL     1      52.111  -6.738  25.988  1.00  0.00    -0.265 OA
BRANCH  15  16
HETATM   16  N8  UNL     1      52.437  -7.493  24.926  1.00  0.00    -0.309 N 
ATOM     17  H82 UNL     1      51.780  -7.959  24.302  1.00  0.00     0.184 HD
ATOM     18  H81 UNL     1      53.456  -7.507  24.872  1.00  0.00     0.184 HD
ENDBRANCH  15  16
ENDBRANCH  14  15
ENDBRANCH  13  14
BRANCH   1  19
HETATM   19  N1  UNL     1      54.965 -11.544  29.668  1.00  0.00    -0.232 N 
ATOM     20  H12 UNL     1      55.829 -11.614  29.131  1.00  0.00     0.174 HD
ATOM     21  H11 UNL     1      54.967 -11.722  30.673  1.00  0.00     0.174 HD
ENDBRANCH   1  19
TORSDOF 4
ENDMDL
MODEL 3
REMARK VINA RESULT: -6.127981198      2.261      4.617
REMARK  4 active torsions:
REMARK  status: ('A' for Active; 'I' for Inactive)
REMARK    1  A    between atoms: N1_1  and  C1_4 
REMARK    2  A    between atoms: N7_16  and  C4_17 
REMARK    3  A    between atoms: C4_17  and  O1_18 
REMARK    4  A    between atoms: O1_18  and  N8_19 
ROOT
HETATM    1  C1  UNL     1      52.283 -11.840  28.795  1.00  0.00     0.714 A 
HETATM    2  N2  UNL     1      52.237 -12.234  27.511  1.00  0.00    -0.185 N 
ATOM      3  H2  UNL     1      52.198 -13.227  27.282  1.00  0.00     0.185 HD
HETATM    4  C2  UNL     1      52.242 -11.319  26.531  1.00  0.00     0.215 A 
HETATM    5  N3  UNL     1      52.295 -10.007  26.838  1.00  0.00    -0.183 N 
ATOM      6  H3  UNL     1      52.299  -9.317  26.087  1.00  0.00     0.185 HD
HETATM    7  C3  UNL     1      52.342  -9.587  28.133  1.00  0.00     0.741 A 
HETATM    8  N4  UNL     1      52.336 -10.507  29.107  1.00  0.00     0.107 N 
HETATM    9  N5  UNL     1      52.388  -9.852  30.245  1.00  0.00    -0.191 N 
ATOM     10  H5  UNL     1      52.398 -10.285  31.168  1.00  0.00     0.211 HD
HETATM   11  N6  UNL     1      52.425  -8.569  30.018  1.00  0.00    -0.208 N 
ATOM     12  H6  UNL     1      52.468  -7.836  30.726  1.00  0.00     0.210 HD
HETATM   13  N7  UNL     1      52.398  -8.387  28.723  1.00  0.00    -0.079 N 
ENDROOT
BRANCH  13  14
HETATM   14  C4  UNL     1      52.421  -7.116  27.988  1.00  0.00     0.369 C 
BRANCH  14  15
HETATM   15  O1  UNL     1      53.397  -7.147  26.987  1.00  0.00    -0.265 OA
BRANCH  15  16
HETATM   16  N8  UNL     1      54.529  -7.593  27.555  1.00  0.00    -0.309 N 
ATOM     17  H82 UNL     1      54.626  -8.454  28.093  1.00  0.00     0.184 HD
ATOM     18  H81 UNL     1      55.257  -6.912  27.344  1.00  0.00     0.184 HD
ENDBRANCH  15  16
ENDBRANCH  14  15
ENDBRANCH  13  14
BRANCH   1  19
HETATM   19  N1  UNL     1      52.278 -12.728  29.740  1.00  0.00    -0.232 N 
ATOM     20  H12 UNL     1      53.136 -12.935  30.251  1.00  0.00     0.174 HD
ATOM     21  H11 UNL     1      51.412 -13.218  29.969  1.00  0.00     0.174 HD
ENDBRANCH   1  19
TORSDOF 4
ENDMDL
MODEL 4
REMARK VINA RESULT: -5.963039722      2.375      4.414
REMARK  4 active torsions:
REMARK  status: ('A' for Active; 'I' for Inactive)
REMARK    1  A    between atoms: N1_1  and  C1_4 
REMARK    2  A    between atoms: N7_16  and  C4_17 
REMARK    3  A    between atoms: C4_17  and  O1_18 
REMARK    4  A    between atoms: O1_18  and  N8_19 
ROOT
HETATM    1  C1  UNL     1      53.928 -12.929  28.257  1.00  0.00     0.714 A 
HETATM    2  N2  UNL     1      54.942 -12.759  29.122  1.00  0.00    -0.185 N 
ATOM      3  H2  UNL     1      55.567 -13.536  29.336  1.00  0.00     0.185 HD
HETATM    4  C2  UNL     1      55.131 -11.565  29.703  1.00  0.00     0.215 A 
HETATM    5  N3  UNL     1      54.302 -10.542  29.418  1.00  0.00    -0.183 N 
ATOM      6  H3  UNL     1      54.451  -9.637  29.865  1.00  0.00     0.185 HD
HETATM    7  C3  UNL     1      53.268 -10.693  28.544  1.00  0.00     0.741 A 
HETATM    8  N4  UNL     1      53.086 -11.888  27.967  1.00  0.00     0.107 N 
HETATM    9  N5  UNL     1      52.039 -11.772  27.181  1.00  0.00    -0.191 N 
ATOM     10  H5  UNL     1      51.653 -12.521  26.606  1.00  0.00     0.211 HD
HETATM   11  N6  UNL     1      51.566 -10.559  27.247  1.00  0.00    -0.208 N 
ATOM     12  H6  UNL     1      50.758 -10.201  26.737  1.00  0.00     0.210 HD
HETATM   13  N7  UNL     1      52.310  -9.880  28.082  1.00  0.00    -0.079 N 
ENDROOT
BRANCH  13  14
HETATM   14  C4  UNL     1      52.170  -8.474  28.480  1.00  0.00     0.369 C 
BRANCH  14  15
HETATM   15  O1  UNL     1      52.532  -7.628  27.426  1.00  0.00    -0.265 OA
BRANCH  15  16
HETATM   16  N8  UNL     1      53.856  -7.428  27.520  1.00  0.00    -0.309 N 
ATOM     17  H82 UNL     1      54.575  -8.146  27.432  1.00  0.00     0.184 HD
ATOM     18  H81 UNL     1      53.995  -6.433  27.693  1.00  0.00     0.184 HD
ENDBRANCH  15  16
ENDBRANCH  14  15
ENDBRANCH  13  14
BRANCH   1  19
HETATM   19  N1  UNL     1      53.748 -14.085  27.696  1.00  0.00    -0.232 N 
ATOM     20  H12 UNL     1      54.551 -14.672  27.468  1.00  0.00     0.174 HD
ATOM     21  H11 UNL     1      52.802 -14.402  27.483  1.00  0.00     0.174 HD
ENDBRANCH   1  19
TORSDOF 4
ENDMDL
MODEL 5
REMARK VINA RESULT: -5.876584989      2.437      4.466
REMARK  4 active torsions:
REMARK  status: ('A' for Active; 'I' for Inactive)
REMARK    1  A    between atoms: N1_1  and  C1_4 
REMARK    2  A    between atoms: N7_16  and  C4_17 
REMARK    3  A    between atoms: C4_17  and  O1_18 
REMARK    4  A    between atoms: O1_18  and  N8_19 
ROOT
HETATM    1  C1  UNL     1      54.725 -12.748  28.743  1.00  0.00     0.714 A 
HETATM    2  N2  UNL     1      53.997 -13.875  28.822  1.00  0.00    -0.185 N 
ATOM      3  H2  UNL     1      54.410 -14.770  28.558  1.00  0.00     0.185 HD
HETATM    4  C2  UNL     1      52.727 -13.821  29.248  1.00  0.00     0.215 A 
HETATM    5  N3  UNL     1      52.185 -12.636  29.594  1.00  0.00    -0.183 N 
ATOM      6  H3  UNL     1      51.218 -12.602  29.917  1.00  0.00     0.185 HD
HETATM    7  C3  UNL     1      52.906 -11.482  29.522  1.00  0.00     0.741 A 
HETATM    8  N4  UNL     1      54.175 -11.545  29.095  1.00  0.00     0.107 N 
HETATM    9  N5  UNL     1      54.640 -10.316  29.117  1.00  0.00    -0.191 N 
ATOM     10  H5  UNL     1      55.585 -10.043  28.844  1.00  0.00     0.211 HD
HETATM   11  N6  UNL     1      53.716  -9.497  29.537  1.00  0.00    -0.208 N 
ATOM     12  H6  UNL     1      53.814  -8.488  29.648  1.00  0.00     0.210 HD
HETATM   13  N7  UNL     1      52.641 -10.198  29.791  1.00  0.00    -0.079 N 
ENDROOT
BRANCH  13  14
HETATM   14  C4  UNL     1      51.345  -9.718  30.286  1.00  0.00     0.369 C 
BRANCH  14  15
HETATM   15  O1  UNL     1      51.180  -8.361  29.990  1.00  0.00    -0.265 OA
BRANCH  15  16
HETATM   16  N8  UNL     1      50.692  -8.288  28.742  1.00  0.00    -0.309 N 
ATOM     17  H82 UNL     1      49.705  -8.226  28.491  1.00  0.00     0.184 HD
ATOM     18  H81 UNL     1      51.490  -8.305  28.108  1.00  0.00     0.184 HD
ENDBRANCH  15  16
ENDBRANCH  14  15
ENDBRANCH  13  14
BRANCH   1  19
HETATM   19  N1  UNL     1      55.954 -12.804  28.331  1.00  0.00    -0.232 N 
ATOM     20  H12 UNL     1      56.417 -11.961  27.990  1.00  0.00     0.174 HD
ATOM     21  H11 UNL     1      56.453 -13.694  28.347  1.00  0.00     0.174 HD
ENDBRANCH   1  19
TORSDOF 4
ENDMDL
