MODEL 1
REMARK VINA RESULT: -6.775816113      0.000      0.000
REMARK  3 active torsions:
REMARK  status: ('A' for Active; 'I' for Inactive)
REMARK    1  A    between atoms: C5_12  and  N4_13 
REMARK    2  A    between atoms: N4_13  and  N5_15 
REMARK    3  A    between atoms: N5_15  and  N6_17 
ROOT
HETATM    1  C1  UNL     1      53.738 -12.780  27.885  1.00  0.00     0.178 C 
HETATM    2  N1  UNL     1      52.936 -11.654  28.278  1.00  0.00    -0.290 N 
HETATM    3  C2  UNL     1      52.373 -11.780  29.499  1.00  0.00     0.202 C 
HETATM    4  N2  UNL     1      51.961 -10.732  30.268  1.00  0.00    -0.316 N 
ATOM      5  H2  UNL     1      51.993 -10.895  31.274  1.00  0.00     0.170 HD
HETATM    6  C3  UNL     1      51.518  -9.518  29.903  1.00  0.00     0.276 C 
HETATM    7  O1  UNL     1      51.029  -8.780  30.825  1.00  0.00    -0.266 OA
HETATM    8  C4  UNL     1      51.544  -8.997  28.630  1.00  0.00     0.142 C 
HETATM    9  N3  UNL     1      50.803  -7.974  28.416  1.00  0.00    -0.392 N 
ATOM     10  H31 UNL     1      50.821  -7.588  27.472  1.00  0.00     0.156 HD
ATOM     11  H32 UNL     1      50.256  -7.633  29.207  1.00  0.00     0.156 HD
HETATM   12  C5  UNL     1      52.290  -9.462  27.548  1.00  0.00     0.168 C 
HETATM   13  N7  UNL     1      52.870 -10.664  27.390  1.00  0.00    -0.280 N 
ATOM     14  H7  UNL     1      53.310 -10.838  26.486  1.00  0.00     0.189 HD
ENDROOT
BRANCH  12  15
HETATM   15  N4  UNL     1      52.439  -8.638  26.590  1.00  0.00    -0.268 N 
ATOM     16  H4  UNL     1      51.930  -8.779  25.717  1.00  0.00     0.190 HD
BRANCH  15  17
HETATM   17  N5  UNL     1      53.296  -7.543  26.725  1.00  0.00    -0.248 N 
ATOM     18  H5  UNL     1      53.111  -6.688  26.200  1.00  0.00     0.207 HD
BRANCH  17  19
HETATM   19  N6  UNL     1      54.405  -7.607  27.571  1.00  0.00    -0.331 N 
ATOM     20  H62 UNL     1      54.671  -6.773  28.095  1.00  0.00     0.178 HD
ATOM     21  H61 UNL     1      54.937  -8.473  27.664  1.00  0.00     0.178 HD
ENDBRANCH  17  19
ENDBRANCH  15  17
ENDBRANCH  12  15
TORSDOF 3
ENDMDL
MODEL 2
REMARK VINA RESULT: -6.629664903      2.447      3.140
REMARK  3 active torsions:
REMARK  status: ('A' for Active; 'I' for Inactive)
REMARK    1  A    between atoms: C5_12  and  N4_13 
REMARK    2  A    between atoms: N4_13  and  N5_15 
REMARK    3  A    between atoms: N5_15  and  N6_17 
ROOT
HETATM    1  C1  UNL     1      56.661 -12.330  30.255  1.00  0.00     0.178 C 
HETATM    2  N1  UNL     1      55.377 -12.247  29.613  1.00  0.00    -0.290 N 
HETATM    3  C2  UNL     1      54.849 -13.444  29.283  1.00  0.00     0.202 C 
HETATM    4  N2  UNL     1      53.519 -13.671  29.088  1.00  0.00    -0.316 N 
ATOM      5  H2  UNL     1      53.207 -14.619  29.299  1.00  0.00     0.170 HD
HETATM    6  C3  UNL     1      52.558 -12.838  28.660  1.00  0.00     0.276 C 
HETATM    7  O1  UNL     1      51.418 -13.355  28.400  1.00  0.00    -0.266 OA
HETATM    8  C4  UNL     1      52.686 -11.480  28.478  1.00  0.00     0.142 C 
HETATM    9  N3  UNL     1      51.780 -10.909  27.774  1.00  0.00    -0.392 N 
ATOM     10  H31 UNL     1      51.876  -9.903  27.639  1.00  0.00     0.156 HD
ATOM     11  H32 UNL     1      51.041 -11.510  27.408  1.00  0.00     0.156 HD
HETATM   12  C5  UNL     1      53.696 -10.659  28.977  1.00  0.00     0.168 C 
HETATM   13  N7  UNL     1      54.906 -11.013  29.442  1.00  0.00    -0.280 N 
ATOM     14  H7  UNL     1      55.534 -10.250  29.692  1.00  0.00     0.189 HD
ENDROOT
BRANCH  12  15
HETATM   15  N4  UNL     1      53.432  -9.414  28.994  1.00  0.00    -0.268 N 
ATOM     16  H4  UNL     1      52.607  -9.077  29.489  1.00  0.00     0.190 HD
BRANCH  15  17
HETATM   17  N5  UNL     1      54.266  -8.505  28.337  1.00  0.00    -0.248 N 
ATOM     18  H5  UNL     1      55.278  -8.585  28.436  1.00  0.00     0.207 HD
BRANCH  17  19
HETATM   19  N6  UNL     1      53.727  -7.489  27.545  1.00  0.00    -0.331 N 
ATOM     20  H62 UNL     1      52.751  -7.226  27.683  1.00  0.00     0.178 HD
ATOM     21  H61 UNL     1      54.299  -7.019  26.843  1.00  0.00     0.178 HD
ENDBRANCH  17  19
ENDBRANCH  15  17
ENDBRANCH  12  15
TORSDOF 3
ENDMDL
MODEL 3
REMARK VINA RESULT: -6.446221611      2.720      3.661
REMARK  3 active torsions:
REMARK  status: ('A' for Active; 'I' for Inactive)
REMARK    1  A    between atoms: C5_12  and  N4_13 
REMARK    2  A    between atoms: N4_13  and  N5_15 
REMARK    3  A    between atoms: N5_15  and  N6_17 
ROOT
HETATM    1  C1  UNL     1      56.677 -12.523  30.428  1.00  0.00     0.178 C 
HETATM    2  N1  UNL     1      55.475 -12.522  29.639  1.00  0.00    -0.290 N 
HETATM    3  C2  UNL     1      55.042 -13.754  29.296  1.00  0.00     0.202 C 
HETATM    4  N2  UNL     1      53.755 -14.050  28.957  1.00  0.00    -0.316 N 
ATOM      5  H2  UNL     1      53.461 -15.004  29.166  1.00  0.00     0.170 HD
HETATM    6  C3  UNL     1      52.815 -13.278  28.390  1.00  0.00     0.276 C 
HETATM    7  O1  UNL     1      51.738 -13.857  28.019  1.00  0.00    -0.266 OA
HETATM    8  C4  UNL     1      52.905 -11.922  28.171  1.00  0.00     0.142 C 
HETATM    9  N3  UNL     1      52.064 -11.419  27.347  1.00  0.00    -0.392 N 
ATOM     10  H31 UNL     1      52.131 -10.414  27.185  1.00  0.00     0.156 HD
ATOM     11  H32 UNL     1      51.400 -12.066  26.921  1.00  0.00     0.156 HD
HETATM   12  C5  UNL     1      53.813 -11.038  28.753  1.00  0.00     0.168 C 
HETATM   13  N7  UNL     1      54.974 -11.319  29.368  1.00  0.00    -0.280 N 
ATOM     14  H7  UNL     1      55.535 -10.519  29.660  1.00  0.00     0.189 HD
ENDROOT
BRANCH  12  15
HETATM   15  N4  UNL     1      53.495  -9.808  28.691  1.00  0.00    -0.268 N 
ATOM     16  H4  UNL     1      53.457  -9.339  27.786  1.00  0.00     0.190 HD
BRANCH  15  17
HETATM   17  N5  UNL     1      53.200  -9.093  29.856  1.00  0.00    -0.248 N 
ATOM     18  H5  UNL     1      53.811  -9.176  30.668  1.00  0.00     0.207 HD
BRANCH  17  19
HETATM   19  N6  UNL     1      52.075  -8.268  29.918  1.00  0.00    -0.331 N 
ATOM     20  H62 UNL     1      51.407  -8.292  29.148  1.00  0.00     0.178 HD
ATOM     21  H61 UNL     1      51.926  -7.653  30.718  1.00  0.00     0.178 HD
ENDBRANCH  17  19
ENDBRANCH  15  17
ENDBRANCH  12  15
TORSDOF 3
ENDMDL
MODEL 4
REMARK VINA RESULT: -6.256744476      1.552      3.654
REMARK  3 active torsions:
REMARK  status: ('A' for Active; 'I' for Inactive)
REMARK    1  A    between atoms: C5_12  and  N4_13 
REMARK    2  A    between atoms: N4_13  and  N5_15 
REMARK    3  A    between atoms: N5_15  and  N6_17 
ROOT
HETATM    1  C1  UNL     1      52.479  -7.441  25.502  1.00  0.00     0.178 C 
HETATM    2  N1  UNL     1      52.376  -8.083  26.783  1.00  0.00    -0.290 N 
HETATM    3  C2  UNL     1      52.575  -7.255  27.831  1.00  0.00     0.202 C 
HETATM    4  N2  UNL     1      52.114  -7.487  29.093  1.00  0.00    -0.316 N 
ATOM      5  H2  UNL     1      51.921  -6.650  29.643  1.00  0.00     0.170 HD
HETATM    6  C3  UNL     1      51.876  -8.648  29.723  1.00  0.00     0.276 C 
HETATM    7  O1  UNL     1      51.610  -8.584  30.971  1.00  0.00    -0.266 OA
HETATM    8  C4  UNL     1      51.892  -9.898  29.149  1.00  0.00     0.142 C 
HETATM    9  N3  UNL     1      51.957 -10.895  29.950  1.00  0.00    -0.392 N 
ATOM     10  H31 UNL     1      51.969 -11.821  29.524  1.00  0.00     0.156 HD
ATOM     11  H32 UNL     1      51.992 -10.677  30.947  1.00  0.00     0.156 HD
HETATM   12  C5  UNL     1      51.845 -10.196  27.788  1.00  0.00     0.168 C 
HETATM   13  N7  UNL     1      52.103  -9.386  26.746  1.00  0.00    -0.280 N 
ATOM     14  H7  UNL     1      52.088  -9.819  25.823  1.00  0.00     0.189 HD
ENDROOT
BRANCH  12  15
HETATM   15  N4  UNL     1      51.513 -11.390  27.499  1.00  0.00    -0.268 N 
ATOM     16  H4  UNL     1      50.570 -11.719  27.708  1.00  0.00     0.190 HD
BRANCH  15  17
HETATM   17  N5  UNL     1      52.432 -12.254  26.896  1.00  0.00    -0.248 N 
ATOM     18  H5  UNL     1      52.851 -12.002  26.002  1.00  0.00     0.207 HD
BRANCH  17  19
HETATM   19  N6  UNL     1      52.781 -13.459  27.509  1.00  0.00    -0.331 N 
ATOM     20  H62 UNL     1      52.121 -14.237  27.473  1.00  0.00     0.178 HD
ATOM     21  H61 UNL     1      53.679 -13.560  27.983  1.00  0.00     0.178 HD
ENDBRANCH  17  19
ENDBRANCH  15  17
ENDBRANCH  12  15
TORSDOF 3
ENDMDL
MODEL 5
REMARK VINA RESULT: -6.128084018      1.556      3.554
REMARK  3 active torsions:
REMARK  status: ('A' for Active; 'I' for Inactive)
REMARK    1  A    between atoms: C5_12  and  N4_13 
REMARK    2  A    between atoms: N4_13  and  N5_15 
REMARK    3  A    between atoms: N5_15  and  N6_17 
ROOT
HETATM    1  C1  UNL     1      52.513  -7.436  25.637  1.00  0.00     0.178 C 
HETATM    2  N1  UNL     1      52.260  -7.915  26.968  1.00  0.00    -0.290 N 
HETATM    3  C2  UNL     1      51.186  -7.350  27.560  1.00  0.00     0.202 C 
HETATM    4  N2  UNL     1      50.489  -7.915  28.587  1.00  0.00    -0.316 N 
ATOM      5  H2  UNL     1      49.503  -7.658  28.632  1.00  0.00     0.170 HD
HETATM    6  C3  UNL     1      50.902  -8.756  29.548  1.00  0.00     0.276 C 
HETATM    7  O1  UNL     1      50.079  -8.998  30.496  1.00  0.00    -0.266 OA
HETATM    8  C4  UNL     1      52.126  -9.380  29.606  1.00  0.00     0.142 C 
HETATM    9  N3  UNL     1      52.459  -9.885  30.735  1.00  0.00    -0.392 N 
ATOM     10  H31 UNL     1      53.367 -10.347  30.778  1.00  0.00     0.156 HD
ATOM     11  H32 UNL     1      51.787  -9.780  31.497  1.00  0.00     0.156 HD
HETATM   12  C5  UNL     1      53.044  -9.523  28.566  1.00  0.00     0.168 C 
HETATM   13  N7  UNL     1      53.114  -8.834  27.414  1.00  0.00    -0.280 N 
ATOM     14  H7  UNL     1      53.913  -9.039  26.814  1.00  0.00     0.189 HD
ENDROOT
BRANCH  12  15
HETATM   15  N4  UNL     1      53.927 -10.424  28.734  1.00  0.00    -0.268 N 
ATOM     16  H4  UNL     1      54.717 -10.250  29.356  1.00  0.00     0.190 HD
BRANCH  15  17
HETATM   17  N5  UNL     1      53.822 -11.650  28.071  1.00  0.00    -0.248 N 
ATOM     18  H5  UNL     1      53.025 -11.827  27.459  1.00  0.00     0.207 HD
BRANCH  17  19
HETATM   19  N6  UNL     1      54.797 -12.635  28.239  1.00  0.00    -0.331 N 
ATOM     20  H62 UNL     1      55.496 -12.763  27.506  1.00  0.00     0.178 HD
ATOM     21  H61 UNL     1      54.811 -13.214  29.078  1.00  0.00     0.178 HD
ENDBRANCH  17  19
ENDBRANCH  15  17
ENDBRANCH  12  15
TORSDOF 3
ENDMDL
