MODEL 1
REMARK VINA RESULT: -7.113162759      0.000      0.000
REMARK  10 active torsions:
REMARK  status: ('A' for Active; 'I' for Inactive)
REMARK    1  A    between atoms: C2_2  and  O1_5 
REMARK    2  A    between atoms: O1_5  and  C5_6 
REMARK       I    between atoms: C5_6  and  N1_8 
REMARK    3  A    between atoms: N1_8  and  C6_10 
REMARK    4  A    between atoms: C6_10  and  C7_11 
REMARK    5  A    between atoms: C7_11  and  N2_13 
REMARK    6  A    between atoms: C7_11  and  C14_22 
REMARK       I    between atoms: N2_13  and  C9_15 
REMARK    7  A    between atoms: C9_15  and  O4_17 
REMARK    8  A    between atoms: O4_17  and  C10_18 
REMARK    9  A    between atoms: C14_22  and  O6_24 
REMARK   10  A    between atoms: O6_24  and  C15_25 
ROOT
HETATM    1  C7  UNL     1       6.303  11.119  15.527  1.00  0.00     0.151 C 
HETATM    2  C8  UNL     1       5.612  11.438  14.265  1.00  0.00     0.056 C 
ENDROOT
BRANCH   1   3
HETATM    3  C6  UNL     1       6.380  12.143  16.549  1.00  0.00     0.107 C 
BRANCH   3   4
HETATM    4  N1  UNL     1       6.941  11.915  17.810  1.00  0.00    -0.314 N 
HETATM    5  C5  UNL     1       8.191  11.494  18.264  1.00  0.00     0.365 C 
HETATM    6  O2  UNL     1       9.142  11.202  17.534  1.00  0.00    -0.238 OA
ATOM      7  H1  UNL     1       6.286  12.099  18.571  1.00  0.00     0.170 HD
BRANCH   5   8
HETATM    8  O1  UNL     1       8.402  11.392  19.640  1.00  0.00    -0.294 OA
BRANCH   8   9
HETATM    9  C2  UNL     1       9.532  11.418  20.408  1.00  0.00     0.061 C 
HETATM   10  C1  UNL     1       9.206  11.304  21.898  1.00  0.00     0.046 C 
HETATM   11  C3  UNL     1      10.542  10.382  20.026  1.00  0.00     0.046 C 
HETATM   12  C4  UNL     1      10.164  12.809  20.210  1.00  0.00     0.046 C 
ENDBRANCH   8   9
ENDBRANCH   5   8
ENDBRANCH   3   4
ENDBRANCH   1   3
BRANCH   1  13
HETATM   13  N2  UNL     1       7.793  11.103  14.980  1.00  0.00    -0.314 N 
HETATM   14  C9  UNL     1       8.232  12.329  14.510  1.00  0.00     0.362 C 
HETATM   15  O3  UNL     1       7.574  13.410  14.479  1.00  0.00    -0.238 OA
ATOM     16  H2  UNL     1       8.376  10.266  14.975  1.00  0.00     0.166 HD
BRANCH  14  17
HETATM   17  O4  UNL     1       9.534  12.426  14.003  1.00  0.00    -0.294 OA
BRANCH  17  18
HETATM   18  C10 UNL     1      10.564  13.141  14.582  1.00  0.00     0.061 C 
HETATM   19  C11 UNL     1      10.663  14.473  13.816  1.00  0.00     0.046 C 
HETATM   20  C12 UNL     1      10.451  13.449  16.031  1.00  0.00     0.046 C 
HETATM   21  C13 UNL     1      11.922  12.449  14.349  1.00  0.00     0.046 C 
ENDBRANCH  17  18
ENDBRANCH  14  17
ENDBRANCH   1  13
BRANCH   1  22
HETATM   22  C14 UNL     1       6.209   9.718  15.943  1.00  0.00     0.293 C 
HETATM   23  O5  UNL     1       5.716   9.267  16.992  1.00  0.00    -0.262 OA
BRANCH  22  24
HETATM   24  O6  UNL     1       6.729   8.711  15.156  1.00  0.00    -0.304 OA
BRANCH  24  25
HETATM   25  C15 UNL     1       6.300   7.719  14.395  1.00  0.00     0.114 C 
HETATM   26  C16 UNL     1       5.613   6.677  15.350  1.00  0.00     0.053 C 
HETATM   27  C17 UNL     1       5.805   5.403  14.654  1.00  0.00     0.065 C 
HETATM   28  C18 UNL     1       5.143   5.480  13.308  1.00  0.00     0.019 C 
HETATM   29  C22 UNL     1       7.285   5.553  14.229  1.00  0.00     0.286 C 
HETATM   30  C19 UNL     1       5.893   6.632  12.687  1.00  0.00     0.038 C 
HETATM   31  C20 UNL     1       5.370   7.940  13.240  1.00  0.00     0.050 C 
HETATM   32  C21 UNL     1       7.137   6.868  13.515  1.00  0.00     0.204 C 
HETATM   33  F1  UNL     1       8.200   7.374  12.887  1.00  0.00    -0.233 F 
HETATM   34  F2  UNL     1       8.063   5.687  15.371  1.00  0.00    -0.202 F 
HETATM   35  F3  UNL     1       7.645   4.508  13.436  1.00  0.00    -0.202 F 
ENDBRANCH  24  25
ENDBRANCH  22  24
ENDBRANCH   1  22
TORSDOF 10
ENDMDL
MODEL 2
REMARK VINA RESULT: -7.019740072      2.615      6.730
REMARK  10 active torsions:
REMARK  status: ('A' for Active; 'I' for Inactive)
REMARK    1  A    between atoms: C2_2  and  O1_5 
REMARK    2  A    between atoms: O1_5  and  C5_6 
REMARK       I    between atoms: C5_6  and  N1_8 
REMARK    3  A    between atoms: N1_8  and  C6_10 
REMARK    4  A    between atoms: C6_10  and  C7_11 
REMARK    5  A    between atoms: C7_11  and  N2_13 
REMARK    6  A    between atoms: C7_11  and  C14_22 
REMARK       I    between atoms: N2_13  and  C9_15 
REMARK    7  A    between atoms: C9_15  and  O4_17 
REMARK    8  A    between atoms: O4_17  and  C10_18 
REMARK    9  A    between atoms: C14_22  and  O6_24 
REMARK   10  A    between atoms: O6_24  and  C15_25 
ROOT
HETATM    1  C7  UNL     1       6.549  11.468  16.237  1.00  0.00     0.151 C 
HETATM    2  C8  UNL     1       6.422  12.776  16.903  1.00  0.00     0.056 C 
ENDROOT
BRANCH   1   3
HETATM    3  C6  UNL     1       5.349  10.686  16.019  1.00  0.00     0.107 C 
BRANCH   3   4
HETATM    4  N1  UNL     1       5.376   9.379  15.522  1.00  0.00    -0.314 N 
HETATM    5  C5  UNL     1       5.349   8.110  16.101  1.00  0.00     0.365 C 
HETATM    6  O2  UNL     1       5.299   7.892  17.315  1.00  0.00    -0.238 OA
ATOM      7  H1  UNL     1       5.427   9.346  14.503  1.00  0.00     0.170 HD
BRANCH   5   8
HETATM    8  O1  UNL     1       5.376   6.993  15.265  1.00  0.00    -0.294 OA
BRANCH   8   9
HETATM    9  C2  UNL     1       6.397   6.302  14.676  1.00  0.00     0.061 C 
HETATM   10  C1  UNL     1       6.882   6.987  13.398  1.00  0.00     0.046 C 
HETATM   11  C3  UNL     1       7.556   6.046  15.588  1.00  0.00     0.046 C 
HETATM   12  C4  UNL     1       5.813   4.944  14.242  1.00  0.00     0.046 C 
ENDBRANCH   8   9
ENDBRANCH   5   8
ENDBRANCH   3   4
ENDBRANCH   1   3
BRANCH   1  13
HETATM   13  N2  UNL     1       7.238  10.668  17.422  1.00  0.00    -0.314 N 
HETATM   14  C9  UNL     1       7.831  11.477  18.376  1.00  0.00     0.362 C 
HETATM   15  O3  UNL     1       7.868  12.743  18.382  1.00  0.00    -0.238 OA
ATOM     16  H2  UNL     1       7.244   9.650  17.477  1.00  0.00     0.166 HD
BRANCH  14  17
HETATM   17  O4  UNL     1       8.469  10.871  19.466  1.00  0.00    -0.294 OA
BRANCH  17  18
HETATM   18  C10 UNL     1       9.640  11.312  20.050  1.00  0.00     0.061 C 
HETATM   19  C11 UNL     1      10.793  10.587  19.333  1.00  0.00     0.046 C 
HETATM   20  C12 UNL     1       9.917  12.772  20.010  1.00  0.00     0.046 C 
HETATM   21  C13 UNL     1       9.736  10.853  21.519  1.00  0.00     0.046 C 
ENDBRANCH  17  18
ENDBRANCH  14  17
ENDBRANCH   1  13
BRANCH   1  22
HETATM   22  C14 UNL     1       7.632  11.380  15.256  1.00  0.00     0.293 C 
HETATM   23  O5  UNL     1       7.556  11.018  14.068  1.00  0.00    -0.262 OA
BRANCH  22  24
HETATM   24  O6  UNL     1       8.931  11.685  15.608  1.00  0.00    -0.304 OA
BRANCH  24  25
HETATM   25  C15 UNL     1       9.928  12.440  15.180  1.00  0.00     0.114 C 
HETATM   26  C16 UNL     1      10.774  11.559  14.191  1.00  0.00     0.053 C 
HETATM   27  C17 UNL     1      12.123  12.113  14.315  1.00  0.00     0.065 C 
HETATM   28  C18 UNL     1      12.092  13.561  13.918  1.00  0.00     0.019 C 
HETATM   29  C22 UNL     1      12.209  12.262  15.852  1.00  0.00     0.286 C 
HETATM   30  C19 UNL     1      11.114  14.112  14.925  1.00  0.00     0.038 C 
HETATM   31  C20 UNL     1       9.701  13.762  14.509  1.00  0.00     0.050 C 
HETATM   32  C21 UNL     1      10.962  13.084  16.025  1.00  0.00     0.204 C 
HETATM   33  F1  UNL     1      10.662  13.535  17.245  1.00  0.00    -0.233 F 
HETATM   34  F2  UNL     1      12.068  11.007  16.429  1.00  0.00    -0.202 F 
HETATM   35  F3  UNL     1      13.364  12.896  16.191  1.00  0.00    -0.202 F 
ENDBRANCH  24  25
ENDBRANCH  22  24
ENDBRANCH   1  22
TORSDOF 10
ENDMDL
MODEL 3
REMARK VINA RESULT: -6.914994776      1.107      1.715
REMARK  10 active torsions:
REMARK  status: ('A' for Active; 'I' for Inactive)
REMARK    1  A    between atoms: C2_2  and  O1_5 
REMARK    2  A    between atoms: O1_5  and  C5_6 
REMARK       I    between atoms: C5_6  and  N1_8 
REMARK    3  A    between atoms: N1_8  and  C6_10 
REMARK    4  A    between atoms: C6_10  and  C7_11 
REMARK    5  A    between atoms: C7_11  and  N2_13 
REMARK    6  A    between atoms: C7_11  and  C14_22 
REMARK       I    between atoms: N2_13  and  C9_15 
REMARK    7  A    between atoms: C9_15  and  O4_17 
REMARK    8  A    between atoms: O4_17  and  C10_18 
REMARK    9  A    between atoms: C14_22  and  O6_24 
REMARK   10  A    between atoms: O6_24  and  C15_25 
ROOT
HETATM    1  C7  UNL     1       6.273  11.088  15.439  1.00  0.00     0.151 C 
HETATM    2  C8  UNL     1       5.605  11.454  14.177  1.00  0.00     0.056 C 
ENDROOT
BRANCH   1   3
HETATM    3  C6  UNL     1       6.342  12.078  16.494  1.00  0.00     0.107 C 
BRANCH   3   4
HETATM    4  N1  UNL     1       6.913  11.816  17.744  1.00  0.00    -0.314 N 
HETATM    5  C5  UNL     1       8.183  11.435  18.181  1.00  0.00     0.365 C 
HETATM    6  O2  UNL     1       9.148  11.229  17.440  1.00  0.00    -0.238 OA
ATOM      7  H1  UNL     1       6.250  11.928  18.511  1.00  0.00     0.170 HD
BRANCH   5   8
HETATM    8  O1  UNL     1       8.398  11.275  19.550  1.00  0.00    -0.294 OA
BRANCH   8   9
HETATM    9  C2  UNL     1       9.522  11.335  20.325  1.00  0.00     0.061 C 
HETATM   10  C1  UNL     1       9.187  11.274  21.816  1.00  0.00     0.046 C 
HETATM   11  C3  UNL     1      10.540  10.290  19.988  1.00  0.00     0.046 C 
HETATM   12  C4  UNL     1      10.150  12.720  20.079  1.00  0.00     0.046 C 
ENDBRANCH   8   9
ENDBRANCH   5   8
ENDBRANCH   3   4
ENDBRANCH   1   3
BRANCH   1  13
HETATM   13  N2  UNL     1       7.771  11.076  14.916  1.00  0.00    -0.314 N 
HETATM   14  C9  UNL     1       8.222  12.308  14.474  1.00  0.00     0.362 C 
HETATM   15  O3  UNL     1       7.569  13.393  14.454  1.00  0.00    -0.238 OA
ATOM     16  H2  UNL     1       8.350  10.236  14.905  1.00  0.00     0.166 HD
BRANCH  14  17
HETATM   17  O4  UNL     1       9.532  12.408  13.990  1.00  0.00    -0.294 OA
BRANCH  17  18
HETATM   18  C10 UNL     1      10.548  13.134  14.581  1.00  0.00     0.061 C 
HETATM   19  C11 UNL     1      10.651  14.462  13.809  1.00  0.00     0.046 C 
HETATM   20  C12 UNL     1      10.410  13.449  16.027  1.00  0.00     0.046 C 
HETATM   21  C13 UNL     1      11.914  12.449  14.375  1.00  0.00     0.046 C 
ENDBRANCH  17  18
ENDBRANCH  14  17
ENDBRANCH   1  13
BRANCH   1  22
HETATM   22  C14 UNL     1       6.159   9.676  15.809  1.00  0.00     0.293 C 
HETATM   23  O5  UNL     1       5.839   9.201  16.913  1.00  0.00    -0.262 OA
BRANCH  22  24
HETATM   24  O6  UNL     1       6.453   8.682  14.898  1.00  0.00    -0.304 OA
BRANCH  24  25
HETATM   25  C15 UNL     1       6.733   7.390  14.889  1.00  0.00     0.114 C 
HETATM   26  C16 UNL     1       7.406   7.079  13.504  1.00  0.00     0.053 C 
HETATM   27  C17 UNL     1       7.052   5.680  13.262  1.00  0.00     0.065 C 
HETATM   28  C18 UNL     1       7.605   4.839  14.376  1.00  0.00     0.019 C 
HETATM   29  C22 UNL     1       5.560   5.709  13.669  1.00  0.00     0.286 C 
HETATM   30  C19 UNL     1       6.906   5.446  15.567  1.00  0.00     0.038 C 
HETATM   31  C20 UNL     1       7.580   6.747  15.946  1.00  0.00     0.050 C 
HETATM   32  C21 UNL     1       5.758   6.283  15.045  1.00  0.00     0.204 C 
HETATM   33  F1  UNL     1       4.693   6.419  15.837  1.00  0.00    -0.233 F 
HETATM   34  F2  UNL     1       4.892   6.604  12.844  1.00  0.00    -0.202 F 
HETATM   35  F3  UNL     1       5.049   4.449  13.643  1.00  0.00    -0.202 F 
ENDBRANCH  24  25
ENDBRANCH  22  24
ENDBRANCH   1  22
TORSDOF 10
ENDMDL
MODEL 4
REMARK VINA RESULT: -6.539456560      3.667      6.129
REMARK  10 active torsions:
REMARK  status: ('A' for Active; 'I' for Inactive)
REMARK    1  A    between atoms: C2_2  and  O1_5 
REMARK    2  A    between atoms: O1_5  and  C5_6 
REMARK       I    between atoms: C5_6  and  N1_8 
REMARK    3  A    between atoms: N1_8  and  C6_10 
REMARK    4  A    between atoms: C6_10  and  C7_11 
REMARK    5  A    between atoms: C7_11  and  N2_13 
REMARK    6  A    between atoms: C7_11  and  C14_22 
REMARK       I    between atoms: N2_13  and  C9_15 
REMARK    7  A    between atoms: C9_15  and  O4_17 
REMARK    8  A    between atoms: O4_17  and  C10_18 
REMARK    9  A    between atoms: C14_22  and  O6_24 
REMARK   10  A    between atoms: O6_24  and  C15_25 
ROOT
HETATM    1  C7  UNL     1       9.485  11.337  19.656  1.00  0.00     0.151 C 
HETATM    2  C8  UNL     1       9.442  10.984  21.086  1.00  0.00     0.056 C 
ENDROOT
BRANCH   1   3
HETATM    3  C6  UNL     1      10.739  11.190  18.947  1.00  0.00     0.107 C 
BRANCH   3   4
HETATM    4  N1  UNL     1      11.092  11.991  17.855  1.00  0.00    -0.314 N 
HETATM    5  C5  UNL     1      11.914  11.822  16.741  1.00  0.00     0.365 C 
HETATM    6  O2  UNL     1      12.566  10.803  16.497  1.00  0.00    -0.238 OA
ATOM      7  H1  UNL     1      10.647  12.909  17.880  1.00  0.00     0.170 HD
BRANCH   5   8
HETATM    8  O1  UNL     1      12.018  12.867  15.822  1.00  0.00    -0.294 OA
BRANCH   8   9
HETATM    9  C2  UNL     1      11.696  12.972  14.498  1.00  0.00     0.061 C 
HETATM   10  C1  UNL     1      10.736  11.865  14.059  1.00  0.00     0.046 C 
HETATM   11  C3  UNL     1      11.140  14.309  14.119  1.00  0.00     0.046 C 
HETATM   12  C4  UNL     1      13.001  12.749  13.711  1.00  0.00     0.046 C 
ENDBRANCH   8   9
ENDBRANCH   5   8
ENDBRANCH   3   4
ENDBRANCH   1   3
BRANCH   1  13
HETATM   13  N2  UNL     1       9.386  12.915  19.802  1.00  0.00    -0.314 N 
HETATM   14  C9  UNL     1       9.894  13.402  20.994  1.00  0.00     0.362 C 
HETATM   15  O3  UNL     1      10.406  12.726  21.934  1.00  0.00    -0.238 OA
ATOM     16  H2  UNL     1       8.985  13.517  19.082  1.00  0.00     0.166 HD
BRANCH  14  17
HETATM   17  O4  UNL     1       9.855  14.783  21.225  1.00  0.00    -0.294 OA
BRANCH  17  18
HETATM   18  C10 UNL     1      10.565  15.731  20.514  1.00  0.00     0.061 C 
HETATM   19  C11 UNL     1       9.558  16.820  20.101  1.00  0.00     0.046 C 
HETATM   20  C12 UNL     1      11.703  16.393  21.204  1.00  0.00     0.046 C 
HETATM   21  C13 UNL     1      11.090  15.152  19.185  1.00  0.00     0.046 C 
ENDBRANCH  17  18
ENDBRANCH  14  17
ENDBRANCH   1  13
BRANCH   1  22
HETATM   22  C14 UNL     1       8.236  11.107  18.928  1.00  0.00     0.293 C 
HETATM   23  O5  UNL     1       7.126  10.801  19.399  1.00  0.00    -0.262 OA
BRANCH  22  24
HETATM   24  O6  UNL     1       8.195  11.187  17.551  1.00  0.00    -0.304 OA
BRANCH  24  25
HETATM   25  C15 UNL     1       7.303  11.146  16.576  1.00  0.00     0.114 C 
HETATM   26  C16 UNL     1       8.092  10.856  15.249  1.00  0.00     0.053 C 
HETATM   27  C17 UNL     1       7.268  11.494  14.220  1.00  0.00     0.065 C 
HETATM   28  C18 UNL     1       5.904  10.867  14.232  1.00  0.00     0.019 C 
HETATM   29  C22 UNL     1       6.949  12.832  14.927  1.00  0.00     0.286 C 
HETATM   30  C19 UNL     1       5.461  11.172  15.641  1.00  0.00     0.038 C 
HETATM   31  C20 UNL     1       6.129  10.214  16.605  1.00  0.00     0.050 C 
HETATM   32  C21 UNL     1       6.382  12.241  16.188  1.00  0.00     0.204 C 
HETATM   33  F1  UNL     1       5.879  13.067  17.108  1.00  0.00    -0.233 F 
HETATM   34  F2  UNL     1       8.143  13.498  15.177  1.00  0.00    -0.202 F 
HETATM   35  F3  UNL     1       6.065  13.549  14.183  1.00  0.00    -0.202 F 
ENDBRANCH  24  25
ENDBRANCH  22  24
ENDBRANCH   1  22
TORSDOF 10
ENDMDL
MODEL 5
REMARK VINA RESULT: -6.537429124      1.063      1.572
REMARK  10 active torsions:
REMARK  status: ('A' for Active; 'I' for Inactive)
REMARK    1  A    between atoms: C2_2  and  O1_5 
REMARK    2  A    between atoms: O1_5  and  C5_6 
REMARK       I    between atoms: C5_6  and  N1_8 
REMARK    3  A    between atoms: N1_8  and  C6_10 
REMARK    4  A    between atoms: C6_10  and  C7_11 
REMARK    5  A    between atoms: C7_11  and  N2_13 
REMARK    6  A    between atoms: C7_11  and  C14_22 
REMARK       I    between atoms: N2_13  and  C9_15 
REMARK    7  A    between atoms: C9_15  and  O4_17 
REMARK    8  A    between atoms: O4_17  and  C10_18 
REMARK    9  A    between atoms: C14_22  and  O6_24 
REMARK   10  A    between atoms: O6_24  and  C15_25 
ROOT
HETATM    1  C7  UNL     1       6.875  11.275  16.374  1.00  0.00     0.151 C 
HETATM    2  C8  UNL     1       6.464  12.690  16.351  1.00  0.00     0.056 C 
ENDROOT
BRANCH   1   3
HETATM    3  C6  UNL     1       7.264  10.692  17.642  1.00  0.00     0.107 C 
BRANCH   3   4
HETATM    4  N1  UNL     1       7.989  11.395  18.609  1.00  0.00    -0.314 N 
HETATM    5  C5  UNL     1       9.342  11.671  18.812  1.00  0.00     0.365 C 
HETATM    6  O2  UNL     1      10.256  11.282  18.078  1.00  0.00    -0.238 OA
ATOM      7  H1  UNL     1       7.393  11.798  19.332  1.00  0.00     0.170 HD
BRANCH   5   8
HETATM    8  O1  UNL     1       9.709  12.442  19.915  1.00  0.00    -0.294 OA
BRANCH   8   9
HETATM    9  C2  UNL     1       9.898  13.785  20.085  1.00  0.00     0.061 C 
HETATM   10  C1  UNL     1      11.142  14.281  19.346  1.00  0.00     0.046 C 
HETATM   11  C3  UNL     1       8.712  14.612  19.697  1.00  0.00     0.046 C 
HETATM   12  C4  UNL     1      10.171  14.002  21.585  1.00  0.00     0.046 C 
ENDBRANCH   8   9
ENDBRANCH   5   8
ENDBRANCH   3   4
ENDBRANCH   1   3
BRANCH   1  13
HETATM   13  N2  UNL     1       8.280  11.429  15.651  1.00  0.00    -0.314 N 
HETATM   14  C9  UNL     1       8.313  12.427  14.692  1.00  0.00     0.362 C 
HETATM   15  O3  UNL     1       7.359  13.190  14.358  1.00  0.00    -0.238 OA
ATOM     16  H2  UNL     1       9.087  10.846  15.873  1.00  0.00     0.166 HD
BRANCH  14  17
HETATM   17  O4  UNL     1       9.506  12.646  13.993  1.00  0.00    -0.294 OA
BRANCH  17  18
HETATM   18  C10 UNL     1      10.592  13.355  14.469  1.00  0.00     0.061 C 
HETATM   19  C11 UNL     1      10.678  14.646  13.636  1.00  0.00     0.046 C 
HETATM   20  C12 UNL     1      10.583  13.732  15.907  1.00  0.00     0.046 C 
HETATM   21  C13 UNL     1      11.911  12.610  14.185  1.00  0.00     0.046 C 
ENDBRANCH  17  18
ENDBRANCH  14  17
ENDBRANCH   1  13
BRANCH   1  22
HETATM   22  C14 UNL     1       6.212  10.426  15.384  1.00  0.00     0.293 C 
HETATM   23  O5  UNL     1       5.191  10.682  14.722  1.00  0.00    -0.262 OA
BRANCH  22  24
HETATM   24  O6  UNL     1       6.687   9.160  15.108  1.00  0.00    -0.304 OA
BRANCH  24  25
HETATM   25  C15 UNL     1       6.302   8.068  14.470  1.00  0.00     0.114 C 
HETATM   26  C16 UNL     1       5.587   7.151  15.527  1.00  0.00     0.053 C 
HETATM   27  C17 UNL     1       5.822   5.799  15.016  1.00  0.00     0.065 C 
HETATM   28  C18 UNL     1       5.216   5.686  13.646  1.00  0.00     0.019 C 
HETATM   29  C22 UNL     1       7.317   5.916  14.634  1.00  0.00     0.286 C 
HETATM   30  C19 UNL     1       5.978   6.757  12.907  1.00  0.00     0.038 C 
HETATM   31  C20 UNL     1       5.418   8.118  13.259  1.00  0.00     0.050 C 
HETATM   32  C21 UNL     1       7.184   7.122  13.745  1.00  0.00     0.204 C 
HETATM   33  F1  UNL     1       8.267   7.558  13.099  1.00  0.00    -0.233 F 
HETATM   34  F2  UNL     1       8.045   6.213  15.778  1.00  0.00    -0.202 F 
HETATM   35  F3  UNL     1       7.722   4.781  14.002  1.00  0.00    -0.202 F 
ENDBRANCH  24  25
ENDBRANCH  22  24
ENDBRANCH   1  22
TORSDOF 10
ENDMDL
