MODEL 1
REMARK VINA RESULT: -5.872937642      0.000      0.000
REMARK  3 active torsions:
REMARK  status: ('A' for Active; 'I' for Inactive)
REMARK    1  A    between atoms: N1_2  and  C3_4 
REMARK    2  A    between atoms: C4_7  and  N3_8 
REMARK    3  A    between atoms: N5_14  and  N6_16 
ROOT
HETATM    1  C3  UNL     1     -13.419 -27.549 -26.317  1.00  0.00     0.708 A 
HETATM    2  N2  UNL     1     -13.403 -28.100 -27.533  1.00  0.00    -0.022 N 
ATOM      3  H2  UNL     1     -14.263 -28.091 -28.081  1.00  0.00     0.203 HD
HETATM    4  C4  UNL     1     -12.308 -28.667 -28.070  1.00  0.00     0.705 A 
HETATM    5  N4  UNL     1     -11.160 -28.696 -27.372  1.00  0.00    -0.020 N 
ATOM      6  H4  UNL     1     -10.322 -29.122 -27.767  1.00  0.00     0.203 HD
HETATM    7  C5  UNL     1     -11.136 -28.151 -26.140  1.00  0.00     0.725 A 
HETATM    8  N5  UNL     1     -10.047 -28.174 -25.457  1.00  0.00    -0.138 N 
ATOM      9  H5  UNL     1      -9.200 -28.599 -25.833  1.00  0.00     0.205 HD
HETATM   10  N7  UNL     1     -12.270 -27.580 -25.622  1.00  0.00    -0.020 N 
ATOM     11  H7  UNL     1     -12.240 -27.169 -24.689  1.00  0.00     0.203 HD
ENDROOT
BRANCH   8  12
HETATM   12  N6  UNL     1     -10.061 -27.602 -24.191  1.00  0.00    -0.331 N 
ATOM     13  H62 UNL     1      -9.769 -28.149 -23.380  1.00  0.00     0.177 HD
ATOM     14  H61 UNL     1     -10.368 -26.634 -24.107  1.00  0.00     0.177 HD
ENDBRANCH   8  12
BRANCH   4  15
HETATM   15  N3  UNL     1     -12.298 -29.190 -29.244  1.00  0.00    -0.234 N 
ATOM     16  H32 UNL     1     -11.678 -28.771 -29.937  1.00  0.00     0.174 HD
ATOM     17  H31 UNL     1     -12.880 -29.988 -29.499  1.00  0.00     0.174 HD
ENDBRANCH   4  15
BRANCH   1  18
HETATM   18  N1  UNL     1     -14.536 -26.947 -25.688  1.00  0.00    -0.225 N 
HETATM   19  C1  UNL     1     -15.866 -27.423 -25.990  1.00  0.00     0.168 C 
HETATM   20  C2  UNL     1     -14.359 -25.856 -24.754  1.00  0.00     0.168 C 
ENDBRANCH   1  18
TORSDOF 3
ENDMDL
MODEL 2
REMARK VINA RESULT: -5.858958957      0.053      1.022
REMARK  3 active torsions:
REMARK  status: ('A' for Active; 'I' for Inactive)
REMARK    1  A    between atoms: N1_2  and  C3_4 
REMARK    2  A    between atoms: C4_7  and  N3_8 
REMARK    3  A    between atoms: N5_14  and  N6_16 
ROOT
HETATM    1  C3  UNL     1     -13.434 -27.578 -26.357  1.00  0.00     0.708 A 
HETATM    2  N2  UNL     1     -13.417 -28.120 -27.577  1.00  0.00    -0.022 N 
ATOM      3  H2  UNL     1     -14.278 -28.109 -28.125  1.00  0.00     0.203 HD
HETATM    4  C4  UNL     1     -12.322 -28.681 -28.119  1.00  0.00     0.705 A 
HETATM    5  N4  UNL     1     -11.173 -28.712 -27.421  1.00  0.00    -0.020 N 
ATOM      6  H4  UNL     1     -10.335 -29.134 -27.819  1.00  0.00     0.203 HD
HETATM    7  C5  UNL     1     -11.150 -28.176 -26.185  1.00  0.00     0.725 A 
HETATM    8  N5  UNL     1     -10.061 -28.202 -25.502  1.00  0.00    -0.138 N 
ATOM      9  H5  UNL     1      -9.213 -28.622 -25.882  1.00  0.00     0.205 HD
HETATM   10  N7  UNL     1     -12.285 -27.611 -25.663  1.00  0.00    -0.020 N 
ATOM     11  H7  UNL     1     -12.255 -27.207 -24.727  1.00  0.00     0.203 HD
ENDROOT
BRANCH   8  12
HETATM   12  N6  UNL     1     -10.075 -27.639 -24.232  1.00  0.00    -0.331 N 
ATOM     13  H62 UNL     1     -10.297 -26.650 -24.114  1.00  0.00     0.177 HD
ATOM     14  H61 UNL     1      -9.860 -28.242 -23.439  1.00  0.00     0.177 HD
ENDBRANCH   8  12
BRANCH   4  15
HETATM   15  N3  UNL     1     -12.311 -29.196 -29.296  1.00  0.00    -0.234 N 
ATOM     16  H32 UNL     1     -12.887 -28.747 -30.008  1.00  0.00     0.174 HD
ATOM     17  H31 UNL     1     -11.761 -30.022 -29.534  1.00  0.00     0.174 HD
ENDBRANCH   4  15
BRANCH   1  18
HETATM   18  N1  UNL     1     -14.552 -26.982 -25.724  1.00  0.00    -0.225 N 
HETATM   19  C1  UNL     1     -14.346 -25.915 -24.771  1.00  0.00     0.168 C 
HETATM   20  C2  UNL     1     -15.895 -27.435 -26.014  1.00  0.00     0.168 C 
ENDBRANCH   1  18
TORSDOF 3
ENDMDL
MODEL 3
REMARK VINA RESULT: -5.760739786      0.714      2.958
REMARK  3 active torsions:
REMARK  status: ('A' for Active; 'I' for Inactive)
REMARK    1  A    between atoms: N1_2  and  C3_4 
REMARK    2  A    between atoms: C4_7  and  N3_8 
REMARK    3  A    between atoms: N5_14  and  N6_16 
ROOT
HETATM    1  C3  UNL     1     -12.919 -27.536 -25.906  1.00  0.00     0.708 A 
HETATM    2  N2  UNL     1     -11.855 -27.577 -25.100  1.00  0.00    -0.022 N 
ATOM      3  H2  UNL     1     -11.923 -27.137 -24.183  1.00  0.00     0.203 HD
HETATM    4  C4  UNL     1     -10.697 -28.170 -25.440  1.00  0.00     0.705 A 
HETATM    5  N4  UNL     1     -10.575 -28.758 -26.643  1.00  0.00    -0.020 N 
ATOM      6  H4  UNL     1      -9.703 -29.211 -26.913  1.00  0.00     0.203 HD
HETATM    7  C5  UNL     1     -11.626 -28.737 -27.484  1.00  0.00     0.725 A 
HETATM    8  N5  UNL     1     -11.525 -29.291 -28.641  1.00  0.00    -0.138 N 
ATOM      9  H5  UNL     1     -10.661 -29.746 -28.931  1.00  0.00     0.205 HD
HETATM   10  N7  UNL     1     -12.793 -28.125 -27.107  1.00  0.00    -0.020 N 
ATOM     11  H7  UNL     1     -13.584 -28.116 -27.751  1.00  0.00     0.203 HD
ENDROOT
BRANCH   8  12
HETATM   12  N6  UNL     1     -12.631 -29.249 -29.481  1.00  0.00    -0.331 N 
ATOM     13  H62 UNL     1     -13.541 -28.968 -29.115  1.00  0.00     0.177 HD
ATOM     14  H61 UNL     1     -12.498 -29.506 -30.459  1.00  0.00     0.177 HD
ENDBRANCH   8  12
BRANCH   4  15
HETATM   15  N3  UNL     1      -9.678 -28.211 -24.658  1.00  0.00    -0.234 N 
ATOM     16  H32 UNL     1      -9.792 -28.691 -23.765  1.00  0.00     0.174 HD
ATOM     17  H31 UNL     1      -8.782 -27.784 -24.893  1.00  0.00     0.174 HD
ENDBRANCH   4  15
BRANCH   1  18
HETATM   18  N1  UNL     1     -14.162 -26.921 -25.617  1.00  0.00    -0.225 N 
HETATM   19  C1  UNL     1     -15.380 -27.496 -26.142  1.00  0.00     0.168 C 
HETATM   20  C2  UNL     1     -14.224 -25.723 -24.810  1.00  0.00     0.168 C 
ENDBRANCH   1  18
TORSDOF 3
ENDMDL
MODEL 4
REMARK VINA RESULT: -5.757722663      0.710      3.126
REMARK  3 active torsions:
REMARK  status: ('A' for Active; 'I' for Inactive)
REMARK    1  A    between atoms: N1_2  and  C3_4 
REMARK    2  A    between atoms: C4_7  and  N3_8 
REMARK    3  A    between atoms: N5_14  and  N6_16 
ROOT
HETATM    1  C3  UNL     1     -12.926 -27.536 -25.909  1.00  0.00     0.708 A 
HETATM    2  N2  UNL     1     -11.864 -27.576 -25.100  1.00  0.00    -0.022 N 
ATOM      3  H2  UNL     1     -11.936 -27.136 -24.183  1.00  0.00     0.203 HD
HETATM    4  C4  UNL     1     -10.704 -28.167 -25.437  1.00  0.00     0.705 A 
HETATM    5  N4  UNL     1     -10.579 -28.755 -26.639  1.00  0.00    -0.020 N 
ATOM      6  H4  UNL     1      -9.705 -29.208 -26.907  1.00  0.00     0.203 HD
HETATM    7  C5  UNL     1     -11.627 -28.735 -27.484  1.00  0.00     0.725 A 
HETATM    8  N5  UNL     1     -11.522 -29.289 -28.640  1.00  0.00    -0.138 N 
ATOM      9  H5  UNL     1     -10.656 -29.743 -28.928  1.00  0.00     0.205 HD
HETATM   10  N7  UNL     1     -12.796 -28.125 -27.109  1.00  0.00    -0.020 N 
ATOM     11  H7  UNL     1     -13.584 -28.117 -27.756  1.00  0.00     0.203 HD
ENDROOT
BRANCH   8  12
HETATM   12  N6  UNL     1     -12.625 -29.249 -29.483  1.00  0.00    -0.331 N 
ATOM     13  H62 UNL     1     -13.327 -28.516 -29.373  1.00  0.00     0.177 HD
ATOM     14  H61 UNL     1     -12.703 -29.967 -30.203  1.00  0.00     0.177 HD
ENDBRANCH   8  12
BRANCH   4  15
HETATM   15  N3  UNL     1      -9.688 -28.207 -24.651  1.00  0.00    -0.234 N 
ATOM     16  H32 UNL     1      -9.803 -28.692 -23.761  1.00  0.00     0.174 HD
ATOM     17  H31 UNL     1      -8.793 -27.776 -24.882  1.00  0.00     0.174 HD
ENDBRANCH   4  15
BRANCH   1  18
HETATM   18  N1  UNL     1     -14.171 -26.923 -25.623  1.00  0.00    -0.225 N 
HETATM   19  C1  UNL     1     -14.205 -25.723 -24.820  1.00  0.00     0.168 C 
HETATM   20  C2  UNL     1     -15.405 -27.491 -26.119  1.00  0.00     0.168 C 
ENDBRANCH   1  18
TORSDOF 3
ENDMDL
MODEL 5
REMARK VINA RESULT: -5.513762265      1.888      3.251
REMARK  3 active torsions:
REMARK  status: ('A' for Active; 'I' for Inactive)
REMARK    1  A    between atoms: N1_2  and  C3_4 
REMARK    2  A    between atoms: C4_7  and  N3_8 
REMARK    3  A    between atoms: N5_14  and  N6_16 
ROOT
HETATM    1  C3  UNL     1     -15.023 -26.074 -24.559  1.00  0.00     0.708 A 
HETATM    2  N2  UNL     1     -15.979 -26.628 -25.309  1.00  0.00    -0.022 N 
ATOM      3  H2  UNL     1     -16.937 -26.296 -25.197  1.00  0.00     0.203 HD
HETATM    4  C4  UNL     1     -15.741 -27.603 -26.203  1.00  0.00     0.705 A 
HETATM    5  N4  UNL     1     -14.489 -28.062 -26.373  1.00  0.00    -0.020 N 
ATOM      6  H4  UNL     1     -14.294 -28.801 -27.048  1.00  0.00     0.203 HD
HETATM    7  C5  UNL     1     -13.497 -27.530 -25.634  1.00  0.00     0.725 A 
HETATM    8  N5  UNL     1     -12.294 -27.961 -25.781  1.00  0.00    -0.138 N 
ATOM      9  H5  UNL     1     -12.079 -28.701 -26.448  1.00  0.00     0.205 HD
HETATM   10  N7  UNL     1     -13.774 -26.536 -24.732  1.00  0.00    -0.020 N 
ATOM     11  H7  UNL     1     -13.014 -26.138 -24.179  1.00  0.00     0.203 HD
ENDROOT
BRANCH   8  12
HETATM   12  N6  UNL     1     -11.297 -27.386 -25.002  1.00  0.00    -0.331 N 
ATOM     13  H62 UNL     1     -11.465 -27.199 -24.014  1.00  0.00     0.177 HD
ATOM     14  H61 UNL     1     -10.409 -27.165 -25.450  1.00  0.00     0.177 HD
ENDBRANCH   8  12
BRANCH   4  15
HETATM   15  N3  UNL     1     -16.665 -28.128 -26.926  1.00  0.00    -0.234 N 
ATOM     16  H32 UNL     1     -17.621 -27.813 -26.764  1.00  0.00     0.174 HD
ATOM     17  H31 UNL     1     -16.477 -28.836 -27.636  1.00  0.00     0.174 HD
ENDBRANCH   4  15
BRANCH   1  18
HETATM   18  N1  UNL     1     -15.205 -25.054 -23.593  1.00  0.00    -0.225 N 
HETATM   19  C1  UNL     1     -15.434 -25.414 -22.213  1.00  0.00     0.168 C 
HETATM   20  C2  UNL     1     -15.173 -23.659 -23.976  1.00  0.00     0.168 C 
ENDBRANCH   1  18
TORSDOF 3
ENDMDL
