MODEL 1
REMARK VINA RESULT: -9.433816762      0.000      0.000
REMARK  4 active torsions:
REMARK  status: ('A' for Active; 'I' for Inactive)
REMARK       I    between atoms: C2_2  and  N1_4 
REMARK    1  A    between atoms: C3_6  and  C4_7 
REMARK    2  A    between atoms: C6_13  and  C7_14 
REMARK    3  A    between atoms: C8_15  and  C9_16 
REMARK    4  A    between atoms: C14_21  and  O4_22 
ROOT
HETATM    1  C9  UNL     1      23.180  16.830  62.926  1.00  0.00     0.029 C 
HETATM    2  C10 UNL     1      22.805  18.091  62.229  1.00  0.00    -0.032 C 
HETATM    3  C11 UNL     1      23.274  19.281  63.054  1.00  0.00     0.016 C 
HETATM    4  C12 UNL     1      21.284  18.186  62.182  1.00  0.00     0.012 C 
HETATM    5  C13 UNL     1      20.806  19.478  61.607  1.00  0.00     0.032 C 
HETATM    6  C14 UNL     1      21.536  19.946  60.405  1.00  0.00     0.118 C 
HETATM    7  C15 UNL     1      22.981  19.602  60.351  1.00  0.00     0.037 C 
HETATM    8  C16 UNL     1      23.283  18.194  60.816  1.00  0.00    -0.001 C 
HETATM    9  C17 UNL     1      24.758  17.991  60.782  1.00  0.00     0.038 C 
HETATM   10  C18 UNL     1      25.273  16.827  61.516  1.00  0.00     0.132 C 
HETATM   11  O5  UNL     1      25.365  15.689  60.682  1.00  0.00    -0.384 OA
HETATM   12  C19 UNL     1      24.262  15.125  61.362  1.00  0.00     0.180 C 
HETATM   13  C20 UNL     1      24.389  16.143  62.455  1.00  0.00     0.011 C 
HETATM   14  C21 UNL     1      25.188  15.527  63.613  1.00  0.00     0.020 C 
ENDROOT
BRANCH   1  15
HETATM   15  C8  UNL     1      22.018  15.857  62.828  1.00  0.00    -0.019 C 
HETATM   16  C7  UNL     1      21.504  15.324  63.916  1.00  0.00     0.016 C 
BRANCH  16  17
HETATM   17  C6  UNL     1      20.398  14.393  63.867  1.00  0.00     0.071 A 
HETATM   18  C4  UNL     1      19.050  14.792  63.836  1.00  0.00     0.086 A 
HETATM   19  N2  UNL     1      18.357  13.649  63.794  1.00  0.00    -0.255 N 
HETATM   20  O2  UNL     1      19.176  12.611  63.797  1.00  0.00    -0.194 OA
ATOM     21  H2  UNL     1      17.339  13.586  63.765  1.00  0.00     0.195 HD
HETATM   22  C5  UNL     1      20.415  13.039  63.840  1.00  0.00     0.317 A 
HETATM   23  O3  UNL     1      21.373  12.223  63.850  1.00  0.00    -0.257 OA
BRANCH  18  24
HETATM   24  C3  UNL     1      18.564  16.157  63.850  1.00  0.00     0.123 C 
HETATM   25  N1  UNL     1      17.404  16.586  63.946  1.00  0.00    -0.335 N 
HETATM   26  C2  UNL     1      16.188  15.965  64.071  1.00  0.00     0.217 C 
ATOM     27  H1  UNL     1      17.343  17.605  63.929  1.00  0.00     0.168 HD
HETATM   28  C1  UNL     1      15.543  15.712  65.403  1.00  0.00     0.117 C 
HETATM   29  O1  UNL     1      15.496  15.550  63.080  1.00  0.00    -0.274 OA
ENDBRANCH  18  24
ENDBRANCH  16  17
ENDBRANCH   1  15
BRANCH   6  30
HETATM   30  O4  UNL     1      21.438  21.357  60.373  1.00  0.00    -0.396 OA
ATOM     31  H4  UNL     1      21.545  21.629  59.469  1.00  0.00     0.210 HD
ENDBRANCH   6  30
TORSDOF 4
ENDMDL
MODEL 2
REMARK VINA RESULT: -8.597219543      1.391      3.554
REMARK  4 active torsions:
REMARK  status: ('A' for Active; 'I' for Inactive)
REMARK       I    between atoms: C2_2  and  N1_4 
REMARK    1  A    between atoms: C3_6  and  C4_7 
REMARK    2  A    between atoms: C6_13  and  C7_14 
REMARK    3  A    between atoms: C8_15  and  C9_16 
REMARK    4  A    between atoms: C14_21  and  O4_22 
ROOT
HETATM    1  C9  UNL     1      22.192  17.533  61.681  1.00  0.00     0.029 C 
HETATM    2  C10 UNL     1      23.590  17.059  61.485  1.00  0.00    -0.032 C 
HETATM    3  C11 UNL     1      23.946  17.139  60.008  1.00  0.00     0.016 C 
HETATM    4  C12 UNL     1      23.658  15.581  61.854  1.00  0.00     0.012 C 
HETATM    5  C13 UNL     1      24.995  14.979  61.576  1.00  0.00     0.032 C 
HETATM    6  C14 UNL     1      26.158  15.812  61.963  1.00  0.00     0.118 C 
HETATM    7  C15 UNL     1      25.969  17.281  61.846  1.00  0.00     0.037 C 
HETATM    8  C16 UNL     1      24.614  17.755  62.323  1.00  0.00    -0.001 C 
HETATM    9  C17 UNL     1      24.518  19.224  62.094  1.00  0.00     0.038 C 
HETATM   10  C18 UNL     1      23.172  19.808  62.165  1.00  0.00     0.132 C 
HETATM   11  O5  UNL     1      22.874  20.262  63.471  1.00  0.00    -0.384 OA
HETATM   12  C19 UNL     1      21.976  19.180  63.621  1.00  0.00     0.180 C 
HETATM   13  C20 UNL     1      22.017  18.914  62.146  1.00  0.00     0.011 C 
HETATM   14  C21 UNL     1      20.808  19.593  61.488  1.00  0.00     0.020 C 
ENDROOT
BRANCH   1  15
HETATM   15  C8  UNL     1      21.502  16.612  62.672  1.00  0.00    -0.019 C 
HETATM   16  C7  UNL     1      20.291  16.159  62.426  1.00  0.00     0.016 C 
BRANCH  16  17
HETATM   17  C6  UNL     1      19.599  15.281  63.343  1.00  0.00     0.071 A 
HETATM   18  C4  UNL     1      18.285  15.508  63.793  1.00  0.00     0.086 A 
HETATM   19  N2  UNL     1      18.023  14.483  64.611  1.00  0.00    -0.255 N 
HETATM   20  O2  UNL     1      19.063  13.671  64.683  1.00  0.00    -0.194 OA
ATOM     21  H2  UNL     1      17.143  14.347  65.109  1.00  0.00     0.195 HD
HETATM   22  C5  UNL     1      20.026  14.134  63.924  1.00  0.00     0.317 A 
HETATM   23  O3  UNL     1      21.121  13.520  63.836  1.00  0.00    -0.257 OA
BRANCH  18  24
HETATM   24  C3  UNL     1      17.440  16.626  63.424  1.00  0.00     0.123 C 
HETATM   25  N1  UNL     1      16.204  16.725  63.439  1.00  0.00    -0.335 N 
HETATM   26  C2  UNL     1      15.204  15.857  63.793  1.00  0.00     0.217 C 
ATOM     27  H1  UNL     1      15.864  17.634  63.124  1.00  0.00     0.168 HD
HETATM   28  C1  UNL     1      14.598  15.840  65.166  1.00  0.00     0.117 C 
HETATM   29  O1  UNL     1      14.697  14.993  62.999  1.00  0.00    -0.274 OA
ENDBRANCH  18  24
ENDBRANCH  16  17
ENDBRANCH   1  15
BRANCH   6  30
HETATM   30  O4  UNL     1      27.234  15.457  61.116  1.00  0.00    -0.396 OA
ATOM     31  H4  UNL     1      27.953  15.178  61.671  1.00  0.00     0.210 HD
ENDBRANCH   6  30
TORSDOF 4
ENDMDL
MODEL 3
REMARK VINA RESULT: -7.972450238      3.087      7.028
REMARK  4 active torsions:
REMARK  status: ('A' for Active; 'I' for Inactive)
REMARK       I    between atoms: C2_2  and  N1_4 
REMARK    1  A    between atoms: C3_6  and  C4_7 
REMARK    2  A    between atoms: C6_13  and  C7_14 
REMARK    3  A    between atoms: C8_15  and  C9_16 
REMARK    4  A    between atoms: C14_21  and  O4_22 
ROOT
HETATM    1  C9  UNL     1      22.294  16.354  63.840  1.00  0.00     0.029 C 
HETATM    2  C10 UNL     1      21.285  15.263  63.951  1.00  0.00    -0.032 C 
HETATM    3  C11 UNL     1      20.887  15.092  65.409  1.00  0.00     0.016 C 
HETATM    4  C12 UNL     1      21.943  13.951  63.538  1.00  0.00     0.012 C 
HETATM    5  C13 UNL     1      21.047  12.773  63.730  1.00  0.00     0.032 C 
HETATM    6  C14 UNL     1      19.641  12.971  63.306  1.00  0.00     0.118 C 
HETATM    7  C15 UNL     1      19.102  14.345  63.473  1.00  0.00     0.037 C 
HETATM    8  C16 UNL     1      20.082  15.429  63.080  1.00  0.00    -0.001 C 
HETATM    9  C17 UNL     1      19.458  16.754  63.354  1.00  0.00     0.038 C 
HETATM   10  C18 UNL     1      20.364  17.910  63.369  1.00  0.00     0.132 C 
HETATM   11  O5  UNL     1      20.452  18.514  62.093  1.00  0.00    -0.384 OA
HETATM   12  C19 UNL     1      21.761  17.998  61.960  1.00  0.00     0.180 C 
HETATM   13  C20 UNL     1      21.804  17.673  63.423  1.00  0.00     0.011 C 
HETATM   14  C21 UNL     1      22.520  18.812  64.161  1.00  0.00     0.020 C 
ENDROOT
BRANCH   1  15
HETATM   15  C8  UNL     1      23.371  15.921  62.862  1.00  0.00    -0.019 C 
HETATM   16  C7  UNL     1      24.625  16.272  63.055  1.00  0.00     0.016 C 
BRANCH  16  17
HETATM   17  C6  UNL     1      25.681  15.882  62.148  1.00  0.00     0.071 A 
HETATM   18  C4  UNL     1      25.817  16.399  60.847  1.00  0.00     0.086 A 
HETATM   19  N2  UNL     1      26.900  15.792  60.350  1.00  0.00    -0.255 N 
HETATM   20  O2  UNL     1      27.416  14.965  61.242  1.00  0.00    -0.194 OA
ATOM     21  H2  UNL     1      27.275  15.946  59.414  1.00  0.00     0.195 HD
HETATM   22  C5  UNL     1      26.696  15.004  62.336  1.00  0.00     0.317 A 
HETATM   23  O3  UNL     1      27.001  14.293  63.329  1.00  0.00    -0.257 OA
BRANCH  18  24
HETATM   24  C3  UNL     1      24.945  17.374  60.222  1.00  0.00     0.123 C 
HETATM   25  N1  UNL     1      24.921  18.608  60.340  1.00  0.00    -0.335 N 
HETATM   26  C2  UNL     1      25.675  19.489  61.071  1.00  0.00     0.217 C 
ATOM     27  H1  UNL     1      24.196  19.058  59.780  1.00  0.00     0.168 HD
HETATM   28  C1  UNL     1      26.877  20.188  60.506  1.00  0.00     0.117 C 
HETATM   29  O1  UNL     1      25.429  19.797  62.288  1.00  0.00    -0.274 OA
ENDBRANCH  18  24
ENDBRANCH  16  17
ENDBRANCH   1  15
BRANCH   6  30
HETATM   30  O4  UNL     1      18.837  12.106  64.086  1.00  0.00    -0.396 OA
ATOM     31  H4  UNL     1      17.995  12.031  63.652  1.00  0.00     0.210 HD
ENDBRANCH   6  30
TORSDOF 4
ENDMDL
MODEL 4
REMARK VINA RESULT: -7.864693834      3.724      7.235
REMARK  4 active torsions:
REMARK  status: ('A' for Active; 'I' for Inactive)
REMARK       I    between atoms: C2_2  and  N1_4 
REMARK    1  A    between atoms: C3_6  and  C4_7 
REMARK    2  A    between atoms: C6_13  and  C7_14 
REMARK    3  A    between atoms: C8_15  and  C9_16 
REMARK    4  A    between atoms: C14_21  and  O4_22 
ROOT
HETATM    1  C9  UNL     1      23.909  17.253  62.678  1.00  0.00     0.029 C 
HETATM    2  C10 UNL     1      22.613  16.762  63.223  1.00  0.00    -0.032 C 
HETATM    3  C11 UNL     1      22.255  17.561  64.467  1.00  0.00     0.016 C 
HETATM    4  C12 UNL     1      22.796  15.321  63.687  1.00  0.00     0.012 C 
HETATM    5  C13 UNL     1      21.582  14.776  64.362  1.00  0.00     0.032 C 
HETATM    6  C14 UNL     1      20.292  15.102  63.708  1.00  0.00     0.118 C 
HETATM    7  C15 UNL     1      20.229  16.420  63.024  1.00  0.00     0.037 C 
HETATM    8  C16 UNL     1      21.482  16.755  62.245  1.00  0.00    -0.001 C 
HETATM    9  C17 UNL     1      21.328  18.118  61.665  1.00  0.00     0.038 C 
HETATM   10  C18 UNL     1      22.555  18.760  61.173  1.00  0.00     0.132 C 
HETATM   11  O5  UNL     1      22.766  18.489  59.801  1.00  0.00    -0.384 OA
HETATM   12  C19 UNL     1      23.834  17.633  60.153  1.00  0.00     0.180 C 
HETATM   13  C20 UNL     1      23.845  18.186  61.547  1.00  0.00     0.011 C 
HETATM   14  C21 UNL     1      24.924  19.274  61.637  1.00  0.00     0.020 C 
ENDROOT
BRANCH   1  15
HETATM   15  C8  UNL     1      24.741  16.055  62.253  1.00  0.00    -0.019 C 
HETATM   16  C7  UNL     1      25.951  15.880  62.741  1.00  0.00     0.016 C 
BRANCH  16  17
HETATM   17  C6  UNL     1      26.777  14.755  62.362  1.00  0.00     0.071 A 
HETATM   18  C4  UNL     1      27.641  14.765  61.253  1.00  0.00     0.086 A 
HETATM   19  N2  UNL     1      28.210  13.555  61.254  1.00  0.00    -0.255 N 
HETATM   20  O2  UNL     1      27.759  12.832  62.265  1.00  0.00    -0.194 OA
ATOM     21  H2  UNL     1      28.896  13.234  60.570  1.00  0.00     0.195 HD
HETATM   22  C5  UNL     1      26.892  13.538  62.948  1.00  0.00     0.317 A 
HETATM   23  O3  UNL     1      26.328  13.051  63.962  1.00  0.00    -0.257 OA
BRANCH  18  24
HETATM   24  C3  UNL     1      27.838  15.869  60.336  1.00  0.00     0.123 C 
HETATM   25  N1  UNL     1      28.373  16.972  60.524  1.00  0.00    -0.335 N 
HETATM   26  C2  UNL     1      28.959  17.548  61.621  1.00  0.00     0.217 C 
ATOM     27  H1  UNL     1      28.377  17.570  59.698  1.00  0.00     0.168 HD
HETATM   28  C1  UNL     1      30.438  17.484  61.875  1.00  0.00     0.117 C 
HETATM   29  O1  UNL     1      28.313  18.188  62.521  1.00  0.00    -0.274 OA
ENDBRANCH  18  24
ENDBRANCH  16  17
ENDBRANCH   1  15
BRANCH   6  30
HETATM   30  O4  UNL     1      19.296  15.102  64.713  1.00  0.00    -0.396 OA
ATOM     31  H4  UNL     1      18.644  14.456  64.467  1.00  0.00     0.210 HD
ENDBRANCH   6  30
TORSDOF 4
ENDMDL
MODEL 5
REMARK VINA RESULT: -7.850390659      4.097      8.120
REMARK  4 active torsions:
REMARK  status: ('A' for Active; 'I' for Inactive)
REMARK       I    between atoms: C2_2  and  N1_4 
REMARK    1  A    between atoms: C3_6  and  C4_7 
REMARK    2  A    between atoms: C6_13  and  C7_14 
REMARK    3  A    between atoms: C8_15  and  C9_16 
REMARK    4  A    between atoms: C14_21  and  O4_22 
ROOT
HETATM    1  C9  UNL     1      23.330  18.909  62.127  1.00  0.00     0.029 C 
HETATM    2  C10 UNL     1      22.765  17.749  62.872  1.00  0.00    -0.032 C 
HETATM    3  C11 UNL     1      22.594  18.126  64.336  1.00  0.00     0.016 C 
HETATM    4  C12 UNL     1      23.783  16.614  62.846  1.00  0.00     0.012 C 
HETATM    5  C13 UNL     1      23.360  15.444  63.671  1.00  0.00     0.032 C 
HETATM    6  C14 UNL     1      21.934  15.058  63.541  1.00  0.00     0.118 C 
HETATM    7  C15 UNL     1      20.983  16.173  63.296  1.00  0.00     0.037 C 
HETATM    8  C16 UNL     1      21.496  17.197  62.307  1.00  0.00    -0.001 C 
HETATM    9  C17 UNL     1      20.492  18.292  62.196  1.00  0.00     0.038 C 
HETATM   10  C18 UNL     1      20.952  19.536  61.562  1.00  0.00     0.132 C 
HETATM   11  O5  UNL     1      20.704  19.529  60.170  1.00  0.00    -0.384 OA
HETATM   12  C19 UNL     1      22.090  19.373  59.943  1.00  0.00     0.180 C 
HETATM   13  C20 UNL     1      22.385  19.736  61.368  1.00  0.00     0.011 C 
HETATM   14  C21 UNL     1      22.745  21.227  61.433  1.00  0.00     0.020 C 
ENDROOT
BRANCH   1  15
HETATM   15  C8  UNL     1      24.388  18.399  61.164  1.00  0.00    -0.019 C 
HETATM   16  C7  UNL     1      25.586  18.942  61.145  1.00  0.00     0.016 C 
BRANCH  16  17
HETATM   17  C6  UNL     1      26.622  18.487  60.244  1.00  0.00     0.071 A 
HETATM   18  C4  UNL     1      27.875  19.114  60.122  1.00  0.00     0.086 A 
HETATM   19  N2  UNL     1      28.527  18.396  59.201  1.00  0.00    -0.255 N 
HETATM   20  O2  UNL     1      27.771  17.401  58.769  1.00  0.00    -0.194 OA
ATOM     21  H2  UNL     1      29.475  18.589  58.877  1.00  0.00     0.195 HD
HETATM   22  C5  UNL     1      26.615  17.437  59.386  1.00  0.00     0.317 A 
HETATM   23  O3  UNL     1      25.729  16.581  59.134  1.00  0.00    -0.257 OA
BRANCH  18  24
HETATM   24  C3  UNL     1      28.318  20.283  60.855  1.00  0.00     0.123 C 
HETATM   25  N1  UNL     1      28.103  21.485  60.638  1.00  0.00    -0.335 N 
HETATM   26  C2  UNL     1      27.394  22.143  59.667  1.00  0.00     0.217 C 
ATOM     27  H1  UNL     1      28.540  22.107  61.318  1.00  0.00     0.168 HD
HETATM   28  C1  UNL     1      25.963  22.559  59.851  1.00  0.00     0.117 C 
HETATM   29  O1  UNL     1      27.877  22.465  58.527  1.00  0.00    -0.274 OA
ENDBRANCH  18  24
ENDBRANCH  16  17
ENDBRANCH   1  15
BRANCH   6  30
HETATM   30  O4  UNL     1      21.552  14.438  64.753  1.00  0.00    -0.396 OA
ATOM     31  H4  UNL     1      21.829  15.006  65.463  1.00  0.00     0.210 HD
ENDBRANCH   6  30
TORSDOF 4
ENDMDL
