MODEL 1
REMARK VINA RESULT: -7.190523409      0.000      0.000
REMARK  7 active torsions:
REMARK  status: ('A' for Active; 'I' for Inactive)
REMARK    1  A    between atoms: C2_2  and  C4_4 
REMARK    2  A    between atoms: C6_6  and  C7_7 
REMARK    3  A    between atoms: C7_7  and  O1_8 
REMARK    4  A    between atoms: C7_7  and  C8_10 
REMARK    5  A    between atoms: C12_16  and  C13_17 
REMARK    6  A    between atoms: C13_17  and  O4_19 
REMARK    7  A    between atoms: C22_28  and  O5_29 
ROOT
HETATM    1  C8  UNL     1      19.497  15.632  63.365  1.00  0.00     0.118 C 
HETATM    2  C9  UNL     1      19.655  14.352  64.175  1.00  0.00     0.028 C 
HETATM    3  C10 UNL     1      18.217  16.204  63.446  1.00  0.00     0.066 C 
HETATM    4  N1  UNL     1      17.135  16.644  63.486  1.00  0.00    -0.197 NA
ENDROOT
BRANCH   1   5
HETATM    5  C7  UNL     1      20.673  16.562  63.484  1.00  0.00     0.147 C 
BRANCH   5   6
HETATM    6  C6  UNL     1      21.939  16.127  62.870  1.00  0.00     0.092 C 
HETATM    7  C5  UNL     1      22.595  17.129  61.931  1.00  0.00     0.018 C 
HETATM    8  C4  UNL     1      23.732  17.945  62.499  1.00  0.00     0.035 C 
HETATM    9  C17 UNL     1      23.618  16.375  61.095  1.00  0.00     0.036 C 
HETATM   10  C18 UNL     1      24.511  17.572  61.318  1.00  0.00     0.023 A 
HETATM   11  C19 UNL     1      24.763  18.395  60.171  1.00  0.00    -0.008 A 
HETATM   12  C22 UNL     1      25.966  17.292  61.481  1.00  0.00     0.160 A 
HETATM   13  C20 UNL     1      26.065  18.153  60.278  1.00  0.00    -0.057 A 
HETATM   14  C21 UNL     1      27.288  18.579  59.502  1.00  0.00     0.046 C 
HETATM   15  C15 UNL     1      24.023  15.080  61.588  1.00  0.00    -0.063 C 
HETATM   16  C12 UNL     1      23.895  14.590  62.977  1.00  0.00     0.184 C 
HETATM   17  C16 UNL     1      24.572  14.230  60.708  1.00  0.00     0.016 C 
HETATM   18  C11 UNL     1      22.995  15.523  63.686  1.00  0.00     0.151 C 
HETATM   19  O2  UNL     1      23.154  15.742  64.834  1.00  0.00    -0.296 OA
BRANCH   8  20
HETATM   20  C2  UNL     1      23.498  19.338  62.833  1.00  0.00    -0.087 C 
HETATM   21  C1  UNL     1      24.006  20.427  62.371  1.00  0.00     0.014 C 
HETATM   22  C3  UNL     1      22.483  19.587  63.982  1.00  0.00     0.043 C 
ENDBRANCH   8  20
BRANCH  12  23
HETATM   23  O5  UNL     1      26.480  17.949  62.595  1.00  0.00    -0.390 OA
ATOM     24  H5  UNL     1      27.414  17.794  62.681  1.00  0.00     0.210 HD
ENDBRANCH  12  23
BRANCH  16  25
HETATM   25  C13 UNL     1      25.204  14.457  63.658  1.00  0.00     0.274 C 
HETATM   26  O3  UNL     1      25.899  15.470  63.900  1.00  0.00    -0.264 OA
BRANCH  25  27
HETATM   27  O4  UNL     1      25.662  13.230  64.027  1.00  0.00    -0.326 OA
HETATM   28  C14 UNL     1      26.957  12.733  63.767  1.00  0.00     0.213 C 
ENDBRANCH  25  27
ENDBRANCH  16  25
ENDBRANCH   5   6
BRANCH   5  29
HETATM   29  O1  UNL     1      20.231  17.635  62.578  1.00  0.00    -0.393 OA
ATOM     30  H1  UNL     1      20.255  18.401  63.139  1.00  0.00     0.210 HD
ENDBRANCH   5  29
ENDBRANCH   1   5
TORSDOF 7
ENDMDL
MODEL 2
REMARK VINA RESULT: -7.031072162      2.257      4.600
REMARK  7 active torsions:
REMARK  status: ('A' for Active; 'I' for Inactive)
REMARK    1  A    between atoms: C2_2  and  C4_4 
REMARK    2  A    between atoms: C6_6  and  C7_7 
REMARK    3  A    between atoms: C7_7  and  O1_8 
REMARK    4  A    between atoms: C7_7  and  C8_10 
REMARK    5  A    between atoms: C12_16  and  C13_17 
REMARK    6  A    between atoms: C13_17  and  O4_19 
REMARK    7  A    between atoms: C22_28  and  O5_29 
ROOT
HETATM    1  C8  UNL     1      21.562  14.012  63.752  1.00  0.00     0.118 C 
HETATM    2  C9  UNL     1      22.665  13.022  64.101  1.00  0.00     0.028 C 
HETATM    3  C10 UNL     1      20.296  13.423  63.598  1.00  0.00     0.066 C 
HETATM    4  N1  UNL     1      19.257  12.914  63.429  1.00  0.00    -0.197 NA
ENDROOT
BRANCH   1   5
HETATM    5  C7  UNL     1      21.633  15.287  64.545  1.00  0.00     0.147 C 
BRANCH   5   6
HETATM    6  C6  UNL     1      22.068  16.500  63.829  1.00  0.00     0.092 C 
HETATM    7  C5  UNL     1      23.548  16.565  63.483  1.00  0.00     0.018 C 
HETATM    8  C4  UNL     1      23.930  16.200  62.068  1.00  0.00     0.035 C 
HETATM    9  C17 UNL     1      23.878  18.012  63.147  1.00  0.00     0.036 C 
HETATM   10  C18 UNL     1      24.706  17.439  62.021  1.00  0.00     0.023 A 
HETATM   11  C19 UNL     1      26.128  17.559  62.157  1.00  0.00    -0.008 A 
HETATM   12  C22 UNL     1      24.726  18.221  60.751  1.00  0.00     0.160 A 
HETATM   13  C20 UNL     1      26.180  18.271  61.037  1.00  0.00    -0.057 A 
HETATM   14  C21 UNL     1      27.289  18.927  60.249  1.00  0.00     0.046 C 
HETATM   15  C15 UNL     1      22.760  18.873  62.845  1.00  0.00    -0.063 C 
HETATM   16  C12 UNL     1      21.411  18.444  62.420  1.00  0.00     0.184 C 
HETATM   17  C16 UNL     1      22.953  20.195  62.958  1.00  0.00     0.016 C 
HETATM   18  C11 UNL     1      21.317  16.991  62.671  1.00  0.00     0.151 C 
HETATM   19  O2  UNL     1      20.672  16.307  61.959  1.00  0.00    -0.296 OA
BRANCH   8  20
HETATM   20  C2  UNL     1      24.557  14.914  61.821  1.00  0.00    -0.087 C 
HETATM   21  C1  UNL     1      24.503  14.114  60.813  1.00  0.00     0.014 C 
HETATM   22  C3  UNL     1      25.425  14.360  62.984  1.00  0.00     0.043 C 
ENDBRANCH   8  20
BRANCH  12  23
HETATM   23  O5  UNL     1      24.473  17.401  59.655  1.00  0.00    -0.390 OA
ATOM     24  H5  UNL     1      24.220  17.914  58.896  1.00  0.00     0.210 HD
ENDBRANCH  12  23
BRANCH  16  25
HETATM   25  C13 UNL     1      21.124  18.782  61.006  1.00  0.00     0.274 C 
HETATM   26  O3  UNL     1      21.701  18.172  60.079  1.00  0.00    -0.264 OA
BRANCH  25  27
HETATM   27  O4  UNL     1      20.228  19.760  60.705  1.00  0.00    -0.326 OA
HETATM   28  C14 UNL     1      20.536  20.974  60.054  1.00  0.00     0.213 C 
ENDBRANCH  25  27
ENDBRANCH  16  25
ENDBRANCH   5   6
BRANCH   5  29
HETATM   29  O1  UNL     1      20.196  15.534  64.745  1.00  0.00    -0.393 OA
ATOM     30  H1  UNL     1      19.879  15.640  63.855  1.00  0.00     0.210 HD
ENDBRANCH   5  29
ENDBRANCH   1   5
TORSDOF 7
ENDMDL
MODEL 3
REMARK VINA RESULT: -7.030044375      2.396      3.300
REMARK  7 active torsions:
REMARK  status: ('A' for Active; 'I' for Inactive)
REMARK    1  A    between atoms: C2_2  and  C4_4 
REMARK    2  A    between atoms: C6_6  and  C7_7 
REMARK    3  A    between atoms: C7_7  and  O1_8 
REMARK    4  A    between atoms: C7_7  and  C8_10 
REMARK    5  A    between atoms: C12_16  and  C13_17 
REMARK    6  A    between atoms: C13_17  and  O4_19 
REMARK    7  A    between atoms: C22_28  and  O5_29 
ROOT
HETATM    1  C8  UNL     1      21.245  18.909  61.263  1.00  0.00     0.118 C 
HETATM    2  C9  UNL     1      20.622  18.802  62.649  1.00  0.00     0.028 C 
HETATM    3  C10 UNL     1      20.572  19.792  60.403  1.00  0.00     0.066 C 
HETATM    4  N1  UNL     1      19.977  20.494  59.683  1.00  0.00    -0.197 NA
ENDROOT
BRANCH   1   5
HETATM    5  C7  UNL     1      22.746  18.987  61.289  1.00  0.00     0.147 C 
BRANCH   5   6
HETATM    6  C6  UNL     1      23.486  17.713  61.273  1.00  0.00     0.092 C 
HETATM    7  C5  UNL     1      24.855  17.754  60.611  1.00  0.00     0.018 C 
HETATM    8  C4  UNL     1      26.049  17.858  61.531  1.00  0.00     0.035 C 
HETATM    9  C17 UNL     1      25.267  16.319  60.318  1.00  0.00     0.036 C 
HETATM   10  C18 UNL     1      26.637  16.738  60.796  1.00  0.00     0.023 A 
HETATM   11  C19 UNL     1      27.659  16.820  59.793  1.00  0.00    -0.008 A 
HETATM   12  C22 UNL     1      27.415  15.716  61.554  1.00  0.00     0.160 A 
HETATM   13  C20 UNL     1      28.371  15.901  60.436  1.00  0.00    -0.057 A 
HETATM   14  C21 UNL     1      29.703  15.232  60.194  1.00  0.00     0.046 C 
HETATM   15  C15 UNL     1      24.549  15.286  61.025  1.00  0.00    -0.063 C 
HETATM   16  C12 UNL     1      23.777  15.452  62.275  1.00  0.00     0.184 C 
HETATM   17  C16 UNL     1      24.579  14.050  60.507  1.00  0.00     0.016 C 
HETATM   18  C11 UNL     1      23.602  16.904  62.489  1.00  0.00     0.151 C 
HETATM   19  O2  UNL     1      23.568  17.341  63.584  1.00  0.00    -0.296 OA
BRANCH   8  20
HETATM   20  C2  UNL     1      26.742  19.129  61.639  1.00  0.00    -0.087 C 
HETATM   21  C1  UNL     1      27.683  19.528  62.424  1.00  0.00     0.014 C 
HETATM   22  C3  UNL     1      26.252  20.241  60.672  1.00  0.00     0.043 C 
ENDBRANCH   8  20
BRANCH  12  23
HETATM   23  O5  UNL     1      27.931  16.252  62.731  1.00  0.00    -0.390 OA
ATOM     24  H5  UNL     1      27.571  17.115  62.900  1.00  0.00     0.210 HD
ENDBRANCH  12  23
BRANCH  16  25
HETATM   25  C13 UNL     1      24.420  14.793  63.436  1.00  0.00     0.274 C 
HETATM   26  O3  UNL     1      25.541  15.177  63.841  1.00  0.00    -0.264 OA
BRANCH  25  27
HETATM   27  O4  UNL     1      23.797  13.765  64.071  1.00  0.00    -0.326 OA
HETATM   28  C14 UNL     1      22.471  13.345  63.833  1.00  0.00     0.213 C 
ENDBRANCH  25  27
ENDBRANCH  16  25
ENDBRANCH   5   6
BRANCH   5  29
HETATM   29  O1  UNL     1      22.989  19.513  59.936  1.00  0.00    -0.393 OA
ATOM     30  H1  UNL     1      22.337  20.200  59.862  1.00  0.00     0.210 HD
ENDBRANCH   5  29
ENDBRANCH   1   5
TORSDOF 7
ENDMDL
MODEL 4
REMARK VINA RESULT: -6.986088540      3.159      6.690
REMARK  7 active torsions:
REMARK  status: ('A' for Active; 'I' for Inactive)
REMARK    1  A    between atoms: C2_2  and  C4_4 
REMARK    2  A    between atoms: C6_6  and  C7_7 
REMARK    3  A    between atoms: C7_7  and  O1_8 
REMARK    4  A    between atoms: C7_7  and  C8_10 
REMARK    5  A    between atoms: C12_16  and  C13_17 
REMARK    6  A    between atoms: C13_17  and  O4_19 
REMARK    7  A    between atoms: C22_28  and  O5_29 
ROOT
HETATM    1  C8  UNL     1      27.497  16.983  60.583  1.00  0.00     0.118 C 
HETATM    2  C9  UNL     1      27.627  15.485  60.820  1.00  0.00     0.028 C 
HETATM    3  C10 UNL     1      28.727  17.649  60.453  1.00  0.00     0.066 C 
HETATM    4  N1  UNL     1      29.758  18.196  60.393  1.00  0.00    -0.197 NA
ENDROOT
BRANCH   1   5
HETATM    5  C7  UNL     1      26.418  17.340  59.598  1.00  0.00     0.147 C 
BRANCH   5   6
HETATM    6  C6  UNL     1      25.232  18.038  60.124  1.00  0.00     0.092 C 
HETATM    7  C5  UNL     1      24.078  17.145  60.555  1.00  0.00     0.018 C 
HETATM    8  C4  UNL     1      23.952  16.868  62.035  1.00  0.00     0.035 C 
HETATM    9  C17 UNL     1      22.836  18.017  60.661  1.00  0.00     0.036 C 
HETATM   10  C18 UNL     1      22.541  17.242  61.923  1.00  0.00     0.023 A 
HETATM   11  C19 UNL     1      21.425  16.343  61.867  1.00  0.00    -0.008 A 
HETATM   12  C22 UNL     1      21.915  18.007  63.039  1.00  0.00     0.160 A 
HETATM   13  C20 UNL     1      20.832  17.011  62.850  1.00  0.00    -0.057 A 
HETATM   14  C21 UNL     1      19.522  16.868  63.588  1.00  0.00     0.046 C 
HETATM   15  C15 UNL     1      23.055  19.442  60.733  1.00  0.00    -0.063 C 
HETATM   16  C12 UNL     1      24.307  20.119  61.131  1.00  0.00     0.184 C 
HETATM   17  C16 UNL     1      22.027  20.240  60.409  1.00  0.00     0.016 C 
HETATM   18  C11 UNL     1      25.375  19.097  61.126  1.00  0.00     0.151 C 
HETATM   19  O2  UNL     1      26.264  19.166  61.899  1.00  0.00    -0.296 OA
BRANCH   8  20
HETATM   20  C2  UNL     1      24.344  15.566  62.541  1.00  0.00    -0.087 C 
HETATM   21  C1  UNL     1      24.712  15.177  63.712  1.00  0.00     0.014 C 
HETATM   22  C3  UNL     1      24.373  14.423  61.490  1.00  0.00     0.043 C 
ENDBRANCH   8  20
BRANCH  12  23
HETATM   23  O5  UNL     1      22.582  17.779  64.239  1.00  0.00    -0.390 OA
ATOM     24  H5  UNL     1      22.953  18.583  64.581  1.00  0.00     0.210 HD
ENDBRANCH  12  23
BRANCH  16  25
HETATM   25  C13 UNL     1      24.196  20.799  62.443  1.00  0.00     0.274 C 
HETATM   26  O3  UNL     1      23.456  20.333  63.338  1.00  0.00    -0.264 OA
BRANCH  25  27
HETATM   27  O4  UNL     1      24.900  21.937  62.685  1.00  0.00    -0.326 OA
HETATM   28  C14 UNL     1      25.317  22.861  61.703  1.00  0.00     0.213 C 
ENDBRANCH  25  27
ENDBRANCH  16  25
ENDBRANCH   5   6
BRANCH   5  29
HETATM   29  O1  UNL     1      27.108  18.403  58.850  1.00  0.00    -0.393 OA
ATOM     30  H1  UNL     1      27.971  18.030  58.710  1.00  0.00     0.210 HD
ENDBRANCH   5  29
ENDBRANCH   1   5
TORSDOF 7
ENDMDL
MODEL 5
REMARK VINA RESULT: -6.742674077      3.169      6.704
REMARK  7 active torsions:
REMARK  status: ('A' for Active; 'I' for Inactive)
REMARK    1  A    between atoms: C2_2  and  C4_4 
REMARK    2  A    between atoms: C6_6  and  C7_7 
REMARK    3  A    between atoms: C7_7  and  O1_8 
REMARK    4  A    between atoms: C7_7  and  C8_10 
REMARK    5  A    between atoms: C12_16  and  C13_17 
REMARK    6  A    between atoms: C13_17  and  O4_19 
REMARK    7  A    between atoms: C22_28  and  O5_29 
ROOT
HETATM    1  C8  UNL     1      28.046  17.222  60.302  1.00  0.00     0.118 C 
HETATM    2  C9  UNL     1      28.752  15.880  60.159  1.00  0.00     0.028 C 
HETATM    3  C10 UNL     1      28.920  18.313  60.448  1.00  0.00     0.066 C 
HETATM    4  N1  UNL     1      29.656  19.204  60.615  1.00  0.00    -0.197 NA
ENDROOT
BRANCH   1   5
HETATM    5  C7  UNL     1      26.890  17.392  59.355  1.00  0.00     0.147 C 
BRANCH   5   6
HETATM    6  C6  UNL     1      25.548  17.521  59.950  1.00  0.00     0.092 C 
HETATM    7  C5  UNL     1      25.032  16.293  60.684  1.00  0.00     0.018 C 
HETATM    8  C4  UNL     1      25.153  16.303  62.190  1.00  0.00     0.035 C 
HETATM    9  C17 UNL     1      23.529  16.455  60.852  1.00  0.00     0.036 C 
HETATM   10  C18 UNL     1      23.743  15.915  62.246  1.00  0.00     0.023 A 
HETATM   11  C19 UNL     1      23.233  14.599  62.499  1.00  0.00    -0.008 A 
HETATM   12  C22 UNL     1      22.885  16.493  63.319  1.00  0.00     0.160 A 
HETATM   13  C20 UNL     1      22.444  15.083  63.452  1.00  0.00    -0.057 A 
HETATM   14  C21 UNL     1      21.434  14.481  64.399  1.00  0.00     0.046 C 
HETATM   15  C15 UNL     1      23.002  17.787  60.676  1.00  0.00    -0.063 C 
HETATM   16  C12 UNL     1      23.762  19.051  60.768  1.00  0.00     0.184 C 
HETATM   17  C16 UNL     1      21.694  17.900  60.401  1.00  0.00     0.016 C 
HETATM   18  C11 UNL     1      25.197  18.699  60.748  1.00  0.00     0.151 C 
HETATM   19  O2  UNL     1      25.975  19.347  61.354  1.00  0.00    -0.296 OA
BRANCH   8  20
HETATM   20  C2  UNL     1      26.179  15.491  62.818  1.00  0.00    -0.087 C 
HETATM   21  C1  UNL     1      26.989  15.733  63.789  1.00  0.00     0.014 C 
HETATM   22  C3  UNL     1      26.387  14.083  62.197  1.00  0.00     0.043 C 
ENDBRANCH   8  20
BRANCH  12  23
HETATM   23  O5  UNL     1      23.647  16.871  64.421  1.00  0.00    -0.390 OA
ATOM     24  H5  UNL     1      23.613  17.811  64.553  1.00  0.00     0.210 HD
ENDBRANCH  12  23
BRANCH  16  25
HETATM   25  C13 UNL     1      23.403  19.848  61.965  1.00  0.00     0.274 C 
HETATM   26  O3  UNL     1      23.713  19.447  63.109  1.00  0.00    -0.264 OA
BRANCH  25  27
HETATM   27  O4  UNL     1      22.732  21.023  61.828  1.00  0.00    -0.326 OA
HETATM   28  C14 UNL     1      22.377  21.619  60.600  1.00  0.00     0.213 C 
ENDBRANCH  25  27
ENDBRANCH  16  25
ENDBRANCH   5   6
BRANCH   5  29
HETATM   29  O1  UNL     1      27.160  18.759  58.879  1.00  0.00    -0.393 OA
ATOM     30  H1  UNL     1      27.150  18.654  57.935  1.00  0.00     0.210 HD
ENDBRANCH   5  29
ENDBRANCH   1   5
TORSDOF 7
ENDMDL
