MODEL 1
REMARK VINA RESULT: -5.614682685      0.000      0.000
REMARK  2 active torsions:
REMARK  status: ('A' for Active; 'I' for Inactive)
REMARK    1  A    between atoms: C2_2  and  C3_3 
REMARK    2  A    between atoms: C7_10  and  C8_11 
ROOT
HETATM    1  C3  UNL     1      -4.607   3.218  15.151  1.00  0.00     0.201 C 
HETATM    2  C4  UNL     1      -4.196   2.620  13.822  1.00  0.00     0.128 C 
HETATM    3  N1  UNL     1      -4.776   1.336  13.620  1.00  0.00    -0.282 NA
HETATM    4  C5  UNL     1      -4.449   0.932  12.250  1.00  0.00     0.117 C 
HETATM    5  C6  UNL     1      -4.316   0.310  14.488  1.00  0.00     0.147 C 
HETATM    6  N2  UNL     1      -4.224   0.551  15.847  1.00  0.00    -0.363 N 
ATOM      7  H2  UNL     1      -3.487   0.093  16.384  1.00  0.00     0.161 HD
HETATM    8  C7  UNL     1      -5.112   1.405  16.505  1.00  0.00     0.284 C 
HETATM    9  N3  UNL     1      -5.728   2.421  15.639  1.00  0.00    -0.049 N 
ATOM     10  H31 UNL     1      -6.317   2.035  14.901  1.00  0.00     0.280 HD
ATOM     11  H32 UNL     1      -6.459   2.967  16.095  1.00  0.00     0.280 HD
ENDROOT
BRANCH   1  12
HETATM   12  C2  UNL     1      -4.978   4.678  15.035  1.00  0.00     0.030 C 
HETATM   13  C1  UNL     1      -5.899   5.137  16.123  1.00  0.00     0.007 C 
ENDBRANCH   1  12
BRANCH   8  14
HETATM   14  C8  UNL     1      -6.160   0.716  17.358  1.00  0.00     0.050 C 
HETATM   15  C9  UNL     1      -7.559   1.138  16.985  1.00  0.00     0.009 C 
ENDBRANCH   8  14
TORSDOF 2
ENDMDL
MODEL 2
REMARK VINA RESULT: -5.271109911      1.736      3.714
REMARK  2 active torsions:
REMARK  status: ('A' for Active; 'I' for Inactive)
REMARK    1  A    between atoms: C2_2  and  C3_3 
REMARK    2  A    between atoms: C7_10  and  C8_11 
ROOT
HETATM    1  C3  UNL     1      -4.566   2.069  13.096  1.00  0.00     0.201 C 
HETATM    2  C4  UNL     1      -3.494   3.088  12.774  1.00  0.00     0.128 C 
HETATM    3  N1  UNL     1      -3.114   3.834  13.926  1.00  0.00    -0.282 NA
HETATM    4  C5  UNL     1      -1.969   4.663  13.538  1.00  0.00     0.117 C 
HETATM    5  C6  UNL     1      -4.108   4.701  14.454  1.00  0.00     0.147 C 
HETATM    6  N2  UNL     1      -5.400   4.238  14.626  1.00  0.00    -0.363 N 
ATOM      7  H2  UNL     1      -6.179   4.886  14.509  1.00  0.00     0.161 HD
HETATM    8  C7  UNL     1      -5.668   2.907  14.956  1.00  0.00     0.284 C 
HETATM    9  N3  UNL     1      -4.618   1.961  14.551  1.00  0.00    -0.049 N 
ATOM     10  H31 UNL     1      -3.720   2.114  15.011  1.00  0.00     0.280 HD
ATOM     11  H32 UNL     1      -4.761   1.011  14.892  1.00  0.00     0.280 HD
ENDROOT
BRANCH   1  12
HETATM   12  C2  UNL     1      -4.296   0.728  12.453  1.00  0.00     0.030 C 
HETATM   13  C1  UNL     1      -4.714   0.673  11.016  1.00  0.00     0.007 C 
ENDBRANCH   1  12
BRANCH   8  14
HETATM   14  C8  UNL     1      -6.084   2.668  16.394  1.00  0.00     0.050 C 
HETATM   15  C9  UNL     1      -6.487   3.945  17.086  1.00  0.00     0.009 C 
ENDBRANCH   8  14
TORSDOF 2
ENDMDL
MODEL 3
REMARK VINA RESULT: -5.207635323      2.008      4.098
REMARK  2 active torsions:
REMARK  status: ('A' for Active; 'I' for Inactive)
REMARK    1  A    between atoms: C2_2  and  C3_3 
REMARK    2  A    between atoms: C7_10  and  C8_11 
ROOT
HETATM    1  C3  UNL     1      -4.430   1.689  11.905  1.00  0.00     0.201 C 
HETATM    2  C4  UNL     1      -3.173   2.391  11.439  1.00  0.00     0.128 C 
HETATM    3  N1  UNL     1      -2.414   2.892  12.534  1.00  0.00    -0.282 NA
HETATM    4  C5  UNL     1      -1.153   3.397  11.982  1.00  0.00     0.117 C 
HETATM    5  C6  UNL     1      -3.014   3.951  13.265  1.00  0.00     0.147 C 
HETATM    6  N2  UNL     1      -4.340   3.857  13.646  1.00  0.00    -0.363 N 
ATOM      7  H2  UNL     1      -4.904   4.706  13.696  1.00  0.00     0.161 HD
HETATM    8  C7  UNL     1      -4.930   2.631  13.964  1.00  0.00     0.284 C 
HETATM    9  N3  UNL     1      -4.281   1.469  13.340  1.00  0.00    -0.049 N 
ATOM     10  H31 UNL     1      -3.316   1.321  13.639  1.00  0.00     0.280 HD
ATOM     11  H32 UNL     1      -4.639   0.570  13.662  1.00  0.00     0.280 HD
ENDROOT
BRANCH   1  12
HETATM   12  C2  UNL     1      -4.670   0.390  11.170  1.00  0.00     0.030 C 
HETATM   13  C1  UNL     1      -4.013  -0.785  11.826  1.00  0.00     0.007 C 
ENDBRANCH   1  12
BRANCH   8  14
HETATM   14  C8  UNL     1      -5.164   2.389  15.442  1.00  0.00     0.050 C 
HETATM   15  C9  UNL     1      -5.925   3.519  16.086  1.00  0.00     0.009 C 
ENDBRANCH   8  14
TORSDOF 2
ENDMDL
MODEL 4
REMARK VINA RESULT: -4.937625451      1.793      2.265
REMARK  2 active torsions:
REMARK  status: ('A' for Active; 'I' for Inactive)
REMARK    1  A    between atoms: C2_2  and  C3_3 
REMARK    2  A    between atoms: C7_10  and  C8_11 
ROOT
HETATM    1  C3  UNL     1      -4.229   4.526  13.800  1.00  0.00     0.201 C 
HETATM    2  C4  UNL     1      -4.044   3.650  12.581  1.00  0.00     0.128 C 
HETATM    3  N1  UNL     1      -4.942   2.545  12.585  1.00  0.00    -0.282 NA
HETATM    4  C5  UNL     1      -4.791   1.868  11.294  1.00  0.00     0.117 C 
HETATM    5  C6  UNL     1      -4.721   1.577  13.602  1.00  0.00     0.147 C 
HETATM    6  N2  UNL     1      -4.510   1.988  14.906  1.00  0.00    -0.363 N 
ATOM      7  H2  UNL     1      -3.891   1.441  15.504  1.00  0.00     0.161 HD
HETATM    8  C7  UNL     1      -5.120   3.132  15.425  1.00  0.00     0.284 C 
HETATM    9  N3  UNL     1      -5.494   4.131  14.413  1.00  0.00    -0.049 N 
ATOM     10  H31 UNL     1      -6.194   3.805  13.746  1.00  0.00     0.280 HD
ATOM     11  H32 UNL     1      -6.039   4.910  14.780  1.00  0.00     0.280 HD
ENDROOT
BRANCH   1  12
HETATM   12  C2  UNL     1      -4.218   5.998  13.459  1.00  0.00     0.030 C 
HETATM   13  C1  UNL     1      -2.931   6.674  13.819  1.00  0.00     0.007 C 
ENDBRANCH   1  12
BRANCH   8  14
HETATM   14  C8  UNL     1      -6.270   2.876  16.380  1.00  0.00     0.050 C 
HETATM   15  C9  UNL     1      -6.488   4.030  17.324  1.00  0.00     0.009 C 
ENDBRANCH   8  14
TORSDOF 2
ENDMDL
MODEL 5
REMARK VINA RESULT: -4.915679436      3.086      5.318
REMARK  2 active torsions:
REMARK  status: ('A' for Active; 'I' for Inactive)
REMARK    1  A    between atoms: C2_2  and  C3_3 
REMARK    2  A    between atoms: C7_10  and  C8_11 
ROOT
HETATM    1  C3  UNL     1      -2.407   2.484  11.103  1.00  0.00     0.201 C 
HETATM    2  C4  UNL     1      -2.778   3.546  12.116  1.00  0.00     0.128 C 
HETATM    3  N1  UNL     1      -3.414   2.983  13.259  1.00  0.00    -0.282 NA
HETATM    4  C5  UNL     1      -3.575   4.066  14.233  1.00  0.00     0.117 C 
HETATM    5  C6  UNL     1      -4.698   2.419  13.033  1.00  0.00     0.147 C 
HETATM    6  N2  UNL     1      -4.898   1.581  11.950  1.00  0.00    -0.363 N 
ATOM      7  H2  UNL     1      -5.808   1.577  11.488  1.00  0.00     0.161 HD
HETATM    8  C7  UNL     1      -3.890   0.741  11.473  1.00  0.00     0.284 C 
HETATM    9  N3  UNL     1      -2.527   1.197  11.781  1.00  0.00    -0.049 N 
ATOM     10  H31 UNL     1      -2.315   1.232  12.778  1.00  0.00     0.280 HD
ATOM     11  H32 UNL     1      -1.798   0.528  11.533  1.00  0.00     0.280 HD
ENDROOT
BRANCH   1  12
HETATM   12  C2  UNL     1      -1.019   2.685  10.541  1.00  0.00     0.030 C 
HETATM   13  C1  UNL     1      -1.023   3.241   9.150  1.00  0.00     0.007 C 
ENDBRANCH   1  12
BRANCH   8  14
HETATM   14  C8  UNL     1      -4.056  -0.727  11.813  1.00  0.00     0.050 C 
HETATM   15  C9  UNL     1      -3.012  -1.584  11.143  1.00  0.00     0.009 C 
ENDBRANCH   8  14
TORSDOF 2
ENDMDL
