MODEL 1
REMARK VINA RESULT: -5.061219787      0.000      0.000
REMARK  3 active torsions:
REMARK  status: ('A' for Active; 'I' for Inactive)
REMARK    1  A    between atoms: C2_2  and  C3_3 
REMARK    2  A    between atoms: C3_3  and  N1_4 
REMARK    3  A    between atoms: C6_7  and  N2_8 
ROOT
HETATM    1  N1  UNL     1      -6.131   2.853  15.056  1.00  0.00     0.106 N 
HETATM    2  C4  UNL     1      -5.389   4.092  15.153  1.00  0.00     0.276 C 
HETATM    3  C5  UNL     1      -3.947   4.062  14.850  1.00  0.00     0.063 C 
HETATM    4  C6  UNL     1      -3.824   3.492  13.450  1.00  0.00     0.188 C 
HETATM    5  C7  UNL     1      -4.463   2.162  13.322  1.00  0.00     0.083 C 
HETATM    6  C8  UNL     1      -5.404   1.801  14.427  1.00  0.00     0.330 C 
HETATM    7  C9  UNL     1      -4.638   1.070  15.441  1.00  0.00     0.095 C 
HETATM    8  N3  UNL     1      -4.009   0.489  16.252  1.00  0.00    -0.195 NA
ENDROOT
BRANCH   1   9
HETATM    9  C3  UNL     1      -6.667   2.536  16.349  1.00  0.00     0.273 C 
BRANCH   9  10
HETATM   10  C2  UNL     1      -6.307   3.303  17.528  1.00  0.00     0.026 C 
HETATM   11  C1  UNL     1      -6.059   2.700  18.841  1.00  0.00     0.007 C 
ENDBRANCH   9  10
ENDBRANCH   1   9
BRANCH   4  12
HETATM   12  N2  UNL     1      -2.421   3.494  13.098  1.00  0.00    -0.075 N 
ATOM     13  H23 UNL     1      -2.037   4.435  13.003  1.00  0.00     0.274 HD
ATOM     14  H22 UNL     1      -1.820   3.181  13.860  1.00  0.00     0.274 HD
ATOM     15  H21 UNL     1      -2.314   2.935  12.252  1.00  0.00     0.274 HD
ENDBRANCH   4  12
TORSDOF 3
ENDMDL
MODEL 2
REMARK VINA RESULT: -5.034704895      3.465      5.173
REMARK  3 active torsions:
REMARK  status: ('A' for Active; 'I' for Inactive)
REMARK    1  A    between atoms: C2_2  and  C3_3 
REMARK    2  A    between atoms: C3_3  and  N1_4 
REMARK    3  A    between atoms: C6_7  and  N2_8 
ROOT
HETATM    1  N1  UNL     1      -3.584   2.485  10.724  1.00  0.00     0.106 N 
HETATM    2  C4  UNL     1      -2.309   1.825  10.546  1.00  0.00     0.276 C 
HETATM    3  C5  UNL     1      -2.122   0.500  11.163  1.00  0.00     0.063 C 
HETATM    4  C6  UNL     1      -3.239  -0.375  10.624  1.00  0.00     0.188 C 
HETATM    5  C7  UNL     1      -4.580   0.194  10.886  1.00  0.00     0.083 C 
HETATM    6  C8  UNL     1      -4.593   1.639  11.271  1.00  0.00     0.330 C 
HETATM    7  C9  UNL     1      -4.540   1.710  12.733  1.00  0.00     0.095 C 
HETATM    8  N3  UNL     1      -4.491   1.752  13.911  1.00  0.00    -0.195 NA
ENDROOT
BRANCH   1   9
HETATM    9  C3  UNL     1      -3.371   3.716  11.430  1.00  0.00     0.273 C 
BRANCH   9  10
HETATM   10  C2  UNL     1      -2.045   4.122  11.862  1.00  0.00     0.026 C 
HETATM   11  C1  UNL     1      -1.690   4.366  13.263  1.00  0.00     0.007 C 
ENDBRANCH   9  10
ENDBRANCH   1   9
BRANCH   4  12
HETATM   12  N2  UNL     1      -3.058  -1.702  11.170  1.00  0.00    -0.075 N 
ATOM     13  H23 UNL     1      -2.590  -2.337  10.522  1.00  0.00     0.274 HD
ATOM     14  H22 UNL     1      -2.361  -1.733  11.914  1.00  0.00     0.274 HD
ATOM     15  H21 UNL     1      -3.972  -2.041  11.467  1.00  0.00     0.274 HD
ENDBRANCH   4  12
TORSDOF 3
ENDMDL
MODEL 3
REMARK VINA RESULT: -5.010001607      1.577      2.040
REMARK  3 active torsions:
REMARK  status: ('A' for Active; 'I' for Inactive)
REMARK    1  A    between atoms: C2_2  and  C3_3 
REMARK    2  A    between atoms: C3_3  and  N1_4 
REMARK    3  A    between atoms: C6_7  and  N2_8 
ROOT
HETATM    1  N1  UNL     1      -4.960   4.226  13.567  1.00  0.00     0.106 N 
HETATM    2  C4  UNL     1      -3.810   4.897  14.133  1.00  0.00     0.276 C 
HETATM    3  C5  UNL     1      -2.518   4.187  14.122  1.00  0.00     0.063 C 
HETATM    4  C6  UNL     1      -2.249   3.830  12.672  1.00  0.00     0.188 C 
HETATM    5  C7  UNL     1      -3.344   3.035  12.072  1.00  0.00     0.083 C 
HETATM    6  C8  UNL     1      -4.630   3.049  12.835  1.00  0.00     0.330 C 
HETATM    7  C9  UNL     1      -4.618   1.901  13.747  1.00  0.00     0.095 C 
HETATM    8  N3  UNL     1      -4.593   0.978  14.480  1.00  0.00    -0.195 NA
ENDROOT
BRANCH   1   9
HETATM    9  C3  UNL     1      -5.942   4.049  14.597  1.00  0.00     0.273 C 
BRANCH   9  10
HETATM   10  C2  UNL     1      -5.850   4.755  15.863  1.00  0.00     0.026 C 
HETATM   11  C1  UNL     1      -6.425   4.252  17.114  1.00  0.00     0.007 C 
ENDBRANCH   9  10
ENDBRANCH   1   9
BRANCH   4  12
HETATM   12  N2  UNL     1      -0.960   3.175  12.614  1.00  0.00    -0.075 N 
ATOM     13  H23 UNL     1      -1.034   2.159  12.563  1.00  0.00     0.274 HD
ATOM     14  H22 UNL     1      -0.481   3.320  11.725  1.00  0.00     0.274 HD
ATOM     15  H21 UNL     1      -0.416   3.493  13.415  1.00  0.00     0.274 HD
ENDBRANCH   4  12
TORSDOF 3
ENDMDL
MODEL 4
REMARK VINA RESULT: -4.854092979      1.447      2.910
REMARK  3 active torsions:
REMARK  status: ('A' for Active; 'I' for Inactive)
REMARK    1  A    between atoms: C2_2  and  C3_3 
REMARK    2  A    between atoms: C3_3  and  N1_4 
REMARK    3  A    between atoms: C6_7  and  N2_8 
ROOT
HETATM    1  N1  UNL     1      -4.879   3.309  15.327  1.00  0.00     0.106 N 
HETATM    2  C4  UNL     1      -4.821   2.204  14.395  1.00  0.00     0.276 C 
HETATM    3  C5  UNL     1      -4.662   2.514  12.962  1.00  0.00     0.063 C 
HETATM    4  C6  UNL     1      -3.402   3.352  12.852  1.00  0.00     0.188 C 
HETATM    5  C7  UNL     1      -3.455   4.567  13.698  1.00  0.00     0.083 C 
HETATM    6  C8  UNL     1      -4.516   4.561  14.752  1.00  0.00     0.330 C 
HETATM    7  C9  UNL     1      -5.708   5.195  14.184  1.00  0.00     0.095 C 
HETATM    8  N3  UNL     1      -6.664   5.702  13.713  1.00  0.00    -0.195 NA
ENDROOT
BRANCH   1   9
HETATM    9  C3  UNL     1      -6.153   3.288  15.988  1.00  0.00     0.273 C 
BRANCH   9  10
HETATM   10  C2  UNL     1      -6.414   2.393  17.101  1.00  0.00     0.026 C 
HETATM   11  C1  UNL     1      -7.257   1.197  16.997  1.00  0.00     0.007 C 
ENDBRANCH   9  10
ENDBRANCH   1   9
BRANCH   4  12
HETATM   12  N2  UNL     1      -3.184   3.634  11.450  1.00  0.00    -0.075 N 
ATOM     13  H23 UNL     1      -3.180   2.793  10.872  1.00  0.00     0.274 HD
ATOM     14  H22 UNL     1      -3.981   4.095  11.010  1.00  0.00     0.274 HD
ATOM     15  H21 UNL     1      -2.322   4.172  11.374  1.00  0.00     0.274 HD
ENDBRANCH   4  12
TORSDOF 3
ENDMDL
MODEL 5
REMARK VINA RESULT: -4.801723567      3.423      5.117
REMARK  3 active torsions:
REMARK  status: ('A' for Active; 'I' for Inactive)
REMARK    1  A    between atoms: C2_2  and  C3_3 
REMARK    2  A    between atoms: C3_3  and  N1_4 
REMARK    3  A    between atoms: C6_7  and  N2_8 
ROOT
HETATM    1  N1  UNL     1      -3.629   2.577  10.819  1.00  0.00     0.106 N 
HETATM    2  C4  UNL     1      -2.356   1.927  10.597  1.00  0.00     0.276 C 
HETATM    3  C5  UNL     1      -2.154   0.584  11.171  1.00  0.00     0.063 C 
HETATM    4  C6  UNL     1      -3.278  -0.278  10.628  1.00  0.00     0.188 C 
HETATM    5  C7  UNL     1      -4.615   0.279  10.933  1.00  0.00     0.083 C 
HETATM    6  C8  UNL     1      -4.624   1.713  11.360  1.00  0.00     0.330 C 
HETATM    7  C9  UNL     1      -4.543   1.740  12.823  1.00  0.00     0.095 C 
HETATM    8  N3  UNL     1      -4.471   1.748  14.001  1.00  0.00    -0.195 NA
ENDROOT
BRANCH   1   9
HETATM    9  C3  UNL     1      -3.406   3.787  11.557  1.00  0.00     0.273 C 
BRANCH   9  10
HETATM   10  C2  UNL     1      -4.075   5.026  11.202  1.00  0.00     0.026 C 
HETATM   11  C1  UNL     1      -4.628   5.959  12.189  1.00  0.00     0.007 C 
ENDBRANCH   9  10
ENDBRANCH   1   9
BRANCH   4  12
HETATM   12  N2  UNL     1      -3.083  -1.620  11.131  1.00  0.00    -0.075 N 
ATOM     13  H23 UNL     1      -2.497  -1.650  11.965  1.00  0.00     0.274 HD
ATOM     14  H22 UNL     1      -3.927  -2.015  11.546  1.00  0.00     0.274 HD
ATOM     15  H21 UNL     1      -2.714  -2.185  10.366  1.00  0.00     0.274 HD
ENDBRANCH   4  12
TORSDOF 3
ENDMDL
