MODEL 1
REMARK VINA RESULT: -6.311792780      0.000      0.000
REMARK  10 active torsions:
REMARK  status: ('A' for Active; 'I' for Inactive)
REMARK    1  A    between atoms: C2_2  and  O1_3 
REMARK    2  A    between atoms: O1_3  and  C3_4 
REMARK       I    between atoms: C3_4  and  N1_6 
REMARK    3  A    between atoms: N1_6  and  C4_8 
REMARK    4  A    between atoms: N2_11  and  C7_12 
REMARK    5  A    between atoms: C7_12  and  O3_13 
REMARK    6  A    between atoms: C8_15  and  N3_16 
REMARK    7  A    between atoms: C8_15  and  C14_27 
REMARK    8  A    between atoms: N3_16  and  C9_18 
REMARK    9  A    between atoms: C9_18  and  C10_20 
REMARK   10  A    between atoms: C10_20  and  N4_22 
REMARK       I    between atoms: N4_22  and  C12_24 
ROOT
HETATM    1  C7  UNL     1      -7.796  28.176   1.706  1.00  0.00     0.161 C 
HETATM    2  C8  UNL     1      -9.166  28.446   1.996  1.00  0.00     0.065 C 
ENDROOT
BRANCH   1   3
HETATM    3  N2  UNL     1      -7.179  27.571   0.640  1.00  0.00    -0.360 N 
HETATM    4  C6  UNL     1      -7.312  26.092   0.406  1.00  0.00     0.127 C 
HETATM    5  C5  UNL     1      -6.935  25.760  -1.021  1.00  0.00     0.045 C 
HETATM    6  C4  UNL     1      -5.487  26.136  -1.300  1.00  0.00     0.089 C 
HETATM    7  C18 UNL     1      -5.095  27.347  -0.460  1.00  0.00     0.045 C 
HETATM    8  C17 UNL     1      -6.392  28.189  -0.373  1.00  0.00     0.127 C 
BRANCH   6   9
HETATM    9  N1  UNL     1      -5.445  26.581  -2.697  1.00  0.00    -0.332 N 
HETATM   10  C3  UNL     1      -4.244  26.553  -3.442  1.00  0.00     0.360 C 
HETATM   11  O2  UNL     1      -3.177  26.143  -2.918  1.00  0.00    -0.239 OA
ATOM     12  H1  UNL     1      -6.301  26.917  -3.139  1.00  0.00     0.165 HD
BRANCH  10  13
HETATM   13  O1  UNL     1      -4.219  26.975  -4.756  1.00  0.00    -0.304 OA
BRANCH  13  14
HETATM   14  C2  UNL     1      -5.288  26.734  -5.641  1.00  0.00     0.176 C 
HETATM   15  C1  UNL     1      -5.960  28.037  -5.994  1.00  0.00     0.034 C 
ENDBRANCH  13  14
ENDBRANCH  10  13
ENDBRANCH   6   9
ENDBRANCH   1   3
BRANCH   1  16
HETATM   16  O3  UNL     1      -6.957  28.580   2.633  1.00  0.00    -0.345 OA
ATOM     17  H3  UNL     1      -7.262  29.342   3.111  1.00  0.00     0.219 HD
ENDBRANCH   1  16
BRANCH   2  18
HETATM   18  N3  UNL     1      -9.453  29.056   3.264  1.00  0.00    -0.348 N 
ATOM     19  H3  UNL     1      -8.628  29.344   3.791  1.00  0.00     0.166 HD
BRANCH  18  20
HETATM   20  C9  UNL     1     -10.673  29.323   3.899  1.00  0.00     0.100 C 
HETATM   21  S1  UNL     1     -11.768  28.288   4.481  1.00  0.00    -0.063 SA
BRANCH  20  22
HETATM   22  C10 UNL     1     -11.060  30.778   4.078  1.00  0.00     0.142 C 
HETATM   23  C11 UNL     1     -12.209  31.110   3.122  1.00  0.00     0.040 C 
BRANCH  22  24
HETATM   24  N4  UNL     1      -9.913  31.587   3.773  1.00  0.00    -0.351 N 
HETATM   25  C12 UNL     1      -9.756  32.921   4.244  1.00  0.00     0.214 C 
HETATM   26  C13 UNL     1      -8.561  33.713   3.901  1.00  0.00     0.117 C 
HETATM   27  O4  UNL     1     -10.637  33.473   4.971  1.00  0.00    -0.274 OA
ATOM     28  H4  UNL     1      -9.176  31.187   3.192  1.00  0.00     0.163 HD
ENDBRANCH  22  24
ENDBRANCH  20  22
ENDBRANCH  18  20
ENDBRANCH   2  18
BRANCH   2  29
HETATM   29  C14 UNL     1     -10.063  29.034   0.946  1.00  0.00     0.032 C 
HETATM   30  C15 UNL     1     -10.239  28.177  -0.285  1.00  0.00     0.016 C 
HETATM   31  C16 UNL     1      -9.343  30.309   0.373  1.00  0.00     0.016 C 
ENDBRANCH   2  29
TORSDOF 10
ENDMDL
MODEL 2
REMARK VINA RESULT: -6.074715229      2.522      3.444
REMARK  10 active torsions:
REMARK  status: ('A' for Active; 'I' for Inactive)
REMARK    1  A    between atoms: C2_2  and  O1_3 
REMARK    2  A    between atoms: O1_3  and  C3_4 
REMARK       I    between atoms: C3_4  and  N1_6 
REMARK    3  A    between atoms: N1_6  and  C4_8 
REMARK    4  A    between atoms: N2_11  and  C7_12 
REMARK    5  A    between atoms: C7_12  and  O3_13 
REMARK    6  A    between atoms: C8_15  and  N3_16 
REMARK    7  A    between atoms: C8_15  and  C14_27 
REMARK    8  A    between atoms: N3_16  and  C9_18 
REMARK    9  A    between atoms: C9_18  and  C10_20 
REMARK   10  A    between atoms: C10_20  and  N4_22 
REMARK       I    between atoms: N4_22  and  C12_24 
ROOT
HETATM    1  C7  UNL     1      -7.808  29.939   1.022  1.00  0.00     0.161 C 
HETATM    2  C8  UNL     1      -7.384  31.298   1.099  1.00  0.00     0.065 C 
ENDROOT
BRANCH   1   3
HETATM    3  N2  UNL     1      -7.641  28.971   0.064  1.00  0.00    -0.360 N 
HETATM    4  C6  UNL     1      -8.746  28.633  -0.897  1.00  0.00     0.127 C 
HETATM    5  C5  UNL     1      -8.183  27.893  -2.091  1.00  0.00     0.045 C 
HETATM    6  C4  UNL     1      -7.538  26.582  -1.660  1.00  0.00     0.089 C 
HETATM    7  C18 UNL     1      -6.958  26.727  -0.257  1.00  0.00     0.045 C 
HETATM    8  C17 UNL     1      -6.473  28.197  -0.194  1.00  0.00     0.127 C 
BRANCH   6   9
HETATM    9  N1  UNL     1      -6.394  26.380  -2.554  1.00  0.00    -0.332 N 
HETATM   10  C3  UNL     1      -6.537  25.713  -3.792  1.00  0.00     0.360 C 
HETATM   11  O2  UNL     1      -7.659  25.275  -4.155  1.00  0.00    -0.239 OA
ATOM     12  H1  UNL     1      -5.476  26.728  -2.277  1.00  0.00     0.165 HD
BRANCH  10  13
HETATM   13  O1  UNL     1      -5.452  25.529  -4.625  1.00  0.00    -0.304 OA
BRANCH  13  14
HETATM   14  C2  UNL     1      -4.358  26.417  -4.637  1.00  0.00     0.176 C 
HETATM   15  C1  UNL     1      -4.645  27.566  -5.571  1.00  0.00     0.034 C 
ENDBRANCH  13  14
ENDBRANCH  10  13
ENDBRANCH   6   9
ENDBRANCH   1   3
BRANCH   1  16
HETATM   16  O3  UNL     1      -8.496  29.526   2.064  1.00  0.00    -0.345 OA
ATOM     17  H3  UNL     1      -7.996  29.536   2.872  1.00  0.00     0.219 HD
ENDBRANCH   1  16
BRANCH   2  18
HETATM   18  N3  UNL     1      -7.803  32.044   2.251  1.00  0.00    -0.348 N 
ATOM     19  H3  UNL     1      -7.380  31.741   3.129  1.00  0.00     0.166 HD
BRANCH  18  20
HETATM   20  C9  UNL     1      -8.693  33.119   2.375  1.00  0.00     0.100 C 
HETATM   21  S1  UNL     1      -9.672  33.766   1.265  1.00  0.00    -0.063 SA
BRANCH  20  22
HETATM   22  C10 UNL     1      -8.775  33.803   3.726  1.00  0.00     0.142 C 
HETATM   23  C11 UNL     1      -7.385  34.318   4.109  1.00  0.00     0.040 C 
BRANCH  22  24
HETATM   24  N4  UNL     1      -9.227  32.837   4.690  1.00  0.00    -0.351 N 
HETATM   25  C12 UNL     1     -10.601  32.637   5.002  1.00  0.00     0.214 C 
HETATM   26  C13 UNL     1     -11.015  31.636   6.001  1.00  0.00     0.117 C 
HETATM   27  O4  UNL     1     -11.514  33.312   4.435  1.00  0.00    -0.274 OA
ATOM     28  H4  UNL     1      -8.531  32.269   5.173  1.00  0.00     0.163 HD
ENDBRANCH  22  24
ENDBRANCH  20  22
ENDBRANCH  18  20
ENDBRANCH   2  18
BRANCH   2  29
HETATM   29  C14 UNL     1      -5.974  31.673   0.748  1.00  0.00     0.032 C 
HETATM   30  C15 UNL     1      -5.069  31.906   1.935  1.00  0.00     0.016 C 
HETATM   31  C16 UNL     1      -6.020  33.093   0.072  1.00  0.00     0.016 C 
ENDBRANCH   2  29
TORSDOF 10
ENDMDL
MODEL 3
REMARK VINA RESULT: -6.065700336      4.380      5.434
REMARK  10 active torsions:
REMARK  status: ('A' for Active; 'I' for Inactive)
REMARK    1  A    between atoms: C2_2  and  O1_3 
REMARK    2  A    between atoms: O1_3  and  C3_4 
REMARK       I    between atoms: C3_4  and  N1_6 
REMARK    3  A    between atoms: N1_6  and  C4_8 
REMARK    4  A    between atoms: N2_11  and  C7_12 
REMARK    5  A    between atoms: C7_12  and  O3_13 
REMARK    6  A    between atoms: C8_15  and  N3_16 
REMARK    7  A    between atoms: C8_15  and  C14_27 
REMARK    8  A    between atoms: N3_16  and  C9_18 
REMARK    9  A    between atoms: C9_18  and  C10_20 
REMARK   10  A    between atoms: C10_20  and  N4_22 
REMARK       I    between atoms: N4_22  and  C12_24 
ROOT
HETATM    1  C7  UNL     1      -8.283  29.230  -0.194  1.00  0.00     0.161 C 
HETATM    2  C8  UNL     1      -7.398  29.223   0.924  1.00  0.00     0.065 C 
ENDROOT
BRANCH   1   3
HETATM    3  N2  UNL     1      -8.779  28.225  -0.985  1.00  0.00    -0.360 N 
HETATM    4  C6  UNL     1      -7.878  27.440  -1.896  1.00  0.00     0.127 C 
HETATM    5  C5  UNL     1      -8.553  26.148  -2.302  1.00  0.00     0.045 C 
HETATM    6  C4  UNL     1      -9.840  26.427  -3.066  1.00  0.00     0.089 C 
HETATM    7  C18 UNL     1     -10.468  27.723  -2.567  1.00  0.00     0.045 C 
HETATM    8  C17 UNL     1     -10.124  27.760  -1.057  1.00  0.00     0.127 C 
BRANCH   6   9
HETATM    9  N1  UNL     1     -10.771  25.356  -2.696  1.00  0.00    -0.332 N 
HETATM   10  C3  UNL     1     -11.539  24.679  -3.671  1.00  0.00     0.360 C 
HETATM   11  O2  UNL     1     -11.438  24.984  -4.887  1.00  0.00    -0.239 OA
ATOM     12  H1  UNL     1     -10.866  25.095  -1.714  1.00  0.00     0.165 HD
BRANCH  10  13
HETATM   13  O1  UNL     1     -12.412  23.673  -3.309  1.00  0.00    -0.304 OA
BRANCH  13  14
HETATM   14  C2  UNL     1     -12.772  22.639  -4.196  1.00  0.00     0.176 C 
HETATM   15  C1  UNL     1     -12.389  21.306  -3.606  1.00  0.00     0.034 C 
ENDBRANCH  13  14
ENDBRANCH  10  13
ENDBRANCH   6   9
ENDBRANCH   1   3
BRANCH   1  16
HETATM   16  O3  UNL     1      -8.708  30.424  -0.541  1.00  0.00    -0.345 OA
ATOM     17  H3  UNL     1      -9.375  30.770   0.039  1.00  0.00     0.219 HD
ENDBRANCH   1  16
BRANCH   2  18
HETATM   18  N3  UNL     1      -7.044  30.499   1.479  1.00  0.00    -0.348 N 
ATOM     19  H3  UNL     1      -7.473  30.702   2.382  1.00  0.00     0.166 HD
BRANCH  18  20
HETATM   20  C9  UNL     1      -6.208  31.512   0.990  1.00  0.00     0.100 C 
HETATM   21  S1  UNL     1      -4.719  31.399   0.375  1.00  0.00    -0.063 SA
BRANCH  20  22
HETATM   22  C10 UNL     1      -6.738  32.932   1.035  1.00  0.00     0.142 C 
HETATM   23  C11 UNL     1      -6.131  33.728  -0.123  1.00  0.00     0.040 C 
BRANCH  22  24
HETATM   24  N4  UNL     1      -6.353  33.515   2.291  1.00  0.00    -0.351 N 
HETATM   25  C12 UNL     1      -7.289  33.872   3.301  1.00  0.00     0.214 C 
HETATM   26  C13 UNL     1      -6.845  34.469   4.573  1.00  0.00     0.117 C 
HETATM   27  O4  UNL     1      -8.535  33.690   3.142  1.00  0.00    -0.274 OA
ATOM     28  H4  UNL     1      -5.362  33.679   2.467  1.00  0.00     0.163 HD
ENDBRANCH  22  24
ENDBRANCH  20  22
ENDBRANCH  18  20
ENDBRANCH   2  18
BRANCH   2  29
HETATM   29  C14 UNL     1      -7.587  28.232   2.036  1.00  0.00     0.032 C 
HETATM   30  C15 UNL     1      -7.394  26.789   1.634  1.00  0.00     0.016 C 
HETATM   31  C16 UNL     1      -9.105  28.271   2.447  1.00  0.00     0.016 C 
ENDBRANCH   2  29
TORSDOF 10
ENDMDL
MODEL 4
REMARK VINA RESULT: -6.013386732      2.042      3.051
REMARK  10 active torsions:
REMARK  status: ('A' for Active; 'I' for Inactive)
REMARK    1  A    between atoms: C2_2  and  O1_3 
REMARK    2  A    between atoms: O1_3  and  C3_4 
REMARK       I    between atoms: C3_4  and  N1_6 
REMARK    3  A    between atoms: N1_6  and  C4_8 
REMARK    4  A    between atoms: N2_11  and  C7_12 
REMARK    5  A    between atoms: C7_12  and  O3_13 
REMARK    6  A    between atoms: C8_15  and  N3_16 
REMARK    7  A    between atoms: C8_15  and  C14_27 
REMARK    8  A    between atoms: N3_16  and  C9_18 
REMARK    9  A    between atoms: C9_18  and  C10_20 
REMARK   10  A    between atoms: C10_20  and  N4_22 
REMARK       I    between atoms: N4_22  and  C12_24 
ROOT
HETATM    1  C7  UNL     1      -7.860  28.240   1.588  1.00  0.00     0.161 C 
HETATM    2  C8  UNL     1      -9.050  29.025   1.622  1.00  0.00     0.065 C 
ENDROOT
BRANCH   1   3
HETATM    3  N2  UNL     1      -7.203  27.602   0.566  1.00  0.00    -0.360 N 
HETATM    4  C6  UNL     1      -7.320  26.116   0.378  1.00  0.00     0.127 C 
HETATM    5  C5  UNL     1      -6.891  25.738  -1.023  1.00  0.00     0.045 C 
HETATM    6  C4  UNL     1      -5.434  26.113  -1.262  1.00  0.00     0.089 C 
HETATM    7  C18 UNL     1      -5.079  27.353  -0.450  1.00  0.00     0.045 C 
HETATM    8  C17 UNL     1      -6.382  28.190  -0.438  1.00  0.00     0.127 C 
BRANCH   6   9
HETATM    9  N1  UNL     1      -5.344  26.511  -2.670  1.00  0.00    -0.332 N 
HETATM   10  C3  UNL     1      -4.122  26.442  -3.377  1.00  0.00     0.360 C 
HETATM   11  O2  UNL     1      -3.078  26.034  -2.808  1.00  0.00    -0.239 OA
ATOM     12  H1  UNL     1      -6.181  26.844  -3.149  1.00  0.00     0.165 HD
BRANCH  10  13
HETATM   13  O1  UNL     1      -4.050  26.819  -4.703  1.00  0.00    -0.304 OA
BRANCH  13  14
HETATM   14  C2  UNL     1      -5.127  26.636  -5.593  1.00  0.00     0.176 C 
HETATM   15  C1  UNL     1      -5.658  27.977  -6.032  1.00  0.00     0.034 C 
ENDBRANCH  13  14
ENDBRANCH  10  13
ENDBRANCH   6   9
ENDBRANCH   1   3
BRANCH   1  16
HETATM   16  O3  UNL     1      -7.277  28.090   2.757  1.00  0.00    -0.345 OA
ATOM     17  H3  UNL     1      -7.889  28.076   3.483  1.00  0.00     0.219 HD
ENDBRANCH   1  16
BRANCH   2  18
HETATM   18  N3  UNL     1      -9.483  29.492   2.908  1.00  0.00    -0.348 N 
ATOM     19  H3  UNL     1      -8.940  30.272   3.280  1.00  0.00     0.166 HD
BRANCH  18  20
HETATM   20  C9  UNL     1     -10.524  29.059   3.739  1.00  0.00     0.100 C 
HETATM   21  S1  UNL     1     -10.508  28.769   5.329  1.00  0.00    -0.063 SA
BRANCH  20  22
HETATM   22  C10 UNL     1     -11.873  28.809   3.092  1.00  0.00     0.142 C 
HETATM   23  C11 UNL     1     -12.626  30.137   2.979  1.00  0.00     0.040 C 
BRANCH  22  24
HETATM   24  N4  UNL     1     -12.605  27.894   3.924  1.00  0.00    -0.351 N 
HETATM   25  C12 UNL     1     -13.604  27.015   3.418  1.00  0.00     0.214 C 
HETATM   26  C13 UNL     1     -14.330  26.096   4.312  1.00  0.00     0.117 C 
HETATM   27  O4  UNL     1     -13.903  26.993   2.185  1.00  0.00    -0.274 OA
ATOM     28  H4  UNL     1     -12.400  27.874   4.922  1.00  0.00     0.163 HD
ENDBRANCH  22  24
ENDBRANCH  20  22
ENDBRANCH  18  20
ENDBRANCH   2  18
BRANCH   2  29
HETATM   29  C14 UNL     1      -9.279  30.099   0.599  1.00  0.00     0.032 C 
HETATM   30  C15 UNL     1      -9.624  31.454   1.173  1.00  0.00     0.016 C 
HETATM   31  C16 UNL     1     -10.585  29.723  -0.193  1.00  0.00     0.016 C 
ENDBRANCH   2  29
TORSDOF 10
ENDMDL
MODEL 5
REMARK VINA RESULT: -5.990372054      1.723      2.506
REMARK  10 active torsions:
REMARK  status: ('A' for Active; 'I' for Inactive)
REMARK    1  A    between atoms: C2_2  and  O1_3 
REMARK    2  A    between atoms: O1_3  and  C3_4 
REMARK       I    between atoms: C3_4  and  N1_6 
REMARK    3  A    between atoms: N1_6  and  C4_8 
REMARK    4  A    between atoms: N2_11  and  C7_12 
REMARK    5  A    between atoms: C7_12  and  O3_13 
REMARK    6  A    between atoms: C8_15  and  N3_16 
REMARK    7  A    between atoms: C8_15  and  C14_27 
REMARK    8  A    between atoms: N3_16  and  C9_18 
REMARK    9  A    between atoms: C9_18  and  C10_20 
REMARK   10  A    between atoms: C10_20  and  N4_22 
REMARK       I    between atoms: N4_22  and  C12_24 
ROOT
HETATM    1  C7  UNL     1      -7.767  28.178   1.679  1.00  0.00     0.161 C 
HETATM    2  C8  UNL     1      -9.122  28.526   1.955  1.00  0.00     0.065 C 
ENDROOT
BRANCH   1   3
HETATM    3  N2  UNL     1      -7.171  27.557   0.610  1.00  0.00    -0.360 N 
HETATM    4  C6  UNL     1      -7.382  26.092   0.350  1.00  0.00     0.127 C 
HETATM    5  C5  UNL     1      -7.006  25.763  -1.078  1.00  0.00     0.045 C 
HETATM    6  C4  UNL     1      -5.536  26.064  -1.335  1.00  0.00     0.089 C 
HETATM    7  C18 UNL     1      -5.089  27.238  -0.470  1.00  0.00     0.045 C 
HETATM    8  C17 UNL     1      -6.340  28.148  -0.384  1.00  0.00     0.127 C 
BRANCH   6   9
HETATM    9  N1  UNL     1      -5.454  26.529  -2.723  1.00  0.00    -0.332 N 
HETATM   10  C3  UNL     1      -4.230  26.519  -3.431  1.00  0.00     0.360 C 
HETATM   11  O2  UNL     1      -3.177  26.107  -2.879  1.00  0.00    -0.239 OA
ATOM     12  H1  UNL     1      -6.297  26.866  -3.188  1.00  0.00     0.165 HD
BRANCH  10  13
HETATM   13  O1  UNL     1      -4.166  26.959  -4.737  1.00  0.00    -0.304 OA
BRANCH  13  14
HETATM   14  C2  UNL     1      -5.201  26.716  -5.661  1.00  0.00     0.176 C 
HETATM   15  C1  UNL     1      -5.897  28.010  -5.999  1.00  0.00     0.034 C 
ENDBRANCH  13  14
ENDBRANCH  10  13
ENDBRANCH   6   9
ENDBRANCH   1   3
BRANCH   1  16
HETATM   16  O3  UNL     1      -6.920  28.510   2.628  1.00  0.00    -0.345 OA
ATOM     17  H3  UNL     1      -6.990  27.965   3.403  1.00  0.00     0.219 HD
ENDBRANCH   1  16
BRANCH   2  18
HETATM   18  N3  UNL     1      -9.392  29.127   3.230  1.00  0.00    -0.348 N 
ATOM     19  H3  UNL     1      -8.742  28.860   3.970  1.00  0.00     0.166 HD
BRANCH  18  20
HETATM   20  C9  UNL     1     -10.396  30.018   3.631  1.00  0.00     0.100 C 
HETATM   21  S1  UNL     1     -10.452  31.626   3.485  1.00  0.00    -0.063 SA
BRANCH  20  22
HETATM   22  C10 UNL     1     -11.618  29.429   4.310  1.00  0.00     0.142 C 
HETATM   23  C11 UNL     1     -11.175  28.666   5.561  1.00  0.00     0.040 C 
BRANCH  22  24
HETATM   24  N4  UNL     1     -12.255  28.533   3.384  1.00  0.00    -0.351 N 
HETATM   25  C12 UNL     1     -13.266  28.949   2.472  1.00  0.00     0.214 C 
HETATM   26  C13 UNL     1     -13.893  27.991   1.544  1.00  0.00     0.117 C 
HETATM   27  O4  UNL     1     -13.662  30.153   2.428  1.00  0.00    -0.274 OA
ATOM     28  H4  UNL     1     -11.970  27.554   3.380  1.00  0.00     0.163 HD
ENDBRANCH  22  24
ENDBRANCH  20  22
ENDBRANCH  18  20
ENDBRANCH   2  18
BRANCH   2  29
HETATM   29  C14 UNL     1      -9.964  29.190   0.904  1.00  0.00     0.032 C 
HETATM   30  C15 UNL     1     -10.364  28.292  -0.243  1.00  0.00     0.016 C 
HETATM   31  C16 UNL     1      -9.066  30.269   0.195  1.00  0.00     0.016 C 
ENDBRANCH   2  29
TORSDOF 10
ENDMDL
