MODEL 1
REMARK VINA RESULT: -7.317238641      0.000      0.000
REMARK  7 active torsions:
REMARK  status: ('A' for Active; 'I' for Inactive)
REMARK    1  A    between atoms: C2_3  and  N2_4 
REMARK    2  A    between atoms: N2_4  and  C3_6 
REMARK    3  A    between atoms: C5_12  and  N5_13 
REMARK    4  A    between atoms: N8_22  and  C8_23 
REMARK    5  A    between atoms: C8_23  and  C9_24 
REMARK    6  A    between atoms: C9_24  and  C10_25 
REMARK    7  A    between atoms: C10_25  and  N9_26 
ROOT
HETATM    1  N1  UNL     1      13.914   1.971  17.005  1.00  0.00    -0.196 NA
HETATM    2  C1  UNL     1      14.895   2.538  16.929  1.00  0.00     0.079 C 
HETATM    3  C2  UNL     1      16.156   3.291  16.790  1.00  0.00     0.262 C 
ENDROOT
BRANCH   3   4
HETATM    4  N2  UNL     1      16.164   4.062  15.587  1.00  0.00    -0.213 N 
ATOM      5  H2  UNL     1      15.860   5.035  15.640  1.00  0.00     0.178 HD
BRANCH   4   6
HETATM    6  C3  UNL     1      16.525   3.615  14.463  1.00  0.00     0.699 A 
HETATM    7  N3  UNL     1      16.917   2.356  14.151  1.00  0.00    -0.021 N 
HETATM    8  C4  UNL     1      17.189   2.029  12.880  1.00  0.00     0.723 A 
ATOM      9  H3  UNL     1      17.007   1.655  14.886  1.00  0.00     0.203 HD
HETATM   10  N4  UNL     1      17.669   0.793  12.627  1.00  0.00    -0.021 N 
HETATM   11  N7  UNL     1      17.088   2.902  11.840  1.00  0.00    -0.090 N 
HETATM   12  C5  UNL     1      18.029   0.435  11.377  1.00  0.00     0.691 A 
ATOM     13  H4  UNL     1      17.760   0.122  13.390  1.00  0.00     0.203 HD
HETATM   14  N6  UNL     1      17.887   1.355  10.381  1.00  0.00    -0.186 N 
HETATM   15  C6  UNL     1      17.424   2.575  10.595  1.00  0.00     0.229 A 
ATOM     16  H6  UNL     1      18.149   1.092   9.431  1.00  0.00     0.185 HD
HETATM   17  C7  UNL     1      16.691   4.173  12.146  1.00  0.00     0.362 A 
HETATM   18  O1  UNL     1      16.596   4.961  11.162  1.00  0.00    -0.245 OA
HETATM   19  N8  UNL     1      16.442   4.475  13.406  1.00  0.00    -0.131 N 
BRANCH  12  20
HETATM   20  N5  UNL     1      18.515  -0.678  11.178  1.00  0.00    -0.234 N 
ATOM     21  H52 UNL     1      19.323  -1.021  11.697  1.00  0.00     0.174 HD
ATOM     22  H51 UNL     1      18.079  -1.306  10.502  1.00  0.00     0.174 HD
ENDBRANCH  12  20
BRANCH  19  23
HETATM   23  C8  UNL     1      16.320   5.926  13.700  1.00  0.00     0.154 C 
BRANCH  23  24
HETATM   24  C9  UNL     1      17.685   6.415  14.146  1.00  0.00     0.037 C 
BRANCH  24  25
HETATM   25  C10 UNL     1      18.216   7.443  13.229  1.00  0.00     0.111 C 
BRANCH  25  26
HETATM   26  N9  UNL     1      19.183   6.950  12.292  1.00  0.00    -0.231 NA
HETATM   27  C11 UNL     1      20.117   7.894  11.789  1.00  0.00     0.135 C 
HETATM   28  C12 UNL     1      21.556   7.401  11.999  1.00  0.00     0.185 C 
HETATM   29  O2  UNL     1      21.682   6.155  11.444  1.00  0.00    -0.373 OA
HETATM   30  C13 UNL     1      20.747   5.251  11.861  1.00  0.00     0.296 C 
HETATM   31  N10 UNL     1      19.750   5.800  12.761  1.00  0.00    -0.139 NA
ENDBRANCH  25  26
ENDBRANCH  24  25
ENDBRANCH  23  24
ENDBRANCH  19  23
ENDBRANCH   4   6
ENDBRANCH   3   4
TORSDOF 7
ENDMDL
MODEL 2
REMARK VINA RESULT: -7.258137342      1.788      4.332
REMARK  7 active torsions:
REMARK  status: ('A' for Active; 'I' for Inactive)
REMARK    1  A    between atoms: C2_3  and  N2_4 
REMARK    2  A    between atoms: N2_4  and  C3_6 
REMARK    3  A    between atoms: C5_12  and  N5_13 
REMARK    4  A    between atoms: N8_22  and  C8_23 
REMARK    5  A    between atoms: C8_23  and  C9_24 
REMARK    6  A    between atoms: C9_24  and  C10_25 
REMARK    7  A    between atoms: C10_25  and  N9_26 
ROOT
HETATM    1  N1  UNL     1      16.888   2.305   9.185  1.00  0.00    -0.196 NA
HETATM    2  C1  UNL     1      17.727   2.323   9.951  1.00  0.00     0.079 C 
HETATM    3  C2  UNL     1      18.801   2.387  10.961  1.00  0.00     0.262 C 
ENDROOT
BRANCH   3   4
HETATM    4  N2  UNL     1      18.666   3.548  11.781  1.00  0.00    -0.213 N 
ATOM      5  H2  UNL     1      19.283   4.340  11.594  1.00  0.00     0.178 HD
BRANCH   4   6
HETATM    6  C3  UNL     1      17.833   3.657  12.723  1.00  0.00     0.699 A 
HETATM    7  N3  UNL     1      17.657   2.830  13.783  1.00  0.00    -0.021 N 
HETATM    8  C4  UNL     1      16.775   3.142  14.743  1.00  0.00     0.723 A 
ATOM      9  H3  UNL     1      18.197   1.968  13.849  1.00  0.00     0.203 HD
HETATM   10  N4  UNL     1      16.562   2.245  15.729  1.00  0.00    -0.021 N 
HETATM   11  N7  UNL     1      16.022   4.275  14.733  1.00  0.00    -0.090 N 
HETATM   12  C5  UNL     1      15.632   2.474  16.680  1.00  0.00     0.691 A 
ATOM     13  H4  UNL     1      17.110   1.385  15.756  1.00  0.00     0.203 HD
HETATM   14  N6  UNL     1      14.924   3.637  16.618  1.00  0.00    -0.186 N 
HETATM   15  C6  UNL     1      15.106   4.535  15.663  1.00  0.00     0.229 A 
ATOM     16  H6  UNL     1      14.225   3.823  17.336  1.00  0.00     0.185 HD
HETATM   17  C7  UNL     1      16.195   5.116  13.670  1.00  0.00     0.362 A 
HETATM   18  O1  UNL     1      15.490   6.165  13.690  1.00  0.00    -0.245 OA
HETATM   19  N8  UNL     1      17.059   4.781  12.731  1.00  0.00    -0.131 N 
BRANCH  12  20
HETATM   20  N5  UNL     1      15.416   1.619  17.539  1.00  0.00    -0.234 N 
ATOM     21  H52 UNL     1      16.092   0.888  17.763  1.00  0.00     0.174 HD
ATOM     22  H51 UNL     1      14.553   1.654  18.081  1.00  0.00     0.174 HD
ENDBRANCH  12  20
BRANCH  19  23
HETATM   23  C8  UNL     1      16.969   5.570  11.475  1.00  0.00     0.154 C 
BRANCH  23  24
HETATM   24  C9  UNL     1      17.939   6.730  11.598  1.00  0.00     0.037 C 
BRANCH  24  25
HETATM   25  C10 UNL     1      18.501   7.106  10.286  1.00  0.00     0.111 C 
BRANCH  25  26
HETATM   26  N9  UNL     1      19.884   6.765  10.121  1.00  0.00    -0.231 NA
HETATM   27  C11 UNL     1      20.725   6.964  11.247  1.00  0.00     0.135 C 
HETATM   28  C12 UNL     1      21.489   5.677  11.591  1.00  0.00     0.185 C 
HETATM   29  O2  UNL     1      22.158   5.248  10.475  1.00  0.00    -0.373 OA
HETATM   30  C13 UNL     1      21.378   5.119   9.361  1.00  0.00     0.296 C 
HETATM   31  N10 UNL     1      20.000   5.530   9.550  1.00  0.00    -0.139 NA
ENDBRANCH  25  26
ENDBRANCH  24  25
ENDBRANCH  23  24
ENDBRANCH  19  23
ENDBRANCH   4   6
ENDBRANCH   3   4
TORSDOF 7
ENDMDL
MODEL 3
REMARK VINA RESULT: -7.228227874      2.403      3.303
REMARK  7 active torsions:
REMARK  status: ('A' for Active; 'I' for Inactive)
REMARK    1  A    between atoms: C2_3  and  N2_4 
REMARK    2  A    between atoms: N2_4  and  C3_6 
REMARK    3  A    between atoms: C5_12  and  N5_13 
REMARK    4  A    between atoms: N8_22  and  C8_23 
REMARK    5  A    between atoms: C8_23  and  C9_24 
REMARK    6  A    between atoms: C9_24  and  C10_25 
REMARK    7  A    between atoms: C10_25  and  N9_26 
ROOT
HETATM    1  N1  UNL     1      14.191   1.944  17.037  1.00  0.00    -0.196 NA
HETATM    2  C1  UNL     1      15.115   2.589  16.899  1.00  0.00     0.079 C 
HETATM    3  C2  UNL     1      16.301   3.438  16.676  1.00  0.00     0.262 C 
ENDROOT
BRANCH   3   4
HETATM    4  N2  UNL     1      16.245   4.076  15.399  1.00  0.00    -0.213 N 
ATOM      5  H2  UNL     1      15.771   4.977  15.335  1.00  0.00     0.178 HD
BRANCH   4   6
HETATM    6  C3  UNL     1      16.745   3.594  14.345  1.00  0.00     0.699 A 
HETATM    7  N3  UNL     1      16.896   2.289  14.013  1.00  0.00    -0.021 N 
HETATM    8  C4  UNL     1      17.375   1.950  12.807  1.00  0.00     0.723 A 
ATOM      9  H3  UNL     1      16.645   1.562  14.682  1.00  0.00     0.203 HD
HETATM   10  N4  UNL     1      17.599   0.643  12.554  1.00  0.00    -0.021 N 
HETATM   11  N7  UNL     1      17.726   2.857  11.855  1.00  0.00    -0.090 N 
HETATM   12  C5  UNL     1      18.150   0.252  11.385  1.00  0.00     0.691 A 
ATOM     13  H4  UNL     1      17.351  -0.056  13.253  1.00  0.00     0.203 HD
HETATM   14  N6  UNL     1      18.463   1.213  10.471  1.00  0.00    -0.186 N 
HETATM   15  C6  UNL     1      18.258   2.502  10.689  1.00  0.00     0.229 A 
ATOM     16  H6  UNL     1      18.871   0.927   9.581  1.00  0.00     0.185 HD
HETATM   17  C7  UNL     1      17.574   4.175  12.181  1.00  0.00     0.362 A 
HETATM   18  O1  UNL     1      17.898   4.997  11.277  1.00  0.00    -0.245 OA
HETATM   19  N8  UNL     1      17.114   4.484  13.378  1.00  0.00    -0.131 N 
BRANCH  12  20
HETATM   20  N5  UNL     1      18.396  -0.939  11.196  1.00  0.00    -0.234 N 
ATOM     21  H52 UNL     1      18.136  -1.419  10.334  1.00  0.00     0.174 HD
ATOM     22  H51 UNL     1      18.912  -1.465  11.900  1.00  0.00     0.174 HD
ENDBRANCH  12  20
BRANCH  19  23
HETATM   23  C8  UNL     1      17.267   5.909  13.770  1.00  0.00     0.154 C 
BRANCH  23  24
HETATM   24  C9  UNL     1      15.968   6.615  13.430  1.00  0.00     0.037 C 
BRANCH  24  25
HETATM   25  C10 UNL     1      16.199   7.773  12.544  1.00  0.00     0.111 C 
BRANCH  25  26
HETATM   26  N9  UNL     1      15.208   7.934  11.519  1.00  0.00    -0.231 NA
HETATM   27  C11 UNL     1      14.360   9.067  11.630  1.00  0.00     0.135 C 
HETATM   28  C12 UNL     1      14.382   9.892  10.334  1.00  0.00     0.185 C 
HETATM   29  O2  UNL     1      14.068   9.072   9.282  1.00  0.00    -0.373 OA
HETATM   30  C13 UNL     1      14.827   7.939   9.201  1.00  0.00     0.296 C 
HETATM   31  N10 UNL     1      15.776   7.780  10.287  1.00  0.00    -0.139 NA
ENDBRANCH  25  26
ENDBRANCH  24  25
ENDBRANCH  23  24
ENDBRANCH  19  23
ENDBRANCH   4   6
ENDBRANCH   3   4
TORSDOF 7
ENDMDL
MODEL 4
REMARK VINA RESULT: -7.170780706      2.751      5.326
REMARK  7 active torsions:
REMARK  status: ('A' for Active; 'I' for Inactive)
REMARK    1  A    between atoms: C2_3  and  N2_4 
REMARK    2  A    between atoms: N2_4  and  C3_6 
REMARK    3  A    between atoms: C5_12  and  N5_13 
REMARK    4  A    between atoms: N8_22  and  C8_23 
REMARK    5  A    between atoms: C8_23  and  C9_24 
REMARK    6  A    between atoms: C9_24  and  C10_25 
REMARK    7  A    between atoms: C10_25  and  N9_26 
ROOT
HETATM    1  N1  UNL     1      16.884   2.298   9.253  1.00  0.00    -0.196 NA
HETATM    2  C1  UNL     1      17.726   2.332  10.014  1.00  0.00     0.079 C 
HETATM    3  C2  UNL     1      18.804   2.416  11.018  1.00  0.00     0.262 C 
ENDROOT
BRANCH   3   4
HETATM    4  N2  UNL     1      18.650   3.573  11.842  1.00  0.00    -0.213 N 
ATOM      5  H2  UNL     1      19.258   4.373  11.661  1.00  0.00     0.178 HD
BRANCH   4   6
HETATM    6  C3  UNL     1      17.810   3.669  12.779  1.00  0.00     0.699 A 
HETATM    7  N3  UNL     1      17.644   2.842  13.839  1.00  0.00    -0.021 N 
HETATM    8  C4  UNL     1      16.751   3.140  14.794  1.00  0.00     0.723 A 
ATOM      9  H3  UNL     1      18.200   1.990  13.911  1.00  0.00     0.203 HD
HETATM   10  N4  UNL     1      16.549   2.242  15.781  1.00  0.00    -0.021 N 
HETATM   11  N7  UNL     1      15.976   4.259  14.777  1.00  0.00    -0.090 N 
HETATM   12  C5  UNL     1      15.610   2.456  16.727  1.00  0.00     0.691 A 
ATOM     13  H4  UNL     1      17.113   1.392  15.814  1.00  0.00     0.203 HD
HETATM   14  N6  UNL     1      14.881   3.605  16.657  1.00  0.00    -0.186 N 
HETATM   15  C6  UNL     1      15.051   4.503  15.701  1.00  0.00     0.229 A 
ATOM     16  H6  UNL     1      14.174   3.780  17.371  1.00  0.00     0.185 HD
HETATM   17  C7  UNL     1      16.139   5.099  13.712  1.00  0.00     0.362 A 
HETATM   18  O1  UNL     1      15.415   6.135  13.725  1.00  0.00    -0.245 OA
HETATM   19  N8  UNL     1      17.014   4.778  12.779  1.00  0.00    -0.131 N 
BRANCH  12  20
HETATM   20  N5  UNL     1      15.406   1.599  17.587  1.00  0.00    -0.234 N 
ATOM     21  H52 UNL     1      15.949   0.737  17.638  1.00  0.00     0.174 HD
ATOM     22  H51 UNL     1      14.699   1.763  18.304  1.00  0.00     0.174 HD
ENDBRANCH  12  20
BRANCH  19  23
HETATM   23  C8  UNL     1      16.917   5.562  11.520  1.00  0.00     0.154 C 
BRANCH  23  24
HETATM   24  C9  UNL     1      17.754   6.814  11.699  1.00  0.00     0.037 C 
BRANCH  24  25
HETATM   25  C10 UNL     1      17.319   7.889  10.786  1.00  0.00     0.111 C 
BRANCH  25  26
HETATM   26  N9  UNL     1      15.908   7.909  10.533  1.00  0.00    -0.231 NA
HETATM   27  C11 UNL     1      15.137   8.813  11.310  1.00  0.00     0.135 C 
HETATM   28  C12 UNL     1      14.293   9.725  10.407  1.00  0.00     0.185 C 
HETATM   29  O2  UNL     1      13.542   8.943   9.568  1.00  0.00    -0.373 OA
HETATM   30  C13 UNL     1      14.258   8.017   8.864  1.00  0.00     0.296 C 
HETATM   31  N10 UNL     1      15.671   7.985   9.190  1.00  0.00    -0.139 NA
ENDBRANCH  25  26
ENDBRANCH  24  25
ENDBRANCH  23  24
ENDBRANCH  19  23
ENDBRANCH   4   6
ENDBRANCH   3   4
TORSDOF 7
ENDMDL
MODEL 5
REMARK VINA RESULT: -7.159237877      2.131      6.054
REMARK  7 active torsions:
REMARK  status: ('A' for Active; 'I' for Inactive)
REMARK    1  A    between atoms: C2_3  and  N2_4 
REMARK    2  A    between atoms: N2_4  and  C3_6 
REMARK    3  A    between atoms: C5_12  and  N5_13 
REMARK    4  A    between atoms: N8_22  and  C8_23 
REMARK    5  A    between atoms: C8_23  and  C9_24 
REMARK    6  A    between atoms: C9_24  and  C10_25 
REMARK    7  A    between atoms: C10_25  and  N9_26 
ROOT
HETATM    1  N1  UNL     1      16.923   2.407   9.357  1.00  0.00    -0.196 NA
HETATM    2  C1  UNL     1      17.184   2.461  10.462  1.00  0.00     0.079 C 
HETATM    3  C2  UNL     1      17.512   2.576  11.895  1.00  0.00     0.262 C 
ENDROOT
BRANCH   3   4
HETATM    4  N2  UNL     1      17.270   3.900  12.373  1.00  0.00    -0.213 N 
ATOM      5  H2  UNL     1      16.345   4.112  12.749  1.00  0.00     0.178 HD
BRANCH   4   6
HETATM    6  C3  UNL     1      18.129   4.825  12.360  1.00  0.00     0.699 A 
HETATM    7  N3  UNL     1      19.468   4.719  12.180  1.00  0.00    -0.021 N 
HETATM    8  C4  UNL     1      20.229   5.820  12.111  1.00  0.00     0.723 A 
ATOM      9  H3  UNL     1      19.898   3.798  12.098  1.00  0.00     0.203 HD
HETATM   10  N4  UNL     1      21.568   5.667  12.028  1.00  0.00    -0.021 N 
HETATM   11  N7  UNL     1      19.734   7.084  12.205  1.00  0.00    -0.090 N 
HETATM   12  C5  UNL     1      22.387   6.740  12.031  1.00  0.00     0.691 A 
ATOM     13  H4  UNL     1      21.965   4.729  11.963  1.00  0.00     0.203 HD
HETATM   14  N6  UNL     1      21.821   7.977  12.112  1.00  0.00    -0.186 N 
HETATM   15  C6  UNL     1      20.514   8.162  12.198  1.00  0.00     0.229 A 
ATOM     16  H6  UNL     1      22.431   8.795  12.106  1.00  0.00     0.185 HD
HETATM   17  C7  UNL     1      18.384   7.200  12.384  1.00  0.00     0.362 A 
HETATM   18  O1  UNL     1      17.948   8.384  12.458  1.00  0.00    -0.245 OA
HETATM   19  N8  UNL     1      17.658   6.102  12.462  1.00  0.00    -0.131 N 
BRANCH  12  20
HETATM   20  N5  UNL     1      23.606   6.575  12.009  1.00  0.00    -0.234 N 
ATOM     21  H52 UNL     1      24.208   7.045  11.331  1.00  0.00     0.174 HD
ATOM     22  H51 UNL     1      24.048   5.984  12.712  1.00  0.00     0.174 HD
ENDBRANCH  12  20
BRANCH  19  23
HETATM   23  C8  UNL     1      16.270   6.292  12.960  1.00  0.00     0.154 C 
BRANCH  23  24
HETATM   24  C9  UNL     1      16.325   6.265  14.476  1.00  0.00     0.037 C 
BRANCH  24  25
HETATM   25  C10 UNL     1      15.216   5.471  15.042  1.00  0.00     0.111 C 
BRANCH  25  26
HETATM   26  N9  UNL     1      15.640   4.373  15.862  1.00  0.00    -0.231 NA
HETATM   27  C11 UNL     1      14.795   4.035  16.952  1.00  0.00     0.135 C 
HETATM   28  C12 UNL     1      14.420   2.546  16.907  1.00  0.00     0.185 C 
HETATM   29  O2  UNL     1      15.568   1.801  16.849  1.00  0.00    -0.373 OA
HETATM   30  C13 UNL     1      16.428   2.161  15.850  1.00  0.00     0.296 C 
HETATM   31  N10 UNL     1      15.995   3.312  15.080  1.00  0.00    -0.139 NA
ENDBRANCH  25  26
ENDBRANCH  24  25
ENDBRANCH  23  24
ENDBRANCH  19  23
ENDBRANCH   4   6
ENDBRANCH   3   4
TORSDOF 7
ENDMDL
