MODEL 1
REMARK VINA RESULT: -5.909658958      0.000      0.000
REMARK  10 active torsions:
REMARK  status: ('A' for Active; 'I' for Inactive)
REMARK    1  A    between atoms: N1_1  and  C1_4 
REMARK    2  A    between atoms: C2_10  and  C3_11 
REMARK    3  A    between atoms: C3_11  and  C4_13 
REMARK    4  A    between atoms: C4_13  and  C5_14 
REMARK    5  A    between atoms: C6_18  and  C7_19 
REMARK    6  A    between atoms: C7_19  and  S1_20 
REMARK    7  A    between atoms: S1_20  and  N5_21 
REMARK    8  A    between atoms: S1_20  and  N6_24 
REMARK    9  A    between atoms: C8_31  and  N8_32 
REMARK   10  A    between atoms: N8_32  and  C9_34 
ROOT
HETATM    1  C5  UNL     1     -30.407  41.526  23.535  1.00  0.00     0.245 C 
HETATM    2  N4  UNL     1     -30.142  41.772  24.934  1.00  0.00    -0.037 N 
ATOM      3  H41 UNL     1     -29.156  41.932  25.140  1.00  0.00     0.280 HD
ATOM      4  H42 UNL     1     -30.258  40.948  25.523  1.00  0.00     0.280 HD
HETATM    5  C6  UNL     1     -30.993  42.870  25.306  1.00  0.00     0.399 C 
HETATM    6  N7  UNL     1     -32.155  42.787  24.460  1.00  0.00    -0.022 N 
ATOM      7  H71 UNL     1     -32.470  43.699  24.130  1.00  0.00     0.282 HD
ATOM      8  H72 UNL     1     -32.999  42.529  24.971  1.00  0.00     0.282 HD
HETATM    9  C8  UNL     1     -31.852  41.877  23.384  1.00  0.00     0.319 C 
ENDROOT
BRANCH   1  10
HETATM   10  C4  UNL     1     -29.511  42.472  22.746  1.00  0.00     0.122 C 
BRANCH  10  11
HETATM   11  C3  UNL     1     -29.260  41.855  21.427  1.00  0.00     0.183 C 
HETATM   12  O2  UNL     1     -30.116  41.856  20.503  1.00  0.00    -0.291 OA
BRANCH  11  13
HETATM   13  C2  UNL     1     -27.952  41.215  21.193  1.00  0.00     0.147 A 
HETATM   14  C1  UNL     1     -27.238  41.184  20.012  1.00  0.00     0.153 A 
HETATM   15  N2  UNL     1     -26.107  40.492  20.267  1.00  0.00    -0.224 N 
HETATM   16  O1  UNL     1     -26.109  40.118  21.511  1.00  0.00    -0.155 OA
ATOM     17  H2  UNL     1     -25.369  40.295  19.591  1.00  0.00     0.198 HD
HETATM   18  N3  UNL     1     -27.207  40.542  22.083  1.00  0.00    -0.234 N 
ATOM     19  H3  UNL     1     -27.459  40.385  23.059  1.00  0.00     0.197 HD
BRANCH  14  20
HETATM   20  N1  UNL     1     -27.618  41.722  18.910  1.00  0.00    -0.382 N 
ATOM     21  H12 UNL     1     -28.228  41.278  18.224  1.00  0.00     0.157 HD
ATOM     22  H11 UNL     1     -27.390  42.645  18.541  1.00  0.00     0.157 HD
ENDBRANCH  14  20
ENDBRANCH  11  13
ENDBRANCH  10  11
ENDBRANCH   1  10
BRANCH   9  23
HETATM   23  N8  UNL     1     -32.638  40.677  23.551  1.00  0.00    -0.339 N 
ATOM     24  H8  UNL     1     -33.066  40.476  24.455  1.00  0.00     0.164 HD
BRANCH  23  25
HETATM   25  C9  UNL     1     -32.823  39.775  22.471  1.00  0.00     0.350 C 
HETATM   26  O4  UNL     1     -32.757  38.537  22.680  1.00  0.00    -0.284 OA
ENDBRANCH  23  25
ENDBRANCH   9  23
BRANCH   5  27
HETATM   27  C7  UNL     1     -31.312  42.786  26.761  1.00  0.00     0.201 C 
BRANCH  27  28
HETATM   28  S1  UNL     1     -29.929  43.233  27.785  1.00  0.00     0.102 S 
HETATM   29  O3  UNL     1     -28.664  43.364  27.009  1.00  0.00    -0.229 OA
BRANCH  28  30
HETATM   30  N5  UNL     1     -29.713  42.138  28.867  1.00  0.00    -0.345 N 
ATOM     31  H52 UNL     1     -29.383  42.319  29.815  1.00  0.00     0.167 HD
ATOM     32  H51 UNL     1     -29.951  41.225  28.478  1.00  0.00     0.167 HD
ENDBRANCH  28  30
BRANCH  28  33
HETATM   33  N6  UNL     1     -30.212  44.719  28.602  1.00  0.00    -0.345 N 
ATOM     34  H62 UNL     1     -31.123  45.177  28.641  1.00  0.00     0.167 HD
ATOM     35  H61 UNL     1     -29.358  45.073  29.033  1.00  0.00     0.167 HD
ENDBRANCH  28  33
ENDBRANCH  27  28
ENDBRANCH   5  27
TORSDOF 10
ENDMDL
MODEL 2
REMARK VINA RESULT: -5.650754369      2.535      6.328
REMARK  10 active torsions:
REMARK  status: ('A' for Active; 'I' for Inactive)
REMARK    1  A    between atoms: N1_1  and  C1_4 
REMARK    2  A    between atoms: C2_10  and  C3_11 
REMARK    3  A    between atoms: C3_11  and  C4_13 
REMARK    4  A    between atoms: C4_13  and  C5_14 
REMARK    5  A    between atoms: C6_18  and  C7_19 
REMARK    6  A    between atoms: C7_19  and  S1_20 
REMARK    7  A    between atoms: S1_20  and  N5_21 
REMARK    8  A    between atoms: S1_20  and  N6_24 
REMARK    9  A    between atoms: C8_31  and  N8_32 
REMARK   10  A    between atoms: N8_32  and  C9_34 
ROOT
HETATM    1  C5  UNL     1     -29.470  42.091  23.583  1.00  0.00     0.245 C 
HETATM    2  N4  UNL     1     -30.738  41.565  23.129  1.00  0.00    -0.037 N 
ATOM      3  H41 UNL     1     -31.520  41.802  23.740  1.00  0.00     0.280 HD
ATOM      4  H42 UNL     1     -30.816  40.552  23.219  1.00  0.00     0.280 HD
HETATM    5  C6  UNL     1     -30.897  42.039  21.780  1.00  0.00     0.399 C 
HETATM    6  N7  UNL     1     -29.569  42.181  21.242  1.00  0.00    -0.022 N 
ATOM      7  H71 UNL     1     -29.461  43.020  20.673  1.00  0.00     0.282 HD
ATOM      8  H72 UNL     1     -29.363  41.497  20.514  1.00  0.00     0.282 HD
HETATM    9  C8  UNL     1     -28.640  42.126  22.341  1.00  0.00     0.319 C 
ENDROOT
BRANCH   1  10
HETATM   10  C4  UNL     1     -29.742  43.490  24.120  1.00  0.00     0.122 C 
BRANCH  10  11
HETATM   11  C3  UNL     1     -30.775  43.375  25.170  1.00  0.00     0.183 C 
HETATM   12  O2  UNL     1     -31.989  43.638  24.960  1.00  0.00    -0.291 OA
BRANCH  11  13
HETATM   13  C2  UNL     1     -30.357  42.935  26.515  1.00  0.00     0.147 A 
HETATM   14  C1  UNL     1     -29.793  43.709  27.508  1.00  0.00     0.153 A 
HETATM   15  N2  UNL     1     -29.579  42.888  28.557  1.00  0.00    -0.224 N 
HETATM   16  O1  UNL     1     -29.977  41.691  28.249  1.00  0.00    -0.155 OA
ATOM     17  H2  UNL     1     -29.169  43.164  29.450  1.00  0.00     0.198 HD
HETATM   18  N3  UNL     1     -30.447  41.698  27.027  1.00  0.00    -0.234 N 
ATOM     19  H3  UNL     1     -30.825  40.887  26.539  1.00  0.00     0.197 HD
BRANCH  14  20
HETATM   20  N1  UNL     1     -29.541  44.964  27.406  1.00  0.00    -0.382 N 
ATOM     21  H12 UNL     1     -29.403  45.461  26.526  1.00  0.00     0.157 HD
ATOM     22  H11 UNL     1     -29.438  45.656  28.148  1.00  0.00     0.157 HD
ENDBRANCH  14  20
ENDBRANCH  11  13
ENDBRANCH  10  11
ENDBRANCH   1  10
BRANCH   9  23
HETATM   23  N8  UNL     1     -27.886  40.897  22.256  1.00  0.00    -0.339 N 
ATOM     24  H8  UNL     1     -27.910  40.236  23.033  1.00  0.00     0.164 HD
BRANCH  23  25
HETATM   25  C9  UNL     1     -27.113  40.597  21.104  1.00  0.00     0.350 C 
HETATM   26  O4  UNL     1     -25.932  40.188  21.239  1.00  0.00    -0.284 OA
ENDBRANCH  23  25
ENDBRANCH   9  23
BRANCH   5  27
HETATM   27  C7  UNL     1     -31.750  41.085  21.013  1.00  0.00     0.201 C 
BRANCH  27  28
HETATM   28  S1  UNL     1     -31.571  39.410  21.578  1.00  0.00     0.102 S 
HETATM   29  O3  UNL     1     -30.158  39.066  21.904  1.00  0.00    -0.229 OA
BRANCH  28  30
HETATM   30  N5  UNL     1     -32.053  38.436  20.467  1.00  0.00    -0.345 N 
ATOM     31  H52 UNL     1     -32.924  38.538  19.946  1.00  0.00     0.167 HD
ATOM     32  H51 UNL     1     -31.365  37.692  20.346  1.00  0.00     0.167 HD
ENDBRANCH  28  30
BRANCH  28  33
HETATM   33  N6  UNL     1     -32.528  39.116  22.976  1.00  0.00    -0.345 N 
ATOM     34  H62 UNL     1     -32.140  38.829  23.874  1.00  0.00     0.167 HD
ATOM     35  H61 UNL     1     -33.519  39.267  22.784  1.00  0.00     0.167 HD
ENDBRANCH  28  33
ENDBRANCH  27  28
ENDBRANCH   5  27
TORSDOF 10
ENDMDL
MODEL 3
REMARK VINA RESULT: -5.638059921      2.462      4.028
REMARK  10 active torsions:
REMARK  status: ('A' for Active; 'I' for Inactive)
REMARK    1  A    between atoms: N1_1  and  C1_4 
REMARK    2  A    between atoms: C2_10  and  C3_11 
REMARK    3  A    between atoms: C3_11  and  C4_13 
REMARK    4  A    between atoms: C4_13  and  C5_14 
REMARK    5  A    between atoms: C6_18  and  C7_19 
REMARK    6  A    between atoms: C7_19  and  S1_20 
REMARK    7  A    between atoms: S1_20  and  N5_21 
REMARK    8  A    between atoms: S1_20  and  N6_24 
REMARK    9  A    between atoms: C8_31  and  N8_32 
REMARK   10  A    between atoms: N8_32  and  C9_34 
ROOT
HETATM    1  C5  UNL     1     -31.624  42.505  24.270  1.00  0.00     0.245 C 
HETATM    2  N4  UNL     1     -30.479  42.175  25.088  1.00  0.00    -0.037 N 
ATOM      3  H41 UNL     1     -29.869  41.471  24.673  1.00  0.00     0.280 HD
ATOM      4  H42 UNL     1     -30.716  41.650  25.930  1.00  0.00     0.280 HD
HETATM    5  C6  UNL     1     -29.818  43.424  25.357  1.00  0.00     0.399 C 
HETATM    6  N7  UNL     1     -30.844  44.435  25.348  1.00  0.00    -0.022 N 
ATOM      7  H71 UNL     1     -30.547  45.295  24.888  1.00  0.00     0.282 HD
ATOM      8  H72 UNL     1     -31.018  44.830  26.272  1.00  0.00     0.282 HD
HETATM    9  C8  UNL     1     -32.024  43.861  24.754  1.00  0.00     0.319 C 
ENDROOT
BRANCH   1  10
HETATM   10  C4  UNL     1     -31.135  42.541  22.828  1.00  0.00     0.122 C 
BRANCH  10  11
HETATM   11  C3  UNL     1     -30.539  41.225  22.523  1.00  0.00     0.183 C 
HETATM   12  O2  UNL     1     -29.295  41.024  22.537  1.00  0.00    -0.291 OA
BRANCH  11  13
HETATM   13  C2  UNL     1     -31.443  40.108  22.188  1.00  0.00     0.147 A 
HETATM   14  C1  UNL     1     -31.573  39.477  20.968  1.00  0.00     0.153 A 
HETATM   15  N2  UNL     1     -32.511  38.521  21.129  1.00  0.00    -0.224 N 
HETATM   16  O1  UNL     1     -32.938  38.548  22.355  1.00  0.00    -0.155 OA
ATOM     17  H2  UNL     1     -32.834  37.880  20.404  1.00  0.00     0.198 HD
HETATM   18  N3  UNL     1     -32.309  39.493  23.007  1.00  0.00    -0.234 N 
ATOM     19  H3  UNL     1     -32.455  39.727  23.989  1.00  0.00     0.197 HD
BRANCH  14  20
HETATM   20  N1  UNL     1     -30.907  39.778  19.911  1.00  0.00    -0.382 N 
ATOM     21  H12 UNL     1     -31.232  40.407  19.177  1.00  0.00     0.157 HD
ATOM     22  H11 UNL     1     -29.980  39.459  19.630  1.00  0.00     0.157 HD
ENDBRANCH  14  20
ENDBRANCH  11  13
ENDBRANCH  10  11
ENDBRANCH   1  10
BRANCH   9  23
HETATM   23  N8  UNL     1     -33.034  43.707  25.774  1.00  0.00    -0.339 N 
ATOM     24  H8  UNL     1     -33.327  42.771  26.057  1.00  0.00     0.164 HD
BRANCH  23  25
HETATM   25  C9  UNL     1     -33.626  44.842  26.388  1.00  0.00     0.350 C 
HETATM   26  O4  UNL     1     -32.958  45.521  27.206  1.00  0.00    -0.284 OA
ENDBRANCH  23  25
ENDBRANCH   9  23
BRANCH   5  27
HETATM   27  C7  UNL     1     -29.084  43.334  26.653  1.00  0.00     0.201 C 
BRANCH  27  28
HETATM   28  S1  UNL     1     -30.172  43.047  28.028  1.00  0.00     0.102 S 
HETATM   29  O3  UNL     1     -31.405  42.308  27.636  1.00  0.00    -0.229 OA
BRANCH  28  30
HETATM   30  N5  UNL     1     -30.608  44.410  28.636  1.00  0.00    -0.345 N 
ATOM     31  H52 UNL     1     -30.585  45.299  28.136  1.00  0.00     0.167 HD
ATOM     32  H51 UNL     1     -30.916  44.269  29.598  1.00  0.00     0.167 HD
ENDBRANCH  28  30
BRANCH  28  33
HETATM   33  N6  UNL     1     -29.387  42.153  29.269  1.00  0.00    -0.345 N 
ATOM     34  H62 UNL     1     -28.373  42.074  29.352  1.00  0.00     0.167 HD
ATOM     35  H61 UNL     1     -30.063  41.721  29.899  1.00  0.00     0.167 HD
ENDBRANCH  28  33
ENDBRANCH  27  28
ENDBRANCH   5  27
TORSDOF 10
ENDMDL
MODEL 4
REMARK VINA RESULT: -5.488821350      2.581      6.426
REMARK  10 active torsions:
REMARK  status: ('A' for Active; 'I' for Inactive)
REMARK    1  A    between atoms: N1_1  and  C1_4 
REMARK    2  A    between atoms: C2_10  and  C3_11 
REMARK    3  A    between atoms: C3_11  and  C4_13 
REMARK    4  A    between atoms: C4_13  and  C5_14 
REMARK    5  A    between atoms: C6_18  and  C7_19 
REMARK    6  A    between atoms: C7_19  and  S1_20 
REMARK    7  A    between atoms: S1_20  and  N5_21 
REMARK    8  A    between atoms: S1_20  and  N6_24 
REMARK    9  A    between atoms: C8_31  and  N8_32 
REMARK   10  A    between atoms: N8_32  and  C9_34 
ROOT
HETATM    1  C5  UNL     1     -29.814  41.748  23.324  1.00  0.00     0.245 C 
HETATM    2  N4  UNL     1     -30.865  40.876  22.851  1.00  0.00    -0.037 N 
ATOM      3  H41 UNL     1     -31.669  40.829  23.477  1.00  0.00     0.280 HD
ATOM      4  H42 UNL     1     -30.623  39.886  22.888  1.00  0.00     0.280 HD
HETATM    5  C6  UNL     1     -31.191  41.340  21.528  1.00  0.00     0.399 C 
HETATM    6  N7  UNL     1     -29.984  41.913  20.991  1.00  0.00    -0.022 N 
ATOM      7  H71 UNL     1     -30.153  42.770  20.466  1.00  0.00     0.282 HD
ATOM      8  H72 UNL     1     -29.590  41.362  20.228  1.00  0.00     0.282 HD
HETATM    9  C8  UNL     1     -29.061  42.098  22.082  1.00  0.00     0.319 C 
ENDROOT
BRANCH   1  10
HETATM   10  C4  UNL     1     -30.496  42.966  23.933  1.00  0.00     0.122 C 
BRANCH  10  11
HETATM   11  C3  UNL     1     -29.618  43.485  25.002  1.00  0.00     0.183 C 
HETATM   12  O2  UNL     1     -28.642  44.247  24.768  1.00  0.00    -0.291 OA
BRANCH  11  13
HETATM   13  C2  UNL     1     -29.902  43.089  26.394  1.00  0.00     0.147 A 
HETATM   14  C1  UNL     1     -29.850  43.891  27.516  1.00  0.00     0.153 A 
HETATM   15  N2  UNL     1     -30.186  43.107  28.562  1.00  0.00    -0.224 N 
HETATM   16  O1  UNL     1     -30.431  41.907  28.132  1.00  0.00    -0.155 OA
ATOM     17  H2  UNL     1     -30.239  43.410  29.535  1.00  0.00     0.198 HD
HETATM   18  N3  UNL     1     -30.266  41.875  26.833  1.00  0.00    -0.234 N 
ATOM     19  H3  UNL     1     -30.395  41.053  26.245  1.00  0.00     0.197 HD
BRANCH  14  20
HETATM   20  N1  UNL     1     -29.536  45.136  27.514  1.00  0.00    -0.382 N 
ATOM     21  H12 UNL     1     -29.190  45.651  28.324  1.00  0.00     0.157 HD
ATOM     22  H11 UNL     1     -29.575  45.802  26.743  1.00  0.00     0.157 HD
ENDBRANCH  14  20
ENDBRANCH  11  13
ENDBRANCH  10  11
ENDBRANCH   1  10
BRANCH   9  23
HETATM   23  N8  UNL     1     -27.965  41.170  21.931  1.00  0.00    -0.339 N 
ATOM     24  H8  UNL     1     -27.399  40.921  22.742  1.00  0.00     0.164 HD
BRANCH  23  25
HETATM   25  C9  UNL     1     -27.665  40.599  20.666  1.00  0.00     0.350 C 
HETATM   26  O4  UNL     1     -28.271  39.563  20.295  1.00  0.00    -0.284 OA
ENDBRANCH  23  25
ENDBRANCH   9  23
BRANCH   5  27
HETATM   27  C7  UNL     1     -31.721  40.205  20.717  1.00  0.00     0.201 C 
BRANCH  27  28
HETATM   28  S1  UNL     1     -33.167  39.470  21.444  1.00  0.00     0.102 S 
HETATM   29  O3  UNL     1     -32.834  38.533  22.553  1.00  0.00    -0.229 OA
BRANCH  28  30
HETATM   30  N5  UNL     1     -33.939  38.668  20.359  1.00  0.00    -0.345 N 
ATOM     31  H52 UNL     1     -33.661  37.749  20.012  1.00  0.00     0.167 HD
ATOM     32  H51 UNL     1     -34.754  39.202  20.058  1.00  0.00     0.167 HD
ENDBRANCH  28  30
BRANCH  28  33
HETATM   33  N6  UNL     1     -34.235  40.669  22.060  1.00  0.00    -0.345 N 
ATOM     34  H62 UNL     1     -33.922  41.573  22.415  1.00  0.00     0.167 HD
ATOM     35  H61 UNL     1     -35.204  40.356  22.021  1.00  0.00     0.167 HD
ENDBRANCH  28  33
ENDBRANCH  27  28
ENDBRANCH   5  27
TORSDOF 10
ENDMDL
MODEL 5
REMARK VINA RESULT: -5.474813470      3.805      6.165
REMARK  10 active torsions:
REMARK  status: ('A' for Active; 'I' for Inactive)
REMARK    1  A    between atoms: N1_1  and  C1_4 
REMARK    2  A    between atoms: C2_10  and  C3_11 
REMARK    3  A    between atoms: C3_11  and  C4_13 
REMARK    4  A    between atoms: C4_13  and  C5_14 
REMARK    5  A    between atoms: C6_18  and  C7_19 
REMARK    6  A    between atoms: C7_19  and  S1_20 
REMARK    7  A    between atoms: S1_20  and  N5_21 
REMARK    8  A    between atoms: S1_20  and  N6_24 
REMARK    9  A    between atoms: C8_31  and  N8_32 
REMARK   10  A    between atoms: N8_32  and  C9_34 
ROOT
HETATM    1  C5  UNL     1     -26.921  40.364  19.134  1.00  0.00     0.245 C 
HETATM    2  N4  UNL     1     -27.210  40.840  20.467  1.00  0.00    -0.037 N 
ATOM      3  H41 UNL     1     -26.385  41.156  20.976  1.00  0.00     0.280 HD
ATOM      4  H42 UNL     1     -27.478  40.100  21.116  1.00  0.00     0.280 HD
HETATM    5  C6  UNL     1     -28.215  41.858  20.309  1.00  0.00     0.399 C 
HETATM    6  N7  UNL     1     -28.971  41.502  19.137  1.00  0.00    -0.022 N 
ATOM      7  H71 UNL     1     -29.205  42.308  18.558  1.00  0.00     0.282 HD
ATOM      8  H72 UNL     1     -29.924  41.211  19.354  1.00  0.00     0.282 HD
HETATM    9  C8  UNL     1     -28.228  40.496  18.422  1.00  0.00     0.319 C 
ENDROOT
BRANCH   1  10
HETATM   10  C4  UNL     1     -25.865  41.297  18.555  1.00  0.00     0.122 C 
BRANCH  10  11
HETATM   11  C3  UNL     1     -24.550  40.648  18.727  1.00  0.00     0.183 C 
HETATM   12  O2  UNL     1     -24.078  40.360  19.859  1.00  0.00    -0.291 OA
BRANCH  11  13
HETATM   13  C2  UNL     1     -23.764  40.328  17.520  1.00  0.00     0.147 A 
HETATM   14  C1  UNL     1     -22.397  40.163  17.434  1.00  0.00     0.153 A 
HETATM   15  N2  UNL     1     -22.126  39.883  16.143  1.00  0.00    -0.224 N 
HETATM   16  O1  UNL     1     -23.235  39.872  15.468  1.00  0.00    -0.155 OA
ATOM     17  H2  UNL     1     -21.197  39.707  15.758  1.00  0.00     0.198 HD
HETATM   18  N3  UNL     1     -24.230  40.138  16.277  1.00  0.00    -0.234 N 
ATOM     19  H3  UNL     1     -25.211  40.191  16.003  1.00  0.00     0.197 HD
BRANCH  14  20
HETATM   20  N1  UNL     1     -21.582  40.266  18.421  1.00  0.00    -0.382 N 
ATOM     21  H12 UNL     1     -20.912  39.549  18.701  1.00  0.00     0.157 HD
ATOM     22  H11 UNL     1     -21.463  41.042  19.071  1.00  0.00     0.157 HD
ENDBRANCH  14  20
ENDBRANCH  11  13
ENDBRANCH  10  11
ENDBRANCH   1  10
BRANCH   9  23
HETATM   23  N8  UNL     1     -28.933  39.239  18.514  1.00  0.00    -0.339 N 
ATOM     24  H8  UNL     1     -28.564  38.497  19.109  1.00  0.00     0.164 HD
BRANCH  23  25
HETATM   25  C9  UNL     1     -30.133  39.024  17.787  1.00  0.00     0.350 C 
HETATM   26  O4  UNL     1     -31.156  39.697  18.069  1.00  0.00    -0.284 OA
ENDBRANCH  23  25
ENDBRANCH   9  23
BRANCH   5  27
HETATM   27  C7  UNL     1     -29.043  41.941  21.548  1.00  0.00     0.201 C 
BRANCH  27  28
HETATM   28  S1  UNL     1     -30.043  40.492  21.791  1.00  0.00     0.102 S 
HETATM   29  O3  UNL     1     -29.322  39.236  21.442  1.00  0.00    -0.229 OA
BRANCH  28  30
HETATM   30  N5  UNL     1     -31.308  40.580  20.892  1.00  0.00    -0.345 N 
ATOM     31  H52 UNL     1     -32.076  39.909  20.907  1.00  0.00     0.167 HD
ATOM     32  H51 UNL     1     -31.243  41.406  20.296  1.00  0.00     0.167 HD
ENDBRANCH  28  30
BRANCH  28  33
HETATM   33  N6  UNL     1     -30.574  40.367  23.422  1.00  0.00    -0.345 N 
ATOM     34  H62 UNL     1     -30.241  39.652  24.070  1.00  0.00     0.167 HD
ATOM     35  H61 UNL     1     -31.255  41.092  23.646  1.00  0.00     0.167 HD
ENDBRANCH  28  33
ENDBRANCH  27  28
ENDBRANCH   5  27
TORSDOF 10
ENDMDL
