MODEL 1
REMARK VINA RESULT: -6.968232066      0.000      0.000
REMARK  5 active torsions:
REMARK  status: ('A' for Active; 'I' for Inactive)
REMARK    1  A    between atoms: C3_4  and  N2_5 
REMARK    2  A    between atoms: N2_5  and  C4_7 
REMARK    3  A    between atoms: C7_10  and  S1_11 
REMARK    4  A    between atoms: S1_11  and  N3_14 
REMARK    5  A    between atoms: N3_14  and  C8_16 
ROOT
HETATM    1  N1  UNL     1      33.773  62.316  53.943  1.00  0.00    -0.191 NA
HETATM    2  C1  UNL     1      34.566  62.165  54.773  1.00  0.00     0.104 C 
HETATM    3  C2  UNL     1      35.547  61.960  55.779  1.00  0.00     0.099 A 
HETATM    4  C3  UNL     1      35.458  60.858  56.604  1.00  0.00     0.128 A 
HETATM    5  N6  UNL     1      36.384  60.674  57.543  1.00  0.00    -0.338 N 
ATOM      6  H6  UNL     1      36.323  59.861  58.157  1.00  0.00     0.167 HD
HETATM    7  C18 UNL     1      37.412  61.555  57.697  1.00  0.00     0.079 A 
HETATM    8  C19 UNL     1      38.374  61.286  58.742  1.00  0.00     0.102 A 
HETATM    9  C20 UNL     1      38.300  60.175  59.600  1.00  0.00     0.041 A 
HETATM   10  C21 UNL     1      39.385  60.280  60.442  1.00  0.00     0.027 A 
HETATM   11  C22 UNL     1      40.057  61.416  60.075  1.00  0.00     0.142 A 
HETATM   12  O3  UNL     1      39.413  61.949  59.080  1.00  0.00    -0.320 OA
HETATM   13  C23 UNL     1      37.516  62.658  56.882  1.00  0.00     0.005 A 
HETATM   14  C24 UNL     1      38.531  63.571  56.998  1.00  0.00     0.014 A 
HETATM   15  C25 UNL     1      38.609  64.673  56.160  1.00  0.00     0.001 A 
HETATM   16  C26 UNL     1      37.662  64.873  55.191  1.00  0.00     0.001 A 
HETATM   17  C27 UNL     1      36.643  63.978  55.056  1.00  0.00     0.014 A 
HETATM   18  C28 UNL     1      36.571  62.878  55.898  1.00  0.00     0.001 A 
ENDROOT
BRANCH   4  19
HETATM   19  N2  UNL     1      34.500  60.049  56.464  1.00  0.00    -0.341 N 
ATOM     20  H2  UNL     1      33.781  60.342  55.804  1.00  0.00     0.167 HD
BRANCH  19  21
HETATM   21  C4  UNL     1      34.276  58.814  57.076  1.00  0.00     0.033 A 
HETATM   22  C5  UNL     1      34.857  57.641  56.651  1.00  0.00     0.031 A 
HETATM   23  C6  UNL     1      34.594  56.439  57.300  1.00  0.00     0.027 A 
HETATM   24  C7  UNL     1      33.748  56.381  58.386  1.00  0.00     0.080 A 
HETATM   25  C16 UNL     1      33.187  57.574  58.783  1.00  0.00     0.027 A 
HETATM   26  C17 UNL     1      33.434  58.768  58.155  1.00  0.00     0.031 A 
BRANCH  24  27
HETATM   27  S1  UNL     1      33.409  54.881  59.219  1.00  0.00     0.264 S 
HETATM   28  O1  UNL     1      31.908  54.696  59.148  1.00  0.00    -0.200 OA
HETATM   29  O2  UNL     1      34.031  53.777  58.403  1.00  0.00    -0.200 OA
BRANCH  27  30
HETATM   30  N3  UNL     1      33.995  54.949  60.819  1.00  0.00    -0.266 N 
ATOM     31  H3  UNL     1      33.406  54.639  61.591  1.00  0.00     0.180 HD
BRANCH  30  32
HETATM   32  C8  UNL     1      35.178  55.390  61.052  1.00  0.00     0.115 A 
HETATM   33  C9  UNL     1      35.296  56.666  61.558  1.00  0.00     0.051 A 
HETATM   34  C10 UNL     1      36.515  57.241  61.846  1.00  0.00     0.035 A 
HETATM   35  C11 UNL     1      37.648  56.471  61.603  1.00  0.00     0.059 A 
HETATM   36  N4  UNL     1      38.860  57.006  61.875  1.00  0.00    -0.364 N 
HETATM   37  C15 UNL     1      37.518  55.201  61.098  1.00  0.00     0.060 A 
HETATM   38  C12 UNL     1      39.956  56.280  61.646  1.00  0.00     0.088 A 
ATOM     39  H4  UNL     1      38.935  57.952  62.249  1.00  0.00     0.165 HD
HETATM   40  C13 UNL     1      39.870  54.994  61.137  1.00  0.00     0.019 A 
HETATM   41  C14 UNL     1      38.644  54.410  60.845  1.00  0.00     0.033 A 
HETATM   42  N5  UNL     1      36.287  54.676  60.830  1.00  0.00    -0.340 N 
ATOM     43  H5  UNL     1      36.213  53.730  60.456  1.00  0.00     0.167 HD
ENDBRANCH  30  32
ENDBRANCH  27  30
ENDBRANCH  24  27
ENDBRANCH  19  21
ENDBRANCH   4  19
TORSDOF 5
ENDMDL
MODEL 2
REMARK VINA RESULT: -6.873618510     10.807     13.205
REMARK  5 active torsions:
REMARK  status: ('A' for Active; 'I' for Inactive)
REMARK    1  A    between atoms: C3_4  and  N2_5 
REMARK    2  A    between atoms: N2_5  and  C4_7 
REMARK    3  A    between atoms: C7_10  and  S1_11 
REMARK    4  A    between atoms: S1_11  and  N3_14 
REMARK    5  A    between atoms: N3_14  and  C8_16 
ROOT
HETATM    1  N1  UNL     1      37.466  61.761  44.312  1.00  0.00    -0.191 NA
HETATM    2  C1  UNL     1      37.274  60.643  44.545  1.00  0.00     0.104 C 
HETATM    3  C2  UNL     1      37.025  59.271  44.810  1.00  0.00     0.099 A 
HETATM    4  C3  UNL     1      35.759  58.866  45.178  1.00  0.00     0.128 A 
HETATM    5  N6  UNL     1      35.535  57.576  45.423  1.00  0.00    -0.338 N 
ATOM      6  H6  UNL     1      34.601  57.272  45.697  1.00  0.00     0.167 HD
HETATM    7  C18 UNL     1      36.536  56.659  45.315  1.00  0.00     0.079 A 
HETATM    8  C19 UNL     1      36.213  55.279  45.602  1.00  0.00     0.102 A 
HETATM    9  C20 UNL     1      34.933  54.844  45.986  1.00  0.00     0.041 A 
HETATM   10  C21 UNL     1      35.038  53.481  46.164  1.00  0.00     0.027 A 
HETATM   11  C22 UNL     1      36.339  53.151  45.889  1.00  0.00     0.142 A 
HETATM   12  O3  UNL     1      36.963  54.245  45.569  1.00  0.00    -0.320 OA
HETATM   13  C23 UNL     1      37.804  57.044  44.948  1.00  0.00     0.005 A 
HETATM   14  C24 UNL     1      38.842  56.158  44.826  1.00  0.00     0.014 A 
HETATM   15  C25 UNL     1      40.109  56.579  44.453  1.00  0.00     0.001 A 
HETATM   16  C26 UNL     1      40.351  57.903  44.198  1.00  0.00     0.001 A 
HETATM   17  C27 UNL     1      39.335  58.804  44.314  1.00  0.00     0.014 A 
HETATM   18  C28 UNL     1      38.069  58.375  44.687  1.00  0.00     0.001 A 
ENDROOT
BRANCH   4  19
HETATM   19  N2  UNL     1      34.838  59.721  45.286  1.00  0.00    -0.341 N 
ATOM     20  H2  UNL     1      34.738  60.352  44.491  1.00  0.00     0.167 HD
BRANCH  19  21
HETATM   21  C4  UNL     1      33.934  59.934  46.329  1.00  0.00     0.033 A 
HETATM   22  C5  UNL     1      32.569  59.969  46.154  1.00  0.00     0.031 A 
HETATM   23  C6  UNL     1      31.717  60.187  47.231  1.00  0.00     0.027 A 
HETATM   24  C7  UNL     1      32.207  60.376  48.505  1.00  0.00     0.080 A 
HETATM   25  C16 UNL     1      33.576  60.334  48.641  1.00  0.00     0.027 A 
HETATM   26  C17 UNL     1      34.431  60.120  47.591  1.00  0.00     0.031 A 
BRANCH  24  27
HETATM   27  S1  UNL     1      31.152  60.648  49.874  1.00  0.00     0.264 S 
HETATM   28  O1  UNL     1      31.916  61.559  50.812  1.00  0.00    -0.200 OA
HETATM   29  O2  UNL     1      29.967  61.427  49.366  1.00  0.00    -0.200 OA
BRANCH  27  30
HETATM   30  N3  UNL     1      30.725  59.161  50.593  1.00  0.00    -0.266 N 
ATOM     31  H3  UNL     1      30.586  59.105  51.602  1.00  0.00     0.180 HD
BRANCH  30  32
HETATM   32  C8  UNL     1      30.579  58.114  49.866  1.00  0.00     0.115 A 
HETATM   33  C9  UNL     1      29.442  58.025  49.095  1.00  0.00     0.051 A 
HETATM   34  C10 UNL     1      29.181  56.946  48.276  1.00  0.00     0.035 A 
HETATM   35  C11 UNL     1      30.128  55.927  48.256  1.00  0.00     0.059 A 
HETATM   36  N4  UNL     1      29.902  54.855  47.465  1.00  0.00    -0.364 N 
HETATM   37  C15 UNL     1      31.257  56.026  49.031  1.00  0.00     0.060 A 
HETATM   38  C12 UNL     1      30.802  53.869  47.435  1.00  0.00     0.088 A 
ATOM     39  H4  UNL     1      29.056  54.800  46.898  1.00  0.00     0.165 HD
HETATM   40  C13 UNL     1      31.955  53.929  48.200  1.00  0.00     0.019 A 
HETATM   41  C14 UNL     1      32.222  55.013  49.026  1.00  0.00     0.033 A 
HETATM   42  N5  UNL     1      31.470  57.116  49.825  1.00  0.00    -0.340 N 
ATOM     43  H5  UNL     1      32.316  57.171  50.391  1.00  0.00     0.167 HD
ENDBRANCH  30  32
ENDBRANCH  27  30
ENDBRANCH  24  27
ENDBRANCH  19  21
ENDBRANCH   4  19
TORSDOF 5
ENDMDL
MODEL 3
REMARK VINA RESULT: -6.816684206      4.730      9.237
REMARK  5 active torsions:
REMARK  status: ('A' for Active; 'I' for Inactive)
REMARK    1  A    between atoms: C3_4  and  N2_5 
REMARK    2  A    between atoms: N2_5  and  C4_7 
REMARK    3  A    between atoms: C7_10  and  S1_11 
REMARK    4  A    between atoms: S1_11  and  N3_14 
REMARK    5  A    between atoms: N3_14  and  C8_16 
ROOT
HETATM    1  N1  UNL     1      39.384  60.239  58.255  1.00  0.00    -0.191 NA
HETATM    2  C1  UNL     1      38.517  59.489  58.419  1.00  0.00     0.104 C 
HETATM    3  C2  UNL     1      37.454  58.564  58.595  1.00  0.00     0.099 A 
HETATM    4  C3  UNL     1      36.210  58.846  58.069  1.00  0.00     0.128 A 
HETATM    5  N6  UNL     1      35.221  57.971  58.239  1.00  0.00    -0.338 N 
ATOM      6  H6  UNL     1      34.299  58.174  57.853  1.00  0.00     0.167 HD
HETATM    7  C18 UNL     1      35.421  56.809  58.921  1.00  0.00     0.079 A 
HETATM    8  C19 UNL     1      34.295  55.914  59.066  1.00  0.00     0.102 A 
HETATM    9  C20 UNL     1      33.017  56.183  58.546  1.00  0.00     0.041 A 
HETATM   10  C21 UNL     1      32.237  55.101  58.893  1.00  0.00     0.027 A 
HETATM   11  C22 UNL     1      33.047  54.242  59.588  1.00  0.00     0.142 A 
HETATM   12  O3  UNL     1      34.228  54.780  59.650  1.00  0.00    -0.320 OA
HETATM   13  C23 UNL     1      36.655  56.512  59.452  1.00  0.00     0.005 A 
HETATM   14  C24 UNL     1      36.905  55.357  60.145  1.00  0.00     0.014 A 
HETATM   15  C25 UNL     1      38.161  55.087  60.666  1.00  0.00     0.001 A 
HETATM   16  C26 UNL     1      39.186  55.979  60.498  1.00  0.00     0.001 A 
HETATM   17  C27 UNL     1      38.962  57.135  59.813  1.00  0.00     0.014 A 
HETATM   18  C28 UNL     1      37.703  57.399  59.293  1.00  0.00     0.001 A 
ENDROOT
BRANCH   4  19
HETATM   19  N2  UNL     1      36.027  59.926  57.446  1.00  0.00    -0.341 N 
ATOM     20  H2  UNL     1      36.845  60.531  57.379  1.00  0.00     0.167 HD
BRANCH  19  21
HETATM   21  C4  UNL     1      34.873  60.420  56.833  1.00  0.00     0.033 A 
HETATM   22  C5  UNL     1      33.599  60.088  57.235  1.00  0.00     0.031 A 
HETATM   23  C6  UNL     1      32.487  60.611  56.585  1.00  0.00     0.027 A 
HETATM   24  C7  UNL     1      32.619  61.475  55.521  1.00  0.00     0.080 A 
HETATM   25  C16 UNL     1      33.908  61.785  55.148  1.00  0.00     0.027 A 
HETATM   26  C17 UNL     1      35.017  61.280  55.776  1.00  0.00     0.031 A 
BRANCH  24  27
HETATM   27  S1  UNL     1      31.233  62.147  54.693  1.00  0.00     0.264 S 
HETATM   28  O1  UNL     1      31.022  63.524  55.286  1.00  0.00    -0.200 OA
HETATM   29  O2  UNL     1      31.634  62.341  53.253  1.00  0.00    -0.200 OA
BRANCH  27  30
HETATM   30  N3  UNL     1      29.880  61.126  54.885  1.00  0.00    -0.266 N 
ATOM     31  H3  UNL     1      29.384  61.101  55.776  1.00  0.00     0.180 HD
BRANCH  30  32
HETATM   32  C8  UNL     1      29.485  60.391  53.910  1.00  0.00     0.115 A 
HETATM   33  C9  UNL     1      28.186  59.935  53.939  1.00  0.00     0.051 A 
HETATM   34  C10 UNL     1      27.656  59.138  52.945  1.00  0.00     0.035 A 
HETATM   35  C11 UNL     1      28.498  58.805  51.889  1.00  0.00     0.059 A 
HETATM   36  N4  UNL     1      28.009  58.026  50.899  1.00  0.00    -0.364 N 
HETATM   37  C15 UNL     1      29.791  59.265  51.872  1.00  0.00     0.060 A 
HETATM   38  C12 UNL     1      28.805  57.697  49.878  1.00  0.00     0.088 A 
ATOM     39  H4  UNL     1      27.045  57.693  50.930  1.00  0.00     0.165 HD
HETATM   40  C13 UNL     1      30.116  58.140  49.821  1.00  0.00     0.019 A 
HETATM   41  C14 UNL     1      30.655  58.942  50.820  1.00  0.00     0.033 A 
HETATM   42  N5  UNL     1      30.269  60.052  52.880  1.00  0.00    -0.340 N 
ATOM     43  H5  UNL     1      31.233  60.384  52.847  1.00  0.00     0.167 HD
ENDBRANCH  30  32
ENDBRANCH  27  30
ENDBRANCH  24  27
ENDBRANCH  19  21
ENDBRANCH   4  19
TORSDOF 5
ENDMDL
MODEL 4
REMARK VINA RESULT: -6.804687159      2.142      3.259
REMARK  5 active torsions:
REMARK  status: ('A' for Active; 'I' for Inactive)
REMARK    1  A    between atoms: C3_4  and  N2_5 
REMARK    2  A    between atoms: N2_5  and  C4_7 
REMARK    3  A    between atoms: C7_10  and  S1_11 
REMARK    4  A    between atoms: S1_11  and  N3_14 
REMARK    5  A    between atoms: N3_14  and  C8_16 
ROOT
HETATM    1  N1  UNL     1      31.228  61.806  54.025  1.00  0.00    -0.191 NA
HETATM    2  C1  UNL     1      32.316  62.149  54.221  1.00  0.00     0.104 C 
HETATM    3  C2  UNL     1      33.657  62.547  54.463  1.00  0.00     0.099 A 
HETATM    4  C3  UNL     1      34.204  62.376  55.718  1.00  0.00     0.128 A 
HETATM    5  N6  UNL     1      35.463  62.751  55.934  1.00  0.00    -0.338 N 
ATOM      6  H6  UNL     1      35.872  62.627  56.861  1.00  0.00     0.167 HD
HETATM    7  C18 UNL     1      36.213  63.297  54.937  1.00  0.00     0.079 A 
HETATM    8  C19 UNL     1      37.570  63.682  55.254  1.00  0.00     0.102 A 
HETATM    9  C20 UNL     1      38.146  63.525  56.526  1.00  0.00     0.041 A 
HETATM   10  C21 UNL     1      39.433  64.006  56.417  1.00  0.00     0.027 A 
HETATM   11  C22 UNL     1      39.585  64.423  55.121  1.00  0.00     0.142 A 
HETATM   12  O3  UNL     1      38.462  64.205  54.503  1.00  0.00    -0.320 OA
HETATM   13  C23 UNL     1      35.684  63.475  53.680  1.00  0.00     0.005 A 
HETATM   14  C24 UNL     1      36.399  64.020  52.646  1.00  0.00     0.014 A 
HETATM   15  C25 UNL     1      35.837  64.184  51.389  1.00  0.00     0.001 A 
HETATM   16  C26 UNL     1      34.543  63.802  51.155  1.00  0.00     0.001 A 
HETATM   17  C27 UNL     1      33.812  63.258  52.168  1.00  0.00     0.014 A 
HETATM   18  C28 UNL     1      34.380  63.097  53.423  1.00  0.00     0.001 A 
ENDROOT
BRANCH   4  19
HETATM   19  N2  UNL     1      33.503  61.877  56.640  1.00  0.00    -0.341 N 
ATOM     20  H2  UNL     1      32.792  62.497  57.027  1.00  0.00     0.167 HD
BRANCH  19  21
HETATM   21  C4  UNL     1      33.553  60.604  57.212  1.00  0.00     0.033 A 
HETATM   22  C5  UNL     1      33.197  60.343  58.516  1.00  0.00     0.031 A 
HETATM   23  C6  UNL     1      33.270  59.053  59.030  1.00  0.00     0.027 A 
HETATM   24  C7  UNL     1      33.699  57.996  58.259  1.00  0.00     0.080 A 
HETATM   25  C16 UNL     1      34.045  58.295  56.960  1.00  0.00     0.027 A 
HETATM   26  C17 UNL     1      33.981  59.560  56.434  1.00  0.00     0.031 A 
BRANCH  24  27
HETATM   27  S1  UNL     1      33.793  56.366  58.886  1.00  0.00     0.264 S 
HETATM   28  O1  UNL     1      33.723  56.497  60.393  1.00  0.00    -0.200 OA
HETATM   29  O2  UNL     1      32.540  55.654  58.444  1.00  0.00    -0.200 OA
BRANCH  27  30
HETATM   30  N3  UNL     1      35.224  55.610  58.350  1.00  0.00    -0.266 N 
ATOM     31  H3  UNL     1      35.198  54.980  57.549  1.00  0.00     0.180 HD
BRANCH  30  32
HETATM   32  C8  UNL     1      36.334  55.832  58.955  1.00  0.00     0.115 A 
HETATM   33  C9  UNL     1      37.101  56.889  58.516  1.00  0.00     0.051 A 
HETATM   34  C10 UNL     1      38.310  57.219  59.091  1.00  0.00     0.035 A 
HETATM   35  C11 UNL     1      38.738  56.432  60.154  1.00  0.00     0.059 A 
HETATM   36  N4  UNL     1      39.919  56.729  60.740  1.00  0.00    -0.364 N 
HETATM   37  C15 UNL     1      37.966  55.381  60.583  1.00  0.00     0.060 A 
HETATM   38  C12 UNL     1      40.344  55.982  61.762  1.00  0.00     0.088 A 
ATOM     39  H4  UNL     1      40.479  57.514  60.405  1.00  0.00     0.165 HD
HETATM   40  C13 UNL     1      39.596  54.913  62.226  1.00  0.00     0.019 A 
HETATM   41  C14 UNL     1      38.378  54.575  61.650  1.00  0.00     0.033 A 
HETATM   42  N5  UNL     1      36.775  55.094  59.980  1.00  0.00    -0.340 N 
ATOM     43  H5  UNL     1      36.216  54.309  60.315  1.00  0.00     0.167 HD
ENDBRANCH  30  32
ENDBRANCH  27  30
ENDBRANCH  24  27
ENDBRANCH  19  21
ENDBRANCH   4  19
TORSDOF 5
ENDMDL
MODEL 5
REMARK VINA RESULT: -6.754975260      2.236      4.078
REMARK  5 active torsions:
REMARK  status: ('A' for Active; 'I' for Inactive)
REMARK    1  A    between atoms: C3_4  and  N2_5 
REMARK    2  A    between atoms: N2_5  and  C4_7 
REMARK    3  A    between atoms: C7_10  and  S1_11 
REMARK    4  A    between atoms: S1_11  and  N3_14 
REMARK    5  A    between atoms: N3_14  and  C8_16 
ROOT
HETATM    1  N1  UNL     1      36.125  62.177  58.907  1.00  0.00    -0.191 NA
HETATM    2  C1  UNL     1      36.003  62.339  57.767  1.00  0.00     0.104 C 
HETATM    3  C2  UNL     1      35.834  62.551  56.374  1.00  0.00     0.099 A 
HETATM    4  C3  UNL     1      34.739  62.013  55.729  1.00  0.00     0.128 A 
HETATM    5  N6  UNL     1      34.589  62.219  54.422  1.00  0.00    -0.338 N 
ATOM      6  H6  UNL     1      33.782  61.824  53.940  1.00  0.00     0.167 HD
HETATM    7  C18 UNL     1      35.498  62.951  53.719  1.00  0.00     0.079 A 
HETATM    8  C19 UNL     1      35.266  63.126  52.303  1.00  0.00     0.102 A 
HETATM    9  C20 UNL     1      34.163  62.581  51.623  1.00  0.00     0.041 A 
HETATM   10  C21 UNL     1      34.305  62.969  50.308  1.00  0.00     0.027 A 
HETATM   11  C22 UNL     1      35.454  63.712  50.242  1.00  0.00     0.142 A 
HETATM   12  O3  UNL     1      35.960  63.761  51.438  1.00  0.00    -0.320 OA
HETATM   13  C23 UNL     1      36.596  63.494  54.345  1.00  0.00     0.005 A 
HETATM   14  C24 UNL     1      37.536  64.237  53.682  1.00  0.00     0.014 A 
HETATM   15  C25 UNL     1      38.630  64.773  54.343  1.00  0.00     0.001 A 
HETATM   16  C26 UNL     1      38.795  64.567  55.686  1.00  0.00     0.001 A 
HETATM   17  C27 UNL     1      37.873  63.831  56.369  1.00  0.00     0.014 A 
HETATM   18  C28 UNL     1      36.780  63.298  55.701  1.00  0.00     0.001 A 
ENDROOT
BRANCH   4  19
HETATM   19  N2  UNL     1      33.904  61.330  56.382  1.00  0.00    -0.341 N 
ATOM     20  H2  UNL     1      33.038  61.814  56.618  1.00  0.00     0.167 HD
BRANCH  19  21
HETATM   21  C4  UNL     1      33.987  60.011  56.833  1.00  0.00     0.033 A 
HETATM   22  C5  UNL     1      34.773  59.052  56.233  1.00  0.00     0.031 A 
HETATM   23  C6  UNL     1      34.814  57.753  56.726  1.00  0.00     0.027 A 
HETATM   24  C7  UNL     1      34.073  57.380  57.827  1.00  0.00     0.080 A 
HETATM   25  C16 UNL     1      33.301  58.365  58.400  1.00  0.00     0.027 A 
HETATM   26  C17 UNL     1      33.247  59.651  57.929  1.00  0.00     0.031 A 
BRANCH  24  27
HETATM   27  S1  UNL     1      34.115  55.752  58.465  1.00  0.00     0.264 S 
HETATM   28  O1  UNL     1      32.691  55.241  58.392  1.00  0.00    -0.200 OA
HETATM   29  O2  UNL     1      34.932  54.926  57.505  1.00  0.00    -0.200 OA
BRANCH  27  30
HETATM   30  N3  UNL     1      34.739  55.757  60.052  1.00  0.00    -0.266 N 
ATOM     31  H3  UNL     1      34.104  55.815  60.848  1.00  0.00     0.180 HD
BRANCH  30  32
HETATM   32  C8  UNL     1      36.005  55.687  60.246  1.00  0.00     0.115 A 
HETATM   33  C9  UNL     1      36.787  56.695  59.728  1.00  0.00     0.051 A 
HETATM   34  C10 UNL     1      38.158  56.723  59.875  1.00  0.00     0.035 A 
HETATM   35  C11 UNL     1      38.737  55.673  60.581  1.00  0.00     0.059 A 
HETATM   36  N4  UNL     1      40.079  55.670  60.742  1.00  0.00    -0.364 N 
HETATM   37  C15 UNL     1      37.948  54.673  61.092  1.00  0.00     0.060 A 
HETATM   38  C12 UNL     1      40.649  54.669  61.417  1.00  0.00     0.088 A 
ATOM     39  H4  UNL     1      40.649  56.422  60.354  1.00  0.00     0.165 HD
HETATM   40  C13 UNL     1      39.890  53.640  61.949  1.00  0.00     0.019 A 
HETATM   41  C14 UNL     1      38.509  53.608  61.804  1.00  0.00     0.033 A 
HETATM   42  N5  UNL     1      36.593  54.692  60.919  1.00  0.00    -0.340 N 
ATOM     43  H5  UNL     1      36.025  53.939  61.308  1.00  0.00     0.167 HD
ENDBRANCH  30  32
ENDBRANCH  27  30
ENDBRANCH  24  27
ENDBRANCH  19  21
ENDBRANCH   4  19
TORSDOF 5
ENDMDL
