MODEL 1
REMARK VINA RESULT: -5.431630162      0.000      0.000
REMARK  2 active torsions:
REMARK  status: ('A' for Active; 'I' for Inactive)
REMARK    1  A    between atoms: C2_2  and  C4_4 
REMARK    2  A    between atoms: C7_9  and  N2_10 
ROOT
HETATM    1  C4  UNL     1      27.616  80.417  62.387  1.00  0.00     0.076 C 
HETATM    2  N1  UNL     1      27.758  81.458  61.622  1.00  0.00    -0.380 N 
ATOM      3  H1  UNL     1      26.997  81.594  60.956  1.00  0.00     0.160 HD
HETATM    4  C5  UNL     1      28.786  82.447  61.544  1.00  0.00     0.123 C 
HETATM    5  C6  UNL     1      30.072  81.868  62.082  1.00  0.00     0.054 C 
HETATM    6  C7  UNL     1      30.045  81.901  63.588  1.00  0.00     0.202 C 
HETATM    7  C8  UNL     1      29.476  80.674  64.207  1.00  0.00     0.153 C 
HETATM    8  N3  UNL     1      28.508  79.980  63.398  1.00  0.00    -0.378 N 
ATOM      9  H3  UNL     1      28.454  78.980  63.590  1.00  0.00     0.160 HD
ENDROOT
BRANCH   6  10
HETATM   10  N2  UNL     1      31.434  82.095  64.029  1.00  0.00    -0.073 N 
ATOM     11  H23 UNL     1      31.988  82.658  63.382  1.00  0.00     0.274 HD
ATOM     12  H22 UNL     1      31.519  82.709  64.838  1.00  0.00     0.274 HD
ATOM     13  H21 UNL     1      31.822  81.164  64.186  1.00  0.00     0.274 HD
ENDBRANCH   6  10
BRANCH   1  14
HETATM   14  C2  UNL     1      26.388  79.653  62.133  1.00  0.00     0.044 C 
HETATM   15  C1  UNL     1      26.643  78.164  62.050  1.00  0.00     0.017 C 
HETATM   16  C3  UNL     1      25.692  80.163  60.886  1.00  0.00     0.017 C 
ENDBRANCH   1  14
TORSDOF 2
ENDMDL
MODEL 2
REMARK VINA RESULT: -5.207282050      0.494      1.165
REMARK  2 active torsions:
REMARK  status: ('A' for Active; 'I' for Inactive)
REMARK    1  A    between atoms: C2_2  and  C4_4 
REMARK    2  A    between atoms: C7_9  and  N2_10 
ROOT
HETATM    1  C4  UNL     1      27.724  80.354  62.145  1.00  0.00     0.076 C 
HETATM    2  N1  UNL     1      27.831  81.491  61.526  1.00  0.00    -0.380 N 
ATOM      3  H1  UNL     1      27.191  81.600  60.739  1.00  0.00     0.160 HD
HETATM    4  C5  UNL     1      28.683  82.617  61.746  1.00  0.00     0.123 C 
HETATM    5  C6  UNL     1      29.927  82.162  62.469  1.00  0.00     0.054 C 
HETATM    6  C7  UNL     1      29.624  82.004  63.937  1.00  0.00     0.202 C 
HETATM    7  C8  UNL     1      29.158  80.642  64.312  1.00  0.00     0.153 C 
HETATM    8  N3  UNL     1      28.477  79.925  63.267  1.00  0.00    -0.378 N 
ATOM      9  H3  UNL     1      28.551  78.911  63.348  1.00  0.00     0.160 HD
ENDROOT
BRANCH   6  10
HETATM   10  N2  UNL     1      30.861  82.335  64.659  1.00  0.00    -0.073 N 
ATOM     11  H23 UNL     1      31.679  81.837  64.306  1.00  0.00     0.274 HD
ATOM     12  H22 UNL     1      31.197  83.279  64.473  1.00  0.00     0.274 HD
ATOM     13  H21 UNL     1      30.677  82.159  65.647  1.00  0.00     0.274 HD
ENDBRANCH   6  10
BRANCH   1  14
HETATM   14  C2  UNL     1      26.701  79.462  61.584  1.00  0.00     0.044 C 
HETATM   15  C1  UNL     1      25.517  80.220  61.026  1.00  0.00     0.017 C 
HETATM   16  C3  UNL     1      26.264  78.439  62.614  1.00  0.00     0.017 C 
ENDBRANCH   1  14
TORSDOF 2
ENDMDL
MODEL 3
REMARK VINA RESULT: -5.087820139      1.629      2.689
REMARK  2 active torsions:
REMARK  status: ('A' for Active; 'I' for Inactive)
REMARK    1  A    between atoms: C2_2  and  C4_4 
REMARK    2  A    between atoms: C7_9  and  N2_10 
ROOT
HETATM    1  C4  UNL     1      27.616  79.438  62.969  1.00  0.00     0.076 C 
HETATM    2  N1  UNL     1      28.838  79.537  63.401  1.00  0.00    -0.380 N 
ATOM      3  H1  UNL     1      29.166  78.721  63.917  1.00  0.00     0.160 HD
HETATM    4  C5  UNL     1      29.805  80.582  63.284  1.00  0.00     0.123 C 
HETATM    5  C6  UNL     1      29.093  81.895  63.073  1.00  0.00     0.054 C 
HETATM    6  C7  UNL     1      28.675  82.012  61.630  1.00  0.00     0.202 C 
HETATM    7  C8  UNL     1      27.318  81.469  61.350  1.00  0.00     0.153 C 
HETATM    8  N3  UNL     1      26.897  80.409  62.227  1.00  0.00    -0.378 N 
ATOM      9  H3  UNL     1      25.885  80.343  62.337  1.00  0.00     0.160 HD
ENDROOT
BRANCH   6  10
HETATM   10  N2  UNL     1      28.728  83.443  61.293  1.00  0.00    -0.073 N 
ATOM     11  H23 UNL     1      29.229  84.002  61.984  1.00  0.00     0.274 HD
ATOM     12  H22 UNL     1      29.333  83.648  60.499  1.00  0.00     0.274 HD
ATOM     13  H21 UNL     1      27.763  83.745  61.154  1.00  0.00     0.274 HD
ENDBRANCH   6  10
BRANCH   1  14
HETATM   14  C2  UNL     1      26.962  78.169  63.314  1.00  0.00     0.044 C 
HETATM   15  C1  UNL     1      27.787  77.336  64.269  1.00  0.00     0.017 C 
HETATM   16  C3  UNL     1      26.618  77.389  62.059  1.00  0.00     0.017 C 
ENDBRANCH   1  14
TORSDOF 2
ENDMDL
MODEL 4
REMARK VINA RESULT: -5.040084183      1.582      4.740
REMARK  2 active torsions:
REMARK  status: ('A' for Active; 'I' for Inactive)
REMARK    1  A    between atoms: C2_2  and  C4_4 
REMARK    2  A    between atoms: C7_9  and  N2_10 
ROOT
HETATM    1  C4  UNL     1      28.211  80.726  62.388  1.00  0.00     0.076 C 
HETATM    2  N1  UNL     1      28.311  79.709  63.190  1.00  0.00    -0.380 N 
ATOM      3  H1  UNL     1      29.107  79.758  63.827  1.00  0.00     0.160 HD
HETATM    4  C5  UNL     1      27.511  78.536  63.343  1.00  0.00     0.123 C 
HETATM    5  C6  UNL     1      26.785  78.260  62.049  1.00  0.00     0.054 C 
HETATM    6  C7  UNL     1      25.583  79.163  61.947  1.00  0.00     0.202 C 
HETATM    7  C8  UNL     1      25.860  80.461  61.273  1.00  0.00     0.153 C 
HETATM    8  N3  UNL     1      27.214  80.932  61.400  1.00  0.00    -0.378 N 
ATOM      9  H3  UNL     1      27.515  81.530  60.631  1.00  0.00     0.160 HD
ENDROOT
BRANCH   6  10
HETATM   10  N2  UNL     1      24.558  78.414  61.204  1.00  0.00    -0.073 N 
ATOM     11  H23 UNL     1      23.742  78.178  61.769  1.00  0.00     0.274 HD
ATOM     12  H22 UNL     1      24.072  78.979  60.508  1.00  0.00     0.274 HD
ATOM     13  H21 UNL     1      25.025  77.598  60.807  1.00  0.00     0.274 HD
ENDBRANCH   6  10
BRANCH   1  14
HETATM   14  C2  UNL     1      29.263  81.734  62.566  1.00  0.00     0.044 C 
HETATM   15  C1  UNL     1      29.372  82.670  61.382  1.00  0.00     0.017 C 
HETATM   16  C3  UNL     1      30.593  81.068  62.864  1.00  0.00     0.017 C 
ENDBRANCH   1  14
TORSDOF 2
ENDMDL
MODEL 5
REMARK VINA RESULT: -4.883261610      0.703      1.984
REMARK  2 active torsions:
REMARK  status: ('A' for Active; 'I' for Inactive)
REMARK    1  A    between atoms: C2_2  and  C4_4 
REMARK    2  A    between atoms: C7_9  and  N2_10 
ROOT
HETATM    1  C4  UNL     1      27.581  79.962  62.641  1.00  0.00     0.076 C 
HETATM    2  N1  UNL     1      28.181  79.160  63.468  1.00  0.00    -0.380 N 
ATOM      3  H1  UNL     1      27.688  78.282  63.630  1.00  0.00     0.160 HD
HETATM    4  C5  UNL     1      29.407  79.283  64.191  1.00  0.00     0.123 C 
HETATM    5  C6  UNL     1      29.731  80.745  64.372  1.00  0.00     0.054 C 
HETATM    6  C7  UNL     1      30.334  81.286  63.101  1.00  0.00     0.202 C 
HETATM    7  C8  UNL     1      29.335  81.837  62.147  1.00  0.00     0.153 C 
HETATM    8  N3  UNL     1      28.027  81.244  62.229  1.00  0.00    -0.378 N 
ATOM      9  H3  UNL     1      27.274  81.865  61.933  1.00  0.00     0.160 HD
ENDROOT
BRANCH   6  10
HETATM   10  N2  UNL     1      31.286  82.332  63.501  1.00  0.00    -0.073 N 
ATOM     11  H23 UNL     1      32.261  82.042  63.424  1.00  0.00     0.274 HD
ATOM     12  H22 UNL     1      31.333  83.109  62.842  1.00  0.00     0.274 HD
ATOM     13  H21 UNL     1      31.024  82.619  64.445  1.00  0.00     0.274 HD
ENDBRANCH   6  10
BRANCH   1  14
HETATM   14  C2  UNL     1      26.316  79.438  62.111  1.00  0.00     0.044 C 
HETATM   15  C1  UNL     1      26.374  77.950  61.848  1.00  0.00     0.017 C 
HETATM   16  C3  UNL     1      25.904  80.201  60.867  1.00  0.00     0.017 C 
ENDBRANCH   1  14
TORSDOF 2
ENDMDL
