MODEL 1
REMARK VINA RESULT: -10.201114594      0.000      0.000
REMARK  7 active torsions:
REMARK  status: ('A' for Active; 'I' for Inactive)
REMARK    1  A    between atoms: C3_3  and  C4_4 
REMARK    2  A    between atoms: C4_4  and  C5_5 
REMARK    3  A    between atoms: C4_4  and  N1_16 
REMARK    4  A    between atoms: C5_5  and  C6_6 
REMARK    5  A    between atoms: C8_8  and  C9_9 
REMARK    6  A    between atoms: N1_16  and  C16_19 
REMARK    7  A    between atoms: C23_31  and  C24_32 
ROOT
HETATM    1  C1  UNL     1       5.079  29.677   4.967  1.00  0.00     0.012 C 
HETATM    2  C2  UNL     1       4.247  29.470   5.811  1.00  0.00    -0.115 C 
HETATM    3  C3  UNL     1       3.239  29.208   6.877  1.00  0.00     0.126 C 
ENDROOT
BRANCH   3   4
HETATM    4  C4  UNL     1       2.853  27.806   7.006  1.00  0.00     0.202 C 
BRANCH   4   5
HETATM    5  C5  UNL     1       1.499  27.384   7.428  1.00  0.00     0.073 C 
BRANCH   5   6
HETATM    6  C6  UNL     1       0.326  28.093   6.942  1.00  0.00    -0.049 A 
HETATM    7  C7  UNL     1       0.077  27.972   5.544  1.00  0.00     0.014 A 
HETATM    8  C8  UNL     1      -1.023  28.543   4.968  1.00  0.00    -0.058 A 
HETATM    9  C11 UNL     1      -1.894  29.243   5.772  1.00  0.00     0.014 A 
HETATM   10  C12 UNL     1      -1.693  29.384   7.111  1.00  0.00    -0.055 A 
HETATM   11  C13 UNL     1      -2.651  30.150   7.949  1.00  0.00     0.049 C 
HETATM   12  C14 UNL     1      -0.566  28.800   7.698  1.00  0.00    -0.050 A 
HETATM   13  C15 UNL     1      -0.414  29.088   9.141  1.00  0.00     0.049 C 
BRANCH   8  14
HETATM   14  C9  UNL     1      -1.279  28.410   3.499  1.00  0.00     0.034 C 
HETATM   15  C10 UNL     1      -1.953  29.635   2.935  1.00  0.00     0.010 C 
ENDBRANCH   8  14
ENDBRANCH   5   6
ENDBRANCH   4   5
BRANCH   4  16
HETATM   16  N1  UNL     1       3.827  27.028   7.765  1.00  0.00    -0.056 N 
ATOM     17  H12 UNL     1       4.545  27.635   8.160  1.00  0.00     0.278 HD
ATOM     18  H11 UNL     1       3.412  26.673   8.627  1.00  0.00     0.278 HD
BRANCH  16  19
HETATM   19  C16 UNL     1       4.403  25.993   7.032  1.00  0.00     0.286 C 
HETATM   20  C17 UNL     1       3.821  24.650   7.070  1.00  0.00     0.254 C 
HETATM   21  O1  UNL     1       2.692  24.181   7.319  1.00  0.00    -0.271 OA
HETATM   22  N2  UNL     1       4.898  23.738   6.725  1.00  0.00    -0.310 N 
HETATM   23  C18 UNL     1       5.258  22.355   6.481  1.00  0.00     0.178 C 
HETATM   24  C21 UNL     1       6.106  24.523   6.561  1.00  0.00     0.114 C 
HETATM   25  C19 UNL     1       4.743  21.802   5.197  1.00  0.00     0.043 C 
HETATM   26  C20 UNL     1       6.741  22.346   6.606  1.00  0.00     0.242 C 
HETATM   27  O2  UNL     1       7.440  21.298   6.506  1.00  0.00    -0.271 OA
HETATM   28  N3  UNL     1       7.187  23.674   6.848  1.00  0.00    -0.332 N 
ATOM     29  H3  UNL     1       8.113  23.955   7.169  1.00  0.00     0.165 HD
HETATM   30  C22 UNL     1       6.222  25.019   5.114  1.00  0.00     0.064 C 
HETATM   31  C23 UNL     1       5.853  25.703   7.411  1.00  0.00     0.078 C 
BRANCH  31  32
HETATM   32  C24 UNL     1       6.092  25.599   8.852  1.00  0.00    -0.012 C 
HETATM   33  C25 UNL     1       6.907  24.474   9.362  1.00  0.00     0.010 C 
HETATM   34  C26 UNL     1       6.588  26.901   9.433  1.00  0.00     0.010 C 
ENDBRANCH  31  32
ENDBRANCH  16  19
ENDBRANCH   4  16
ENDBRANCH   3   4
TORSDOF 7
ENDMDL
MODEL 2
REMARK VINA RESULT: -9.901369218      1.557      2.574
REMARK  7 active torsions:
REMARK  status: ('A' for Active; 'I' for Inactive)
REMARK    1  A    between atoms: C3_3  and  C4_4 
REMARK    2  A    between atoms: C4_4  and  C5_5 
REMARK    3  A    between atoms: C4_4  and  N1_16 
REMARK    4  A    between atoms: C5_5  and  C6_6 
REMARK    5  A    between atoms: C8_8  and  C9_9 
REMARK    6  A    between atoms: N1_16  and  C16_19 
REMARK    7  A    between atoms: C23_31  and  C24_32 
ROOT
HETATM    1  C1  UNL     1       4.034  30.461   7.625  1.00  0.00     0.012 C 
HETATM    2  C2  UNL     1       4.333  29.518   6.940  1.00  0.00    -0.115 C 
HETATM    3  C3  UNL     1       4.696  28.367   6.066  1.00  0.00     0.126 C 
ENDROOT
BRANCH   3   4
HETATM    4  C4  UNL     1       3.589  27.461   5.777  1.00  0.00     0.202 C 
BRANCH   4   5
HETATM    5  C5  UNL     1       2.475  27.229   6.722  1.00  0.00     0.073 C 
BRANCH   5   6
HETATM    6  C6  UNL     1       1.207  27.921   6.544  1.00  0.00    -0.049 A 
HETATM    7  C7  UNL     1       0.667  27.874   5.227  1.00  0.00     0.014 A 
HETATM    8  C8  UNL     1      -0.544  28.437   4.937  1.00  0.00    -0.058 A 
HETATM    9  C11 UNL     1      -1.238  29.055   5.954  1.00  0.00     0.014 A 
HETATM   10  C12 UNL     1      -0.757  29.124   7.225  1.00  0.00    -0.055 A 
HETATM   11  C13 UNL     1      -1.531  29.802   8.297  1.00  0.00     0.049 C 
HETATM   12  C14 UNL     1       0.483  28.548   7.518  1.00  0.00    -0.050 A 
HETATM   13  C15 UNL     1       0.935  28.755   8.912  1.00  0.00     0.049 C 
BRANCH   8  14
HETATM   14  C9  UNL     1      -1.107  28.383   3.552  1.00  0.00     0.034 C 
HETATM   15  C10 UNL     1      -1.498  29.750   3.052  1.00  0.00     0.010 C 
ENDBRANCH   8  14
ENDBRANCH   5   6
ENDBRANCH   4   5
BRANCH   4  16
HETATM   16  N1  UNL     1       4.045  26.163   5.288  1.00  0.00    -0.056 N 
ATOM     17  H12 UNL     1       3.284  25.483   5.305  1.00  0.00     0.278 HD
ATOM     18  H11 UNL     1       4.219  26.197   4.284  1.00  0.00     0.278 HD
BRANCH  16  19
HETATM   19  C16 UNL     1       5.159  25.675   5.966  1.00  0.00     0.286 C 
HETATM   20  C17 UNL     1       6.295  25.131   5.221  1.00  0.00     0.254 C 
HETATM   21  O1  UNL     1       6.750  25.277   4.068  1.00  0.00    -0.271 OA
HETATM   22  N2  UNL     1       6.976  24.226   6.132  1.00  0.00    -0.310 N 
HETATM   23  C18 UNL     1       8.111  23.343   6.310  1.00  0.00     0.178 C 
HETATM   24  C21 UNL     1       6.210  24.181   7.363  1.00  0.00     0.114 C 
HETATM   25  C19 UNL     1       9.417  24.041   6.461  1.00  0.00     0.043 C 
HETATM   26  C20 UNL     1       7.725  22.497   7.472  1.00  0.00     0.242 C 
HETATM   27  O2  UNL     1       8.443  21.557   7.916  1.00  0.00    -0.271 OA
HETATM   28  N3  UNL     1       6.461  22.932   7.954  1.00  0.00    -0.332 N 
ATOM     29  H3  UNL     1       5.853  22.434   8.604  1.00  0.00     0.165 HD
HETATM   30  C22 UNL     1       6.671  25.294   8.313  1.00  0.00     0.064 C 
HETATM   31  C23 UNL     1       4.844  24.522   6.917  1.00  0.00     0.078 C 
BRANCH  31  32
HETATM   32  C24 UNL     1       4.009  23.469   6.335  1.00  0.00    -0.012 C 
HETATM   33  C25 UNL     1       4.471  22.066   6.412  1.00  0.00     0.010 C 
HETATM   34  C26 UNL     1       2.576  23.568   6.802  1.00  0.00     0.010 C 
ENDBRANCH  31  32
ENDBRANCH  16  19
ENDBRANCH   4  16
ENDBRANCH   3   4
TORSDOF 7
ENDMDL
MODEL 3
REMARK VINA RESULT: -9.568941812      1.633      2.858
REMARK  7 active torsions:
REMARK  status: ('A' for Active; 'I' for Inactive)
REMARK    1  A    between atoms: C3_3  and  C4_4 
REMARK    2  A    between atoms: C4_4  and  C5_5 
REMARK    3  A    between atoms: C4_4  and  N1_16 
REMARK    4  A    between atoms: C5_5  and  C6_6 
REMARK    5  A    between atoms: C8_8  and  C9_9 
REMARK    6  A    between atoms: N1_16  and  C16_19 
REMARK    7  A    between atoms: C23_31  and  C24_32 
ROOT
HETATM    1  C1  UNL     1      -0.561  27.472   9.402  1.00  0.00     0.012 C 
HETATM    2  C2  UNL     1       0.136  28.402   9.089  1.00  0.00    -0.115 C 
HETATM    3  C3  UNL     1       0.983  29.555   8.672  1.00  0.00     0.126 C 
ENDROOT
BRANCH   3   4
HETATM    4  C4  UNL     1       2.191  29.180   7.944  1.00  0.00     0.202 C 
BRANCH   4   5
HETATM    5  C5  UNL     1       2.194  28.888   6.493  1.00  0.00     0.073 C 
BRANCH   5   6
HETATM    6  C6  UNL     1       1.052  29.253   5.670  1.00  0.00    -0.049 A 
HETATM    7  C7  UNL     1      -0.059  28.365   5.741  1.00  0.00     0.014 A 
HETATM    8  C8  UNL     1      -1.216  28.621   5.060  1.00  0.00    -0.058 A 
HETATM    9  C11 UNL     1      -1.287  29.766   4.297  1.00  0.00     0.014 A 
HETATM   10  C12 UNL     1      -0.248  30.640   4.201  1.00  0.00    -0.055 A 
HETATM   11  C13 UNL     1      -0.357  31.864   3.366  1.00  0.00     0.049 C 
HETATM   12  C14 UNL     1       0.935  30.375   4.898  1.00  0.00    -0.050 A 
HETATM   13  C15 UNL     1       2.018  31.353   4.652  1.00  0.00     0.049 C 
BRANCH   8  14
HETATM   14  C9  UNL     1      -2.380  27.684   5.140  1.00  0.00     0.034 C 
HETATM   15  C10 UNL     1      -3.326  28.060   6.252  1.00  0.00     0.010 C 
ENDBRANCH   8  14
ENDBRANCH   5   6
ENDBRANCH   4   5
BRANCH   4  16
HETATM   16  N1  UNL     1       2.944  28.127   8.618  1.00  0.00    -0.056 N 
ATOM     17  H12 UNL     1       3.671  28.527   9.212  1.00  0.00     0.278 HD
ATOM     18  H11 UNL     1       2.373  27.676   9.332  1.00  0.00     0.278 HD
BRANCH  16  19
HETATM   19  C16 UNL     1       3.483  27.184   7.747  1.00  0.00     0.286 C 
HETATM   20  C17 UNL     1       2.970  25.813   7.737  1.00  0.00     0.254 C 
HETATM   21  O1  UNL     1       1.896  25.266   8.064  1.00  0.00    -0.271 OA
HETATM   22  N2  UNL     1       4.042  24.988   7.207  1.00  0.00    -0.310 N 
HETATM   23  C18 UNL     1       4.435  23.649   6.814  1.00  0.00     0.178 C 
HETATM   24  C21 UNL     1       5.189  25.847   6.981  1.00  0.00     0.114 C 
HETATM   25  C19 UNL     1       3.809  23.169   5.551  1.00  0.00     0.043 C 
HETATM   26  C20 UNL     1       5.921  23.710   6.782  1.00  0.00     0.242 C 
HETATM   27  O2  UNL     1       6.652  22.711   6.523  1.00  0.00    -0.271 OA
HETATM   28  N3  UNL     1       6.332  25.037   7.083  1.00  0.00    -0.332 N 
ATOM     29  H3  UNL     1       7.273  25.342   7.326  1.00  0.00     0.165 HD
HETATM   30  C22 UNL     1       5.124  26.457   5.575  1.00  0.00     0.064 C 
HETATM   31  C23 UNL     1       4.977  26.943   7.946  1.00  0.00     0.078 C 
BRANCH  31  32
HETATM   32  C24 UNL     1       5.377  26.743   9.341  1.00  0.00    -0.012 C 
HETATM   33  C25 UNL     1       6.407  25.726   9.650  1.00  0.00     0.010 C 
HETATM   34  C26 UNL     1       5.718  28.048  10.019  1.00  0.00     0.010 C 
ENDBRANCH  31  32
ENDBRANCH  16  19
ENDBRANCH   4  16
ENDBRANCH   3   4
TORSDOF 7
ENDMDL
MODEL 4
REMARK VINA RESULT: -9.550736712      1.050      2.238
REMARK  7 active torsions:
REMARK  status: ('A' for Active; 'I' for Inactive)
REMARK    1  A    between atoms: C3_3  and  C4_4 
REMARK    2  A    between atoms: C4_4  and  C5_5 
REMARK    3  A    between atoms: C4_4  and  N1_16 
REMARK    4  A    between atoms: C5_5  and  C6_6 
REMARK    5  A    between atoms: C8_8  and  C9_9 
REMARK    6  A    between atoms: N1_16  and  C16_19 
REMARK    7  A    between atoms: C23_31  and  C24_32 
ROOT
HETATM    1  C1  UNL     1       5.073  29.705   5.063  1.00  0.00     0.012 C 
HETATM    2  C2  UNL     1       4.356  29.875   6.014  1.00  0.00    -0.115 C 
HETATM    3  C3  UNL     1       3.493  30.077   7.212  1.00  0.00     0.126 C 
ENDROOT
BRANCH   3   4
HETATM    4  C4  UNL     1       2.801  28.873   7.664  1.00  0.00     0.202 C 
BRANCH   4   5
HETATM    5  C5  UNL     1       1.533  28.916   8.425  1.00  0.00     0.073 C 
BRANCH   5   6
HETATM    6  C6  UNL     1       0.258  28.901   7.726  1.00  0.00    -0.049 A 
HETATM    7  C7  UNL     1      -0.848  29.413   8.464  1.00  0.00     0.014 A 
HETATM    8  C8  UNL     1      -2.092  29.506   7.904  1.00  0.00    -0.058 A 
HETATM    9  C11 UNL     1      -2.255  29.092   6.601  1.00  0.00     0.014 A 
HETATM   10  C12 UNL     1      -1.226  28.595   5.862  1.00  0.00    -0.055 A 
HETATM   11  C13 UNL     1      -1.439  28.154   4.459  1.00  0.00     0.049 C 
HETATM   12  C14 UNL     1       0.044  28.500   6.437  1.00  0.00    -0.050 A 
HETATM   13  C15 UNL     1       1.062  27.872   5.564  1.00  0.00     0.049 C 
BRANCH   8  14
HETATM   14  C9  UNL     1      -3.248  30.046   8.685  1.00  0.00     0.034 C 
HETATM   15  C10 UNL     1      -4.541  29.367   8.312  1.00  0.00     0.010 C 
ENDBRANCH   8  14
ENDBRANCH   5   6
ENDBRANCH   4   5
BRANCH   4  16
HETATM   16  N1  UNL     1       3.697  27.933   8.329  1.00  0.00    -0.056 N 
ATOM     17  H12 UNL     1       4.510  28.416   8.710  1.00  0.00     0.278 HD
ATOM     18  H11 UNL     1       3.282  27.591   9.195  1.00  0.00     0.278 HD
BRANCH  16  19
HETATM   19  C16 UNL     1       4.089  26.871   7.517  1.00  0.00     0.286 C 
HETATM   20  C17 UNL     1       3.342  25.612   7.537  1.00  0.00     0.254 C 
HETATM   21  O1  UNL     1       2.178  25.278   7.841  1.00  0.00    -0.271 OA
HETATM   22  N2  UNL     1       4.269  24.589   7.084  1.00  0.00    -0.310 N 
HETATM   23  C18 UNL     1       4.432  23.186   6.760  1.00  0.00     0.178 C 
HETATM   24  C21 UNL     1       5.557  25.222   6.874  1.00  0.00     0.114 C 
HETATM   25  C19 UNL     1       3.774  22.767   5.491  1.00  0.00     0.043 C 
HETATM   26  C20 UNL     1       5.906  22.984   6.787  1.00  0.00     0.242 C 
HETATM   27  O2  UNL     1       6.456  21.862   6.597  1.00  0.00    -0.271 OA
HETATM   28  N3  UNL     1       6.534  24.230   7.054  1.00  0.00    -0.332 N 
ATOM     29  H3  UNL     1       7.506  24.376   7.324  1.00  0.00     0.165 HD
HETATM   30  C22 UNL     1       5.649  25.771   5.444  1.00  0.00     0.064 C 
HETATM   31  C23 UNL     1       5.510  26.381   7.787  1.00  0.00     0.078 C 
BRANCH  31  32
HETATM   32  C24 UNL     1       5.819  26.176   9.204  1.00  0.00    -0.012 C 
HETATM   33  C25 UNL     1       6.615  24.992   9.597  1.00  0.00     0.010 C 
HETATM   34  C26 UNL     1       6.396  27.420   9.837  1.00  0.00     0.010 C 
ENDBRANCH  31  32
ENDBRANCH  16  19
ENDBRANCH   4  16
ENDBRANCH   3   4
TORSDOF 7
ENDMDL
MODEL 5
REMARK VINA RESULT: -9.449892744      1.928      3.150
REMARK  7 active torsions:
REMARK  status: ('A' for Active; 'I' for Inactive)
REMARK    1  A    between atoms: C3_3  and  C4_4 
REMARK    2  A    between atoms: C4_4  and  C5_5 
REMARK    3  A    between atoms: C4_4  and  N1_16 
REMARK    4  A    between atoms: C5_5  and  C6_6 
REMARK    5  A    between atoms: C8_8  and  C9_9 
REMARK    6  A    between atoms: N1_16  and  C16_19 
REMARK    7  A    between atoms: C23_31  and  C24_32 
ROOT
HETATM    1  C1  UNL     1       4.764  29.927   4.917  1.00  0.00     0.012 C 
HETATM    2  C2  UNL     1       4.837  28.876   5.499  1.00  0.00    -0.115 C 
HETATM    3  C3  UNL     1       4.946  27.565   6.198  1.00  0.00     0.126 C 
ENDROOT
BRANCH   3   4
HETATM    4  C4  UNL     1       3.994  26.558   5.739  1.00  0.00     0.202 C 
BRANCH   4   5
HETATM    5  C5  UNL     1       2.877  26.070   6.578  1.00  0.00     0.073 C 
BRANCH   5   6
HETATM    6  C6  UNL     1       1.730  26.925   6.841  1.00  0.00    -0.049 A 
HETATM    7  C7  UNL     1       1.270  27.687   5.729  1.00  0.00     0.014 A 
HETATM    8  C8  UNL     1       0.167  28.488   5.826  1.00  0.00    -0.058 A 
HETATM    9  C11 UNL     1      -0.496  28.544   7.032  1.00  0.00     0.014 A 
HETATM   10  C12 UNL     1      -0.089  27.835   8.120  1.00  0.00    -0.055 A 
HETATM   11  C13 UNL     1      -0.826  27.922   9.407  1.00  0.00     0.049 C 
HETATM   12  C14 UNL     1       1.040  27.017   8.017  1.00  0.00    -0.050 A 
HETATM   13  C15 UNL     1       1.431  26.358   9.284  1.00  0.00     0.049 C 
BRANCH   8  14
HETATM   14  C9  UNL     1      -0.312  29.284   4.654  1.00  0.00     0.034 C 
HETATM   15  C10 UNL     1      -1.050  28.427   3.658  1.00  0.00     0.010 C 
ENDBRANCH   8  14
ENDBRANCH   5   6
ENDBRANCH   4   5
BRANCH   4  16
HETATM   16  N1  UNL     1       4.651  25.400   5.142  1.00  0.00    -0.056 N 
ATOM     17  H12 UNL     1       4.018  24.601   5.111  1.00  0.00     0.278 HD
ATOM     18  H11 UNL     1       4.794  25.542   4.143  1.00  0.00     0.278 HD
BRANCH  16  19
HETATM   19  C16 UNL     1       5.847  25.057   5.769  1.00  0.00     0.286 C 
HETATM   20  C17 UNL     1       7.055  24.826   4.975  1.00  0.00     0.254 C 
HETATM   21  O1  UNL     1       7.457  25.186   3.849  1.00  0.00    -0.271 OA
HETATM   22  N2  UNL     1       7.907  23.968   5.781  1.00  0.00    -0.310 N 
HETATM   23  C18 UNL     1       9.190  23.301   5.865  1.00  0.00     0.178 C 
HETATM   24  C21 UNL     1       7.181  23.640   6.993  1.00  0.00     0.114 C 
HETATM   25  C19 UNL     1      10.343  24.212   6.105  1.00  0.00     0.043 C 
HETATM   26  C20 UNL     1       8.987  22.271   6.920  1.00  0.00     0.242 C 
HETATM   27  O2  UNL     1       9.877  21.439   7.259  1.00  0.00    -0.271 OA
HETATM   28  N3  UNL     1       7.671  22.402   7.440  1.00  0.00    -0.332 N 
ATOM     29  H3  UNL     1       7.177  21.727   8.023  1.00  0.00     0.165 HD
HETATM   30  C22 UNL     1       7.437  24.704   8.068  1.00  0.00     0.064 C 
HETATM   31  C23 UNL     1       5.769  23.765   6.578  1.00  0.00     0.078 C 
BRANCH  31  32
HETATM   32  C24 UNL     1       5.139  22.646   5.874  1.00  0.00    -0.012 C 
HETATM   33  C25 UNL     1       5.959  21.461   5.537  1.00  0.00     0.010 C 
HETATM   34  C26 UNL     1       3.856  22.215   6.543  1.00  0.00     0.010 C 
ENDBRANCH  31  32
ENDBRANCH  16  19
ENDBRANCH   4  16
ENDBRANCH   3   4
TORSDOF 7
ENDMDL
