MODEL 1
REMARK VINA RESULT: -9.613362097      0.000      0.000
REMARK  12 active torsions:
REMARK  status: ('A' for Active; 'I' for Inactive)
REMARK    1  A    between atoms: C2_5  and  C3_6 
REMARK    2  A    between atoms: C2_5  and  N9_24 
REMARK    3  A    between atoms: C3_6  and  C4_7 
REMARK    4  A    between atoms: C6_13  and  N5_14 
REMARK    5  A    between atoms: N9_24  and  N10_26 
REMARK    6  A    between atoms: N11_28  and  C8_30 
REMARK    7  A    between atoms: C9_31  and  O2_32 
REMARK    8  A    between atoms: C10_35  and  C11_36 
REMARK    9  A    between atoms: C11_36  and  O4_37 
REMARK   10  A    between atoms: C11_36  and  C12_39 
REMARK   11  A    between atoms: C12_39  and  O5_40 
REMARK   12  A    between atoms: C13_42  and  O6_43 
ROOT
HETATM    1  N1  UNL     1      35.767  -0.193 -13.833  1.00  0.00    -0.172 NA
HETATM    2  C1  UNL     1      34.819   0.483 -13.729  1.00  0.00     0.183 C 
HETATM    3  N2  UNL     1      33.685   1.296 -13.625  1.00  0.00    -0.281 N 
ATOM      4  H2  UNL     1      32.876   0.941 -13.114  1.00  0.00     0.179 HD
HETATM    5  C2  UNL     1      33.618   2.467 -14.142  1.00  0.00     0.113 C 
ENDROOT
BRANCH   5   6
HETATM    6  C3  UNL     1      34.761   3.011 -14.882  1.00  0.00     0.157 C 
BRANCH   6   7
HETATM    7  C4  UNL     1      34.477   3.082 -16.344  1.00  0.00     0.120 A 
HETATM    8  N3  UNL     1      34.097   2.093 -17.173  1.00  0.00    -0.176 N 
HETATM    9  C5  UNL     1      33.945   2.581 -18.427  1.00  0.00     0.724 A 
ATOM     10  H3  UNL     1      33.946   1.122 -16.899  1.00  0.00     0.185 HD
HETATM   11  N4  UNL     1      33.587   2.041 -19.612  1.00  0.00    -0.020 N 
HETATM   12  N7  UNL     1      34.236   3.895 -18.377  1.00  0.00    -0.029 N 
HETATM   13  C6  UNL     1      33.511   2.765 -20.741  1.00  0.00     0.694 A 
ATOM     14  H4  UNL     1      33.367   1.046 -19.652  1.00  0.00     0.203 HD
HETATM   15  N6  UNL     1      33.810   4.072 -20.647  1.00  0.00    -0.139 N 
HETATM   16  C7  UNL     1      34.168   4.640 -19.488  1.00  0.00     0.374 A 
ATOM     17  H6  UNL     1      33.761   4.650 -21.486  1.00  0.00     0.189 HD
HETATM   18  O1  UNL     1      34.442   5.860 -19.421  1.00  0.00    -0.244 OA
HETATM   19  N8  UNL     1      34.558   4.187 -17.107  1.00  0.00    -0.263 N 
ATOM     20  H8  UNL     1      34.826   5.112 -16.769  1.00  0.00     0.189 HD
BRANCH  13  21
HETATM   21  N5  UNL     1      33.173   2.276 -21.886  1.00  0.00    -0.234 N 
ATOM     22  H52 UNL     1      33.876   1.798 -22.450  1.00  0.00     0.174 HD
ATOM     23  H51 UNL     1      32.231   2.337 -22.273  1.00  0.00     0.174 HD
ENDBRANCH  13  21
ENDBRANCH   6   7
ENDBRANCH   5   6
BRANCH   5  24
HETATM   24  N9  UNL     1      32.438   3.231 -13.994  1.00  0.00    -0.274 N 
ATOM     25  H9  UNL     1      32.260   3.686 -13.099  1.00  0.00     0.190 HD
BRANCH  24  26
HETATM   26  N10 UNL     1      31.509   3.389 -15.019  1.00  0.00    -0.241 N 
HETATM   27  N11 UNL     1      30.745   4.410 -14.974  1.00  0.00    -0.279 N 
ATOM     28  H11 UNL     1      30.063   4.528 -15.723  1.00  0.00     0.189 HD
ATOM     29  H10 UNL     1      31.441   2.713 -15.780  1.00  0.00     0.208 HD
BRANCH  27  30
HETATM   30  C8  UNL     1      30.780   5.382 -13.959  1.00  0.00     0.143 A 
HETATM   31  C9  UNL     1      30.498   5.242 -12.616  1.00  0.00     0.215 A 
HETATM   32  O3  UNL     1      30.654   6.394 -12.022  1.00  0.00    -0.285 OA
HETATM   33  C10 UNL     1      31.029   7.319 -12.888  1.00  0.00     0.122 A 
HETATM   34  C13 UNL     1      31.119   6.712 -14.118  1.00  0.00     0.131 A 
BRANCH  31  35
HETATM   35  O2  UNL     1      30.107   4.029 -12.029  1.00  0.00    -0.339 OA
ATOM     36  H2  UNL     1      29.445   3.964 -11.350  1.00  0.00     0.220 HD
ENDBRANCH  31  35
BRANCH  33  37
HETATM   37  C11 UNL     1      31.298   8.738 -12.562  1.00  0.00     0.201 C 
BRANCH  37  38
HETATM   38  O4  UNL     1      31.971   8.826 -11.331  1.00  0.00    -0.387 OA
ATOM     39  H4  UNL     1      32.194   9.732 -11.149  1.00  0.00     0.210 HD
ENDBRANCH  37  38
BRANCH  37  40
HETATM   40  C12 UNL     1      29.999   9.515 -12.390  1.00  0.00     0.202 C 
BRANCH  40  41
HETATM   41  O5  UNL     1      28.914   8.647 -12.334  1.00  0.00    -0.398 OA
ATOM     42  H5  UNL     1      29.208   7.744 -12.299  1.00  0.00     0.209 HD
ENDBRANCH  40  41
ENDBRANCH  37  40
ENDBRANCH  33  37
BRANCH  34  43
HETATM   43  O6  UNL     1      31.490   7.380 -15.277  1.00  0.00    -0.356 OA
ATOM     44  H6  UNL     1      32.353   7.455 -15.668  1.00  0.00     0.218 HD
ENDBRANCH  34  43
ENDBRANCH  27  30
ENDBRANCH  24  26
ENDBRANCH   5  24
TORSDOF 12
ENDMDL
MODEL 2
REMARK VINA RESULT: -9.591371553      1.617      1.900
REMARK  12 active torsions:
REMARK  status: ('A' for Active; 'I' for Inactive)
REMARK    1  A    between atoms: C2_5  and  C3_6 
REMARK    2  A    between atoms: C2_5  and  N9_24 
REMARK    3  A    between atoms: C3_6  and  C4_7 
REMARK    4  A    between atoms: C6_13  and  N5_14 
REMARK    5  A    between atoms: N9_24  and  N10_26 
REMARK    6  A    between atoms: N11_28  and  C8_30 
REMARK    7  A    between atoms: C9_31  and  O2_32 
REMARK    8  A    between atoms: C10_35  and  C11_36 
REMARK    9  A    between atoms: C11_36  and  O4_37 
REMARK   10  A    between atoms: C11_36  and  C12_39 
REMARK   11  A    between atoms: C12_39  and  O5_40 
REMARK   12  A    between atoms: C13_42  and  O6_43 
ROOT
HETATM    1  N1  UNL     1      35.514  -0.517 -13.622  1.00  0.00    -0.172 NA
HETATM    2  C1  UNL     1      34.599   0.209 -13.625  1.00  0.00     0.183 C 
HETATM    3  N2  UNL     1      33.509   1.087 -13.645  1.00  0.00    -0.281 N 
ATOM      4  H2  UNL     1      32.575   0.709 -13.490  1.00  0.00     0.179 HD
HETATM    5  C2  UNL     1      33.634   2.347 -13.848  1.00  0.00     0.113 C 
ENDROOT
BRANCH   5   6
HETATM    6  C3  UNL     1      34.962   2.928 -14.074  1.00  0.00     0.157 C 
BRANCH   6   7
HETATM    7  C4  UNL     1      35.283   3.002 -15.528  1.00  0.00     0.120 A 
HETATM    8  N3  UNL     1      34.719   3.776 -16.473  1.00  0.00    -0.176 N 
HETATM    9  C5  UNL     1      35.304   3.535 -17.670  1.00  0.00     0.724 A 
ATOM     10  H3  UNL     1      33.965   4.443 -16.312  1.00  0.00     0.185 HD
HETATM   11  N4  UNL     1      35.131   4.020 -18.918  1.00  0.00    -0.020 N 
HETATM   12  N7  UNL     1      36.247   2.595 -17.466  1.00  0.00    -0.029 N 
HETATM   13  C6  UNL     1      35.864   3.601 -19.962  1.00  0.00     0.694 A 
ATOM     14  H4  UNL     1      34.417   4.731 -19.074  1.00  0.00     0.203 HD
HETATM   15  N6  UNL     1      36.794   2.662 -19.716  1.00  0.00    -0.139 N 
HETATM   16  C7  UNL     1      36.992   2.160 -18.490  1.00  0.00     0.374 A 
ATOM     17  H6  UNL     1      37.368   2.322 -20.487  1.00  0.00     0.189 HD
HETATM   18  O1  UNL     1      37.863   1.285 -18.281  1.00  0.00    -0.244 OA
HETATM   19  N8  UNL     1      36.224   2.279 -16.161  1.00  0.00    -0.263 N 
ATOM     20  H8  UNL     1      36.831   1.592 -15.715  1.00  0.00     0.189 HD
BRANCH  13  21
HETATM   21  N5  UNL     1      35.721   4.046 -21.165  1.00  0.00    -0.234 N 
ATOM     22  H52 UNL     1      35.852   3.408 -21.950  1.00  0.00     0.174 HD
ATOM     23  H51 UNL     1      35.481   5.012 -21.389  1.00  0.00     0.174 HD
ENDBRANCH  13  21
ENDBRANCH   6   7
ENDBRANCH   5   6
BRANCH   5  24
HETATM   24  N9  UNL     1      32.487   3.172 -13.854  1.00  0.00    -0.274 N 
ATOM     25  H9  UNL     1      32.232   3.659 -12.995  1.00  0.00     0.190 HD
BRANCH  24  26
HETATM   26  N10 UNL     1      31.691   3.350 -14.983  1.00  0.00    -0.241 N 
HETATM   27  N11 UNL     1      30.957   4.392 -15.032  1.00  0.00    -0.279 N 
ATOM     28  H11 UNL     1      30.372   4.524 -15.858  1.00  0.00     0.189 HD
ATOM     29  H10 UNL     1      31.695   2.670 -15.743  1.00  0.00     0.208 HD
BRANCH  27  30
HETATM   30  C8  UNL     1      30.900   5.370 -14.024  1.00  0.00     0.143 A 
HETATM   31  C9  UNL     1      30.544   5.227 -12.699  1.00  0.00     0.215 A 
HETATM   32  O3  UNL     1      30.626   6.387 -12.105  1.00  0.00    -0.285 OA
HETATM   33  C10 UNL     1      31.021   7.319 -12.953  1.00  0.00     0.122 A 
HETATM   34  C13 UNL     1      31.203   6.710 -14.172  1.00  0.00     0.131 A 
BRANCH  31  35
HETATM   35  O2  UNL     1      30.160   4.005 -12.127  1.00  0.00    -0.339 OA
ATOM     36  H2  UNL     1      29.285   3.830 -11.801  1.00  0.00     0.220 HD
ENDBRANCH  31  35
BRANCH  33  37
HETATM   37  C11 UNL     1      31.222   8.749 -12.622  1.00  0.00     0.201 C 
BRANCH  37  38
HETATM   38  O4  UNL     1      31.911   8.864 -11.403  1.00  0.00    -0.387 OA
ATOM     39  H4  UNL     1      32.695   9.387 -11.523  1.00  0.00     0.210 HD
ENDBRANCH  37  38
BRANCH  37  40
HETATM   40  C12 UNL     1      29.889   9.456 -12.423  1.00  0.00     0.202 C 
BRANCH  40  41
HETATM   41  O5  UNL     1      28.849   8.535 -12.363  1.00  0.00    -0.398 OA
ATOM     42  H5  UNL     1      28.360   8.529 -13.178  1.00  0.00     0.209 HD
ENDBRANCH  40  41
ENDBRANCH  37  40
ENDBRANCH  33  37
BRANCH  34  43
HETATM   43  O6  UNL     1      31.619   7.384 -15.312  1.00  0.00    -0.356 OA
ATOM     44  H6  UNL     1      31.116   7.958 -15.879  1.00  0.00     0.218 HD
ENDBRANCH  34  43
ENDBRANCH  27  30
ENDBRANCH  24  26
ENDBRANCH   5  24
TORSDOF 12
ENDMDL
MODEL 3
REMARK VINA RESULT: -9.402797726      3.735      6.344
REMARK  12 active torsions:
REMARK  status: ('A' for Active; 'I' for Inactive)
REMARK    1  A    between atoms: C2_5  and  C3_6 
REMARK    2  A    between atoms: C2_5  and  N9_24 
REMARK    3  A    between atoms: C3_6  and  C4_7 
REMARK    4  A    between atoms: C6_13  and  N5_14 
REMARK    5  A    between atoms: N9_24  and  N10_26 
REMARK    6  A    between atoms: N11_28  and  C8_30 
REMARK    7  A    between atoms: C9_31  and  O2_32 
REMARK    8  A    between atoms: C10_35  and  C11_36 
REMARK    9  A    between atoms: C11_36  and  O4_37 
REMARK   10  A    between atoms: C11_36  and  C12_39 
REMARK   11  A    between atoms: C12_39  and  O5_40 
REMARK   12  A    between atoms: C13_42  and  O6_43 
ROOT
HETATM    1  N1  UNL     1      29.540   5.779 -13.718  1.00  0.00    -0.172 NA
HETATM    2  C1  UNL     1      30.478   5.120 -13.495  1.00  0.00     0.183 C 
HETATM    3  N2  UNL     1      31.609   4.335 -13.245  1.00  0.00    -0.281 N 
ATOM      4  H2  UNL     1      32.083   4.434 -12.347  1.00  0.00     0.179 HD
HETATM    5  C2  UNL     1      32.077   3.496 -14.095  1.00  0.00     0.113 C 
ENDROOT
BRANCH   5   6
HETATM    6  C3  UNL     1      31.423   3.325 -15.396  1.00  0.00     0.157 C 
BRANCH   6   7
HETATM    7  C4  UNL     1      32.267   3.860 -16.503  1.00  0.00     0.120 A 
HETATM    8  N3  UNL     1      33.235   4.791 -16.444  1.00  0.00    -0.176 N 
HETATM    9  C5  UNL     1      33.756   4.988 -17.678  1.00  0.00     0.724 A 
ATOM     10  H3  UNL     1      33.532   5.277 -15.597  1.00  0.00     0.185 HD
HETATM   11  N4  UNL     1      34.725   5.786 -18.177  1.00  0.00    -0.020 N 
HETATM   12  N7  UNL     1      33.100   4.165 -18.518  1.00  0.00    -0.029 N 
HETATM   13  C6  UNL     1      35.058   5.789 -19.477  1.00  0.00     0.694 A 
ATOM     14  H4  UNL     1      35.222   6.410 -17.542  1.00  0.00     0.203 HD
HETATM   15  N6  UNL     1      34.379   4.953 -20.282  1.00  0.00    -0.139 N 
HETATM   16  C7  UNL     1      33.413   4.149 -19.821  1.00  0.00     0.374 A 
ATOM     17  H6  UNL     1      34.608   4.931 -21.275  1.00  0.00     0.189 HD
HETATM   18  O1  UNL     1      32.792   3.377 -20.586  1.00  0.00    -0.244 OA
HETATM   19  N8  UNL     1      32.198   3.485 -17.793  1.00  0.00    -0.263 N 
ATOM     20  H8  UNL     1      31.554   2.787 -18.165  1.00  0.00     0.189 HD
BRANCH  13  21
HETATM   21  N5  UNL     1      35.978   6.540 -19.981  1.00  0.00    -0.234 N 
ATOM     22  H52 UNL     1      35.718   7.263 -20.653  1.00  0.00     0.174 HD
ATOM     23  H51 UNL     1      36.968   6.459 -19.749  1.00  0.00     0.174 HD
ENDBRANCH  13  21
ENDBRANCH   6   7
ENDBRANCH   5   6
BRANCH   5  24
HETATM   24  N9  UNL     1      33.224   2.738 -13.771  1.00  0.00    -0.274 N 
ATOM     25  H9  UNL     1      34.077   3.231 -13.508  1.00  0.00     0.190 HD
BRANCH  24  26
HETATM   26  N10 UNL     1      33.240   1.345 -13.794  1.00  0.00    -0.241 N 
HETATM   27  N11 UNL     1      34.099   0.775 -14.545  1.00  0.00    -0.279 N 
ATOM     28  H11 UNL     1      34.112  -0.245 -14.565  1.00  0.00     0.189 HD
ATOM     29  H10 UNL     1      32.587   0.801 -13.231  1.00  0.00     0.208 HD
BRANCH  27  30
HETATM   30  C8  UNL     1      35.028   1.459 -15.348  1.00  0.00     0.143 A 
HETATM   31  C9  UNL     1      36.081   2.261 -14.961  1.00  0.00     0.215 A 
HETATM   32  O3  UNL     1      36.697   2.704 -16.024  1.00  0.00    -0.285 OA
HETATM   33  C10 UNL     1      36.121   2.247 -17.121  1.00  0.00     0.122 A 
HETATM   34  C13 UNL     1      35.066   1.459 -16.730  1.00  0.00     0.131 A 
BRANCH  31  35
HETATM   35  O2  UNL     1      36.400   2.529 -13.621  1.00  0.00    -0.339 OA
ATOM     36  H2  UNL     1      36.299   3.384 -13.219  1.00  0.00     0.220 HD
ENDBRANCH  31  35
BRANCH  33  37
HETATM   37  C11 UNL     1      36.556   2.547 -18.505  1.00  0.00     0.201 C 
BRANCH  37  38
HETATM   38  O4  UNL     1      35.524   2.238 -19.408  1.00  0.00    -0.387 OA
ATOM     39  H4  UNL     1      35.868   1.721 -20.127  1.00  0.00     0.210 HD
ENDBRANCH  37  38
BRANCH  37  40
HETATM   40  C12 UNL     1      37.741   1.677 -18.905  1.00  0.00     0.202 C 
BRANCH  40  41
HETATM   41  O5  UNL     1      38.323   1.097 -17.784  1.00  0.00    -0.398 OA
ATOM     42  H5  UNL     1      39.202   0.794 -17.982  1.00  0.00     0.209 HD
ENDBRANCH  40  41
ENDBRANCH  37  40
ENDBRANCH  33  37
BRANCH  34  43
HETATM   43  O6  UNL     1      34.224   0.806 -17.620  1.00  0.00    -0.356 OA
ATOM     44  H6  UNL     1      34.380   0.587 -18.532  1.00  0.00     0.218 HD
ENDBRANCH  34  43
ENDBRANCH  27  30
ENDBRANCH  24  26
ENDBRANCH   5  24
TORSDOF 12
ENDMDL
MODEL 4
REMARK VINA RESULT: -9.400826385      3.361      6.231
REMARK  12 active torsions:
REMARK  status: ('A' for Active; 'I' for Inactive)
REMARK    1  A    between atoms: C2_5  and  C3_6 
REMARK    2  A    between atoms: C2_5  and  N9_24 
REMARK    3  A    between atoms: C3_6  and  C4_7 
REMARK    4  A    between atoms: C6_13  and  N5_14 
REMARK    5  A    between atoms: N9_24  and  N10_26 
REMARK    6  A    between atoms: N11_28  and  C8_30 
REMARK    7  A    between atoms: C9_31  and  O2_32 
REMARK    8  A    between atoms: C10_35  and  C11_36 
REMARK    9  A    between atoms: C11_36  and  O4_37 
REMARK   10  A    between atoms: C11_36  and  C12_39 
REMARK   11  A    between atoms: C12_39  and  O5_40 
REMARK   12  A    between atoms: C13_42  and  O6_43 
ROOT
HETATM    1  N1  UNL     1      30.316   4.401 -12.354  1.00  0.00    -0.172 NA
HETATM    2  C1  UNL     1      30.803   4.640 -13.388  1.00  0.00     0.183 C 
HETATM    3  N2  UNL     1      31.376   4.912 -14.636  1.00  0.00    -0.281 N 
ATOM      4  H2  UNL     1      31.386   5.876 -14.969  1.00  0.00     0.179 HD
HETATM    5  C2  UNL     1      31.890   4.001 -15.379  1.00  0.00     0.113 C 
ENDROOT
BRANCH   5   6
HETATM    6  C3  UNL     1      31.895   2.604 -14.934  1.00  0.00     0.157 C 
BRANCH   6   7
HETATM    7  C4  UNL     1      33.285   2.075 -14.821  1.00  0.00     0.120 A 
HETATM    8  N3  UNL     1      34.032   1.473 -15.763  1.00  0.00    -0.176 N 
HETATM    9  C5  UNL     1      35.241   1.145 -15.248  1.00  0.00     0.724 A 
ATOM     10  H3  UNL     1      33.733   1.291 -16.722  1.00  0.00     0.185 HD
HETATM   11  N4  UNL     1      36.343   0.541 -15.741  1.00  0.00    -0.020 N 
HETATM   12  N7  UNL     1      35.244   1.548 -13.963  1.00  0.00    -0.029 N 
HETATM   13  C6  UNL     1      37.441   0.328 -14.999  1.00  0.00     0.694 A 
ATOM     14  H4  UNL     1      36.341   0.234 -16.714  1.00  0.00     0.203 HD
HETATM   15  N6  UNL     1      37.404   0.747 -13.722  1.00  0.00    -0.139 N 
HETATM   16  C7  UNL     1      36.327   1.349 -13.201  1.00  0.00     0.374 A 
ATOM     17  H6  UNL     1      38.222   0.601 -13.131  1.00  0.00     0.189 HD
HETATM   18  O1  UNL     1      36.311   1.731 -12.009  1.00  0.00    -0.244 OA
HETATM   19  N8  UNL     1      34.050   2.111 -13.716  1.00  0.00    -0.263 N 
ATOM     20  H8  UNL     1      33.766   2.508 -12.820  1.00  0.00     0.189 HD
BRANCH  13  21
HETATM   21  N5  UNL     1      38.509  -0.246 -15.442  1.00  0.00    -0.234 N 
ATOM     22  H52 UNL     1      39.166   0.294 -16.007  1.00  0.00     0.174 HD
ATOM     23  H51 UNL     1      38.745  -1.222 -15.263  1.00  0.00     0.174 HD
ENDBRANCH  13  21
ENDBRANCH   6   7
ENDBRANCH   5   6
BRANCH   5  24
HETATM   24  N9  UNL     1      32.452   4.352 -16.627  1.00  0.00    -0.274 N 
ATOM     25  H9  UNL     1      31.841   4.393 -17.443  1.00  0.00     0.190 HD
BRANCH  24  26
HETATM   26  N10 UNL     1      33.804   4.643 -16.791  1.00  0.00    -0.241 N 
HETATM   27  N11 UNL     1      34.137   5.367 -17.787  1.00  0.00    -0.279 N 
ATOM     28  H11 UNL     1      35.127   5.582 -17.910  1.00  0.00     0.189 HD
ATOM     29  H10 UNL     1      34.503   4.289 -16.138  1.00  0.00     0.208 HD
BRANCH  27  30
HETATM   30  C8  UNL     1      33.231   5.889 -18.726  1.00  0.00     0.143 A 
HETATM   31  C9  UNL     1      32.787   5.327 -19.905  1.00  0.00     0.215 A 
HETATM   32  O3  UNL     1      31.947   6.145 -20.481  1.00  0.00    -0.285 OA
HETATM   33  C10 UNL     1      31.792   7.240 -19.758  1.00  0.00     0.122 A 
HETATM   34  C13 UNL     1      32.587   7.109 -18.645  1.00  0.00     0.131 A 
BRANCH  31  35
HETATM   35  O2  UNL     1      33.202   4.070 -20.369  1.00  0.00    -0.339 OA
ATOM     36  H2  UNL     1      34.079   3.726 -20.239  1.00  0.00     0.220 HD
ENDBRANCH  31  35
BRANCH  33  37
HETATM   37  C11 UNL     1      30.914   8.380 -20.109  1.00  0.00     0.201 C 
BRANCH  37  38
HETATM   38  O4  UNL     1      30.253   8.845 -18.959  1.00  0.00    -0.387 OA
ATOM     39  H4  UNL     1      29.851   8.116 -18.501  1.00  0.00     0.210 HD
ENDBRANCH  37  38
BRANCH  37  40
HETATM   40  C12 UNL     1      29.822   7.950 -21.079  1.00  0.00     0.202 C 
BRANCH  40  41
HETATM   41  O5  UNL     1      29.019   6.968 -20.509  1.00  0.00    -0.398 OA
ATOM     42  H5  UNL     1      28.101   7.147 -20.675  1.00  0.00     0.209 HD
ENDBRANCH  40  41
ENDBRANCH  37  40
ENDBRANCH  33  37
BRANCH  34  43
HETATM   43  O6  UNL     1      32.681   8.075 -17.652  1.00  0.00    -0.356 OA
ATOM     44  H6  UNL     1      33.163   8.894 -17.664  1.00  0.00     0.218 HD
ENDBRANCH  34  43
ENDBRANCH  27  30
ENDBRANCH  24  26
ENDBRANCH   5  24
TORSDOF 12
ENDMDL
MODEL 5
REMARK VINA RESULT: -9.283300385      3.194      5.181
REMARK  12 active torsions:
REMARK  status: ('A' for Active; 'I' for Inactive)
REMARK    1  A    between atoms: C2_5  and  C3_6 
REMARK    2  A    between atoms: C2_5  and  N9_24 
REMARK    3  A    between atoms: C3_6  and  C4_7 
REMARK    4  A    between atoms: C6_13  and  N5_14 
REMARK    5  A    between atoms: N9_24  and  N10_26 
REMARK    6  A    between atoms: N11_28  and  C8_30 
REMARK    7  A    between atoms: C9_31  and  O2_32 
REMARK    8  A    between atoms: C10_35  and  C11_36 
REMARK    9  A    between atoms: C11_36  and  O4_37 
REMARK   10  A    between atoms: C11_36  and  C12_39 
REMARK   11  A    between atoms: C12_39  and  O5_40 
REMARK   12  A    between atoms: C13_42  and  O6_43 
ROOT
HETATM    1  N1  UNL     1      40.955  -0.149 -18.228  1.00  0.00    -0.172 NA
HETATM    2  C1  UNL     1      40.028  -0.074 -17.521  1.00  0.00     0.183 C 
HETATM    3  N2  UNL     1      38.906   0.009 -16.689  1.00  0.00    -0.281 N 
ATOM      4  H2  UNL     1      38.928  -0.471 -15.790  1.00  0.00     0.179 HD
HETATM    5  C2  UNL     1      37.850   0.665 -17.008  1.00  0.00     0.113 C 
ENDROOT
BRANCH   5   6
HETATM    6  C3  UNL     1      37.781   1.369 -18.293  1.00  0.00     0.157 C 
BRANCH   6   7
HETATM    7  C4  UNL     1      36.623   2.307 -18.336  1.00  0.00     0.120 A 
HETATM    8  N3  UNL     1      36.566   3.587 -17.929  1.00  0.00    -0.176 N 
HETATM    9  C5  UNL     1      35.323   4.081 -18.146  1.00  0.00     0.724 A 
ATOM     10  H3  UNL     1      37.341   4.108 -17.519  1.00  0.00     0.185 HD
HETATM   11  N4  UNL     1      34.733   5.276 -17.931  1.00  0.00    -0.020 N 
HETATM   12  N7  UNL     1      34.596   3.090 -18.696  1.00  0.00    -0.029 N 
HETATM   13  C6  UNL     1      33.449   5.513 -18.245  1.00  0.00     0.694 A 
ATOM     14  H4  UNL     1      35.282   6.027 -17.514  1.00  0.00     0.203 HD
HETATM   15  N6  UNL     1      32.759   4.498 -18.792  1.00  0.00    -0.139 N 
HETATM   16  C7  UNL     1      33.313   3.300 -19.019  1.00  0.00     0.374 A 
ATOM     17  H6  UNL     1      31.781   4.644 -19.043  1.00  0.00     0.189 HD
HETATM   18  O1  UNL     1      32.654   2.366 -19.530  1.00  0.00    -0.244 OA
HETATM   19  N8  UNL     1      35.397   2.018 -18.806  1.00  0.00    -0.263 N 
ATOM     20  H8  UNL     1      35.115   1.115 -19.190  1.00  0.00     0.189 HD
BRANCH  13  21
HETATM   21  N5  UNL     1      32.859   6.644 -18.051  1.00  0.00    -0.234 N 
ATOM     22  H52 UNL     1      33.381   7.412 -17.629  1.00  0.00     0.174 HD
ATOM     23  H51 UNL     1      31.885   6.825 -18.296  1.00  0.00     0.174 HD
ENDBRANCH  13  21
ENDBRANCH   6   7
ENDBRANCH   5   6
BRANCH   5  24
HETATM   24  N9  UNL     1      36.755   0.705 -16.116  1.00  0.00    -0.274 N 
ATOM     25  H9  UNL     1      35.905   1.185 -16.409  1.00  0.00     0.190 HD
BRANCH  24  26
HETATM   26  N10 UNL     1      36.789   0.116 -14.854  1.00  0.00    -0.241 N 
HETATM   27  N11 UNL     1      35.960   0.540 -13.981  1.00  0.00    -0.279 N 
ATOM     28  H11 UNL     1      35.982   0.111 -13.056  1.00  0.00     0.189 HD
ATOM     29  H10 UNL     1      37.452  -0.627 -14.636  1.00  0.00     0.208 HD
BRANCH  27  30
HETATM   30  C8  UNL     1      35.019   1.559 -14.210  1.00  0.00     0.143 A 
HETATM   31  C9  UNL     1      35.233   2.858 -14.621  1.00  0.00     0.215 A 
HETATM   32  O3  UNL     1      34.085   3.474 -14.711  1.00  0.00    -0.285 OA
HETATM   33  C10 UNL     1      33.094   2.665 -14.383  1.00  0.00     0.122 A 
HETATM   34  C13 UNL     1      33.649   1.450 -14.062  1.00  0.00     0.131 A 
BRANCH  31  35
HETATM   35  O2  UNL     1      36.504   3.387 -14.888  1.00  0.00    -0.339 OA
ATOM     36  H2  UNL     1      36.770   4.265 -14.641  1.00  0.00     0.220 HD
ENDBRANCH  31  35
BRANCH  33  37
HETATM   37  C11 UNL     1      31.658   3.030 -14.373  1.00  0.00     0.201 C 
BRANCH  37  38
HETATM   38  O4  UNL     1      31.208   3.233 -15.689  1.00  0.00    -0.387 OA
ATOM     39  H4  UNL     1      30.506   3.873 -15.694  1.00  0.00     0.210 HD
ENDBRANCH  37  38
BRANCH  37  40
HETATM   40  C12 UNL     1      31.434   4.346 -13.642  1.00  0.00     0.202 C 
BRANCH  40  41
HETATM   41  O5  UNL     1      30.556   4.173 -12.578  1.00  0.00    -0.398 OA
ATOM     42  H5  UNL     1      30.810   4.718 -11.842  1.00  0.00     0.209 HD
ENDBRANCH  40  41
ENDBRANCH  37  40
ENDBRANCH  33  37
BRANCH  34  43
HETATM   43  O6  UNL     1      32.905   0.346 -13.666  1.00  0.00    -0.356 OA
ATOM     44  H6  UNL     1      32.308   0.267 -12.931  1.00  0.00     0.218 HD
ENDBRANCH  34  43
ENDBRANCH  27  30
ENDBRANCH  24  26
ENDBRANCH   5  24
TORSDOF 12
ENDMDL
