MODEL 1
REMARK VINA RESULT: -8.490809648      0.000      0.000
REMARK  10 active torsions:
REMARK  status: ('A' for Active; 'I' for Inactive)
REMARK    1  A    between atoms: C3_3  and  N1_4 
REMARK    2  A    between atoms: C5_7  and  N2_8 
REMARK    3  A    between atoms: C6_10  and  C7_11 
REMARK    4  A    between atoms: C12_16  and  O2_17 
REMARK    5  A    between atoms: N3_19  and  C13_20 
REMARK    6  A    between atoms: C15_22  and  O3_23 
REMARK    7  A    between atoms: C17_26  and  O4_27 
REMARK    8  A    between atoms: N4_29  and  C18_30 
REMARK    9  A    between atoms: C18_30  and  C19_31 
REMARK   10  A    between atoms: C19_31  and  C20_32 
ROOT
HETATM    1  C1  UNL     1      10.669  -0.091  12.710  1.00  0.00     0.014 C 
HETATM    2  C2  UNL     1      11.113  -0.997  12.052  1.00  0.00    -0.097 C 
HETATM    3  C3  UNL     1      11.635  -2.088  11.256  1.00  0.00     0.229 C 
ENDROOT
BRANCH   3   4
HETATM    4  N1  UNL     1      12.893  -2.594  11.821  1.00  0.00    -0.253 N 
HETATM    5  C4  UNL     1      14.078  -2.248  11.291  1.00  0.00     0.283 A 
HETATM    6  O1  UNL     1      14.053  -1.470  10.287  1.00  0.00    -0.265 OA
HETATM    7  C5  UNL     1      15.292  -2.703  11.794  1.00  0.00     0.153 A 
HETATM    8  C17 UNL     1      15.209  -3.542  12.885  1.00  0.00     0.179 A 
HETATM    9  N4  UNL     1      14.037  -3.905  13.436  1.00  0.00    -0.278 N 
HETATM   10  C23 UNL     1      12.900  -3.416  12.884  1.00  0.00     0.334 A 
HETATM   11  O5  UNL     1      11.806  -3.753  13.396  1.00  0.00    -0.246 OA
BRANCH   7  12
HETATM   12  N2  UNL     1      16.506  -2.314  11.207  1.00  0.00    -0.357 N 
HETATM   13  C6  UNL     1      17.002  -2.841  10.115  1.00  0.00     0.101 C 
ATOM     14  H2  UNL     1      17.037  -1.571  11.661  1.00  0.00     0.165 HD
BRANCH  13  15
HETATM   15  C7  UNL     1      18.267  -2.331   9.634  1.00  0.00    -0.005 A 
HETATM   16  C8  UNL     1      18.262  -1.249   8.752  1.00  0.00     0.014 A 
HETATM   17  C9  UNL     1      19.459  -0.754   8.286  1.00  0.00     0.002 A 
HETATM   18  C10 UNL     1      20.631  -1.345   8.704  1.00  0.00     0.017 A 
HETATM   19  C11 UNL     1      20.635  -2.415   9.576  1.00  0.00     0.030 A 
HETATM   20  C12 UNL     1      21.628  -3.185  10.151  1.00  0.00     0.155 A 
HETATM   21  C16 UNL     1      19.435  -2.929  10.059  1.00  0.00     0.041 A 
HETATM   22  N3  UNL     1      21.106  -4.128  10.946  1.00  0.00    -0.307 N 
HETATM   23  C15 UNL     1      19.761  -3.972  10.892  1.00  0.00     0.156 A 
BRANCH  20  24
HETATM   24  O2  UNL     1      22.982  -2.973   9.905  1.00  0.00    -0.345 OA
ATOM     25  H2  UNL     1      23.667  -3.370  10.430  1.00  0.00     0.219 HD
ENDBRANCH  20  24
BRANCH  22  26
HETATM   26  C13 UNL     1      21.855  -5.116  11.712  1.00  0.00     0.129 C 
HETATM   27  C14 UNL     1      22.260  -6.295  10.847  1.00  0.00     0.027 C 
ENDBRANCH  22  26
BRANCH  23  28
HETATM   28  O3  UNL     1      18.847  -4.753  11.576  1.00  0.00    -0.345 OA
ATOM     29  H3  UNL     1      17.958  -4.928  11.287  1.00  0.00     0.219 HD
ENDBRANCH  23  28
ENDBRANCH  13  15
ENDBRANCH   7  12
BRANCH   8  30
HETATM   30  O4  UNL     1      16.396  -4.020  13.420  1.00  0.00    -0.344 OA
ATOM     31  H4  UNL     1      16.857  -4.696  12.937  1.00  0.00     0.219 HD
ENDBRANCH   8  30
BRANCH   9  32
HETATM   32  C18 UNL     1      14.011  -4.792  14.584  1.00  0.00     0.136 C 
BRANCH  32  33
HETATM   33  C19 UNL     1      13.767  -6.231  14.193  1.00  0.00     0.024 C 
BRANCH  33  34
HETATM   34  C20 UNL     1      14.801  -7.057  14.969  1.00  0.00    -0.021 C 
HETATM   35  C21 UNL     1      15.927  -7.430  14.043  1.00  0.00     0.009 C 
HETATM   36  C22 UNL     1      15.408  -6.165  16.059  1.00  0.00     0.009 C 
ENDBRANCH  33  34
ENDBRANCH  32  33
ENDBRANCH   9  32
ENDBRANCH   3   4
TORSDOF 10
ENDMDL
MODEL 2
REMARK VINA RESULT: -8.370509689      2.834      7.436
REMARK  10 active torsions:
REMARK  status: ('A' for Active; 'I' for Inactive)
REMARK    1  A    between atoms: C3_3  and  N1_4 
REMARK    2  A    between atoms: C5_7  and  N2_8 
REMARK    3  A    between atoms: C6_10  and  C7_11 
REMARK    4  A    between atoms: C12_16  and  O2_17 
REMARK    5  A    between atoms: N3_19  and  C13_20 
REMARK    6  A    between atoms: C15_22  and  O3_23 
REMARK    7  A    between atoms: C17_26  and  O4_27 
REMARK    8  A    between atoms: N4_29  and  C18_30 
REMARK    9  A    between atoms: C18_30  and  C19_31 
REMARK   10  A    between atoms: C19_31  and  C20_32 
ROOT
HETATM    1  C1  UNL     1      17.439  -0.516   9.640  1.00  0.00     0.014 C 
HETATM    2  C2  UNL     1      16.874  -1.576   9.724  1.00  0.00    -0.097 C 
HETATM    3  C3  UNL     1      16.193  -2.852   9.814  1.00  0.00     0.229 C 
ENDROOT
BRANCH   3   4
HETATM    4  N1  UNL     1      15.622  -3.048  11.153  1.00  0.00    -0.253 N 
HETATM    5  C4  UNL     1      16.231  -3.833  12.057  1.00  0.00     0.283 A 
HETATM    6  O1  UNL     1      17.314  -4.391  11.696  1.00  0.00    -0.265 OA
HETATM    7  C5  UNL     1      15.726  -4.046  13.334  1.00  0.00     0.153 A 
HETATM    8  C17 UNL     1      14.545  -3.395  13.626  1.00  0.00     0.179 A 
HETATM    9  N4  UNL     1      13.914  -2.603  12.741  1.00  0.00    -0.278 N 
HETATM   10  C23 UNL     1      14.475  -2.449  11.517  1.00  0.00     0.334 A 
HETATM   11  O5  UNL     1      13.889  -1.712  10.690  1.00  0.00    -0.246 OA
BRANCH   7  12
HETATM   12  N2  UNL     1      16.398  -4.875  14.246  1.00  0.00    -0.357 N 
HETATM   13  C6  UNL     1      16.311  -6.182  14.260  1.00  0.00     0.101 C 
ATOM     14  H2  UNL     1      16.993  -4.431  14.944  1.00  0.00     0.165 HD
BRANCH  13  15
HETATM   15  C7  UNL     1      17.066  -6.898  15.264  1.00  0.00    -0.005 A 
HETATM   16  C8  UNL     1      18.320  -7.407  14.924  1.00  0.00     0.014 A 
HETATM   17  C9  UNL     1      19.049  -8.090  15.871  1.00  0.00     0.002 A 
HETATM   18  C10 UNL     1      18.516  -8.255  17.130  1.00  0.00     0.017 A 
HETATM   19  C11 UNL     1      17.276  -7.752  17.466  1.00  0.00     0.030 A 
HETATM   20  C12 UNL     1      16.510  -7.764  18.616  1.00  0.00     0.155 A 
HETATM   21  C16 UNL     1      16.523  -7.057  16.522  1.00  0.00     0.041 A 
HETATM   22  N3  UNL     1      15.348  -7.124  18.428  1.00  0.00    -0.307 N 
HETATM   23  C15 UNL     1      15.355  -6.689  17.144  1.00  0.00     0.156 A 
BRANCH  20  24
HETATM   24  O2  UNL     1      16.932  -8.376  19.793  1.00  0.00    -0.345 OA
ATOM     25  H2  UNL     1      16.762  -8.007  20.652  1.00  0.00     0.219 HD
ENDBRANCH  20  24
BRANCH  22  26
HETATM   26  C13 UNL     1      14.300  -6.940  19.423  1.00  0.00     0.129 C 
HETATM   27  C14 UNL     1      13.221  -8.000  19.290  1.00  0.00     0.027 C 
ENDBRANCH  22  26
BRANCH  23  28
HETATM   28  O3  UNL     1      14.332  -5.977  16.547  1.00  0.00    -0.345 OA
ATOM     29  H3  UNL     1      14.348  -5.041  16.378  1.00  0.00     0.219 HD
ENDBRANCH  23  28
ENDBRANCH  13  15
ENDBRANCH   7  12
BRANCH   8  30
HETATM   30  O4  UNL     1      14.005  -3.578  14.889  1.00  0.00    -0.344 OA
ATOM     31  H4  UNL     1      14.533  -3.324  15.637  1.00  0.00     0.219 HD
ENDBRANCH   8  30
BRANCH   9  32
HETATM   32  C18 UNL     1      12.674  -1.944  13.103  1.00  0.00     0.136 C 
BRANCH  32  33
HETATM   33  C19 UNL     1      11.459  -2.776  12.764  1.00  0.00     0.024 C 
BRANCH  33  34
HETATM   34  C20 UNL     1      10.417  -1.793  12.215  1.00  0.00    -0.021 C 
HETATM   35  C21 UNL     1       9.205  -1.812  13.106  1.00  0.00     0.009 C 
HETATM   36  C22 UNL     1      11.002  -0.377  12.300  1.00  0.00     0.009 C 
ENDBRANCH  33  34
ENDBRANCH  32  33
ENDBRANCH   9  32
ENDBRANCH   3   4
TORSDOF 10
ENDMDL
MODEL 3
REMARK VINA RESULT: -8.349178289      2.730      6.913
REMARK  10 active torsions:
REMARK  status: ('A' for Active; 'I' for Inactive)
REMARK    1  A    between atoms: C3_3  and  N1_4 
REMARK    2  A    between atoms: C5_7  and  N2_8 
REMARK    3  A    between atoms: C6_10  and  C7_11 
REMARK    4  A    between atoms: C12_16  and  O2_17 
REMARK    5  A    between atoms: N3_19  and  C13_20 
REMARK    6  A    between atoms: C15_22  and  O3_23 
REMARK    7  A    between atoms: C17_26  and  O4_27 
REMARK    8  A    between atoms: N4_29  and  C18_30 
REMARK    9  A    between atoms: C18_30  and  C19_31 
REMARK   10  A    between atoms: C19_31  and  C20_32 
ROOT
HETATM    1  C1  UNL     1      10.367  -0.194  12.711  1.00  0.00     0.014 C 
HETATM    2  C2  UNL     1      10.761  -1.221  12.221  1.00  0.00    -0.097 C 
HETATM    3  C3  UNL     1      11.225  -2.460  11.630  1.00  0.00     0.229 C 
ENDROOT
BRANCH   3   4
HETATM    4  N1  UNL     1      12.581  -2.786  12.090  1.00  0.00    -0.253 N 
HETATM    5  C4  UNL     1      12.782  -3.689  13.065  1.00  0.00     0.283 A 
HETATM    6  O1  UNL     1      11.750  -4.238  13.561  1.00  0.00    -0.265 OA
HETATM    7  C5  UNL     1      14.048  -4.027  13.530  1.00  0.00     0.153 A 
HETATM    8  C17 UNL     1      15.101  -3.374  12.925  1.00  0.00     0.179 A 
HETATM    9  N4  UNL     1      14.929  -2.466  11.948  1.00  0.00    -0.278 N 
HETATM   10  C23 UNL     1      13.661  -2.194  11.553  1.00  0.00     0.334 A 
HETATM   11  O5  UNL     1      13.497  -1.349  10.642  1.00  0.00    -0.246 OA
BRANCH   7  12
HETATM   12  N2  UNL     1      14.210  -4.977  14.550  1.00  0.00    -0.357 N 
HETATM   13  C6  UNL     1      14.226  -6.273  14.359  1.00  0.00     0.101 C 
ATOM     14  H2  UNL     1      14.322  -4.636  15.505  1.00  0.00     0.165 HD
BRANCH  13  15
HETATM   15  C7  UNL     1      14.401  -7.124  15.516  1.00  0.00    -0.005 A 
HETATM   16  C8  UNL     1      13.272  -7.688  16.110  1.00  0.00     0.014 A 
HETATM   17  C9  UNL     1      13.425  -8.500  17.211  1.00  0.00     0.002 A 
HETATM   18  C10 UNL     1      14.692  -8.731  17.697  1.00  0.00     0.017 A 
HETATM   19  C11 UNL     1      15.809  -8.172  17.109  1.00  0.00     0.030 A 
HETATM   20  C12 UNL     1      17.165  -8.226  17.371  1.00  0.00     0.155 A 
HETATM   21  C16 UNL     1      15.675  -7.349  15.994  1.00  0.00     0.041 A 
HETATM   22  N3  UNL     1      17.855  -7.491  16.489  1.00  0.00    -0.307 N 
HETATM   23  C15 UNL     1      16.943  -6.952  15.643  1.00  0.00     0.156 A 
BRANCH  20  24
HETATM   24  O2  UNL     1      17.698  -8.961  18.426  1.00  0.00    -0.345 OA
ATOM     25  H2  UNL     1      18.633  -9.028  18.583  1.00  0.00     0.219 HD
ENDBRANCH  20  24
BRANCH  22  26
HETATM   26  C13 UNL     1      19.302  -7.319  16.461  1.00  0.00     0.129 C 
HETATM   27  C14 UNL     1      19.953  -8.275  15.478  1.00  0.00     0.027 C 
ENDBRANCH  22  26
BRANCH  23  28
HETATM   28  O3  UNL     1      17.246  -6.122  14.580  1.00  0.00    -0.345 OA
ATOM     29  H3  UNL     1      16.675  -5.440  14.244  1.00  0.00     0.219 HD
ENDBRANCH  23  28
ENDBRANCH  13  15
ENDBRANCH   7  12
BRANCH   8  30
HETATM   30  O4  UNL     1      16.382  -3.681  13.357  1.00  0.00    -0.344 OA
ATOM     31  H4  UNL     1      16.858  -4.354  12.885  1.00  0.00     0.219 HD
ENDBRANCH   8  30
BRANCH   9  32
HETATM   32  C18 UNL     1      16.074  -1.810  11.348  1.00  0.00     0.136 C 
BRANCH  32  33
HETATM   33  C19 UNL     1      16.519  -2.481  10.070  1.00  0.00     0.024 C 
BRANCH  33  34
HETATM   34  C20 UNL     1      17.390  -1.453   9.336  1.00  0.00    -0.021 C 
HETATM   35  C21 UNL     1      16.542  -0.268   8.961  1.00  0.00     0.009 C 
HETATM   36  C22 UNL     1      18.452  -0.939  10.316  1.00  0.00     0.009 C 
ENDBRANCH  33  34
ENDBRANCH  32  33
ENDBRANCH   9  32
ENDBRANCH   3   4
TORSDOF 10
ENDMDL
MODEL 4
REMARK VINA RESULT: -8.284522048      2.888      7.754
REMARK  10 active torsions:
REMARK  status: ('A' for Active; 'I' for Inactive)
REMARK    1  A    between atoms: C3_3  and  N1_4 
REMARK    2  A    between atoms: C5_7  and  N2_8 
REMARK    3  A    between atoms: C6_10  and  C7_11 
REMARK    4  A    between atoms: C12_16  and  O2_17 
REMARK    5  A    between atoms: N3_19  and  C13_20 
REMARK    6  A    between atoms: C15_22  and  O3_23 
REMARK    7  A    between atoms: C17_26  and  O4_27 
REMARK    8  A    between atoms: N4_29  and  C18_30 
REMARK    9  A    between atoms: C18_30  and  C19_31 
REMARK   10  A    between atoms: C19_31  and  C20_32 
ROOT
HETATM    1  C1  UNL     1      18.036  -1.348  10.708  1.00  0.00     0.014 C 
HETATM    2  C2  UNL     1      17.045  -1.931  10.348  1.00  0.00    -0.097 C 
HETATM    3  C3  UNL     1      15.854  -2.627   9.904  1.00  0.00     0.229 C 
ENDROOT
BRANCH   3   4
HETATM    4  N1  UNL     1      15.093  -3.145  11.048  1.00  0.00    -0.253 N 
HETATM    5  C4  UNL     1      15.385  -4.340  11.589  1.00  0.00     0.283 A 
HETATM    6  O1  UNL     1      16.342  -4.990  11.064  1.00  0.00    -0.265 OA
HETATM    7  C5  UNL     1      14.691  -4.868  12.672  1.00  0.00     0.153 A 
HETATM    8  C17 UNL     1      13.670  -4.084  13.167  1.00  0.00     0.179 A 
HETATM    9  N4  UNL     1      13.356  -2.884  12.646  1.00  0.00    -0.278 N 
HETATM   10  C23 UNL     1      14.084  -2.443  11.590  1.00  0.00     0.334 A 
HETATM   11  O5  UNL     1      13.794  -1.325  11.103  1.00  0.00    -0.246 OA
BRANCH   7  12
HETATM   12  N2  UNL     1      15.031  -6.121  13.203  1.00  0.00    -0.357 N 
HETATM   13  C6  UNL     1      16.028  -6.330  14.027  1.00  0.00     0.101 C 
ATOM     14  H2  UNL     1      14.465  -6.924  12.930  1.00  0.00     0.165 HD
BRANCH  13  15
HETATM   15  C7  UNL     1      16.253  -7.682  14.488  1.00  0.00    -0.005 A 
HETATM   16  C8  UNL     1      17.245  -8.445  13.870  1.00  0.00     0.014 A 
HETATM   17  C9  UNL     1      17.469  -9.733  14.299  1.00  0.00     0.002 A 
HETATM   18  C10 UNL     1      16.703 -10.235  15.327  1.00  0.00     0.017 A 
HETATM   19  C11 UNL     1      15.721  -9.481  15.937  1.00  0.00     0.030 A 
HETATM   20  C12 UNL     1      14.824  -9.714  16.962  1.00  0.00     0.155 A 
HETATM   21  C16 UNL     1      15.480  -8.175  15.518  1.00  0.00     0.041 A 
HETATM   22  N3  UNL     1      14.059  -8.637  17.187  1.00  0.00    -0.307 N 
HETATM   23  C15 UNL     1      14.461  -7.692  16.303  1.00  0.00     0.156 A 
BRANCH  20  24
HETATM   24  O2  UNL     1      14.759 -10.927  17.642  1.00  0.00    -0.345 OA
ATOM     25  H2  UNL     1      14.131 -11.093  18.336  1.00  0.00     0.219 HD
ENDBRANCH  20  24
BRANCH  22  26
HETATM   26  C13 UNL     1      13.010  -8.525  18.192  1.00  0.00     0.129 C 
HETATM   27  C14 UNL     1      11.637  -8.742  17.583  1.00  0.00     0.027 C 
ENDBRANCH  22  26
BRANCH  23  28
HETATM   28  O3  UNL     1      13.921  -6.423  16.205  1.00  0.00    -0.345 OA
ATOM     29  H3  UNL     1      14.097  -5.710  16.808  1.00  0.00     0.219 HD
ENDBRANCH  23  28
ENDBRANCH  13  15
ENDBRANCH   7  12
BRANCH   8  30
HETATM   30  O4  UNL     1      12.951  -4.571  14.247  1.00  0.00    -0.344 OA
ATOM     31  H4  UNL     1      13.144  -5.453  14.544  1.00  0.00     0.219 HD
ENDBRANCH   8  30
BRANCH   9  32
HETATM   32  C18 UNL     1      12.272  -2.102  13.208  1.00  0.00     0.136 C 
BRANCH  32  33
HETATM   33  C19 UNL     1      10.914  -2.663  12.853  1.00  0.00     0.024 C 
BRANCH  33  34
HETATM   34  C20 UNL     1      10.078  -1.466  12.379  1.00  0.00    -0.021 C 
HETATM   35  C21 UNL     1       8.868  -1.330  13.263  1.00  0.00     0.009 C 
HETATM   36  C22 UNL     1      10.910  -0.193  12.575  1.00  0.00     0.009 C 
ENDBRANCH  33  34
ENDBRANCH  32  33
ENDBRANCH   9  32
ENDBRANCH   3   4
TORSDOF 10
ENDMDL
MODEL 5
REMARK VINA RESULT: -8.241737823      2.656      6.149
REMARK  10 active torsions:
REMARK  status: ('A' for Active; 'I' for Inactive)
REMARK    1  A    between atoms: C3_3  and  N1_4 
REMARK    2  A    between atoms: C5_7  and  N2_8 
REMARK    3  A    between atoms: C6_10  and  C7_11 
REMARK    4  A    between atoms: C12_16  and  O2_17 
REMARK    5  A    between atoms: N3_19  and  C13_20 
REMARK    6  A    between atoms: C15_22  and  O3_23 
REMARK    7  A    between atoms: C17_26  and  O4_27 
REMARK    8  A    between atoms: N4_29  and  C18_30 
REMARK    9  A    between atoms: C18_30  and  C19_31 
REMARK   10  A    between atoms: C19_31  and  C20_32 
ROOT
HETATM    1  C1  UNL     1      20.321  -7.687  14.313  1.00  0.00     0.014 C 
HETATM    2  C2  UNL     1      19.237  -7.798  13.799  1.00  0.00    -0.097 C 
HETATM    3  C3  UNL     1      17.939  -7.936  13.170  1.00  0.00     0.229 C 
ENDROOT
BRANCH   3   4
HETATM    4  N1  UNL     1      16.942  -7.088  13.835  1.00  0.00    -0.253 N 
HETATM    5  C4  UNL     1      16.458  -5.988  13.233  1.00  0.00     0.283 A 
HETATM    6  O1  UNL     1      16.904  -5.724  12.074  1.00  0.00    -0.265 OA
HETATM    7  C5  UNL     1      15.513  -5.158  13.826  1.00  0.00     0.153 A 
HETATM    8  C17 UNL     1      15.094  -5.532  15.085  1.00  0.00     0.179 A 
HETATM    9  N4  UNL     1      15.562  -6.627  15.711  1.00  0.00    -0.278 N 
HETATM   10  C23 UNL     1      16.481  -7.383  15.062  1.00  0.00     0.334 A 
HETATM   11  O5  UNL     1      16.919  -8.404  15.643  1.00  0.00    -0.246 OA
BRANCH   7  12
HETATM   12  N2  UNL     1      15.036  -4.019  13.159  1.00  0.00    -0.357 N 
HETATM   13  C6  UNL     1      14.178  -4.046  12.169  1.00  0.00     0.101 C 
ATOM     14  H2  UNL     1      15.380  -3.109  13.465  1.00  0.00     0.165 HD
BRANCH  13  15
HETATM   15  C7  UNL     1      13.783  -2.784  11.583  1.00  0.00    -0.005 A 
HETATM   16  C8  UNL     1      12.500  -2.298  11.840  1.00  0.00     0.014 A 
HETATM   17  C9  UNL     1      12.111  -1.098  11.288  1.00  0.00     0.002 A 
HETATM   18  C10 UNL     1      13.002  -0.411  10.494  1.00  0.00     0.017 A 
HETATM   19  C11 UNL     1      14.271  -0.892  10.241  1.00  0.00     0.030 A 
HETATM   20  C12 UNL     1      15.346  -0.433   9.505  1.00  0.00     0.155 A 
HETATM   21  C16 UNL     1      14.683  -2.104  10.790  1.00  0.00     0.041 A 
HETATM   22  N3  UNL     1      16.377  -1.285   9.574  1.00  0.00    -0.307 N 
HETATM   23  C15 UNL     1      15.972  -2.310  10.362  1.00  0.00     0.156 A 
BRANCH  20  24
HETATM   24  O2  UNL     1      15.316   0.767   8.798  1.00  0.00    -0.345 OA
ATOM     25  H2  UNL     1      15.833   0.914   8.015  1.00  0.00     0.219 HD
ENDBRANCH  20  24
BRANCH  22  26
HETATM   26  C13 UNL     1      17.671  -1.121   8.924  1.00  0.00     0.129 C 
HETATM   27  C14 UNL     1      18.742  -0.712   9.919  1.00  0.00     0.027 C 
ENDBRANCH  22  26
BRANCH  23  28
HETATM   28  O3  UNL     1      16.747  -3.409  10.689  1.00  0.00    -0.345 OA
ATOM     29  H3  UNL     1      16.628  -3.945  11.465  1.00  0.00     0.219 HD
ENDBRANCH  23  28
ENDBRANCH  13  15
ENDBRANCH   7  12
BRANCH   8  30
HETATM   30  O4  UNL     1      14.152  -4.733  15.714  1.00  0.00    -0.344 OA
ATOM     31  H4  UNL     1      13.884  -3.936  15.272  1.00  0.00     0.219 HD
ENDBRANCH   8  30
BRANCH   9  32
HETATM   32  C18 UNL     1      15.085  -6.973  17.037  1.00  0.00     0.136 C 
BRANCH  32  33
HETATM   33  C19 UNL     1      13.886  -7.891  16.996  1.00  0.00     0.024 C 
BRANCH  33  34
HETATM   34  C20 UNL     1      13.497  -8.137  18.460  1.00  0.00    -0.021 C 
HETATM   35  C21 UNL     1      13.767  -6.890  19.257  1.00  0.00     0.009 C 
HETATM   36  C22 UNL     1      11.983  -8.377  18.520  1.00  0.00     0.009 C 
ENDBRANCH  33  34
ENDBRANCH  32  33
ENDBRANCH   9  32
ENDBRANCH   3   4
TORSDOF 10
ENDMDL
