MODEL 1
REMARK VINA RESULT: -7.246561917      0.000      0.000
REMARK  18 active torsions:
REMARK  status: ('A' for Active; 'I' for Inactive)
REMARK    1  A    between atoms: C2_2  and  C3_3 
REMARK    2  A    between atoms: C3_3  and  N1_4 
REMARK    3  A    between atoms: C3_3  and  C28_41 
REMARK       I    between atoms: N1_4  and  C4_6 
REMARK    4  A    between atoms: C4_6  and  C5_8 
REMARK       I    between atoms: N2_11  and  C8_12 
REMARK    5  A    between atoms: C8_12  and  C9_14 
REMARK    6  A    between atoms: C9_14  and  O3_15 
REMARK    7  A    between atoms: C9_14  and  C10_17 
REMARK    8  A    between atoms: C11_18  and  C12_19 
REMARK    9  A    between atoms: C12_19  and  C13_20 
REMARK   10  A    between atoms: C12_19  and  N4_25 
REMARK   11  A    between atoms: C13_20  and  C14_21 
REMARK   12  A    between atoms: C14_21  and  C15_22 
REMARK   13  A    between atoms: N4_25  and  C16_27 
REMARK   14  A    between atoms: C16_27  and  C17_28 
REMARK   15  A    between atoms: C16_27  and  C24_35 
REMARK   16  A    between atoms: C17_28  and  C18_29 
REMARK   17  A    between atoms: C24_35  and  O5_36 
REMARK   18  A    between atoms: C24_35  and  C25_38 
ROOT
HETATM    1  C10 UNL     1       8.733  24.321  -0.793  1.00  0.00     0.012 C 
HETATM    2  C11 UNL     1       7.841  25.263  -0.456  1.00  0.00    -0.003 C 
ENDROOT
BRANCH   2   3
HETATM    3  C12 UNL     1       7.661  25.916   0.822  1.00  0.00     0.100 C 
BRANCH   3   4
HETATM    4  C13 UNL     1       7.900  27.435   0.631  1.00  0.00     0.037 C 
BRANCH   4   5
HETATM    5  C14 UNL     1       8.715  27.783  -0.547  1.00  0.00     0.102 C 
BRANCH   5   6
HETATM    6  C15 UNL     1      10.138  28.115  -0.130  1.00  0.00     0.231 C 
HETATM    7  N3  UNL     1      10.997  27.057   0.199  1.00  0.00    -0.062 NA
HETATM    8  O4  UNL     1      10.508  29.296  -0.087  1.00  0.00    -0.277 OA
ENDBRANCH   5   6
ENDBRANCH   4   5
ENDBRANCH   3   4
BRANCH   3   9
HETATM    9  N4  UNL     1       8.479  25.543   1.888  1.00  0.00    -0.404 N 
ATOM     10  H4  UNL     1       9.395  25.147   1.675  1.00  0.00     0.154 HD
BRANCH   9  11
HETATM   11  C16 UNL     1       8.111  25.684   3.257  1.00  0.00     0.129 C 
BRANCH  11  12
HETATM   12  C17 UNL     1       7.775  24.388   3.853  1.00  0.00     0.003 C 
BRANCH  12  13
HETATM   13  C18 UNL     1       6.538  24.125   4.596  1.00  0.00    -0.082 C 
HETATM   14  C19 UNL     1       6.553  24.043   6.086  1.00  0.00     0.034 C 
HETATM   15  C20 UNL     1       5.431  23.040   6.461  1.00  0.00     0.004 C 
HETATM   16  C21 UNL     1       4.178  23.384   5.681  1.00  0.00     0.001 C 
HETATM   17  C22 UNL     1       4.224  24.783   5.132  1.00  0.00     0.004 C 
HETATM   18  C23 UNL     1       5.346  24.930   4.100  1.00  0.00     0.034 C 
ENDBRANCH  12  13
ENDBRANCH  11  12
BRANCH  11  19
HETATM   19  C24 UNL     1       9.281  26.405   3.911  1.00  0.00     0.147 C 
BRANCH  19  20
HETATM   20  O5  UNL     1      10.351  26.476   2.994  1.00  0.00    -0.393 OA
ATOM     21  H5  UNL     1      11.164  26.300   3.451  1.00  0.00     0.210 HD
ENDBRANCH  19  20
BRANCH  19  22
HETATM   22  C25 UNL     1       8.979  27.766   4.423  1.00  0.00     0.008 C 
HETATM   23  C26 UNL     1       9.655  28.736   3.423  1.00  0.00     0.012 C 
HETATM   24  C27 UNL     1       7.556  28.191   4.479  1.00  0.00     0.012 C 
ENDBRANCH  19  22
ENDBRANCH  11  19
ENDBRANCH   9  11
ENDBRANCH   3   9
ENDBRANCH   2   3
BRANCH   1  25
HETATM   25  C9  UNL     1       8.764  23.759  -2.171  1.00  0.00     0.232 C 
BRANCH  25  26
HETATM   26  C8  UNL     1       8.475  24.714  -3.243  1.00  0.00     0.253 C 
HETATM   27  N2  UNL     1       9.492  25.643  -3.678  1.00  0.00    -0.336 N 
HETATM   28  C5  UNL     1      10.870  25.957  -3.433  1.00  0.00     0.180 C 
HETATM   29  C7  UNL     1       9.426  26.801  -4.585  1.00  0.00     0.129 C 
HETATM   30  C6  UNL     1      10.465  27.425  -3.654  1.00  0.00     0.055 C 
HETATM   31  O2  UNL     1       7.368  24.791  -3.824  1.00  0.00    -0.270 OA
BRANCH  28  32
HETATM   32  C4  UNL     1      11.823  25.580  -4.518  1.00  0.00     0.241 C 
HETATM   33  N1  UNL     1      11.661  24.324  -5.167  1.00  0.00    -0.354 N 
ATOM     34  H1  UNL     1      10.881  23.736  -4.869  1.00  0.00     0.162 HD
HETATM   35  O1  UNL     1      12.749  26.338  -4.857  1.00  0.00    -0.271 OA
BRANCH  33  36
HETATM   36  C3  UNL     1      12.506  23.823  -6.202  1.00  0.00     0.091 C 
BRANCH  36  37
HETATM   37  C2  UNL     1      13.119  22.523  -5.781  1.00  0.00     0.021 C 
HETATM   38  C1  UNL     1      13.865  22.554  -4.490  1.00  0.00     0.007 C 
ENDBRANCH  36  37
BRANCH  36  39
HETATM   39  C28 UNL     1      11.951  23.871  -7.585  1.00  0.00    -0.031 C 
HETATM   40  C29 UNL     1      10.427  23.680  -7.573  1.00  0.00     0.016 C 
HETATM   41  C30 UNL     1      12.170  25.226  -8.241  1.00  0.00     0.016 C 
HETATM   42  C31 UNL     1      12.556  22.850  -8.517  1.00  0.00     0.016 C 
ENDBRANCH  36  39
ENDBRANCH  33  36
ENDBRANCH  28  32
ENDBRANCH  25  26
BRANCH  25  43
HETATM   43  O3  UNL     1      10.029  23.183  -2.422  1.00  0.00    -0.382 OA
ATOM     44  H3  UNL     1      10.072  22.352  -1.965  1.00  0.00     0.211 HD
ENDBRANCH  25  43
ENDBRANCH   1  25
TORSDOF 18
ENDMDL
MODEL 2
REMARK VINA RESULT: -7.106449520      1.616      2.509
REMARK  18 active torsions:
REMARK  status: ('A' for Active; 'I' for Inactive)
REMARK    1  A    between atoms: C2_2  and  C3_3 
REMARK    2  A    between atoms: C3_3  and  N1_4 
REMARK    3  A    between atoms: C3_3  and  C28_41 
REMARK       I    between atoms: N1_4  and  C4_6 
REMARK    4  A    between atoms: C4_6  and  C5_8 
REMARK       I    between atoms: N2_11  and  C8_12 
REMARK    5  A    between atoms: C8_12  and  C9_14 
REMARK    6  A    between atoms: C9_14  and  O3_15 
REMARK    7  A    between atoms: C9_14  and  C10_17 
REMARK    8  A    between atoms: C11_18  and  C12_19 
REMARK    9  A    between atoms: C12_19  and  C13_20 
REMARK   10  A    between atoms: C12_19  and  N4_25 
REMARK   11  A    between atoms: C13_20  and  C14_21 
REMARK   12  A    between atoms: C14_21  and  C15_22 
REMARK   13  A    between atoms: N4_25  and  C16_27 
REMARK   14  A    between atoms: C16_27  and  C17_28 
REMARK   15  A    between atoms: C16_27  and  C24_35 
REMARK   16  A    between atoms: C17_28  and  C18_29 
REMARK   17  A    between atoms: C24_35  and  O5_36 
REMARK   18  A    between atoms: C24_35  and  C25_38 
ROOT
HETATM    1  C10 UNL     1       8.777  25.224  -1.735  1.00  0.00     0.012 C 
HETATM    2  C11 UNL     1       9.942  25.452  -1.111  1.00  0.00    -0.003 C 
ENDROOT
BRANCH   2   3
HETATM    3  C12 UNL     1      10.303  26.560  -0.255  1.00  0.00     0.100 C 
BRANCH   3   4
HETATM    4  C13 UNL     1      11.805  26.874  -0.471  1.00  0.00     0.037 C 
BRANCH   4   5
HETATM    5  C14 UNL     1      12.181  27.128  -1.874  1.00  0.00     0.102 C 
BRANCH   5   6
HETATM    6  C15 UNL     1      13.590  26.625  -2.146  1.00  0.00     0.231 C 
HETATM    7  N3  UNL     1      14.614  27.015  -1.272  1.00  0.00    -0.062 NA
HETATM    8  O4  UNL     1      13.805  25.894  -3.121  1.00  0.00    -0.277 OA
ENDBRANCH   5   6
ENDBRANCH   4   5
ENDBRANCH   3   4
BRANCH   3   9
HETATM    9  N4  UNL     1      10.149  26.421   1.124  1.00  0.00    -0.404 N 
ATOM     10  H4  UNL     1      10.927  26.035   1.658  1.00  0.00     0.154 HD
BRANCH   9  11
HETATM   11  C16 UNL     1       8.967  26.787   1.831  1.00  0.00     0.129 C 
BRANCH  11  12
HETATM   12  C17 UNL     1       9.013  26.322   3.219  1.00  0.00     0.003 C 
BRANCH  12  13
HETATM   13  C18 UNL     1       7.919  25.598   3.876  1.00  0.00    -0.082 C 
HETATM   14  C19 UNL     1       6.587  25.476   3.214  1.00  0.00     0.034 C 
HETATM   15  C20 UNL     1       5.551  25.421   4.367  1.00  0.00     0.004 C 
HETATM   16  C21 UNL     1       6.027  24.435   5.415  1.00  0.00     0.001 C 
HETATM   17  C22 UNL     1       7.080  23.507   4.874  1.00  0.00     0.004 C 
HETATM   18  C23 UNL     1       8.349  24.277   4.497  1.00  0.00     0.034 C 
ENDBRANCH  12  13
ENDBRANCH  11  12
BRANCH  11  19
HETATM   19  C24 UNL     1       8.857  28.296   1.665  1.00  0.00     0.147 C 
BRANCH  19  20
HETATM   20  O5  UNL     1       7.587  28.718   2.115  1.00  0.00    -0.393 OA
ATOM     21  H5  UNL     1       7.654  29.605   2.446  1.00  0.00     0.210 HD
ENDBRANCH  19  20
BRANCH  19  22
HETATM   22  C25 UNL     1       9.911  29.088   2.351  1.00  0.00     0.008 C 
HETATM   23  C26 UNL     1      10.501  30.011   1.257  1.00  0.00     0.012 C 
HETATM   24  C27 UNL     1       9.495  29.998   3.449  1.00  0.00     0.012 C 
ENDBRANCH  19  22
ENDBRANCH  11  19
ENDBRANCH   9  11
ENDBRANCH   3   9
ENDBRANCH   2   3
BRANCH   1  25
HETATM   25  C9  UNL     1       8.591  24.019  -2.587  1.00  0.00     0.232 C 
BRANCH  25  26
HETATM   26  C8  UNL     1       8.197  24.285  -3.972  1.00  0.00     0.253 C 
HETATM   27  N2  UNL     1       9.017  25.131  -4.807  1.00  0.00    -0.336 N 
HETATM   28  C5  UNL     1      10.261  25.843  -4.764  1.00  0.00     0.180 C 
HETATM   29  C7  UNL     1       8.777  25.700  -6.144  1.00  0.00     0.129 C 
HETATM   30  C6  UNL     1       9.561  26.907  -5.628  1.00  0.00     0.055 C 
HETATM   31  O2  UNL     1       7.158  23.823  -4.499  1.00  0.00    -0.270 OA
BRANCH  28  32
HETATM   32  C4  UNL     1      11.370  25.258  -5.574  1.00  0.00     0.241 C 
HETATM   33  N1  UNL     1      11.396  23.850  -5.784  1.00  0.00    -0.354 N 
ATOM     34  H1  UNL     1      10.638  23.299  -5.380  1.00  0.00     0.162 HD
HETATM   35  O1  UNL     1      12.263  25.974  -6.060  1.00  0.00    -0.271 OA
BRANCH  33  36
HETATM   36  C3  UNL     1      12.403  23.152  -6.516  1.00  0.00     0.091 C 
BRANCH  36  37
HETATM   37  C2  UNL     1      13.078  22.149  -5.632  1.00  0.00     0.021 C 
HETATM   38  C1  UNL     1      13.885  22.720  -4.514  1.00  0.00     0.007 C 
ENDBRANCH  36  37
BRANCH  36  39
HETATM   39  C28 UNL     1      12.017  22.675  -7.874  1.00  0.00    -0.031 C 
HETATM   40  C29 UNL     1      11.412  21.265  -7.811  1.00  0.00     0.016 C 
HETATM   41  C30 UNL     1      10.929  23.539  -8.495  1.00  0.00     0.016 C 
HETATM   42  C31 UNL     1      13.159  22.664  -8.861  1.00  0.00     0.016 C 
ENDBRANCH  36  39
ENDBRANCH  33  36
ENDBRANCH  28  32
ENDBRANCH  25  26
BRANCH  25  43
HETATM   43  O3  UNL     1       9.782  23.260  -2.605  1.00  0.00    -0.382 OA
ATOM     44  H3  UNL     1      10.398  23.661  -2.004  1.00  0.00     0.211 HD
ENDBRANCH  25  43
ENDBRANCH   1  25
TORSDOF 18
ENDMDL
MODEL 3
REMARK VINA RESULT: -7.084142399      2.378      9.345
REMARK  18 active torsions:
REMARK  status: ('A' for Active; 'I' for Inactive)
REMARK    1  A    between atoms: C2_2  and  C3_3 
REMARK    2  A    between atoms: C3_3  and  N1_4 
REMARK    3  A    between atoms: C3_3  and  C28_41 
REMARK       I    between atoms: N1_4  and  C4_6 
REMARK    4  A    between atoms: C4_6  and  C5_8 
REMARK       I    between atoms: N2_11  and  C8_12 
REMARK    5  A    between atoms: C8_12  and  C9_14 
REMARK    6  A    between atoms: C9_14  and  O3_15 
REMARK    7  A    between atoms: C9_14  and  C10_17 
REMARK    8  A    between atoms: C11_18  and  C12_19 
REMARK    9  A    between atoms: C12_19  and  C13_20 
REMARK   10  A    between atoms: C12_19  and  N4_25 
REMARK   11  A    between atoms: C13_20  and  C14_21 
REMARK   12  A    between atoms: C14_21  and  C15_22 
REMARK   13  A    between atoms: N4_25  and  C16_27 
REMARK   14  A    between atoms: C16_27  and  C17_28 
REMARK   15  A    between atoms: C16_27  and  C24_35 
REMARK   16  A    between atoms: C17_28  and  C18_29 
REMARK   17  A    between atoms: C24_35  and  O5_36 
REMARK   18  A    between atoms: C24_35  and  C25_38 
ROOT
HETATM    1  C10 UNL     1       8.644  26.120  -0.776  1.00  0.00     0.012 C 
HETATM    2  C11 UNL     1       9.100  25.605  -1.927  1.00  0.00    -0.003 C 
ENDROOT
BRANCH   2   3
HETATM    3  C12 UNL     1       9.458  26.298  -3.144  1.00  0.00     0.100 C 
BRANCH   3   4
HETATM    4  C13 UNL     1       9.048  25.413  -4.349  1.00  0.00     0.037 C 
BRANCH   4   5
HETATM    5  C14 UNL     1       8.850  23.988  -4.022  1.00  0.00     0.102 C 
BRANCH   5   6
HETATM    6  C15 UNL     1       7.954  23.325  -5.054  1.00  0.00     0.231 C 
HETATM    7  N3  UNL     1       7.123  24.142  -5.835  1.00  0.00    -0.062 NA
HETATM    8  O4  UNL     1       7.971  22.094  -5.186  1.00  0.00    -0.277 OA
ENDBRANCH   5   6
ENDBRANCH   4   5
ENDBRANCH   3   4
BRANCH   3   9
HETATM    9  N4  UNL     1      10.796  26.624  -3.364  1.00  0.00    -0.404 N 
ATOM     10  H4  UNL     1      11.006  27.391  -4.003  1.00  0.00     0.154 HD
BRANCH   9  11
HETATM   11  C16 UNL     1      11.889  25.949  -2.748  1.00  0.00     0.129 C 
BRANCH  11  12
HETATM   12  C17 UNL     1      12.849  25.470  -3.745  1.00  0.00     0.003 C 
BRANCH  12  13
HETATM   13  C18 UNL     1      12.529  24.480  -4.779  1.00  0.00    -0.082 C 
HETATM   14  C19 UNL     1      12.313  24.906  -6.194  1.00  0.00     0.034 C 
HETATM   15  C20 UNL     1      11.288  23.900  -6.780  1.00  0.00     0.004 C 
HETATM   16  C21 UNL     1      11.711  22.491  -6.415  1.00  0.00     0.001 C 
HETATM   17  C22 UNL     1      13.154  22.429  -5.995  1.00  0.00     0.004 C 
HETATM   18  C23 UNL     1      13.385  23.223  -4.707  1.00  0.00     0.034 C 
ENDBRANCH  12  13
ENDBRANCH  11  12
BRANCH  11  19
HETATM   19  C24 UNL     1      12.453  26.941  -1.742  1.00  0.00     0.147 C 
BRANCH  19  20
HETATM   20  O5  UNL     1      12.723  26.268  -0.530  1.00  0.00    -0.393 OA
ATOM     21  H5  UNL     1      13.545  25.801  -0.611  1.00  0.00     0.210 HD
ENDBRANCH  19  20
BRANCH  19  22
HETATM   22  C25 UNL     1      13.671  27.668  -2.184  1.00  0.00     0.008 C 
HETATM   23  C26 UNL     1      13.378  29.162  -1.902  1.00  0.00     0.012 C 
HETATM   24  C27 UNL     1      14.949  27.380  -1.480  1.00  0.00     0.012 C 
ENDBRANCH  19  22
ENDBRANCH  11  19
ENDBRANCH   9  11
ENDBRANCH   3   9
ENDBRANCH   2   3
BRANCH   1  25
HETATM   25  C9  UNL     1       8.323  25.240   0.379  1.00  0.00     0.232 C 
BRANCH  25  26
HETATM   26  C8  UNL     1       7.285  25.744   1.281  1.00  0.00     0.253 C 
HETATM   27  N2  UNL     1       7.624  26.121   2.633  1.00  0.00    -0.336 N 
HETATM   28  C5  UNL     1       8.771  26.240   3.486  1.00  0.00     0.180 C 
HETATM   29  C7  UNL     1       6.776  26.479   3.783  1.00  0.00     0.129 C 
HETATM   30  C6  UNL     1       7.842  25.777   4.623  1.00  0.00     0.055 C 
HETATM   31  O2  UNL     1       6.082  25.866   0.955  1.00  0.00    -0.270 OA
BRANCH  28  32
HETATM   32  C4  UNL     1       9.206  27.634   3.795  1.00  0.00     0.241 C 
HETATM   33  N1  UNL     1       9.284  28.579   2.732  1.00  0.00    -0.354 N 
ATOM     34  H1  UNL     1       9.021  28.262   1.799  1.00  0.00     0.162 HD
HETATM   35  O1  UNL     1       9.503  27.978   4.953  1.00  0.00    -0.271 OA
BRANCH  33  36
HETATM   36  C3  UNL     1       9.704  29.935   2.874  1.00  0.00     0.091 C 
BRANCH  36  37
HETATM   37  C2  UNL     1      10.622  30.309   1.751  1.00  0.00     0.021 C 
HETATM   38  C1  UNL     1      10.635  29.368   0.594  1.00  0.00     0.007 C 
ENDBRANCH  36  37
BRANCH  36  39
HETATM   39  C28 UNL     1       8.638  30.922   3.207  1.00  0.00    -0.031 C 
HETATM   40  C29 UNL     1       8.753  31.383   4.668  1.00  0.00     0.016 C 
HETATM   41  C30 UNL     1       8.762  32.196   2.384  1.00  0.00     0.016 C 
HETATM   42  C31 UNL     1       7.239  30.407   2.975  1.00  0.00     0.016 C 
ENDBRANCH  36  39
ENDBRANCH  33  36
ENDBRANCH  28  32
ENDBRANCH  25  26
BRANCH  25  43
HETATM   43  O3  UNL     1       7.922  23.968  -0.087  1.00  0.00    -0.382 OA
ATOM     44  H3  UNL     1       7.866  23.383   0.659  1.00  0.00     0.211 HD
ENDBRANCH  25  43
ENDBRANCH   1  25
TORSDOF 18
ENDMDL
MODEL 4
REMARK VINA RESULT: -6.915828406      2.717      5.449
REMARK  18 active torsions:
REMARK  status: ('A' for Active; 'I' for Inactive)
REMARK    1  A    between atoms: C2_2  and  C3_3 
REMARK    2  A    between atoms: C3_3  and  N1_4 
REMARK    3  A    between atoms: C3_3  and  C28_41 
REMARK       I    between atoms: N1_4  and  C4_6 
REMARK    4  A    between atoms: C4_6  and  C5_8 
REMARK       I    between atoms: N2_11  and  C8_12 
REMARK    5  A    between atoms: C8_12  and  C9_14 
REMARK    6  A    between atoms: C9_14  and  O3_15 
REMARK    7  A    between atoms: C9_14  and  C10_17 
REMARK    8  A    between atoms: C11_18  and  C12_19 
REMARK    9  A    between atoms: C12_19  and  C13_20 
REMARK   10  A    between atoms: C12_19  and  N4_25 
REMARK   11  A    between atoms: C13_20  and  C14_21 
REMARK   12  A    between atoms: C14_21  and  C15_22 
REMARK   13  A    between atoms: N4_25  and  C16_27 
REMARK   14  A    between atoms: C16_27  and  C17_28 
REMARK   15  A    between atoms: C16_27  and  C24_35 
REMARK   16  A    between atoms: C17_28  and  C18_29 
REMARK   17  A    between atoms: C24_35  and  O5_36 
REMARK   18  A    between atoms: C24_35  and  C25_38 
ROOT
HETATM    1  C10 UNL     1       8.121  25.739   0.534  1.00  0.00     0.012 C 
HETATM    2  C11 UNL     1       7.900  25.197   1.740  1.00  0.00    -0.003 C 
ENDROOT
BRANCH   2   3
HETATM    3  C12 UNL     1       7.645  25.867   2.995  1.00  0.00     0.100 C 
BRANCH   3   4
HETATM    4  C13 UNL     1       6.195  25.544   3.435  1.00  0.00     0.037 C 
BRANCH   4   5
HETATM    5  C14 UNL     1       6.059  25.146   4.849  1.00  0.00     0.102 C 
BRANCH   5   6
HETATM    6  C15 UNL     1       4.741  24.423   5.073  1.00  0.00     0.231 C 
HETATM    7  N3  UNL     1       4.707  23.381   6.012  1.00  0.00    -0.062 NA
HETATM    8  O4  UNL     1       3.737  24.758   4.432  1.00  0.00    -0.277 OA
ENDBRANCH   5   6
ENDBRANCH   4   5
ENDBRANCH   3   4
BRANCH   3   9
HETATM    9  N4  UNL     1       7.746  27.257   3.047  1.00  0.00    -0.404 N 
ATOM     10  H4  UNL     1       7.300  27.800   2.307  1.00  0.00     0.154 HD
BRANCH   9  11
HETATM   11  C16 UNL     1       8.436  27.965   4.073  1.00  0.00     0.129 C 
BRANCH  11  12
HETATM   12  C17 UNL     1       9.711  28.498   3.586  1.00  0.00     0.003 C 
BRANCH  12  13
HETATM   13  C18 UNL     1       9.892  29.108   2.265  1.00  0.00    -0.082 C 
HETATM   14  C19 UNL     1      10.306  30.537   2.140  1.00  0.00     0.034 C 
HETATM   15  C20 UNL     1       9.657  31.047   0.828  1.00  0.00     0.004 C 
HETATM   16  C21 UNL     1       9.903  30.035  -0.273  1.00  0.00     0.001 C 
HETATM   17  C22 UNL     1      11.020  29.089   0.073  1.00  0.00     0.004 C 
HETATM   18  C23 UNL     1      10.652  28.227   1.284  1.00  0.00     0.034 C 
ENDBRANCH  12  13
ENDBRANCH  11  12
BRANCH  11  19
HETATM   19  C24 UNL     1       7.451  29.015   4.564  1.00  0.00     0.147 C 
BRANCH  19  20
HETATM   20  O5  UNL     1       6.764  28.512   5.690  1.00  0.00    -0.393 OA
ATOM     21  H5  UNL     1       5.832  28.648   5.571  1.00  0.00     0.210 HD
ENDBRANCH  19  20
BRANCH  19  22
HETATM   22  C25 UNL     1       8.045  30.335   4.898  1.00  0.00     0.008 C 
HETATM   23  C26 UNL     1       7.224  31.367   4.089  1.00  0.00     0.012 C 
HETATM   24  C27 UNL     1       7.972  30.796   6.309  1.00  0.00     0.012 C 
ENDBRANCH  19  22
ENDBRANCH  11  19
ENDBRANCH   9  11
ENDBRANCH   3   9
ENDBRANCH   2   3
BRANCH   1  25
HETATM   25  C9  UNL     1       8.371  24.879  -0.654  1.00  0.00     0.232 C 
BRANCH  25  26
HETATM   26  C8  UNL     1       9.257  25.454  -1.669  1.00  0.00     0.253 C 
HETATM   27  N2  UNL     1       9.651  24.668  -2.814  1.00  0.00    -0.336 N 
HETATM   28  C5  UNL     1       9.403  23.384  -3.403  1.00  0.00     0.180 C 
HETATM   29  C7  UNL     1      10.648  24.921  -3.869  1.00  0.00     0.129 C 
HETATM   30  C6  UNL     1      10.882  23.410  -3.827  1.00  0.00     0.055 C 
HETATM   31  O2  UNL     1       9.721  26.616  -1.606  1.00  0.00    -0.270 OA
BRANCH  28  32
HETATM   32  C4  UNL     1       8.575  23.391  -4.645  1.00  0.00     0.241 C 
HETATM   33  N1  UNL     1       9.049  22.688  -5.789  1.00  0.00    -0.354 N 
ATOM     34  H1  UNL     1       9.937  22.192  -5.703  1.00  0.00     0.162 HD
HETATM   35  O1  UNL     1       7.491  23.998  -4.696  1.00  0.00    -0.271 OA
BRANCH  33  36
HETATM   36  C3  UNL     1       8.378  22.626  -7.046  1.00  0.00     0.091 C 
BRANCH  36  37
HETATM   37  C2  UNL     1       9.295  23.078  -8.141  1.00  0.00     0.021 C 
HETATM   38  C1  UNL     1      10.725  23.245  -7.752  1.00  0.00     0.007 C 
ENDBRANCH  36  37
BRANCH  36  39
HETATM   39  C28 UNL     1       7.596  21.386  -7.314  1.00  0.00    -0.031 C 
HETATM   40  C29 UNL     1       6.094  21.692  -7.406  1.00  0.00     0.016 C 
HETATM   41  C30 UNL     1       7.952  20.766  -8.658  1.00  0.00     0.016 C 
HETATM   42  C31 UNL     1       7.804  20.303  -6.284  1.00  0.00     0.016 C 
ENDBRANCH  36  39
ENDBRANCH  33  36
ENDBRANCH  28  32
ENDBRANCH  25  26
BRANCH  25  43
HETATM   43  O3  UNL     1       8.917  23.643  -0.242  1.00  0.00    -0.382 OA
ATOM     44  H3  UNL     1       8.204  23.088   0.053  1.00  0.00     0.211 HD
ENDBRANCH  25  43
ENDBRANCH   1  25
TORSDOF 18
ENDMDL
MODEL 5
REMARK VINA RESULT: -6.906394742      2.138      3.274
REMARK  18 active torsions:
REMARK  status: ('A' for Active; 'I' for Inactive)
REMARK    1  A    between atoms: C2_2  and  C3_3 
REMARK    2  A    between atoms: C3_3  and  N1_4 
REMARK    3  A    between atoms: C3_3  and  C28_41 
REMARK       I    between atoms: N1_4  and  C4_6 
REMARK    4  A    between atoms: C4_6  and  C5_8 
REMARK       I    between atoms: N2_11  and  C8_12 
REMARK    5  A    between atoms: C8_12  and  C9_14 
REMARK    6  A    between atoms: C9_14  and  O3_15 
REMARK    7  A    between atoms: C9_14  and  C10_17 
REMARK    8  A    between atoms: C11_18  and  C12_19 
REMARK    9  A    between atoms: C12_19  and  C13_20 
REMARK   10  A    between atoms: C12_19  and  N4_25 
REMARK   11  A    between atoms: C13_20  and  C14_21 
REMARK   12  A    between atoms: C14_21  and  C15_22 
REMARK   13  A    between atoms: N4_25  and  C16_27 
REMARK   14  A    between atoms: C16_27  and  C17_28 
REMARK   15  A    between atoms: C16_27  and  C24_35 
REMARK   16  A    between atoms: C17_28  and  C18_29 
REMARK   17  A    between atoms: C24_35  and  O5_36 
REMARK   18  A    between atoms: C24_35  and  C25_38 
ROOT
HETATM    1  C10 UNL     1       8.646  24.741  -1.539  1.00  0.00     0.012 C 
HETATM    2  C11 UNL     1       8.089  24.502  -0.343  1.00  0.00    -0.003 C 
ENDROOT
BRANCH   2   3
HETATM    3  C12 UNL     1       7.913  25.413   0.766  1.00  0.00     0.100 C 
BRANCH   3   4
HETATM    4  C13 UNL     1       8.438  26.807   0.341  1.00  0.00     0.037 C 
BRANCH   4   5
HETATM    5  C14 UNL     1       7.398  27.846   0.233  1.00  0.00     0.102 C 
BRANCH   5   6
HETATM    6  C15 UNL     1       7.904  29.023  -0.585  1.00  0.00     0.231 C 
HETATM    7  N3  UNL     1       7.141  29.444  -1.684  1.00  0.00    -0.062 NA
HETATM    8  O4  UNL     1       8.964  29.580  -0.272  1.00  0.00    -0.277 OA
ENDBRANCH   5   6
ENDBRANCH   4   5
ENDBRANCH   3   4
BRANCH   3   9
HETATM    9  N4  UNL     1       8.548  25.131   1.975  1.00  0.00    -0.404 N 
ATOM     10  H4  UNL     1       9.445  24.645   1.945  1.00  0.00     0.154 HD
BRANCH   9  11
HETATM   11  C16 UNL     1       8.019  25.481   3.250  1.00  0.00     0.129 C 
BRANCH  11  12
HETATM   12  C17 UNL     1       7.748  24.290   4.059  1.00  0.00     0.003 C 
BRANCH  12  13
HETATM   13  C18 UNL     1       6.474  24.036   4.740  1.00  0.00    -0.082 C 
HETATM   14  C19 UNL     1       6.418  23.933   6.228  1.00  0.00     0.034 C 
HETATM   15  C20 UNL     1       5.266  22.941   6.535  1.00  0.00     0.004 C 
HETATM   16  C21 UNL     1       4.055  23.316   5.704  1.00  0.00     0.001 C 
HETATM   17  C22 UNL     1       4.148  24.722   5.178  1.00  0.00     0.004 C 
HETATM   18  C23 UNL     1       5.318  24.866   4.201  1.00  0.00     0.034 C 
ENDBRANCH  12  13
ENDBRANCH  11  12
BRANCH  11  19
HETATM   19  C24 UNL     1       9.032  26.445   3.850  1.00  0.00     0.147 C 
BRANCH  19  20
HETATM   20  O5  UNL     1      10.289  26.231   3.243  1.00  0.00    -0.393 OA
ATOM     21  H5  UNL     1      10.328  26.720   2.431  1.00  0.00     0.210 HD
ENDBRANCH  19  20
BRANCH  19  22
HETATM   22  C25 UNL     1       8.675  27.883   3.750  1.00  0.00     0.008 C 
HETATM   23  C26 UNL     1       8.260  28.299   5.183  1.00  0.00     0.012 C 
HETATM   24  C27 UNL     1       9.742  28.841   3.358  1.00  0.00     0.012 C 
ENDBRANCH  19  22
ENDBRANCH  11  19
ENDBRANCH   9  11
ENDBRANCH   3   9
ENDBRANCH   2   3
BRANCH   1  25
HETATM   25  C9  UNL     1       8.743  23.666  -2.563  1.00  0.00     0.232 C 
BRANCH  25  26
HETATM   26  C8  UNL     1       9.308  24.077  -3.851  1.00  0.00     0.253 C 
HETATM   27  N2  UNL     1       9.259  25.463  -4.253  1.00  0.00    -0.336 N 
HETATM   28  C5  UNL     1       8.848  26.740  -3.745  1.00  0.00     0.180 C 
HETATM   29  C7  UNL     1       9.578  26.114  -5.535  1.00  0.00     0.129 C 
HETATM   30  C6  UNL     1       8.429  27.062  -5.191  1.00  0.00     0.055 C 
HETATM   31  O2  UNL     1       9.841  23.282  -4.660  1.00  0.00    -0.270 OA
BRANCH  28  32
HETATM   32  C4  UNL     1       9.952  27.674  -3.374  1.00  0.00     0.241 C 
HETATM   33  N1  UNL     1      11.060  27.168  -2.638  1.00  0.00    -0.354 N 
ATOM     34  H1  UNL     1      11.059  26.173  -2.408  1.00  0.00     0.162 HD
HETATM   35  O1  UNL     1       9.916  28.876  -3.692  1.00  0.00    -0.271 OA
BRANCH  33  36
HETATM   36  C3  UNL     1      12.173  27.945  -2.197  1.00  0.00     0.091 C 
BRANCH  36  37
HETATM   37  C2  UNL     1      12.120  28.121  -0.710  1.00  0.00     0.021 C 
HETATM   38  C1  UNL     1      11.615  26.945   0.057  1.00  0.00     0.007 C 
ENDBRANCH  36  37
BRANCH  36  39
HETATM   39  C28 UNL     1      13.499  27.579  -2.769  1.00  0.00    -0.031 C 
HETATM   40  C29 UNL     1      13.492  26.135  -3.294  1.00  0.00     0.016 C 
HETATM   41  C30 UNL     1      13.856  28.432  -3.976  1.00  0.00     0.016 C 
HETATM   42  C31 UNL     1      14.643  27.730  -1.795  1.00  0.00     0.016 C 
ENDBRANCH  36  39
ENDBRANCH  33  36
ENDBRANCH  28  32
ENDBRANCH  25  26
BRANCH  25  43
HETATM   43  O3  UNL     1       9.520  22.599  -2.061  1.00  0.00    -0.382 OA
ATOM     44  H3  UNL     1       9.330  22.503  -1.136  1.00  0.00     0.211 HD
ENDBRANCH  25  43
ENDBRANCH   1  25
TORSDOF 18
ENDMDL
