MODEL 1
REMARK VINA RESULT: -7.569937809      0.000      0.000
REMARK  8 active torsions:
REMARK  status: ('A' for Active; 'I' for Inactive)
REMARK    1  A    between atoms: C2_2  and  C3_3 
REMARK    2  A    between atoms: C3_3  and  N1_4 
REMARK    3  A    between atoms: N1_4  and  C4_7 
REMARK    4  A    between atoms: C8_11  and  C9_12 
REMARK    5  A    between atoms: C10_13  and  C11_14 
REMARK    6  A    between atoms: C13_16  and  C14_17 
REMARK    7  A    between atoms: C14_17  and  S1_18 
REMARK    8  A    between atoms: C15_22  and  S2_23 
ROOT
HETATM    1  C4  UNL     1      -4.881  10.367 -15.091  1.00  0.00     0.207 C 
HETATM    2  C5  UNL     1      -6.088   9.504 -15.208  1.00  0.00     0.034 C 
HETATM    3  C6  UNL     1      -6.673   9.048 -13.910  1.00  0.00     0.003 C 
HETATM    4  C7  UNL     1      -6.744  10.089 -12.844  1.00  0.00     0.010 C 
HETATM    5  C8  UNL     1      -6.293  11.420 -13.339  1.00  0.00     0.031 C 
HETATM    6  C15 UNL     1      -4.908  11.299 -13.926  1.00  0.00     0.168 C 
ENDROOT
BRANCH   5   7
HETATM    7  C9  UNL     1      -6.362  12.488 -12.343  1.00  0.00    -0.024 C 
HETATM    8  C10 UNL     1      -7.497  13.117 -12.077  1.00  0.00    -0.025 C 
BRANCH   8   9
HETATM    9  C11 UNL     1      -7.631  14.196 -11.090  1.00  0.00     0.013 A 
HETATM   10  C12 UNL     1      -8.832  15.118 -11.306  1.00  0.00     0.015 A 
HETATM   11  C13 UNL     1      -7.397  15.608 -11.467  1.00  0.00     0.010 A 
BRANCH  11  12
HETATM   12  C14 UNL     1      -6.987  16.630 -10.470  1.00  0.00     0.170 C 
BRANCH  12  13
HETATM   13  S1  UNL     1      -6.408  18.137 -11.187  1.00  0.00     0.102 S 
HETATM   14  O1  UNL     1      -6.173  17.926 -12.663  1.00  0.00    -0.595 OA
HETATM   15  O2  UNL     1      -7.539  19.141 -11.089  1.00  0.00    -0.595 OA
HETATM   16  O3  UNL     1      -5.081  18.759 -10.407  1.00  0.00    -0.595 OA
ENDBRANCH  12  13
ENDBRANCH  11  12
ENDBRANCH   8   9
ENDBRANCH   5   7
BRANCH   6  17
HETATM   17  S2  UNL     1      -3.676  10.820 -12.763  1.00  0.00     0.108 S 
HETATM   18  O4  UNL     1      -3.569   9.303 -12.666  1.00  0.00    -0.595 OA
HETATM   19  O5  UNL     1      -3.823  11.444 -11.424  1.00  0.00    -0.595 OA
HETATM   20  O6  UNL     1      -2.174  11.295 -13.416  1.00  0.00    -0.595 OA
ENDBRANCH   6  17
BRANCH   1  21
HETATM   21  N1  UNL     1      -4.824  11.191 -16.308  1.00  0.00    -0.070 N 
ATOM     22  H12 UNL     1      -4.422  12.109 -16.121  1.00  0.00     0.277 HD
ATOM     23  H11 UNL     1      -5.755  11.485 -16.604  1.00  0.00     0.277 HD
BRANCH  21  24
HETATM   24  C3  UNL     1      -4.115  10.505 -17.376  1.00  0.00     0.232 C 
BRANCH  24  25
HETATM   25  C2  UNL     1      -2.754  10.136 -16.792  1.00  0.00     0.023 C 
HETATM   26  C1  UNL     1      -1.707  10.910 -17.541  1.00  0.00     0.007 C 
ENDBRANCH  24  25
ENDBRANCH  21  24
ENDBRANCH   1  21
TORSDOF 8
ENDMDL
MODEL 2
REMARK VINA RESULT: -7.443001302      3.317      4.028
REMARK  8 active torsions:
REMARK  status: ('A' for Active; 'I' for Inactive)
REMARK    1  A    between atoms: C2_2  and  C3_3 
REMARK    2  A    between atoms: C3_3  and  N1_4 
REMARK    3  A    between atoms: N1_4  and  C4_7 
REMARK    4  A    between atoms: C8_11  and  C9_12 
REMARK    5  A    between atoms: C10_13  and  C11_14 
REMARK    6  A    between atoms: C13_16  and  C14_17 
REMARK    7  A    between atoms: C14_17  and  S1_18 
REMARK    8  A    between atoms: C15_22  and  S2_23 
ROOT
HETATM    1  C4  UNL     1      -4.309   7.988 -16.476  1.00  0.00     0.207 C 
HETATM    2  C5  UNL     1      -3.108   7.608 -15.683  1.00  0.00     0.034 C 
HETATM    3  C6  UNL     1      -2.590   8.667 -14.763  1.00  0.00     0.003 C 
HETATM    4  C7  UNL     1      -3.633   9.418 -14.007  1.00  0.00     0.010 C 
HETATM    5  C8  UNL     1      -4.999   8.878 -14.261  1.00  0.00     0.031 C 
HETATM    6  C15 UNL     1      -5.269   8.866 -15.745  1.00  0.00     0.168 C 
ENDROOT
BRANCH   5   7
HETATM    7  C9  UNL     1      -6.063   9.560 -13.527  1.00  0.00    -0.024 C 
HETATM    8  C10 UNL     1      -5.801  10.542 -12.678  1.00  0.00    -0.025 C 
BRANCH   8   9
HETATM    9  C11 UNL     1      -6.825  11.264 -11.912  1.00  0.00     0.013 A 
HETATM   10  C12 UNL     1      -8.138  11.502 -12.660  1.00  0.00     0.015 A 
HETATM   11  C13 UNL     1      -7.211  12.648 -12.269  1.00  0.00     0.010 A 
BRANCH  11  12
HETATM   12  C14 UNL     1      -7.788  13.585 -11.272  1.00  0.00     0.170 C 
BRANCH  12  13
HETATM   13  S1  UNL     1      -7.494  15.289 -11.638  1.00  0.00     0.102 S 
HETATM   14  O1  UNL     1      -6.726  15.393 -12.932  1.00  0.00    -0.595 OA
HETATM   15  O2  UNL     1      -8.842  15.926 -11.906  1.00  0.00    -0.595 OA
HETATM   16  O3  UNL     1      -6.763  16.103 -10.389  1.00  0.00    -0.595 OA
ENDBRANCH  12  13
ENDBRANCH  11  12
ENDBRANCH   8   9
ENDBRANCH   5   7
BRANCH   6  17
HETATM   17  S2  UNL     1      -5.282  10.464 -16.485  1.00  0.00     0.108 S 
HETATM   18  O4  UNL     1      -3.961  10.757 -17.186  1.00  0.00    -0.595 OA
HETATM   19  O5  UNL     1      -5.666  11.562 -15.562  1.00  0.00    -0.595 OA
HETATM   20  O6  UNL     1      -6.416  10.407 -17.757  1.00  0.00    -0.595 OA
ENDBRANCH   6  17
BRANCH   1  21
HETATM   21  N1  UNL     1      -5.017   6.742 -16.804  1.00  0.00    -0.070 N 
ATOM     22  H12 UNL     1      -5.898   6.668 -16.297  1.00  0.00     0.277 HD
ATOM     23  H11 UNL     1      -4.542   5.928 -16.414  1.00  0.00     0.277 HD
BRANCH  21  24
HETATM   24  C3  UNL     1      -5.214   6.610 -18.238  1.00  0.00     0.232 C 
BRANCH  24  25
HETATM   25  C2  UNL     1      -4.211   5.553 -18.693  1.00  0.00     0.023 C 
HETATM   26  C1  UNL     1      -4.873   4.210 -18.581  1.00  0.00     0.007 C 
ENDBRANCH  24  25
ENDBRANCH  21  24
ENDBRANCH   1  21
TORSDOF 8
ENDMDL
MODEL 3
REMARK VINA RESULT: -6.996694535      2.209      3.064
REMARK  8 active torsions:
REMARK  status: ('A' for Active; 'I' for Inactive)
REMARK    1  A    between atoms: C2_2  and  C3_3 
REMARK    2  A    between atoms: C3_3  and  N1_4 
REMARK    3  A    between atoms: N1_4  and  C4_7 
REMARK    4  A    between atoms: C8_11  and  C9_12 
REMARK    5  A    between atoms: C10_13  and  C11_14 
REMARK    6  A    between atoms: C13_16  and  C14_17 
REMARK    7  A    between atoms: C14_17  and  S1_18 
REMARK    8  A    between atoms: C15_22  and  S2_23 
ROOT
HETATM    1  C4  UNL     1      -1.333  10.259 -14.589  1.00  0.00     0.207 C 
HETATM    2  C5  UNL     1      -1.940   9.116 -15.326  1.00  0.00     0.034 C 
HETATM    3  C6  UNL     1      -2.849   8.247 -14.517  1.00  0.00     0.003 C 
HETATM    4  C7  UNL     1      -3.779   8.975 -13.605  1.00  0.00     0.010 C 
HETATM    5  C8  UNL     1      -3.669  10.453 -13.766  1.00  0.00     0.031 C 
HETATM    6  C15 UNL     1      -2.235  10.877 -13.573  1.00  0.00     0.168 C 
ENDROOT
BRANCH   5   7
HETATM    7  C9  UNL     1      -4.576  11.220 -12.914  1.00  0.00    -0.024 C 
HETATM    8  C10 UNL     1      -5.808  10.808 -12.663  1.00  0.00    -0.025 C 
BRANCH   8   9
HETATM    9  C11 UNL     1      -6.765  11.533 -11.817  1.00  0.00     0.013 A 
HETATM   10  C12 UNL     1      -8.180  11.635 -12.389  1.00  0.00     0.015 A 
HETATM   11  C13 UNL     1      -7.287  12.859 -12.219  1.00  0.00     0.010 A 
BRANCH  11  12
HETATM   12  C14 UNL     1      -7.784  13.842 -11.223  1.00  0.00     0.170 C 
BRANCH  12  13
HETATM   13  S1  UNL     1      -7.427  15.522 -11.637  1.00  0.00     0.102 S 
HETATM   14  O1  UNL     1      -6.653  15.560 -12.931  1.00  0.00    -0.595 OA
HETATM   15  O2  UNL     1      -8.751  16.200 -11.929  1.00  0.00    -0.595 OA
HETATM   16  O3  UNL     1      -6.671  16.346 -10.410  1.00  0.00    -0.595 OA
ENDBRANCH  12  13
ENDBRANCH  11  12
ENDBRANCH   8   9
ENDBRANCH   5   7
BRANCH   6  17
HETATM   17  S2  UNL     1      -1.604  10.561 -11.960  1.00  0.00     0.108 S 
HETATM   18  O4  UNL     1      -0.257   9.850 -12.024  1.00  0.00    -0.595 OA
HETATM   19  O5  UNL     1      -2.552   9.856 -11.060  1.00  0.00    -0.595 OA
HETATM   20  O6  UNL     1      -1.233  12.076 -11.272  1.00  0.00    -0.595 OA
ENDBRANCH   6  17
BRANCH   1  21
HETATM   21  N1  UNL     1      -1.022  11.294 -15.586  1.00  0.00    -0.070 N 
ATOM     22  H12 UNL     1      -0.556  12.095 -15.161  1.00  0.00     0.277 HD
ATOM     23  H11 UNL     1      -1.867  11.761 -15.916  1.00  0.00     0.277 HD
BRANCH  21  24
HETATM   24  C3  UNL     1      -0.247  10.748 -16.688  1.00  0.00     0.232 C 
BRANCH  24  25
HETATM   25  C2  UNL     1      -0.500  11.683 -17.868  1.00  0.00     0.023 C 
HETATM   26  C1  UNL     1      -1.725  11.196 -18.587  1.00  0.00     0.007 C 
ENDBRANCH  24  25
ENDBRANCH  21  24
ENDBRANCH   1  21
TORSDOF 8
ENDMDL
MODEL 4
REMARK VINA RESULT: -6.976401774      1.573      2.107
REMARK  8 active torsions:
REMARK  status: ('A' for Active; 'I' for Inactive)
REMARK    1  A    between atoms: C2_2  and  C3_3 
REMARK    2  A    between atoms: C3_3  and  N1_4 
REMARK    3  A    between atoms: N1_4  and  C4_7 
REMARK    4  A    between atoms: C8_11  and  C9_12 
REMARK    5  A    between atoms: C10_13  and  C11_14 
REMARK    6  A    between atoms: C13_16  and  C14_17 
REMARK    7  A    between atoms: C14_17  and  S1_18 
REMARK    8  A    between atoms: C15_22  and  S2_23 
ROOT
HETATM    1  C4  UNL     1      -5.310   9.895 -15.036  1.00  0.00     0.207 C 
HETATM    2  C5  UNL     1      -6.650   9.320 -14.732  1.00  0.00     0.034 C 
HETATM    3  C6  UNL     1      -7.069   9.407 -13.298  1.00  0.00     0.003 C 
HETATM    4  C7  UNL     1      -6.772  10.705 -12.627  1.00  0.00     0.010 C 
HETATM    5  C8  UNL     1      -6.192  11.699 -13.573  1.00  0.00     0.031 C 
HETATM    6  C15 UNL     1      -4.973  11.111 -14.240  1.00  0.00     0.168 C 
ENDROOT
BRANCH   5   7
HETATM    7  C9  UNL     1      -5.901  13.002 -12.976  1.00  0.00    -0.024 C 
HETATM    8  C10 UNL     1      -6.866  13.790 -12.528  1.00  0.00    -0.025 C 
BRANCH   8   9
HETATM    9  C11 UNL     1      -6.638  15.107 -11.919  1.00  0.00     0.013 A 
HETATM   10  C12 UNL     1      -7.541  15.428 -10.726  1.00  0.00     0.015 A 
HETATM   11  C13 UNL     1      -7.640  16.189 -12.043  1.00  0.00     0.010 A 
BRANCH  11  12
HETATM   12  C14 UNL     1      -7.265  17.623 -11.948  1.00  0.00     0.170 C 
BRANCH  12  13
HETATM   13  S1  UNL     1      -7.962  18.454 -10.553  1.00  0.00     0.102 S 
HETATM   14  O1  UNL     1      -6.848  18.969  -9.675  1.00  0.00    -0.595 OA
HETATM   15  O2  UNL     1      -8.674  19.685 -11.078  1.00  0.00    -0.595 OA
HETATM   16  O3  UNL     1      -9.058  17.522  -9.724  1.00  0.00    -0.595 OA
ENDBRANCH  12  13
ENDBRANCH  11  12
ENDBRANCH   8   9
ENDBRANCH   5   7
BRANCH   6  17
HETATM   17  S2  UNL     1      -3.658  10.739 -13.131  1.00  0.00     0.108 S 
HETATM   18  O4  UNL     1      -3.718   9.287 -12.672  1.00  0.00    -0.595 OA
HETATM   19  O5  UNL     1      -3.545  11.672 -11.980  1.00  0.00    -0.595 OA
HETATM   20  O6  UNL     1      -2.214  10.822 -14.035  1.00  0.00    -0.595 OA
ENDBRANCH   6  17
BRANCH   1  21
HETATM   21  N1  UNL     1      -5.327  10.290 -16.452  1.00  0.00    -0.070 N 
ATOM     22  H12 UNL     1      -4.550  10.910 -16.677  1.00  0.00     0.277 HD
ATOM     23  H11 UNL     1      -6.099  10.925 -16.655  1.00  0.00     0.277 HD
BRANCH  21  24
HETATM   24  C3  UNL     1      -5.349   9.126 -17.324  1.00  0.00     0.232 C 
BRANCH  24  25
HETATM   25  C2  UNL     1      -6.277   9.497 -18.478  1.00  0.00     0.023 C 
HETATM   26  C1  UNL     1      -7.543   8.705 -18.324  1.00  0.00     0.007 C 
ENDBRANCH  24  25
ENDBRANCH  21  24
ENDBRANCH   1  21
TORSDOF 8
ENDMDL
MODEL 5
REMARK VINA RESULT: -6.828886088      5.457      7.004
REMARK  8 active torsions:
REMARK  status: ('A' for Active; 'I' for Inactive)
REMARK    1  A    between atoms: C2_2  and  C3_3 
REMARK    2  A    between atoms: C3_3  and  N1_4 
REMARK    3  A    between atoms: N1_4  and  C4_7 
REMARK    4  A    between atoms: C8_11  and  C9_12 
REMARK    5  A    between atoms: C10_13  and  C11_14 
REMARK    6  A    between atoms: C13_16  and  C14_17 
REMARK    7  A    between atoms: C14_17  and  S1_18 
REMARK    8  A    between atoms: C15_22  and  S2_23 
ROOT
HETATM    1  C4  UNL     1      -5.096   8.152 -17.689  1.00  0.00     0.207 C 
HETATM    2  C5  UNL     1      -3.770   8.162 -18.368  1.00  0.00     0.034 C 
HETATM    3  C6  UNL     1      -2.905   9.342 -18.056  1.00  0.00     0.003 C 
HETATM    4  C7  UNL     1      -2.884   9.753 -16.623  1.00  0.00     0.010 C 
HETATM    5  C8  UNL     1      -3.673   8.823 -15.767  1.00  0.00     0.031 C 
HETATM    6  C15 UNL     1      -5.077   8.709 -16.306  1.00  0.00     0.168 C 
ENDROOT
BRANCH   5   7
HETATM    7  C9  UNL     1      -3.669   9.163 -14.345  1.00  0.00    -0.024 C 
HETATM    8  C10 UNL     1      -2.969  10.186 -13.878  1.00  0.00    -0.025 C 
BRANCH   8   9
HETATM    9  C11 UNL     1      -2.925  10.576 -12.463  1.00  0.00     0.013 A 
HETATM   10  C12 UNL     1      -1.766  11.503 -12.089  1.00  0.00     0.015 A 
HETATM   11  C13 UNL     1      -1.860  10.074 -11.566  1.00  0.00     0.010 A 
BRANCH  11  12
HETATM   12  C14 UNL     1      -2.053   9.975 -10.096  1.00  0.00     0.170 C 
BRANCH  12  13
HETATM   13  S1  UNL     1      -0.608   9.462  -9.218  1.00  0.00     0.102 S 
HETATM   14  O1  UNL     1      -0.494  10.258  -7.942  1.00  0.00    -0.595 OA
HETATM   15  O2  UNL     1      -0.833   8.026  -8.789  1.00  0.00    -0.595 OA
HETATM   16  O3  UNL     1       0.770   9.527 -10.142  1.00  0.00    -0.595 OA
ENDBRANCH  12  13
ENDBRANCH  11  12
ENDBRANCH   8   9
ENDBRANCH   5   7
BRANCH   6  17
HETATM   17  S2  UNL     1      -5.984  10.218 -16.270  1.00  0.00     0.108 S 
HETATM   18  O4  UNL     1      -5.172  11.364 -16.863  1.00  0.00    -0.595 OA
HETATM   19  O5  UNL     1      -6.533  10.570 -14.935  1.00  0.00    -0.595 OA
HETATM   20  O6  UNL     1      -7.286  10.035 -17.356  1.00  0.00    -0.595 OA
ENDBRANCH   6  17
BRANCH   1  21
HETATM   21  N1  UNL     1      -5.513   6.745 -17.589  1.00  0.00    -0.070 N 
ATOM     22  H12 UNL     1      -6.395   6.581 -18.074  1.00  0.00     0.277 HD
ATOM     23  H11 UNL     1      -5.810   6.510 -16.641  1.00  0.00     0.277 HD
BRANCH  21  24
HETATM   24  C3  UNL     1      -4.469   5.850 -18.061  1.00  0.00     0.232 C 
BRANCH  24  25
HETATM   25  C2  UNL     1      -5.175   4.540 -18.397  1.00  0.00     0.023 C 
HETATM   26  C1  UNL     1      -4.332   3.807 -19.401  1.00  0.00     0.007 C 
ENDBRANCH  24  25
ENDBRANCH  21  24
ENDBRANCH   1  21
TORSDOF 8
ENDMDL
