MODEL 1
REMARK VINA RESULT: -4.560491470      0.000      0.000
REMARK  3 active torsions:
REMARK  status: ('A' for Active; 'I' for Inactive)
REMARK    1  A    between atoms: C2_2  and  N1_3 
REMARK    2  A    between atoms: N1_3  and  N2_4 
REMARK    3  A    between atoms: N1_3  and  N3_7 
ROOT
HETATM    1  N1  UNL     1      17.809  14.867  26.434  1.00  0.00    -0.152 NA
ENDROOT
BRANCH   1   2
HETATM    2  C2  UNL     1      17.395  15.825  27.426  1.00  0.00     0.129 C 
HETATM    3  C1  UNL     1      17.114  17.191  26.855  1.00  0.00     0.024 C 
ENDBRANCH   1   2
BRANCH   1   4
HETATM    4  N2  UNL     1      18.475  13.765  26.984  1.00  0.00    -0.349 NA
ATOM      5  H22 UNL     1      17.805  13.015  27.157  1.00  0.00     0.172 HD
ATOM      6  H21 UNL     1      19.281  13.470  26.431  1.00  0.00     0.172 HD
ENDBRANCH   1   4
BRANCH   1   7
HETATM    7  N3  UNL     1      18.585  15.417  25.421  1.00  0.00    -0.150 NA
HETATM    8  C3  UNL     1      18.938  14.443  24.416  1.00  0.00     0.154 C 
ENDBRANCH   1   7
TORSDOF 3
ENDMDL
MODEL 2
REMARK VINA RESULT: -4.170345169      2.202      2.839
REMARK  3 active torsions:
REMARK  status: ('A' for Active; 'I' for Inactive)
REMARK    1  A    between atoms: C2_2  and  N1_3 
REMARK    2  A    between atoms: N1_3  and  N2_4 
REMARK    3  A    between atoms: N1_3  and  N3_7 
ROOT
HETATM    1  N1  UNL     1      18.786  14.398  23.906  1.00  0.00    -0.152 NA
ENDROOT
BRANCH   1   2
HETATM    2  C2  UNL     1      18.807  14.344  25.344  1.00  0.00     0.129 C 
HETATM    3  C1  UNL     1      18.173  15.545  25.996  1.00  0.00     0.024 C 
ENDBRANCH   1   2
BRANCH   1   4
HETATM    4  N2  UNL     1      17.627  13.838  23.355  1.00  0.00    -0.349 NA
ATOM      5  H22 UNL     1      17.775  13.660  22.361  1.00  0.00     0.172 HD
ATOM      6  H21 UNL     1      17.295  13.022  23.869  1.00  0.00     0.172 HD
ENDBRANCH   1   4
BRANCH   1   7
HETATM    7  N3  UNL     1      19.903  13.822  23.313  1.00  0.00    -0.150 NA
HETATM    8  C3  UNL     1      20.609  12.947  24.218  1.00  0.00     0.154 C 
ENDBRANCH   1   7
TORSDOF 3
ENDMDL
MODEL 3
REMARK VINA RESULT: -4.114393880      0.799      2.898
REMARK  3 active torsions:
REMARK  status: ('A' for Active; 'I' for Inactive)
REMARK    1  A    between atoms: C2_2  and  N1_3 
REMARK    2  A    between atoms: N1_3  and  N2_4 
REMARK    3  A    between atoms: N1_3  and  N3_7 
ROOT
HETATM    1  N1  UNL     1      18.371  15.001  26.546  1.00  0.00    -0.152 NA
ENDROOT
BRANCH   1   2
HETATM    2  C2  UNL     1      18.559  15.235  25.138  1.00  0.00     0.129 C 
HETATM    3  C1  UNL     1      19.287  14.118  24.439  1.00  0.00     0.024 C 
ENDBRANCH   1   2
BRANCH   1   4
HETATM    4  N2  UNL     1      18.510  13.653  26.900  1.00  0.00    -0.349 NA
ATOM      5  H22 UNL     1      19.488  13.457  27.112  1.00  0.00     0.172 HD
ATOM      6  H21 UNL     1      17.868  13.366  27.639  1.00  0.00     0.172 HD
ENDBRANCH   1   4
BRANCH   1   7
HETATM    7  N3  UNL     1      17.161  15.482  27.032  1.00  0.00    -0.150 NA
HETATM    8  C3  UNL     1      17.292  16.798  27.611  1.00  0.00     0.154 C 
ENDBRANCH   1   7
TORSDOF 3
ENDMDL
MODEL 4
REMARK VINA RESULT: -3.866048867      1.015      1.164
REMARK  3 active torsions:
REMARK  status: ('A' for Active; 'I' for Inactive)
REMARK    1  A    between atoms: C2_2  and  N1_3 
REMARK    2  A    between atoms: N1_3  and  N2_4 
REMARK    3  A    between atoms: N1_3  and  N3_7 
ROOT
HETATM    1  N1  UNL     1      17.747  15.247  26.959  1.00  0.00    -0.152 NA
ENDROOT
BRANCH   1   2
HETATM    2  C2  UNL     1      16.647  16.160  27.132  1.00  0.00     0.129 C 
HETATM    3  C1  UNL     1      17.016  17.596  26.868  1.00  0.00     0.024 C 
ENDBRANCH   1   2
BRANCH   1   4
HETATM    4  N2  UNL     1      18.996  15.861  27.109  1.00  0.00    -0.349 NA
ATOM      5  H22 UNL     1      18.894  16.870  26.994  1.00  0.00     0.172 HD
ATOM      6  H21 UNL     1      19.469  15.596  27.973  1.00  0.00     0.172 HD
ENDBRANCH   1   4
BRANCH   1   7
HETATM    7  N3  UNL     1      17.712  14.561  25.751  1.00  0.00    -0.150 NA
HETATM    8  C3  UNL     1      18.782  14.958  24.868  1.00  0.00     0.154 C 
ENDBRANCH   1   7
TORSDOF 3
ENDMDL
MODEL 5
REMARK VINA RESULT: -3.704918176      2.026      2.498
REMARK  3 active torsions:
REMARK  status: ('A' for Active; 'I' for Inactive)
REMARK    1  A    between atoms: C2_2  and  N1_3 
REMARK    2  A    between atoms: N1_3  and  N2_4 
REMARK    3  A    between atoms: N1_3  and  N3_7 
ROOT
HETATM    1  N1  UNL     1      19.013  14.004  24.464  1.00  0.00    -0.152 NA
ENDROOT
BRANCH   1   2
HETATM    2  C2  UNL     1      18.607  15.355  24.752  1.00  0.00     0.129 C 
HETATM    3  C1  UNL     1      18.222  15.569  26.192  1.00  0.00     0.024 C 
ENDBRANCH   1   2
BRANCH   1   4
HETATM    4  N2  UNL     1      19.570  13.353  25.572  1.00  0.00    -0.349 NA
ATOM      5  H22 UNL     1      18.841  12.831  26.059  1.00  0.00     0.172 HD
ATOM      6  H21 UNL     1      20.385  12.788  25.334  1.00  0.00     0.172 HD
ENDBRANCH   1   4
BRANCH   1   7
HETATM    7  N3  UNL     1      19.884  13.904  23.386  1.00  0.00    -0.150 NA
HETATM    8  C3  UNL     1      21.052  13.118  23.700  1.00  0.00     0.154 C 
ENDBRANCH   1   7
TORSDOF 3
ENDMDL
