MODEL 1
REMARK VINA RESULT: -5.680048554      0.000      0.000
REMARK  7 active torsions:
REMARK  status: ('A' for Active; 'I' for Inactive)
REMARK    1  A    between atoms: C1_4  and  C2_5 
REMARK    2  A    between atoms: C2_5  and  C3_6 
REMARK    3  A    between atoms: C3_6  and  N2_7 
REMARK    4  A    between atoms: N2_7  and  O1_8 
REMARK    5  A    between atoms: O1_8  and  C4_9 
REMARK    6  A    between atoms: C4_9  and  C5_10 
REMARK    7  A    between atoms: C5_10  and  O2_11 
ROOT
HETATM    1  C3  UNL     1      24.514  29.419  32.793  1.00  0.00     0.147 C 
ENDROOT
BRANCH   1   2
HETATM    2  C2  UNL     1      25.516  28.438  32.171  1.00  0.00     0.062 C 
BRANCH   2   3
HETATM    3  C1  UNL     1      25.335  27.163  32.885  1.00  0.00     0.054 C 
HETATM    4  N1  UNL     1      26.084  26.179  32.627  1.00  0.00    -0.411 N 
ATOM      5  H12 UNL     1      26.811  26.285  31.918  1.00  0.00     0.155 HD
ATOM      6  H11 UNL     1      25.959  25.296  33.121  1.00  0.00     0.155 HD
ENDBRANCH   2   3
ENDBRANCH   1   2
BRANCH   1   7
HETATM    7  N2  UNL     1      23.557  29.870  31.811  1.00  0.00    -0.101 NA
BRANCH   7   8
HETATM    8  O1  UNL     1      22.334  29.499  32.251  1.00  0.00    -0.284 OA
BRANCH   8   9
HETATM    9  C4  UNL     1      22.274  29.833  33.603  1.00  0.00     0.221 C 
BRANCH   9  10
HETATM   10  C5  UNL     1      20.872  30.166  34.045  1.00  0.00     0.192 C 
BRANCH  10  11
HETATM   11  O2  UNL     1      20.820  31.287  34.840  1.00  0.00    -0.399 OA
ATOM     12  H2  UNL     1      20.004  31.357  35.322  1.00  0.00     0.209 HD
ENDBRANCH  10  11
ENDBRANCH   9  10
ENDBRANCH   8   9
ENDBRANCH   7   8
ENDBRANCH   1   7
TORSDOF 7
ENDMDL
MODEL 2
REMARK VINA RESULT: -5.659848806      2.482      4.959
REMARK  7 active torsions:
REMARK  status: ('A' for Active; 'I' for Inactive)
REMARK    1  A    between atoms: C1_4  and  C2_5 
REMARK    2  A    between atoms: C2_5  and  C3_6 
REMARK    3  A    between atoms: C3_6  and  N2_7 
REMARK    4  A    between atoms: N2_7  and  O1_8 
REMARK    5  A    between atoms: O1_8  and  C4_9 
REMARK    6  A    between atoms: C4_9  and  C5_10 
REMARK    7  A    between atoms: C5_10  and  O2_11 
ROOT
HETATM    1  C3  UNL     1      23.106  29.842  33.179  1.00  0.00     0.147 C 
ENDROOT
BRANCH   1   2
HETATM    2  C2  UNL     1      21.580  29.825  33.021  1.00  0.00     0.062 C 
BRANCH   2   3
HETATM    3  C1  UNL     1      21.029  30.056  34.368  1.00  0.00     0.054 C 
HETATM    4  N1  UNL     1      20.805  31.233  34.769  1.00  0.00    -0.411 N 
ATOM      5  H12 UNL     1      21.012  32.014  34.145  1.00  0.00     0.155 HD
ATOM      6  H11 UNL     1      20.423  31.392  35.701  1.00  0.00     0.155 HD
ENDBRANCH   2   3
ENDBRANCH   1   2
BRANCH   1   7
HETATM    7  N2  UNL     1      23.757  29.799  31.891  1.00  0.00    -0.101 NA
BRANCH   7   8
HETATM    8  O1  UNL     1      24.153  28.522  31.691  1.00  0.00    -0.284 OA
BRANCH   8   9
HETATM    9  C4  UNL     1      25.331  28.347  32.413  1.00  0.00     0.221 C 
BRANCH   9  10
HETATM   10  C5  UNL     1      25.466  26.945  32.950  1.00  0.00     0.192 C 
BRANCH  10  11
HETATM   11  O2  UNL     1      26.349  26.182  32.222  1.00  0.00    -0.399 OA
ATOM     12  H2  UNL     1      26.010  25.316  32.027  1.00  0.00     0.209 HD
ENDBRANCH  10  11
ENDBRANCH   9  10
ENDBRANCH   8   9
ENDBRANCH   7   8
ENDBRANCH   1   7
TORSDOF 7
ENDMDL
MODEL 3
REMARK VINA RESULT: -5.603745164      1.485      1.646
REMARK  7 active torsions:
REMARK  status: ('A' for Active; 'I' for Inactive)
REMARK    1  A    between atoms: C1_4  and  C2_5 
REMARK    2  A    between atoms: C2_5  and  C3_6 
REMARK    3  A    between atoms: C3_6  and  N2_7 
REMARK    4  A    between atoms: N2_7  and  O1_8 
REMARK    5  A    between atoms: O1_8  and  C4_9 
REMARK    6  A    between atoms: C4_9  and  C5_10 
REMARK    7  A    between atoms: C5_10  and  O2_11 
ROOT
HETATM    1  C3  UNL     1      23.256  29.515  32.354  1.00  0.00     0.147 C 
ENDROOT
BRANCH   1   2
HETATM    2  C2  UNL     1      24.749  29.223  32.552  1.00  0.00     0.062 C 
BRANCH   2   3
HETATM    3  C1  UNL     1      24.873  27.756  32.610  1.00  0.00     0.054 C 
HETATM    4  N1  UNL     1      25.937  27.194  32.226  1.00  0.00    -0.411 N 
ATOM      5  H12 UNL     1      26.702  27.772  31.877  1.00  0.00     0.155 HD
ATOM      6  H11 UNL     1      26.023  26.179  32.267  1.00  0.00     0.155 HD
ENDBRANCH   2   3
ENDBRANCH   1   2
BRANCH   1   7
HETATM    7  N2  UNL     1      22.631  29.871  33.605  1.00  0.00    -0.101 NA
BRANCH   7   8
HETATM    8  O1  UNL     1      21.294  29.846  33.400  1.00  0.00    -0.284 OA
BRANCH   8   9
HETATM    9  C4  UNL     1      20.719  30.627  34.401  1.00  0.00     0.221 C 
BRANCH   9  10
HETATM   10  C5  UNL     1      19.321  30.176  34.741  1.00  0.00     0.192 C 
BRANCH  10  11
HETATM   11  O2  UNL     1      19.167  29.891  36.078  1.00  0.00    -0.399 OA
ATOM     12  H2  UNL     1      19.091  30.674  36.613  1.00  0.00     0.209 HD
ENDBRANCH  10  11
ENDBRANCH   9  10
ENDBRANCH   8   9
ENDBRANCH   7   8
ENDBRANCH   1   7
TORSDOF 7
ENDMDL
MODEL 4
REMARK VINA RESULT: -5.455335360      2.625      5.208
REMARK  7 active torsions:
REMARK  status: ('A' for Active; 'I' for Inactive)
REMARK    1  A    between atoms: C1_4  and  C2_5 
REMARK    2  A    between atoms: C2_5  and  C3_6 
REMARK    3  A    between atoms: C3_6  and  N2_7 
REMARK    4  A    between atoms: N2_7  and  O1_8 
REMARK    5  A    between atoms: O1_8  and  C4_9 
REMARK    6  A    between atoms: C4_9  and  C5_10 
REMARK    7  A    between atoms: C5_10  and  O2_11 
ROOT
HETATM    1  C3  UNL     1      21.597  29.806  33.252  1.00  0.00     0.147 C 
ENDROOT
BRANCH   1   2
HETATM    2  C2  UNL     1      21.041  30.654  34.404  1.00  0.00     0.062 C 
BRANCH   2   3
HETATM    3  C1  UNL     1      19.678  30.153  34.657  1.00  0.00     0.054 C 
HETATM    4  N1  UNL     1      19.293  29.934  35.839  1.00  0.00    -0.411 N 
ATOM      5  H12 UNL     1      19.939  30.108  36.609  1.00  0.00     0.155 HD
ATOM      6  H11 UNL     1      18.350  29.588  36.014  1.00  0.00     0.155 HD
ENDBRANCH   2   3
ENDBRANCH   1   2
BRANCH   1   7
HETATM    7  N2  UNL     1      23.040  29.804  33.265  1.00  0.00    -0.101 NA
BRANCH   7   8
HETATM    8  O1  UNL     1      23.446  29.377  32.047  1.00  0.00    -0.284 OA
BRANCH   8   9
HETATM    9  C4  UNL     1      24.786  29.018  32.173  1.00  0.00     0.221 C 
BRANCH   9  10
HETATM   10  C5  UNL     1      24.952  27.616  32.702  1.00  0.00     0.192 C 
BRANCH  10  11
HETATM   11  O2  UNL     1      26.037  26.969  32.158  1.00  0.00    -0.399 OA
ATOM     12  H2  UNL     1      26.159  26.096  32.513  1.00  0.00     0.209 HD
ENDBRANCH  10  11
ENDBRANCH   9  10
ENDBRANCH   8   9
ENDBRANCH   7   8
ENDBRANCH   1   7
TORSDOF 7
ENDMDL
MODEL 5
REMARK VINA RESULT: -5.402079206      3.916      5.471
REMARK  7 active torsions:
REMARK  status: ('A' for Active; 'I' for Inactive)
REMARK    1  A    between atoms: C1_4  and  C2_5 
REMARK    2  A    between atoms: C2_5  and  C3_6 
REMARK    3  A    between atoms: C3_6  and  N2_7 
REMARK    4  A    between atoms: N2_7  and  O1_8 
REMARK    5  A    between atoms: O1_8  and  C4_9 
REMARK    6  A    between atoms: C4_9  and  C5_10 
REMARK    7  A    between atoms: C5_10  and  O2_11 
ROOT
HETATM    1  C3  UNL     1      19.777  30.121  34.393  1.00  0.00     0.147 C 
ENDROOT
BRANCH   1   2
HETATM    2  C2  UNL     1      21.193  30.710  34.355  1.00  0.00     0.062 C 
BRANCH   2   3
HETATM    3  C1  UNL     1      21.982  29.817  33.489  1.00  0.00     0.054 C 
HETATM    4  N1  UNL     1      23.179  30.105  33.204  1.00  0.00    -0.411 N 
ATOM      5  H12 UNL     1      23.583  30.961  33.582  1.00  0.00     0.155 HD
ATOM      6  H11 UNL     1      23.725  29.486  32.605  1.00  0.00     0.155 HD
ENDBRANCH   2   3
ENDBRANCH   1   2
BRANCH   1   7
HETATM    7  N2  UNL     1      19.211  30.228  35.717  1.00  0.00    -0.101 NA
BRANCH   7   8
HETATM    8  O1  UNL     1      18.108  31.004  35.612  1.00  0.00    -0.284 OA
BRANCH   8   9
HETATM    9  C4  UNL     1      17.275  30.664  36.677  1.00  0.00     0.221 C 
BRANCH   9  10
HETATM   10  C5  UNL     1      15.973  31.425  36.645  1.00  0.00     0.192 C 
BRANCH  10  11
HETATM   11  O2  UNL     1      14.876  30.597  36.685  1.00  0.00    -0.399 OA
ATOM     12  H2  UNL     1      14.706  30.256  37.556  1.00  0.00     0.209 HD
ENDBRANCH  10  11
ENDBRANCH   9  10
ENDBRANCH   8   9
ENDBRANCH   7   8
ENDBRANCH   1   7
TORSDOF 7
ENDMDL
