MODEL 1
REMARK VINA RESULT: -6.795364051      0.000      0.000
REMARK  11 active torsions:
REMARK  status: ('A' for Active; 'I' for Inactive)
REMARK    1  A    between atoms: C3_3  and  C4_4 
REMARK    2  A    between atoms: C5_5  and  C6_6 
REMARK    3  A    between atoms: C6_6  and  N1_7 
REMARK    4  A    between atoms: N1_7  and  C9_10 
REMARK    5  A    between atoms: C9_10  and  C10_11 
REMARK    6  A    between atoms: C10_11  and  C11_12 
REMARK    7  A    between atoms: C10_11  and  N2_16 
REMARK    8  A    between atoms: C11_12  and  C12_13 
REMARK       I    between atoms: N2_16  and  C15_18 
REMARK    9  A    between atoms: C15_18  and  C16_20 
REMARK   10  A    between atoms: C18_25  and  C19_26 
REMARK   11  A    between atoms: C22_31  and  O3_32 
ROOT
HETATM    1  C1  UNL     1      32.143   3.618  22.067  1.00  0.00     0.113 C 
HETATM    2  C2  UNL     1      30.701   3.376  22.063  1.00  0.00    -0.097 C 
HETATM    3  C3  UNL     1      29.509   3.170  22.039  1.00  0.00    -0.015 C 
ENDROOT
BRANCH   3   4
HETATM    4  C4  UNL     1      28.117   2.909  21.995  1.00  0.00    -0.013 C 
HETATM    5  C5  UNL     1      26.929   2.691  21.934  1.00  0.00    -0.065 C 
BRANCH   5   6
HETATM    6  C6  UNL     1      25.501   2.441  21.837  1.00  0.00     0.330 C 
BRANCH   6   7
HETATM    7  N1  UNL     1      25.137   2.506  20.376  1.00  0.00    -0.063 N 
HETATM    8  C7  UNL     1      23.772   2.102  20.260  1.00  0.00     0.273 C 
HETATM    9  C8  UNL     1      26.015   1.504  19.782  1.00  0.00     0.273 C 
BRANCH   7  10
HETATM   10  C9  UNL     1      25.489   3.809  19.993  1.00  0.00     0.262 C 
BRANCH  10  11
HETATM   11  C10 UNL     1      24.509   4.944  20.225  1.00  0.00     0.111 C 
BRANCH  11  12
HETATM   12  C11 UNL     1      24.232   5.633  18.944  1.00  0.00     0.030 C 
BRANCH  12  13
HETATM   13  C12 UNL     1      24.141   4.813  17.698  1.00  0.00    -0.021 C 
HETATM   14  C13 UNL     1      24.516   5.790  16.537  1.00  0.00     0.009 C 
HETATM   15  C14 UNL     1      22.700   4.417  17.431  1.00  0.00     0.009 C 
ENDBRANCH  12  13
ENDBRANCH  11  12
BRANCH  11  16
HETATM   16  N2  UNL     1      25.100   5.806  21.218  1.00  0.00    -0.353 N 
HETATM   17  C15 UNL     1      24.534   5.800  22.529  1.00  0.00     0.250 C 
HETATM   18  O1  UNL     1      23.541   5.052  22.802  1.00  0.00    -0.271 OA
ATOM     19  H2  UNL     1      25.896   6.401  20.992  1.00  0.00     0.163 HD
BRANCH  17  20
HETATM   20  C16 UNL     1      25.063   6.647  23.624  1.00  0.00     0.269 C 
HETATM   21  N3  UNL     1      26.365   7.116  23.250  1.00  0.00    -0.338 N 
HETATM   22  C17 UNL     1      27.583   6.836  23.870  1.00  0.00     0.241 C 
ATOM     23  H3  UNL     1      26.405   7.727  22.434  1.00  0.00     0.163 HD
HETATM   24  O2  UNL     1      28.603   6.879  23.084  1.00  0.00    -0.271 OA
HETATM   25  C18 UNL     1      27.828   6.510  25.260  1.00  0.00     0.179 C 
HETATM   26  N4  UNL     1      27.150   7.249  26.275  1.00  0.00    -0.359 N 
HETATM   27  C22 UNL     1      25.904   7.841  26.361  1.00  0.00     0.135 C 
ATOM     28  H4  UNL     1      27.706   7.367  27.121  1.00  0.00     0.162 HD
HETATM   29  C23 UNL     1      25.319   9.021  25.675  1.00  0.00     0.155 C 
HETATM   30  C24 UNL     1      26.300   9.917  24.993  1.00  0.00     0.041 C 
HETATM   31  N5  UNL     1      24.154   8.688  24.881  1.00  0.00    -0.347 N 
HETATM   32  C25 UNL     1      24.167   7.843  23.737  1.00  0.00     0.250 C 
ATOM     33  H5  UNL     1      23.260   9.089  25.163  1.00  0.00     0.163 HD
HETATM   34  O4  UNL     1      23.393   8.098  22.759  1.00  0.00    -0.271 OA
BRANCH  25  35
HETATM   35  C19 UNL     1      29.337   6.552  25.554  1.00  0.00     0.009 C 
HETATM   36  C20 UNL     1      29.842   5.159  25.882  1.00  0.00     0.012 C 
HETATM   37  C21 UNL     1      29.690   7.425  26.706  1.00  0.00     0.012 C 
ENDBRANCH  25  35
BRANCH  27  38
HETATM   38  O3  UNL     1      25.046   7.308  27.180  1.00  0.00    -0.348 OA
ATOM     39  H3  UNL     1      24.838   7.793  27.969  1.00  0.00     0.219 HD
ENDBRANCH  27  38
ENDBRANCH  17  20
ENDBRANCH  11  16
ENDBRANCH  10  11
ENDBRANCH   7  10
ENDBRANCH   6   7
ENDBRANCH   5   6
ENDBRANCH   3   4
TORSDOF 11
ENDMDL
MODEL 2
REMARK VINA RESULT: -6.643587269      3.027      6.309
REMARK  11 active torsions:
REMARK  status: ('A' for Active; 'I' for Inactive)
REMARK    1  A    between atoms: C3_3  and  C4_4 
REMARK    2  A    between atoms: C5_5  and  C6_6 
REMARK    3  A    between atoms: C6_6  and  N1_7 
REMARK    4  A    between atoms: N1_7  and  C9_10 
REMARK    5  A    between atoms: C9_10  and  C10_11 
REMARK    6  A    between atoms: C10_11  and  C11_12 
REMARK    7  A    between atoms: C10_11  and  N2_16 
REMARK    8  A    between atoms: C11_12  and  C12_13 
REMARK       I    between atoms: N2_16  and  C15_18 
REMARK    9  A    between atoms: C15_18  and  C16_20 
REMARK   10  A    between atoms: C18_25  and  C19_26 
REMARK   11  A    between atoms: C22_31  and  O3_32 
ROOT
HETATM    1  C1  UNL     1      25.114   7.604  14.690  1.00  0.00     0.113 C 
HETATM    2  C2  UNL     1      24.811   6.511  15.614  1.00  0.00    -0.097 C 
HETATM    3  C3  UNL     1      24.572   5.617  16.393  1.00  0.00    -0.015 C 
ENDROOT
BRANCH   3   4
HETATM    4  C4  UNL     1      24.294   4.587  17.325  1.00  0.00    -0.013 C 
HETATM    5  C5  UNL     1      24.035   3.715  18.121  1.00  0.00    -0.065 C 
BRANCH   5   6
HETATM    6  C6  UNL     1      23.700   2.680  19.084  1.00  0.00     0.330 C 
BRANCH   6   7
HETATM    7  N1  UNL     1      24.855   2.578  20.047  1.00  0.00    -0.063 N 
HETATM    8  C7  UNL     1      25.987   2.117  19.309  1.00  0.00     0.273 C 
HETATM    9  C8  UNL     1      24.404   1.550  20.980  1.00  0.00     0.273 C 
BRANCH   7  10
HETATM   10  C9  UNL     1      24.913   3.845  20.648  1.00  0.00     0.262 C 
BRANCH  10  11
HETATM   11  C10 UNL     1      25.286   3.958  22.114  1.00  0.00     0.111 C 
BRANCH  11  12
HETATM   12  C11 UNL     1      24.888   5.289  22.628  1.00  0.00     0.030 C 
BRANCH  12  13
HETATM   13  C12 UNL     1      23.759   5.368  23.603  1.00  0.00    -0.021 C 
HETATM   14  C13 UNL     1      22.998   6.685  23.241  1.00  0.00     0.009 C 
HETATM   15  C14 UNL     1      24.289   5.591  25.008  1.00  0.00     0.009 C 
ENDBRANCH  12  13
ENDBRANCH  11  12
BRANCH  11  16
HETATM   16  N2  UNL     1      26.704   3.714  22.202  1.00  0.00    -0.353 N 
HETATM   17  C15 UNL     1      27.213   3.159  23.415  1.00  0.00     0.250 C 
HETATM   18  O1  UNL     1      26.430   2.891  24.381  1.00  0.00    -0.271 OA
ATOM     19  H2  UNL     1      27.325   3.931  21.423  1.00  0.00     0.163 HD
BRANCH  17  20
HETATM   20  C16 UNL     1      28.652   2.870  23.612  1.00  0.00     0.269 C 
HETATM   21  N3  UNL     1      28.873   2.574  24.997  1.00  0.00    -0.338 N 
HETATM   22  C17 UNL     1      29.647   3.292  25.910  1.00  0.00     0.241 C 
ATOM     23  H3  UNL     1      28.410   1.740  25.358  1.00  0.00     0.163 HD
HETATM   24  O2  UNL     1      29.260   3.187  27.134  1.00  0.00    -0.271 OA
HETATM   25  C18 UNL     1      30.804   4.123  25.647  1.00  0.00     0.179 C 
HETATM   26  N4  UNL     1      31.794   3.659  24.729  1.00  0.00    -0.359 N 
HETATM   27  C22 UNL     1      31.754   2.895  23.579  1.00  0.00     0.135 C 
ATOM     28  H4  UNL     1      32.738   3.958  24.976  1.00  0.00     0.162 HD
HETATM   29  C23 UNL     1      31.454   1.458  23.355  1.00  0.00     0.155 C 
HETATM   30  C24 UNL     1      31.484   0.600  24.577  1.00  0.00     0.041 C 
HETATM   31  N5  UNL     1      30.302   1.252  22.501  1.00  0.00    -0.347 N 
HETATM   32  C25 UNL     1      28.972   1.632  22.829  1.00  0.00     0.250 C 
ATOM     33  H5  UNL     1      30.457   0.801  21.599  1.00  0.00     0.163 HD
HETATM   34  O4  UNL     1      27.999   0.902  22.452  1.00  0.00    -0.271 OA
BRANCH  25  35
HETATM   35  C19 UNL     1      31.500   4.492  26.967  1.00  0.00     0.009 C 
HETATM   36  C20 UNL     1      31.457   5.994  27.175  1.00  0.00     0.012 C 
HETATM   37  C21 UNL     1      32.932   4.087  27.014  1.00  0.00     0.012 C 
ENDBRANCH  25  35
BRANCH  27  38
HETATM   38  O3  UNL     1      32.022   3.494  22.456  1.00  0.00    -0.348 OA
ATOM     39  H3  UNL     1      31.371   4.097  22.118  1.00  0.00     0.219 HD
ENDBRANCH  27  38
ENDBRANCH  17  20
ENDBRANCH  11  16
ENDBRANCH  10  11
ENDBRANCH   7  10
ENDBRANCH   6   7
ENDBRANCH   5   6
ENDBRANCH   3   4
TORSDOF 11
ENDMDL
MODEL 3
REMARK VINA RESULT: -6.639622849      3.837      6.963
REMARK  11 active torsions:
REMARK  status: ('A' for Active; 'I' for Inactive)
REMARK    1  A    between atoms: C3_3  and  C4_4 
REMARK    2  A    between atoms: C5_5  and  C6_6 
REMARK    3  A    between atoms: C6_6  and  N1_7 
REMARK    4  A    between atoms: N1_7  and  C9_10 
REMARK    5  A    between atoms: C9_10  and  C10_11 
REMARK    6  A    between atoms: C10_11  and  C11_12 
REMARK    7  A    between atoms: C10_11  and  N2_16 
REMARK    8  A    between atoms: C11_12  and  C12_13 
REMARK       I    between atoms: N2_16  and  C15_18 
REMARK    9  A    between atoms: C15_18  and  C16_20 
REMARK   10  A    between atoms: C18_25  and  C19_26 
REMARK   11  A    between atoms: C22_31  and  O3_32 
ROOT
HETATM    1  C1  UNL     1      24.106   4.845  16.038  1.00  0.00     0.113 C 
HETATM    2  C2  UNL     1      24.350   4.855  17.480  1.00  0.00    -0.097 C 
HETATM    3  C3  UNL     1      24.556   4.885  18.672  1.00  0.00    -0.015 C 
ENDROOT
BRANCH   3   4
HETATM    4  C4  UNL     1      24.789   4.944  20.068  1.00  0.00    -0.013 C 
HETATM    5  C5  UNL     1      24.966   4.996  21.263  1.00  0.00    -0.065 C 
BRANCH   5   6
HETATM    6  C6  UNL     1      25.152   5.067  22.702  1.00  0.00     0.330 C 
BRANCH   6   7
HETATM    7  N1  UNL     1      26.581   4.680  22.985  1.00  0.00    -0.063 N 
HETATM    8  C7  UNL     1      27.054   5.533  24.029  1.00  0.00     0.273 C 
HETATM    9  C8  UNL     1      27.252   4.995  21.728  1.00  0.00     0.273 C 
BRANCH   7  10
HETATM   10  C9  UNL     1      26.522   3.298  23.219  1.00  0.00     0.262 C 
BRANCH  10  11
HETATM   11  C10 UNL     1      27.715   2.431  22.864  1.00  0.00     0.111 C 
BRANCH  11  12
HETATM   12  C11 UNL     1      27.253   1.209  22.165  1.00  0.00     0.030 C 
BRANCH  12  13
HETATM   13  C12 UNL     1      25.856   1.175  21.635  1.00  0.00    -0.021 C 
HETATM   14  C13 UNL     1      25.428  -0.326  21.707  1.00  0.00     0.009 C 
HETATM   15  C14 UNL     1      25.845   1.520  20.156  1.00  0.00     0.009 C 
ENDBRANCH  12  13
ENDBRANCH  11  12
BRANCH  11  16
HETATM   16  N2  UNL     1      28.408   2.153  24.097  1.00  0.00    -0.353 N 
HETATM   17  C15 UNL     1      29.650   2.817  24.330  1.00  0.00     0.250 C 
HETATM   18  O1  UNL     1      30.121   3.628  23.470  1.00  0.00    -0.271 OA
ATOM     19  H2  UNL     1      28.024   1.502  24.782  1.00  0.00     0.163 HD
BRANCH  17  20
HETATM   20  C16 UNL     1      30.444   2.604  25.562  1.00  0.00     0.269 C 
HETATM   21  N3  UNL     1      29.550   2.574  26.682  1.00  0.00    -0.338 N 
HETATM   22  C17 UNL     1      29.494   3.467  27.754  1.00  0.00     0.241 C 
ATOM     23  H3  UNL     1      28.873   1.811  26.698  1.00  0.00     0.163 HD
HETATM   24  O2  UNL     1      28.329   3.581  28.292  1.00  0.00    -0.271 OA
HETATM   25  C18 UNL     1      30.567   4.262  28.315  1.00  0.00     0.179 C 
HETATM   26  N4  UNL     1      31.848   3.661  28.505  1.00  0.00    -0.359 N 
HETATM   27  C22 UNL     1      32.565   2.696  27.824  1.00  0.00     0.135 C 
ATOM     28  H4  UNL     1      32.341   4.022  29.321  1.00  0.00     0.162 HD
HETATM   29  C23 UNL     1      32.353   1.236  27.659  1.00  0.00     0.155 C 
HETATM   30  C24 UNL     1      31.380   0.619  28.610  1.00  0.00     0.041 C 
HETATM   31  N5  UNL     1      32.171   0.848  26.276  1.00  0.00    -0.347 N 
HETATM   32  C25 UNL     1      31.080   1.251  25.457  1.00  0.00     0.250 C 
ATOM     33  H5  UNL     1      32.878   0.242  25.858  1.00  0.00     0.163 HD
HETATM   34  O4  UNL     1      30.610   0.440  24.594  1.00  0.00    -0.271 OA
BRANCH  25  35
HETATM   35  C19 UNL     1      30.121   4.886  29.648  1.00  0.00     0.009 C 
HETATM   36  C20 UNL     1      30.482   6.359  29.680  1.00  0.00     0.012 C 
HETATM   37  C21 UNL     1      30.756   4.255  30.837  1.00  0.00     0.012 C 
ENDBRANCH  25  35
BRANCH  27  38
HETATM   38  O3  UNL     1      33.636   3.083  27.195  1.00  0.00    -0.348 OA
ATOM     39  H3  UNL     1      34.379   2.493  27.197  1.00  0.00     0.219 HD
ENDBRANCH  27  38
ENDBRANCH  17  20
ENDBRANCH  11  16
ENDBRANCH  10  11
ENDBRANCH   7  10
ENDBRANCH   6   7
ENDBRANCH   5   6
ENDBRANCH   3   4
TORSDOF 11
ENDMDL
MODEL 4
REMARK VINA RESULT: -6.449556683      3.757      6.662
REMARK  11 active torsions:
REMARK  status: ('A' for Active; 'I' for Inactive)
REMARK    1  A    between atoms: C3_3  and  C4_4 
REMARK    2  A    between atoms: C5_5  and  C6_6 
REMARK    3  A    between atoms: C6_6  and  N1_7 
REMARK    4  A    between atoms: N1_7  and  C9_10 
REMARK    5  A    between atoms: C9_10  and  C10_11 
REMARK    6  A    between atoms: C10_11  and  C11_12 
REMARK    7  A    between atoms: C10_11  and  N2_16 
REMARK    8  A    between atoms: C11_12  and  C12_13 
REMARK       I    between atoms: N2_16  and  C15_18 
REMARK    9  A    between atoms: C15_18  and  C16_20 
REMARK   10  A    between atoms: C18_25  and  C19_26 
REMARK   11  A    between atoms: C22_31  and  O3_32 
ROOT
HETATM    1  C1  UNL     1      24.379   5.329  16.769  1.00  0.00     0.113 C 
HETATM    2  C2  UNL     1      24.405   5.335  18.231  1.00  0.00    -0.097 C 
HETATM    3  C3  UNL     1      24.411   5.325  19.441  1.00  0.00    -0.015 C 
ENDROOT
BRANCH   3   4
HETATM    4  C4  UNL     1      24.411   5.290  20.857  1.00  0.00    -0.013 C 
HETATM    5  C5  UNL     1      24.410   5.282  22.066  1.00  0.00    -0.065 C 
BRANCH   5   6
HETATM    6  C6  UNL     1      24.415   5.299  23.519  1.00  0.00     0.330 C 
BRANCH   6   7
HETATM    7  N1  UNL     1      25.841   5.094  23.962  1.00  0.00    -0.063 N 
HETATM    8  C7  UNL     1      25.884   5.305  25.373  1.00  0.00     0.273 C 
HETATM    9  C8  UNL     1      26.549   6.164  23.266  1.00  0.00     0.273 C 
BRANCH   7  10
HETATM   10  C9  UNL     1      26.177   3.827  23.460  1.00  0.00     0.262 C 
BRANCH  10  11
HETATM   11  C10 UNL     1      27.554   3.602  22.866  1.00  0.00     0.111 C 
BRANCH  11  12
HETATM   12  C11 UNL     1      27.438   2.804  21.625  1.00  0.00     0.030 C 
BRANCH  12  13
HETATM   13  C12 UNL     1      26.194   2.006  21.403  1.00  0.00    -0.021 C 
HETATM   14  C13 UNL     1      26.557   0.552  21.846  1.00  0.00     0.009 C 
HETATM   15  C14 UNL     1      25.892   1.903  19.918  1.00  0.00     0.009 C 
ENDBRANCH  12  13
ENDBRANCH  11  12
BRANCH  11  16
HETATM   16  N2  UNL     1      28.346   2.959  23.885  1.00  0.00    -0.353 N 
HETATM   17  C15 UNL     1      29.251   3.766  24.639  1.00  0.00     0.250 C 
HETATM   18  O1  UNL     1      29.347   5.014  24.411  1.00  0.00    -0.271 OA
ATOM     19  H2  UNL     1      28.262   1.958  24.062  1.00  0.00     0.163 HD
BRANCH  17  20
HETATM   20  C16 UNL     1      30.110   3.206  25.707  1.00  0.00     0.269 C 
HETATM   21  N3  UNL     1      30.564   4.282  26.539  1.00  0.00    -0.338 N 
HETATM   22  C17 UNL     1      31.876   4.719  26.728  1.00  0.00     0.241 C 
ATOM     23  H3  UNL     1      29.843   4.788  27.052  1.00  0.00     0.163 HD
HETATM   24  O2  UNL     1      31.983   5.967  27.030  1.00  0.00    -0.271 OA
HETATM   25  C18 UNL     1      33.100   3.952  26.627  1.00  0.00     0.179 C 
HETATM   26  N4  UNL     1      33.146   2.643  27.195  1.00  0.00    -0.359 N 
HETATM   27  C22 UNL     1      32.217   1.633  27.354  1.00  0.00     0.135 C 
ATOM     28  H4  UNL     1      34.065   2.401  27.564  1.00  0.00     0.162 HD
HETATM   29  C23 UNL     1      31.010   1.524  28.212  1.00  0.00     0.155 C 
HETATM   30  C24 UNL     1      30.914   2.529  29.312  1.00  0.00     0.041 C 
HETATM   31  N5  UNL     1      29.792   1.350  27.447  1.00  0.00    -0.347 N 
HETATM   32  C25 UNL     1      29.252   2.314  26.552  1.00  0.00     0.250 C 
ATOM     33  H5  UNL     1      29.285   0.472  27.559  1.00  0.00     0.163 HD
HETATM   34  O4  UNL     1      27.989   2.439  26.451  1.00  0.00    -0.271 OA
BRANCH  25  35
HETATM   35  C19 UNL     1      34.281   4.765  27.185  1.00  0.00     0.009 C 
HETATM   36  C20 UNL     1      35.490   4.612  26.281  1.00  0.00     0.012 C 
HETATM   37  C21 UNL     1      34.699   4.341  28.548  1.00  0.00     0.012 C 
ENDBRANCH  25  35
BRANCH  27  38
HETATM   38  O3  UNL     1      32.383   0.554  26.647  1.00  0.00    -0.348 OA
ATOM     39  H3  UNL     1      32.993   0.598  25.921  1.00  0.00     0.219 HD
ENDBRANCH  27  38
ENDBRANCH  17  20
ENDBRANCH  11  16
ENDBRANCH  10  11
ENDBRANCH   7  10
ENDBRANCH   6   7
ENDBRANCH   5   6
ENDBRANCH   3   4
TORSDOF 11
ENDMDL
MODEL 5
REMARK VINA RESULT: -6.372703406      2.523      5.332
REMARK  11 active torsions:
REMARK  status: ('A' for Active; 'I' for Inactive)
REMARK    1  A    between atoms: C3_3  and  C4_4 
REMARK    2  A    between atoms: C5_5  and  C6_6 
REMARK    3  A    between atoms: C6_6  and  N1_7 
REMARK    4  A    between atoms: N1_7  and  C9_10 
REMARK    5  A    between atoms: C9_10  and  C10_11 
REMARK    6  A    between atoms: C10_11  and  C11_12 
REMARK    7  A    between atoms: C10_11  and  N2_16 
REMARK    8  A    between atoms: C11_12  and  C12_13 
REMARK       I    between atoms: N2_16  and  C15_18 
REMARK    9  A    between atoms: C15_18  and  C16_20 
REMARK   10  A    between atoms: C18_25  and  C19_26 
REMARK   11  A    between atoms: C22_31  and  O3_32 
ROOT
HETATM    1  C1  UNL     1      23.994  -1.547  21.330  1.00  0.00     0.113 C 
HETATM    2  C2  UNL     1      25.077  -0.603  21.605  1.00  0.00    -0.097 C 
HETATM    3  C3  UNL     1      25.973   0.171  21.853  1.00  0.00    -0.015 C 
ENDROOT
BRANCH   3   4
HETATM    4  C4  UNL     1      27.033   1.060  22.159  1.00  0.00    -0.013 C 
HETATM    5  C5  UNL     1      27.945   1.818  22.399  1.00  0.00    -0.065 C 
BRANCH   5   6
HETATM    6  C6  UNL     1      29.051   2.720  22.664  1.00  0.00     0.330 C 
BRANCH   6   7
HETATM    7  N1  UNL     1      28.493   3.902  23.414  1.00  0.00    -0.063 N 
HETATM    8  C7  UNL     1      29.532   4.404  24.255  1.00  0.00     0.273 C 
HETATM    9  C8  UNL     1      27.436   3.298  24.220  1.00  0.00     0.273 C 
BRANCH   7  10
HETATM   10  C9  UNL     1      27.978   4.734  22.409  1.00  0.00     0.262 C 
BRANCH  10  11
HETATM   11  C10 UNL     1      26.478   4.800  22.192  1.00  0.00     0.111 C 
BRANCH  11  12
HETATM   12  C11 UNL     1      26.181   4.730  20.742  1.00  0.00     0.030 C 
BRANCH  12  13
HETATM   13  C12 UNL     1      24.803   4.337  20.315  1.00  0.00    -0.021 C 
HETATM   14  C13 UNL     1      24.969   2.941  19.633  1.00  0.00     0.009 C 
HETATM   15  C14 UNL     1      24.310   5.260  19.215  1.00  0.00     0.009 C 
ENDBRANCH  12  13
ENDBRANCH  11  12
BRANCH  11  16
HETATM   16  N2  UNL     1      26.023   6.021  22.807  1.00  0.00    -0.353 N 
HETATM   17  C15 UNL     1      24.863   5.959  23.637  1.00  0.00     0.250 C 
HETATM   18  O1  UNL     1      24.258   4.855  23.822  1.00  0.00    -0.271 OA
ATOM     19  H2  UNL     1      26.513   6.903  22.655  1.00  0.00     0.163 HD
BRANCH  17  20
HETATM   20  C16 UNL     1      24.310   7.154  24.317  1.00  0.00     0.269 C 
HETATM   21  N3  UNL     1      23.046   6.805  24.897  1.00  0.00    -0.338 N 
HETATM   22  C17 UNL     1      21.788   7.316  24.573  1.00  0.00     0.241 C 
ATOM     23  H3  UNL     1      23.068   6.099  25.633  1.00  0.00     0.163 HD
HETATM   24  O2  UNL     1      20.812   6.504  24.787  1.00  0.00    -0.271 OA
HETATM   25  C18 UNL     1      21.462   8.621  24.035  1.00  0.00     0.179 C 
HETATM   26  N4  UNL     1      22.114   9.773  24.570  1.00  0.00    -0.359 N 
HETATM   27  C22 UNL     1      23.373  10.010  25.086  1.00  0.00     0.135 C 
ATOM     28  H4  UNL     1      21.520  10.602  24.573  1.00  0.00     0.162 HD
HETATM   29  C23 UNL     1      24.034   9.554  26.335  1.00  0.00     0.155 C 
HETATM   30  C24 UNL     1      23.121   8.986  27.371  1.00  0.00     0.041 C 
HETATM   31  N5  UNL     1      25.225   8.769  26.086  1.00  0.00    -0.347 N 
HETATM   32  C25 UNL     1      25.240   7.502  25.439  1.00  0.00     0.250 C 
ATOM     33  H5  UNL     1      26.118   9.152  26.397  1.00  0.00     0.163 HD
HETATM   34  O4  UNL     1      26.071   6.614  25.817  1.00  0.00    -0.271 OA
BRANCH  25  35
HETATM   35  C19 UNL     1      19.943   8.852  24.094  1.00  0.00     0.009 C 
HETATM   36  C20 UNL     1      19.371   8.910  22.689  1.00  0.00     0.012 C 
HETATM   37  C21 UNL     1      19.563  10.121  24.772  1.00  0.00     0.012 C 
ENDBRANCH  25  35
BRANCH  27  38
HETATM   38  O3  UNL     1      24.170  10.767  24.390  1.00  0.00    -0.348 OA
ATOM     39  H3  UNL     1      25.102  10.683  24.550  1.00  0.00     0.219 HD
ENDBRANCH  27  38
ENDBRANCH  17  20
ENDBRANCH  11  16
ENDBRANCH  10  11
ENDBRANCH   7  10
ENDBRANCH   6   7
ENDBRANCH   5   6
ENDBRANCH   3   4
TORSDOF 11
ENDMDL
