MODEL 1
REMARK VINA RESULT: -4.766135285      0.000      0.000
REMARK  3 active torsions:
REMARK  status: ('A' for Active; 'I' for Inactive)
REMARK    1  A    between atoms: N1_1  and  C1_5 
REMARK    2  A    between atoms: C1_5  and  C2_6 
REMARK    3  A    between atoms: C7_11  and  N2_12 
ROOT
HETATM    1  C2  UNL     1      69.847  80.838  26.729  1.00  0.00     0.013 C 
HETATM    2  C3  UNL     1      71.143  81.547  26.528  1.00  0.00     0.006 C 
HETATM    3  C4  UNL     1      71.887  81.884  27.762  1.00  0.00     0.000 C 
HETATM    4  C5  UNL     1      70.972  81.851  28.944  1.00  0.00     0.002 C 
HETATM    5  C6  UNL     1      70.944  80.490  29.518  1.00  0.00     0.033 C 
HETATM    6  C7  UNL     1      70.696  79.356  28.614  1.00  0.00     0.183 C 
HETATM    7  C8  UNL     1      69.931  79.524  27.390  1.00  0.00     0.039 C 
ENDROOT
BRANCH   1   8
HETATM    8  C1  UNL     1      69.351  80.573  25.297  1.00  0.00     0.234 C 
BRANCH   8   9
HETATM    9  N1  UNL     1      68.607  79.344  25.224  1.00  0.00    -0.079 N 
ATOM     10  H13 UNL     1      69.209  78.554  24.992  1.00  0.00     0.274 HD
ATOM     11  H12 UNL     1      68.297  79.037  26.147  1.00  0.00     0.274 HD
ATOM     12  H11 UNL     1      67.825  79.425  24.573  1.00  0.00     0.274 HD
ENDBRANCH   8   9
ENDBRANCH   1   8
BRANCH   6  13
HETATM   13  N2  UNL     1      70.048  78.296  29.416  1.00  0.00    -0.075 N 
ATOM     14  H23 UNL     1      70.067  77.383  28.962  1.00  0.00     0.274 HD
ATOM     15  H22 UNL     1      70.581  78.041  30.247  1.00  0.00     0.274 HD
ATOM     16  H21 UNL     1      69.104  78.618  29.629  1.00  0.00     0.274 HD
ENDBRANCH   6  13
TORSDOF 3
ENDMDL
MODEL 2
REMARK VINA RESULT: -4.522101898      0.780      3.303
REMARK  3 active torsions:
REMARK  status: ('A' for Active; 'I' for Inactive)
REMARK    1  A    between atoms: N1_1  and  C1_5 
REMARK    2  A    between atoms: C1_5  and  C2_6 
REMARK    3  A    between atoms: C7_11  and  N2_12 
ROOT
HETATM    1  C2  UNL     1      70.971  80.166  27.895  1.00  0.00     0.013 C 
HETATM    2  C3  UNL     1      71.097  81.630  28.150  1.00  0.00     0.006 C 
HETATM    3  C4  UNL     1      71.101  82.491  26.947  1.00  0.00     0.000 C 
HETATM    4  C5  UNL     1      71.436  81.684  25.733  1.00  0.00     0.002 C 
HETATM    5  C6  UNL     1      70.200  81.129  25.143  1.00  0.00     0.033 C 
HETATM    6  C7  UNL     1      69.266  80.413  26.024  1.00  0.00     0.183 C 
HETATM    7  C8  UNL     1      69.733  79.737  27.223  1.00  0.00     0.039 C 
ENDROOT
BRANCH   1   8
HETATM    8  C1  UNL     1      70.933  79.553  29.307  1.00  0.00     0.234 C 
BRANCH   8   9
HETATM    9  N1  UNL     1      70.081  78.395  29.347  1.00  0.00    -0.079 N 
ATOM     10  H13 UNL     1      69.120  78.628  29.096  1.00  0.00     0.274 HD
ATOM     11  H12 UNL     1      70.288  77.749  28.586  1.00  0.00     0.274 HD
ATOM     12  H11 UNL     1      70.130  77.934  30.256  1.00  0.00     0.274 HD
ENDBRANCH   8   9
ENDBRANCH   1   8
BRANCH   6  13
HETATM   13  N2  UNL     1      68.556  79.422  25.188  1.00  0.00    -0.075 N 
ATOM     14  H23 UNL     1      69.121  79.072  24.414  1.00  0.00     0.274 HD
ATOM     15  H22 UNL     1      68.413  78.529  25.660  1.00  0.00     0.274 HD
ATOM     16  H21 UNL     1      67.685  79.857  24.883  1.00  0.00     0.274 HD
ENDBRANCH   6  13
TORSDOF 3
ENDMDL
MODEL 3
REMARK VINA RESULT: -4.485755136      2.300      3.653
REMARK  3 active torsions:
REMARK  status: ('A' for Active; 'I' for Inactive)
REMARK    1  A    between atoms: N1_1  and  C1_5 
REMARK    2  A    between atoms: C1_5  and  C2_6 
REMARK    3  A    between atoms: C7_11  and  N2_12 
ROOT
HETATM    1  C2  UNL     1      71.514  81.845  26.548  1.00  0.00     0.013 C 
HETATM    2  C3  UNL     1      70.754  82.862  25.766  1.00  0.00     0.006 C 
HETATM    3  C4  UNL     1      69.804  82.324  24.768  1.00  0.00     0.000 C 
HETATM    4  C5  UNL     1      70.142  80.904  24.443  1.00  0.00     0.002 C 
HETATM    5  C6  UNL     1      69.439  79.996  25.373  1.00  0.00     0.033 C 
HETATM    6  C7  UNL     1      69.544  80.258  26.817  1.00  0.00     0.183 C 
HETATM    7  C8  UNL     1      70.702  80.936  27.375  1.00  0.00     0.039 C 
ENDROOT
BRANCH   1   8
HETATM    8  C1  UNL     1      72.352  82.688  27.524  1.00  0.00     0.234 C 
BRANCH   8   9
HETATM    9  N1  UNL     1      73.745  82.666  27.165  1.00  0.00    -0.079 N 
ATOM     10  H13 UNL     1      74.298  83.278  27.766  1.00  0.00     0.274 HD
ATOM     11  H12 UNL     1      74.182  81.776  27.407  1.00  0.00     0.274 HD
ATOM     12  H11 UNL     1      73.875  82.892  26.178  1.00  0.00     0.274 HD
ENDBRANCH   8   9
ENDBRANCH   1   8
BRANCH   6  13
HETATM   13  N2  UNL     1      69.401  78.957  27.504  1.00  0.00    -0.075 N 
ATOM     14  H23 UNL     1      68.461  78.797  27.869  1.00  0.00     0.274 HD
ATOM     15  H22 UNL     1      69.430  78.162  26.866  1.00  0.00     0.274 HD
ATOM     16  H21 UNL     1      70.122  78.918  28.225  1.00  0.00     0.274 HD
ENDBRANCH   6  13
TORSDOF 3
ENDMDL
MODEL 4
REMARK VINA RESULT: -4.425199919      1.411      3.270
REMARK  3 active torsions:
REMARK  status: ('A' for Active; 'I' for Inactive)
REMARK    1  A    between atoms: N1_1  and  C1_5 
REMARK    2  A    between atoms: C1_5  and  C2_6 
REMARK    3  A    between atoms: C7_11  and  N2_12 
ROOT
HETATM    1  C2  UNL     1      71.177  80.422  28.027  1.00  0.00     0.013 C 
HETATM    2  C3  UNL     1      71.180  81.556  28.994  1.00  0.00     0.006 C 
HETATM    3  C4  UNL     1      71.775  82.818  28.500  1.00  0.00     0.000 C 
HETATM    4  C5  UNL     1      72.647  82.550  27.314  1.00  0.00     0.002 C 
HETATM    5  C6  UNL     1      71.843  82.624  26.076  1.00  0.00     0.033 C 
HETATM    6  C7  UNL     1      70.591  81.856  26.008  1.00  0.00     0.183 C 
HETATM    7  C8  UNL     1      70.413  80.641  26.786  1.00  0.00     0.039 C 
ENDROOT
BRANCH   1   8
HETATM    8  C1  UNL     1      70.454  79.297  28.788  1.00  0.00     0.234 C 
BRANCH   8   9
HETATM    9  N1  UNL     1      69.607  78.535  27.910  1.00  0.00    -0.079 N 
ATOM     10  H13 UNL     1      69.707  78.834  26.940  1.00  0.00     0.274 HD
ATOM     11  H12 UNL     1      69.935  77.574  27.811  1.00  0.00     0.274 HD
ATOM     12  H11 UNL     1      68.634  78.571  28.215  1.00  0.00     0.274 HD
ENDBRANCH   8   9
ENDBRANCH   1   8
BRANCH   6  13
HETATM   13  N2  UNL     1      70.362  81.525  24.586  1.00  0.00    -0.075 N 
ATOM     14  H23 UNL     1      71.224  81.331  24.075  1.00  0.00     0.274 HD
ATOM     15  H22 UNL     1      69.924  80.613  24.453  1.00  0.00     0.274 HD
ATOM     16  H21 UNL     1      69.822  82.291  24.183  1.00  0.00     0.274 HD
ENDBRANCH   6  13
TORSDOF 3
ENDMDL
MODEL 5
REMARK VINA RESULT: -4.367631511      6.356      7.226
REMARK  3 active torsions:
REMARK  status: ('A' for Active; 'I' for Inactive)
REMARK    1  A    between atoms: N1_1  and  C1_5 
REMARK    2  A    between atoms: C1_5  and  C2_6 
REMARK    3  A    between atoms: C7_11  and  N2_12 
ROOT
HETATM    1  C2  UNL     1      72.409  80.487  33.885  1.00  0.00     0.013 C 
HETATM    2  C3  UNL     1      73.233  81.664  33.489  1.00  0.00     0.006 C 
HETATM    3  C4  UNL     1      74.652  81.623  33.907  1.00  0.00     0.000 C 
HETATM    4  C5  UNL     1      74.837  80.637  35.016  1.00  0.00     0.002 C 
HETATM    5  C6  UNL     1      75.123  79.300  34.455  1.00  0.00     0.033 C 
HETATM    6  C7  UNL     1      74.230  78.775  33.411  1.00  0.00     0.183 C 
HETATM    7  C8  UNL     1      72.839  79.190  33.334  1.00  0.00     0.039 C 
ENDROOT
BRANCH   1   8
HETATM    8  C1  UNL     1      71.030  80.784  33.268  1.00  0.00     0.234 C 
BRANCH   8   9
HETATM    9  N1  UNL     1      70.105  81.251  34.266  1.00  0.00    -0.079 N 
ATOM     10  H13 UNL     1      70.238  82.242  34.466  1.00  0.00     0.274 HD
ATOM     11  H12 UNL     1      69.152  81.291  33.905  1.00  0.00     0.274 HD
ATOM     12  H11 UNL     1      70.162  80.686  35.114  1.00  0.00     0.274 HD
ENDBRANCH   8   9
ENDBRANCH   1   8
BRANCH   6  13
HETATM   13  N2  UNL     1      74.261  77.300  33.517  1.00  0.00    -0.075 N 
ATOM     14  H23 UNL     1      73.378  76.861  33.254  1.00  0.00     0.274 HD
ATOM     15  H22 UNL     1      74.843  76.861  32.804  1.00  0.00     0.274 HD
ATOM     16  H21 UNL     1      74.553  77.074  34.468  1.00  0.00     0.274 HD
ENDBRANCH   6  13
TORSDOF 3
ENDMDL
