MODEL 1
REMARK VINA RESULT: -4.257134117      0.000      0.000
REMARK  2 active torsions:
REMARK  status: ('A' for Active; 'I' for Inactive)
REMARK    1  A    between atoms: C2_2  and  C3_3 
REMARK    2  A    between atoms: C7_7  and  N1_8 
ROOT
HETATM    1  C3  UNL     1      69.385  80.880  26.297  1.00  0.00     0.011 C 
HETATM    2  C4  UNL     1      69.696  82.062  25.475  1.00  0.00     0.006 C 
HETATM    3  C5  UNL     1      70.002  81.892  24.054  1.00  0.00     0.004 C 
HETATM    4  C6  UNL     1      70.547  80.618  23.573  1.00  0.00     0.062 C 
HETATM    5  C7  UNL     1      69.597  79.457  23.525  1.00  0.00     0.380 C 
HETATM    6  N2  UNL     1      69.442  78.879  24.841  1.00  0.00    -0.046 N 
ATOM      7  H21 UNL     1      70.337  78.648  25.273  1.00  0.00     0.279 HD
ATOM      8  H22 UNL     1      69.054  77.936  24.809  1.00  0.00     0.279 HD
HETATM    9  C8  UNL     1      68.664  79.762  25.639  1.00  0.00     0.239 C 
ENDROOT
BRANCH   5  10
HETATM   10  N1  UNL     1      68.377  79.700  22.849  1.00  0.00    -0.050 N 
ATOM     11  H13 UNL     1      68.153  80.694  22.877  1.00  0.00     0.276 HD
ATOM     12  H12 UNL     1      68.501  79.571  21.845  1.00  0.00     0.276 HD
ATOM     13  H11 UNL     1      67.580  79.153  23.176  1.00  0.00     0.276 HD
ENDBRANCH   5  10
BRANCH   1  14
HETATM   14  C2  UNL     1      70.594  80.371  27.093  1.00  0.00     0.002 C 
HETATM   15  C1  UNL     1      70.112  79.359  28.130  1.00  0.00     0.005 C 
ENDBRANCH   1  14
TORSDOF 2
ENDMDL
MODEL 2
REMARK VINA RESULT: -4.106019368      2.245      3.586
REMARK  2 active torsions:
REMARK  status: ('A' for Active; 'I' for Inactive)
REMARK    1  A    between atoms: C2_2  and  C3_3 
REMARK    2  A    between atoms: C7_7  and  N1_8 
ROOT
HETATM    1  C3  UNL     1      71.555  81.145  28.227  1.00  0.00     0.011 C 
HETATM    2  C4  UNL     1      70.936  79.817  28.374  1.00  0.00     0.006 C 
HETATM    3  C5  UNL     1      69.841  79.429  27.483  1.00  0.00     0.004 C 
HETATM    4  C6  UNL     1      69.000  80.462  26.870  1.00  0.00     0.062 C 
HETATM    5  C7  UNL     1      69.626  81.274  25.774  1.00  0.00     0.380 C 
HETATM    6  N2  UNL     1      70.466  82.309  26.333  1.00  0.00    -0.046 N 
ATOM      7  H21 UNL     1      69.977  82.877  27.025  1.00  0.00     0.279 HD
ATOM      8  H22 UNL     1      70.671  83.050  25.662  1.00  0.00     0.279 HD
HETATM    9  C8  UNL     1      71.644  81.709  26.857  1.00  0.00     0.239 C 
ENDROOT
BRANCH   5  10
HETATM   10  N1  UNL     1      70.236  80.527  24.738  1.00  0.00    -0.050 N 
ATOM     11  H13 UNL     1      71.084  80.996  24.420  1.00  0.00     0.276 HD
ATOM     12  H12 UNL     1      70.636  79.668  25.115  1.00  0.00     0.276 HD
ATOM     13  H11 UNL     1      69.636  80.313  23.942  1.00  0.00     0.276 HD
ENDBRANCH   5  10
BRANCH   1  14
HETATM   14  C2  UNL     1      71.000  82.177  29.218  1.00  0.00     0.002 C 
HETATM   15  C1  UNL     1      71.987  83.337  29.328  1.00  0.00     0.005 C 
ENDBRANCH   1  14
TORSDOF 2
ENDMDL
MODEL 3
REMARK VINA RESULT: -3.963404461      2.577      4.195
REMARK  2 active torsions:
REMARK  status: ('A' for Active; 'I' for Inactive)
REMARK    1  A    between atoms: C2_2  and  C3_3 
REMARK    2  A    between atoms: C7_7  and  N1_8 
ROOT
HETATM    1  C3  UNL     1      69.693  81.572  25.568  1.00  0.00     0.011 C 
HETATM    2  C4  UNL     1      69.208  80.820  26.739  1.00  0.00     0.006 C 
HETATM    3  C5  UNL     1      70.087  80.643  27.895  1.00  0.00     0.004 C 
HETATM    4  C6  UNL     1      71.542  80.681  27.717  1.00  0.00     0.062 C 
HETATM    5  C7  UNL     1      72.151  82.025  27.441  1.00  0.00     0.380 C 
HETATM    6  N2  UNL     1      71.985  82.375  26.048  1.00  0.00    -0.046 N 
ATOM      7  H21 UNL     1      72.321  81.644  25.420  1.00  0.00     0.279 HD
ATOM      8  H22 UNL     1      72.620  83.117  25.754  1.00  0.00     0.279 HD
HETATM    9  C8  UNL     1      70.620  82.704  25.818  1.00  0.00     0.239 C 
ENDROOT
BRANCH   5  10
HETATM   10  N1  UNL     1      71.788  83.052  28.345  1.00  0.00    -0.050 N 
ATOM     11  H13 UNL     1      71.338  83.817  27.843  1.00  0.00     0.276 HD
ATOM     12  H12 UNL     1      71.014  82.743  28.933  1.00  0.00     0.276 HD
ATOM     13  H11 UNL     1      72.546  83.412  28.925  1.00  0.00     0.276 HD
ENDBRANCH   5  10
BRANCH   1  14
HETATM   14  C2  UNL     1      70.215  80.662  24.448  1.00  0.00     0.002 C 
HETATM   15  C1  UNL     1      69.253  79.489  24.277  1.00  0.00     0.005 C 
ENDBRANCH   1  14
TORSDOF 2
ENDMDL
MODEL 4
REMARK VINA RESULT: -3.682832963      1.310      3.385
REMARK  2 active torsions:
REMARK  status: ('A' for Active; 'I' for Inactive)
REMARK    1  A    between atoms: C2_2  and  C3_3 
REMARK    2  A    between atoms: C7_7  and  N1_8 
ROOT
HETATM    1  C3  UNL     1      70.411  81.041  24.052  1.00  0.00     0.011 C 
HETATM    2  C4  UNL     1      71.135  81.676  25.166  1.00  0.00     0.006 C 
HETATM    3  C5  UNL     1      70.698  81.431  26.542  1.00  0.00     0.004 C 
HETATM    4  C6  UNL     1      69.303  81.070  26.810  1.00  0.00     0.062 C 
HETATM    5  C7  UNL     1      68.879  79.686  26.412  1.00  0.00     0.380 C 
HETATM    6  N2  UNL     1      68.606  79.632  24.994  1.00  0.00    -0.046 N 
ATOM      7  H21 UNL     1      67.951  80.355  24.695  1.00  0.00     0.279 HD
ATOM      8  H22 UNL     1      68.047  78.819  24.734  1.00  0.00     0.279 HD
HETATM    9  C8  UNL     1      69.840  79.692  24.288  1.00  0.00     0.239 C 
ENDROOT
BRANCH   5  10
HETATM   10  N1  UNL     1      69.706  78.639  26.885  1.00  0.00    -0.050 N 
ATOM     11  H13 UNL     1      70.656  78.982  27.030  1.00  0.00     0.276 HD
ATOM     12  H12 UNL     1      69.454  78.399  27.843  1.00  0.00     0.276 HD
ATOM     13  H11 UNL     1      69.722  77.800  26.307  1.00  0.00     0.276 HD
ENDBRANCH   5  10
BRANCH   1  14
HETATM   14  C2  UNL     1      69.381  81.974  23.400  1.00  0.00     0.002 C 
HETATM   15  C1  UNL     1      69.807  83.421  23.637  1.00  0.00     0.005 C 
ENDBRANCH   1  14
TORSDOF 2
ENDMDL
MODEL 5
REMARK VINA RESULT: -3.656732783      2.698      3.327
REMARK  2 active torsions:
REMARK  status: ('A' for Active; 'I' for Inactive)
REMARK    1  A    between atoms: C2_2  and  C3_3 
REMARK    2  A    between atoms: C7_7  and  N1_8 
ROOT
HETATM    1  C3  UNL     1      70.068  82.182  25.668  1.00  0.00     0.011 C 
HETATM    2  C4  UNL     1      71.427  82.330  26.219  1.00  0.00     0.006 C 
HETATM    3  C5  UNL     1      72.534  82.667  25.323  1.00  0.00     0.004 C 
HETATM    4  C6  UNL     1      72.455  82.314  23.902  1.00  0.00     0.062 C 
HETATM    5  C7  UNL     1      71.509  83.120  23.061  1.00  0.00     0.380 C 
HETATM    6  N2  UNL     1      70.153  82.650  23.239  1.00  0.00    -0.046 N 
ATOM      7  H21 UNL     1      70.067  81.645  23.090  1.00  0.00     0.279 HD
ATOM      8  H22 UNL     1      69.532  82.958  22.490  1.00  0.00     0.279 HD
HETATM    9  C8  UNL     1      69.696  83.051  24.525  1.00  0.00     0.239 C 
ENDROOT
BRANCH   5  10
HETATM   10  N1  UNL     1      71.655  84.525  23.161  1.00  0.00    -0.050 N 
ATOM     11  H13 UNL     1      70.765  84.952  23.416  1.00  0.00     0.276 HD
ATOM     12  H12 UNL     1      72.210  84.761  23.983  1.00  0.00     0.276 HD
ATOM     13  H11 UNL     1      72.040  84.984  22.336  1.00  0.00     0.276 HD
ENDBRANCH   5  10
BRANCH   1  14
HETATM   14  C2  UNL     1      69.688  80.719  25.402  1.00  0.00     0.002 C 
HETATM   15  C1  UNL     1      69.139  80.110  26.690  1.00  0.00     0.005 C 
ENDBRANCH   1  14
TORSDOF 2
ENDMDL
