MODEL 1
REMARK VINA RESULT: -7.140727688      0.000      0.000
REMARK  3 active torsions:
REMARK  status: ('A' for Active; 'I' for Inactive)
REMARK    1  A    between atoms: N3_7  and  C3_8 
REMARK    2  A    between atoms: C5_12  and  N5_13 
REMARK    3  A    between atoms: C6_18  and  N7_19 
ROOT
HETATM    1  C3  UNL     1      -5.082 -13.470  -8.241  1.00  0.00     0.180 A 
HETATM    2  N4  UNL     1      -5.207 -14.672  -8.752  1.00  0.00    -0.329 N 
ATOM      3  H4  UNL     1      -4.770 -14.885  -9.649  1.00  0.00     0.168 HD
HETATM    4  C4  UNL     1      -5.879 -15.593  -8.132  1.00  0.00     0.113 A 
HETATM    5  C5  UNL     1      -6.088 -16.914  -8.568  1.00  0.00     0.144 A 
HETATM    6  N6  UNL     1      -6.802 -17.733  -7.812  1.00  0.00    -0.175 N 
ATOM      7  H6  UNL     1      -6.935 -18.684  -8.159  1.00  0.00     0.186 HD
HETATM    8  C6  UNL     1      -7.366 -17.434  -6.641  1.00  0.00     0.678 A 
HETATM    9  N8  UNL     1      -7.177 -16.167  -6.203  1.00  0.00    -0.183 N 
ATOM     10  H8  UNL     1      -7.584 -15.880  -5.312  1.00  0.00     0.185 HD
HETATM   11  C7  UNL     1      -6.450 -15.266  -6.932  1.00  0.00     0.124 A 
HETATM   12  S2  UNL     1      -5.975 -13.630  -6.771  1.00  0.00    -0.031 SA
ENDROOT
BRANCH   1  13
HETATM   13  N3  UNL     1      -4.388 -12.313  -8.756  1.00  0.00    -0.186 N 
HETATM   14  S1  UNL     1      -5.066 -10.999  -9.557  1.00  0.00     0.054 SA
HETATM   15  C2  UNL     1      -3.401 -10.691  -9.476  1.00  0.00     0.207 A 
HETATM   16  N2  UNL     1      -2.465  -9.817  -9.804  1.00  0.00    -0.272 N 
HETATM   17  N9  UNL     1      -3.162 -11.853  -8.821  1.00  0.00    -0.174 N 
HETATM   18  N1  UNL     1      -1.201 -10.031  -9.503  1.00  0.00    -0.255 N 
ATOM     19  H2  UNL     1      -2.725  -8.964 -10.299  1.00  0.00     0.189 HD
HETATM   20  C1  UNL     1      -0.139  -9.101  -9.844  1.00  0.00     0.181 C 
HETATM   21  C9  UNL     1      -0.901 -11.175  -8.849  1.00  0.00     0.332 A 
HETATM   22  C8  UNL     1      -1.870 -12.094  -8.500  1.00  0.00     0.339 A 
HETATM   23  O2  UNL     1       0.312 -11.394  -8.553  1.00  0.00    -0.260 OA
HETATM   24  O1  UNL     1      -1.537 -13.156  -7.885  1.00  0.00    -0.260 OA
ENDBRANCH   1  13
BRANCH   5  25
HETATM   25  N5  UNL     1      -5.604 -17.349  -9.682  1.00  0.00    -0.383 N 
ATOM     26  H52 UNL     1      -4.621 -17.616  -9.725  1.00  0.00     0.157 HD
ATOM     27  H51 UNL     1      -6.177 -17.435 -10.521  1.00  0.00     0.157 HD
ENDBRANCH   5  25
BRANCH   8  28
HETATM   28  N7  UNL     1      -8.045 -18.294  -5.971  1.00  0.00    -0.234 N 
ATOM     29  H72 UNL     1      -7.814 -19.286  -5.972  1.00  0.00     0.174 HD
ATOM     30  H71 UNL     1      -8.850 -18.025  -5.404  1.00  0.00     0.174 HD
ENDBRANCH   8  28
TORSDOF 3
ENDMDL
MODEL 2
REMARK VINA RESULT: -6.482755026      0.958      1.777
REMARK  3 active torsions:
REMARK  status: ('A' for Active; 'I' for Inactive)
REMARK    1  A    between atoms: N3_7  and  C3_8 
REMARK    2  A    between atoms: C5_12  and  N5_13 
REMARK    3  A    between atoms: C6_18  and  N7_19 
ROOT
HETATM    1  C3  UNL     1      -5.150 -13.474  -8.490  1.00  0.00     0.180 A 
HETATM    2  N4  UNL     1      -5.899 -13.691  -7.434  1.00  0.00    -0.329 N 
ATOM      3  H4  UNL     1      -6.064 -12.935  -6.770  1.00  0.00     0.168 HD
HETATM    4  C4  UNL     1      -6.433 -14.855  -7.225  1.00  0.00     0.113 A 
HETATM    5  C5  UNL     1      -7.252 -15.218  -6.141  1.00  0.00     0.144 A 
HETATM    6  N6  UNL     1      -7.719 -16.456  -6.075  1.00  0.00    -0.175 N 
ATOM      7  H6  UNL     1      -8.309 -16.685  -5.275  1.00  0.00     0.186 HD
HETATM    8  C6  UNL     1      -7.491 -17.431  -6.956  1.00  0.00     0.678 A 
HETATM    9  N8  UNL     1      -6.705 -17.103  -8.008  1.00  0.00    -0.183 N 
ATOM     10  H8  UNL     1      -6.496 -17.807  -8.715  1.00  0.00     0.185 HD
HETATM   11  C7  UNL     1      -6.187 -15.843  -8.140  1.00  0.00     0.124 A 
HETATM   12  S2  UNL     1      -5.189 -15.019  -9.259  1.00  0.00    -0.031 SA
ENDROOT
BRANCH   1  13
HETATM   13  N3  UNL     1      -4.469 -12.272  -8.909  1.00  0.00    -0.186 N 
HETATM   14  S1  UNL     1      -5.151 -10.931  -9.661  1.00  0.00     0.054 SA
HETATM   15  C2  UNL     1      -3.500 -10.585  -9.493  1.00  0.00     0.207 A 
HETATM   16  N2  UNL     1      -2.576  -9.670  -9.731  1.00  0.00    -0.272 N 
HETATM   17  N9  UNL     1      -3.254 -11.777  -8.896  1.00  0.00    -0.174 N 
HETATM   18  N1  UNL     1      -1.320  -9.869  -9.391  1.00  0.00    -0.255 N 
ATOM     19  H2  UNL     1      -2.840  -8.797 -10.187  1.00  0.00     0.189 HD
HETATM   20  C1  UNL     1      -0.271  -8.893  -9.633  1.00  0.00     0.181 C 
HETATM   21  C9  UNL     1      -1.014 -11.041  -8.792  1.00  0.00     0.332 A 
HETATM   22  C8  UNL     1      -1.970 -12.003  -8.537  1.00  0.00     0.339 A 
HETATM   23  O2  UNL     1       0.192 -11.246  -8.459  1.00  0.00    -0.260 OA
HETATM   24  O1  UNL     1      -1.632 -13.091  -7.970  1.00  0.00    -0.260 OA
ENDBRANCH   1  13
BRANCH   5  25
HETATM   25  N5  UNL     1      -7.560 -14.381  -5.209  1.00  0.00    -0.383 N 
ATOM     26  H52 UNL     1      -7.405 -14.643  -4.236  1.00  0.00     0.157 HD
ATOM     27  H51 UNL     1      -7.953 -13.463  -5.417  1.00  0.00     0.157 HD
ENDBRANCH   5  25
BRANCH   8  28
HETATM   28  N7  UNL     1      -7.986 -18.607  -6.814  1.00  0.00    -0.234 N 
ATOM     29  H72 UNL     1      -8.229 -18.986  -5.900  1.00  0.00     0.174 HD
ATOM     30  H71 UNL     1      -8.161 -19.220  -7.610  1.00  0.00     0.174 HD
ENDBRANCH   8  28
TORSDOF 3
ENDMDL
MODEL 3
REMARK VINA RESULT: -6.373030683      2.733      7.664
REMARK  3 active torsions:
REMARK  status: ('A' for Active; 'I' for Inactive)
REMARK    1  A    between atoms: N3_7  and  C3_8 
REMARK    2  A    between atoms: C5_12  and  N5_13 
REMARK    3  A    between atoms: C6_18  and  N7_19 
ROOT
HETATM    1  C3  UNL     1      -5.753 -14.370  -8.183  1.00  0.00     0.180 A 
HETATM    2  N4  UNL     1      -4.532 -13.893  -8.114  1.00  0.00    -0.329 N 
ATOM      3  H4  UNL     1      -3.817 -14.414  -7.606  1.00  0.00     0.168 HD
HETATM    4  C4  UNL     1      -4.223 -12.768  -8.681  1.00  0.00     0.113 A 
HETATM    5  C5  UNL     1      -2.960 -12.150  -8.683  1.00  0.00     0.144 A 
HETATM    6  N6  UNL     1      -2.811 -10.995  -9.313  1.00  0.00    -0.175 N 
ATOM      7  H6  UNL     1      -1.882 -10.575  -9.293  1.00  0.00     0.186 HD
HETATM    8  C6  UNL     1      -3.761 -10.330  -9.972  1.00  0.00     0.678 A 
HETATM    9  N8  UNL     1      -4.985 -10.908  -9.983  1.00  0.00    -0.183 N 
ATOM     10  H8  UNL     1      -5.752 -10.445 -10.472  1.00  0.00     0.185 HD
HETATM   11  C7  UNL     1      -5.212 -12.101  -9.352  1.00  0.00     0.124 A 
HETATM   12  S2  UNL     1      -6.542 -13.151  -9.119  1.00  0.00    -0.031 SA
ENDROOT
BRANCH   1  13
HETATM   13  N3  UNL     1      -6.305 -15.585  -7.632  1.00  0.00    -0.186 N 
HETATM   14  S1  UNL     1      -7.292 -15.726  -6.277  1.00  0.00     0.054 SA
HETATM   15  C2  UNL     1      -7.075 -17.301  -6.865  1.00  0.00     0.207 A 
HETATM   16  N2  UNL     1      -7.390 -18.567  -6.654  1.00  0.00    -0.272 N 
HETATM   17  N9  UNL     1      -6.291 -16.872  -7.884  1.00  0.00    -0.174 N 
HETATM   18  N1  UNL     1      -6.946 -19.519  -7.447  1.00  0.00    -0.255 N 
ATOM     19  H2  UNL     1      -7.986 -18.811  -5.863  1.00  0.00     0.189 HD
HETATM   20  C1  UNL     1      -7.266 -20.923  -7.254  1.00  0.00     0.181 C 
HETATM   21  C9  UNL     1      -6.158 -19.151  -8.482  1.00  0.00     0.332 A 
HETATM   22  C8  UNL     1      -5.823 -17.833  -8.714  1.00  0.00     0.339 A 
HETATM   23  O2  UNL     1      -5.724 -20.058  -9.254  1.00  0.00    -0.260 OA
HETATM   24  O1  UNL     1      -5.078 -17.537  -9.701  1.00  0.00    -0.260 OA
ENDBRANCH   1  13
BRANCH   5  25
HETATM   25  N5  UNL     1      -1.944 -12.675  -8.087  1.00  0.00    -0.383 N 
ATOM     26  H52 UNL     1      -1.709 -13.650  -8.273  1.00  0.00     0.157 HD
ATOM     27  H51 UNL     1      -1.366 -12.143  -7.436  1.00  0.00     0.157 HD
ENDBRANCH   5  25
BRANCH   8  28
HETATM   28  N7  UNL     1      -3.529  -9.211 -10.558  1.00  0.00    -0.234 N 
ATOM     29  H72 UNL     1      -2.829  -8.555 -10.214  1.00  0.00     0.174 HD
ATOM     30  H71 UNL     1      -4.033  -8.924 -11.397  1.00  0.00     0.174 HD
ENDBRANCH   8  28
TORSDOF 3
ENDMDL
MODEL 4
REMARK VINA RESULT: -6.340314631      2.220      7.535
REMARK  3 active torsions:
REMARK  status: ('A' for Active; 'I' for Inactive)
REMARK    1  A    between atoms: N3_7  and  C3_8 
REMARK    2  A    between atoms: C5_12  and  N5_13 
REMARK    3  A    between atoms: C6_18  and  N7_19 
ROOT
HETATM    1  C3  UNL     1      -4.767 -13.200  -8.193  1.00  0.00     0.180 A 
HETATM    2  N4  UNL     1      -3.459 -13.093  -8.184  1.00  0.00    -0.329 N 
ATOM      3  H4  UNL     1      -2.898 -13.817  -7.735  1.00  0.00     0.168 HD
HETATM    4  C4  UNL     1      -2.870 -12.078  -8.738  1.00  0.00     0.113 A 
HETATM    5  C5  UNL     1      -1.484 -11.845  -8.799  1.00  0.00     0.144 A 
HETATM    6  N6  UNL     1      -1.043 -10.753  -9.405  1.00  0.00    -0.175 N 
ATOM      7  H6  UNL     1      -0.033 -10.615  -9.430  1.00  0.00     0.186 HD
HETATM    8  C6  UNL     1      -1.796  -9.817  -9.987  1.00  0.00     0.678 A 
HETATM    9  N8  UNL     1      -3.132 -10.023  -9.940  1.00  0.00    -0.183 N 
ATOM     10  H8  UNL     1      -3.759  -9.341 -10.369  1.00  0.00     0.185 HD
HETATM   11  C7  UNL     1      -3.659 -11.129  -9.329  1.00  0.00     0.124 A 
HETATM   12  S2  UNL     1      -5.220 -11.768  -9.045  1.00  0.00    -0.031 SA
ENDROOT
BRANCH   1  13
HETATM   13  N3  UNL     1      -5.614 -14.232  -7.643  1.00  0.00    -0.186 N 
HETATM   14  S1  UNL     1      -6.630 -14.103  -6.308  1.00  0.00     0.054 SA
HETATM   15  C2  UNL     1      -6.802 -15.691  -6.878  1.00  0.00     0.207 A 
HETATM   16  N2  UNL     1      -7.427 -16.835  -6.662  1.00  0.00    -0.272 N 
HETATM   17  N9  UNL     1      -5.917 -15.485  -7.883  1.00  0.00    -0.174 N 
HETATM   18  N1  UNL     1      -7.221 -17.878  -7.437  1.00  0.00    -0.255 N 
ATOM     19  H2  UNL     1      -8.080 -16.911  -5.881  1.00  0.00     0.189 HD
HETATM   20  C1  UNL     1      -7.884 -19.156  -7.238  1.00  0.00     0.181 C 
HETATM   21  C9  UNL     1      -6.346 -17.733  -8.458  1.00  0.00     0.332 A 
HETATM   22  C8  UNL     1      -5.689 -16.543  -8.694  1.00  0.00     0.339 A 
HETATM   23  O2  UNL     1      -6.138 -18.730  -9.213  1.00  0.00    -0.260 OA
HETATM   24  O1  UNL     1      -4.875 -16.456  -9.668  1.00  0.00    -0.260 OA
ENDBRANCH   1  13
BRANCH   5  25
HETATM   25  N5  UNL     1      -0.632 -12.662  -8.280  1.00  0.00    -0.383 N 
ATOM     26  H52 UNL     1      -0.880 -13.647  -8.189  1.00  0.00     0.157 HD
ATOM     27  H51 UNL     1       0.285 -12.352  -7.958  1.00  0.00     0.157 HD
ENDBRANCH   5  25
BRANCH   8  28
HETATM   28  N7  UNL     1      -1.283  -8.786 -10.555  1.00  0.00    -0.234 N 
ATOM     29  H72 UNL     1      -0.606  -8.188 -10.083  1.00  0.00     0.174 HD
ATOM     30  H71 UNL     1      -1.527  -8.515 -11.507  1.00  0.00     0.174 HD
ENDBRANCH   8  28
TORSDOF 3
ENDMDL
MODEL 5
REMARK VINA RESULT: -6.285736431      2.385      7.616
REMARK  3 active torsions:
REMARK  status: ('A' for Active; 'I' for Inactive)
REMARK    1  A    between atoms: N3_7  and  C3_8 
REMARK    2  A    between atoms: C5_12  and  N5_13 
REMARK    3  A    between atoms: C6_18  and  N7_19 
ROOT
HETATM    1  C3  UNL     1      -4.737 -12.707  -8.321  1.00  0.00     0.180 A 
HETATM    2  N4  UNL     1      -5.142 -11.683  -9.037  1.00  0.00    -0.329 N 
ATOM      3  H4  UNL     1      -6.141 -11.501  -9.134  1.00  0.00     0.168 HD
HETATM    4  C4  UNL     1      -4.288 -10.901  -9.622  1.00  0.00     0.113 A 
HETATM    5  C5  UNL     1      -4.587  -9.777 -10.412  1.00  0.00     0.144 A 
HETATM    6  N6  UNL     1      -3.592  -9.080 -10.940  1.00  0.00    -0.175 N 
ATOM      7  H6  UNL     1      -3.846  -8.272 -11.509  1.00  0.00     0.186 HD
HETATM    8  C6  UNL     1      -2.291  -9.337 -10.800  1.00  0.00     0.678 A 
HETATM    9  N8  UNL     1      -1.981 -10.414 -10.043  1.00  0.00    -0.183 N 
ATOM     10  H8  UNL     1      -1.001 -10.660  -9.899  1.00  0.00     0.185 HD
HETATM   11  C7  UNL     1      -2.957 -11.181  -9.466  1.00  0.00     0.124 A 
HETATM   12  S2  UNL     1      -3.022 -12.572  -8.473  1.00  0.00    -0.031 SA
ENDROOT
BRANCH   1  13
HETATM   13  N3  UNL     1      -5.507 -13.690  -7.596  1.00  0.00    -0.186 N 
HETATM   14  S1  UNL     1      -6.246 -13.495  -6.098  1.00  0.00     0.054 SA
HETATM   15  C2  UNL     1      -6.588 -15.082  -6.586  1.00  0.00     0.207 A 
HETATM   16  N2  UNL     1      -7.207 -16.193  -6.229  1.00  0.00    -0.272 N 
HETATM   17  N9  UNL     1      -5.901 -14.932  -7.745  1.00  0.00    -0.174 N 
HETATM   18  N1  UNL     1      -7.194 -17.257  -7.003  1.00  0.00    -0.255 N 
ATOM     19  H2  UNL     1      -7.703 -16.227  -5.338  1.00  0.00     0.189 HD
HETATM   20  C1  UNL     1      -7.859 -18.500  -6.652  1.00  0.00     0.181 C 
HETATM   21  C9  UNL     1      -6.523 -17.168  -8.174  1.00  0.00     0.332 A 
HETATM   22  C8  UNL     1      -5.874 -16.013  -8.558  1.00  0.00     0.339 A 
HETATM   23  O2  UNL     1      -6.502 -18.186  -8.929  1.00  0.00    -0.260 OA
HETATM   24  O1  UNL     1      -5.256 -15.979  -9.670  1.00  0.00    -0.260 OA
ENDBRANCH   1  13
BRANCH   5  25
HETATM   25  N5  UNL     1      -5.802  -9.405 -10.637  1.00  0.00    -0.383 N 
ATOM     26  H52 UNL     1      -6.320  -9.839 -11.400  1.00  0.00     0.157 HD
ATOM     27  H51 UNL     1      -6.261  -8.691 -10.072  1.00  0.00     0.157 HD
ENDBRANCH   5  25
BRANCH   8  28
HETATM   28  N7  UNL     1      -1.389  -8.606 -11.350  1.00  0.00    -0.234 N 
ATOM     29  H72 UNL     1      -0.462  -8.966 -11.574  1.00  0.00     0.174 HD
ATOM     30  H71 UNL     1      -1.556  -7.628 -11.589  1.00  0.00     0.174 HD
ENDBRANCH   8  28
TORSDOF 3
ENDMDL
