MODEL 1
REMARK VINA RESULT: -5.950906700      0.000      0.000
REMARK  2 active torsions:
REMARK  status: ('A' for Active; 'I' for Inactive)
REMARK    1  A    between atoms: O1_2  and  C2_3 
REMARK    2  A    between atoms: C2_3  and  C3_5 
ROOT
HETATM    1  C3  UNL     1      32.275  16.779  -0.276  1.00  0.00     0.100 A 
HETATM    2  S1  UNL     1      33.747  17.369   0.353  1.00  0.00    -0.058 SA
HETATM    3  C4  UNL     1      33.138  18.401   1.562  1.00  0.00     0.118 A 
HETATM    4  C5  UNL     1      31.785  18.260   1.444  1.00  0.00     0.001 A 
HETATM    5  C6  UNL     1      31.335  17.415   0.488  1.00  0.00     0.043 A 
HETATM    6 BR1  UNL     1      29.434  17.089   0.177  1.00  0.00    -0.049 Br
HETATM    7  C7  UNL     1      30.707  18.944   2.269  1.00  0.00     0.043 C 
HETATM    8  C8  UNL     1      31.079  18.925   3.709  1.00  0.00     0.005 C 
HETATM    9  C9  UNL     1      31.699  20.182   4.225  1.00  0.00     0.002 C 
HETATM   10  C10 UNL     1      32.613  20.869   3.259  1.00  0.00     0.027 C 
HETATM   11  C11 UNL     1      33.977  20.237   3.210  1.00  0.00     0.176 C 
HETATM   12  O3  UNL     1      34.037  19.129   2.368  1.00  0.00    -0.343 OA
ENDROOT
BRANCH   1  13
HETATM   13  C2  UNL     1      32.064  15.813  -1.379  1.00  0.00     0.301 C 
HETATM   14  O2  UNL     1      32.477  16.124  -2.519  1.00  0.00    -0.259 OA
BRANCH  13  15
HETATM   15  O1  UNL     1      31.420  14.607  -1.108  1.00  0.00    -0.322 OA
HETATM   16  C1  UNL     1      30.535  14.109  -2.088  1.00  0.00     0.213 C 
ENDBRANCH  13  15
ENDBRANCH   1  13
TORSDOF 2
ENDMDL
MODEL 2
REMARK VINA RESULT: -5.901337805      2.266      5.953
REMARK  2 active torsions:
REMARK  status: ('A' for Active; 'I' for Inactive)
REMARK    1  A    between atoms: O1_2  and  C2_3 
REMARK    2  A    between atoms: C2_3  and  C3_5 
ROOT
HETATM    1  C3  UNL     1      31.989  18.867   1.891  1.00  0.00     0.100 A 
HETATM    2  S1  UNL     1      30.375  18.407   1.583  1.00  0.00    -0.058 SA
HETATM    3  C4  UNL     1      30.634  17.350   0.274  1.00  0.00     0.118 A 
HETATM    4  C5  UNL     1      31.988  17.381   0.106  1.00  0.00     0.001 A 
HETATM    5  C6  UNL     1      32.695  18.171   0.948  1.00  0.00     0.043 A 
HETATM    6 BR1  UNL     1      34.639  18.339   0.856  1.00  0.00    -0.049 Br
HETATM    7  C7  UNL     1      32.812  16.626  -0.924  1.00  0.00     0.043 C 
HETATM    8  C8  UNL     1      32.338  15.219  -1.023  1.00  0.00     0.005 C 
HETATM    9  C9  UNL     1      31.409  14.938  -2.158  1.00  0.00     0.002 C 
HETATM   10  C10 UNL     1      30.445  16.041  -2.464  1.00  0.00     0.027 C 
HETATM   11  C11 UNL     1      29.268  16.052  -1.527  1.00  0.00     0.176 C 
HETATM   12  O3  UNL     1      29.530  16.711  -0.328  1.00  0.00    -0.343 OA
ENDROOT
BRANCH   1  13
HETATM   13  C2  UNL     1      32.503  19.793   2.927  1.00  0.00     0.301 C 
HETATM   14  O2  UNL     1      33.143  20.799   2.548  1.00  0.00    -0.259 OA
BRANCH  13  15
HETATM   15  O1  UNL     1      32.256  19.510   4.269  1.00  0.00    -0.322 OA
HETATM   16  C1  UNL     1      31.029  19.949   4.810  1.00  0.00     0.213 C 
ENDBRANCH  13  15
ENDBRANCH   1  13
TORSDOF 2
ENDMDL
MODEL 3
REMARK VINA RESULT: -5.893910470      1.561      5.809
REMARK  2 active torsions:
REMARK  status: ('A' for Active; 'I' for Inactive)
REMARK    1  A    between atoms: O1_2  and  C2_3 
REMARK    2  A    between atoms: C2_3  and  C3_5 
ROOT
HETATM    1  C3  UNL     1      32.897  17.360   0.431  1.00  0.00     0.100 A 
HETATM    2  S1  UNL     1      33.445  16.122  -0.607  1.00  0.00    -0.058 SA
HETATM    3  C4  UNL     1      31.950  15.616  -1.247  1.00  0.00     0.118 A 
HETATM    4  C5  UNL     1      31.049  16.435  -0.628  1.00  0.00     0.001 A 
HETATM    5  C6  UNL     1      31.542  17.343   0.246  1.00  0.00     0.043 A 
HETATM    6 BR1  UNL     1      30.403  18.595   1.222  1.00  0.00    -0.049 Br
HETATM    7  C7  UNL     1      29.540  16.452  -0.803  1.00  0.00     0.043 C 
HETATM    8  C8  UNL     1      29.193  16.344  -2.246  1.00  0.00     0.005 C 
HETATM    9  C9  UNL     1      28.825  14.974  -2.713  1.00  0.00     0.002 C 
HETATM   10  C10 UNL     1      29.608  13.866  -2.081  1.00  0.00     0.027 C 
HETATM   11  C11 UNL     1      30.966  13.694  -2.704  1.00  0.00     0.176 C 
HETATM   12  O3  UNL     1      31.920  14.567  -2.188  1.00  0.00    -0.343 OA
ENDROOT
BRANCH   1  13
HETATM   13  C2  UNL     1      33.693  18.241   1.317  1.00  0.00     0.301 C 
HETATM   14  O2  UNL     1      34.880  18.478   0.997  1.00  0.00    -0.259 OA
BRANCH  13  15
HETATM   15  O1  UNL     1      33.096  18.766   2.462  1.00  0.00    -0.322 OA
HETATM   16  C1  UNL     1      33.461  20.076   2.842  1.00  0.00     0.213 C 
ENDBRANCH  13  15
ENDBRANCH   1  13
TORSDOF 2
ENDMDL
MODEL 4
REMARK VINA RESULT: -5.825962322      1.745      2.430
REMARK  2 active torsions:
REMARK  status: ('A' for Active; 'I' for Inactive)
REMARK    1  A    between atoms: O1_2  and  C2_3 
REMARK    2  A    between atoms: C2_3  and  C3_5 
ROOT
HETATM    1  C3  UNL     1      31.473  15.156  -1.659  1.00  0.00     0.100 A 
HETATM    2  S1  UNL     1      33.022  15.597  -1.096  1.00  0.00    -0.058 SA
HETATM    3  C4  UNL     1      32.582  16.850  -0.031  1.00  0.00     0.118 A 
HETATM    4  C5  UNL     1      31.222  16.896  -0.143  1.00  0.00     0.001 A 
HETATM    5  C6  UNL     1      30.644  16.014  -0.990  1.00  0.00     0.043 A 
HETATM    6 BR1  UNL     1      28.713  15.935  -1.276  1.00  0.00    -0.049 Br
HETATM    7  C7  UNL     1      30.264  17.829   0.580  1.00  0.00     0.043 C 
HETATM    8  C8  UNL     1      30.642  17.935   2.015  1.00  0.00     0.005 C 
HETATM    9  C9  UNL     1      31.446  19.141   2.375  1.00  0.00     0.002 C 
HETATM   10  C10 UNL     1      32.442  19.560   1.340  1.00  0.00     0.027 C 
HETATM   11  C11 UNL     1      33.698  18.733   1.383  1.00  0.00     0.176 C 
HETATM   12  O3  UNL     1      33.586  17.533   0.687  1.00  0.00    -0.343 OA
ENDROOT
BRANCH   1  13
HETATM   13  C2  UNL     1      31.112  14.102  -2.636  1.00  0.00     0.301 C 
HETATM   14  O2  UNL     1      30.500  13.095  -2.213  1.00  0.00    -0.259 OA
BRANCH  13  15
HETATM   15  O1  UNL     1      31.463  14.270  -3.974  1.00  0.00    -0.322 OA
HETATM   16  C1  UNL     1      31.104  15.487  -4.591  1.00  0.00     0.213 C 
ENDBRANCH  13  15
ENDBRANCH   1  13
TORSDOF 2
ENDMDL
MODEL 5
REMARK VINA RESULT: -5.747169799      4.550      6.664
REMARK  2 active torsions:
REMARK  status: ('A' for Active; 'I' for Inactive)
REMARK    1  A    between atoms: O1_2  and  C2_3 
REMARK    2  A    between atoms: C2_3  and  C3_5 
ROOT
HETATM    1  C3  UNL     1      28.112  15.198   2.118  1.00  0.00     0.100 A 
HETATM    2  S1  UNL     1      29.631  15.755   1.579  1.00  0.00    -0.058 SA
HETATM    3  C4  UNL     1      29.319  15.832  -0.093  1.00  0.00     0.118 A 
HETATM    4  C5  UNL     1      28.023  15.416  -0.191  1.00  0.00     0.001 A 
HETATM    5  C6  UNL     1      27.393  15.085   0.960  1.00  0.00     0.043 A 
HETATM    6 BR1  UNL     1      25.540  14.470   1.011  1.00  0.00    -0.049 Br
HETATM    7  C7  UNL     1      27.187  15.277  -1.453  1.00  0.00     0.043 C 
HETATM    8  C8  UNL     1      27.389  16.461  -2.331  1.00  0.00     0.005 C 
HETATM    9  C9  UNL     1      28.366  16.271  -3.444  1.00  0.00     0.002 C 
HETATM   10  C10 UNL     1      29.552  15.427  -3.097  1.00  0.00     0.027 C 
HETATM   11  C11 UNL     1      30.599  16.192  -2.334  1.00  0.00     0.176 C 
HETATM   12  O3  UNL     1      30.339  16.261  -0.969  1.00  0.00    -0.343 OA
ENDROOT
BRANCH   1  13
HETATM   13  C2  UNL     1      27.675  14.906   3.504  1.00  0.00     0.301 C 
HETATM   14  O2  UNL     1      27.490  15.873   4.277  1.00  0.00    -0.259 OA
BRANCH  13  15
HETATM   15  O1  UNL     1      27.488  13.579   3.889  1.00  0.00    -0.322 OA
HETATM   16  C1  UNL     1      26.267  13.252   4.516  1.00  0.00     0.213 C 
ENDBRANCH  13  15
ENDBRANCH   1  13
TORSDOF 2
ENDMDL
