MODEL 1
REMARK VINA RESULT: -4.780881239      0.000      0.000
REMARK  2 active torsions:
REMARK  status: ('A' for Active; 'I' for Inactive)
REMARK    1  A    between atoms: C2_2  and  C3_3 
REMARK    2  A    between atoms: C3_3  and  N1_4 
ROOT
HETATM    1  N1  UNL     1     -25.346 -22.893 -29.325  1.00  0.00     0.116 N 
HETATM    2  C4  UNL     1     -25.538 -24.297 -29.045  1.00  0.00     0.301 C 
HETATM    3  C5  UNL     1     -24.306 -24.667 -28.216  1.00  0.00     0.200 C 
HETATM    4  O1  UNL     1     -23.384 -23.719 -28.717  1.00  0.00    -0.361 OA
HETATM    5  C6  UNL     1     -24.157 -22.563 -28.583  1.00  0.00     0.440 C 
ENDROOT
BRANCH   1   6
HETATM    6  C3  UNL     1     -26.486 -22.096 -28.930  1.00  0.00     0.302 C 
BRANCH   6   7
HETATM    7  C2  UNL     1     -27.551 -22.094 -29.954  1.00  0.00    -0.007 C 
HETATM    8  C1  UNL     1     -27.309 -21.774 -31.210  1.00  0.00     0.008 C 
ENDBRANCH   6   7
ENDBRANCH   1   6
TORSDOF 2
ENDMDL
MODEL 2
REMARK VINA RESULT: -4.713105163      0.950      1.422
REMARK  2 active torsions:
REMARK  status: ('A' for Active; 'I' for Inactive)
REMARK    1  A    between atoms: C2_2  and  C3_3 
REMARK    2  A    between atoms: C3_3  and  N1_4 
ROOT
HETATM    1  N1  UNL     1     -25.331 -22.829 -28.172  1.00  0.00     0.116 N 
HETATM    2  C4  UNL     1     -24.207 -22.399 -28.971  1.00  0.00     0.301 C 
HETATM    3  C5  UNL     1     -23.383 -23.676 -29.145  1.00  0.00     0.200 C 
HETATM    4  O1  UNL     1     -23.746 -24.361 -27.963  1.00  0.00    -0.361 OA
HETATM    5  C6  UNL     1     -25.136 -24.251 -28.059  1.00  0.00     0.440 C 
ENDROOT
BRANCH   1   6
HETATM    6  C3  UNL     1     -26.597 -22.489 -28.782  1.00  0.00     0.302 C 
BRANCH   6   7
HETATM    7  C2  UNL     1     -26.448 -22.075 -30.192  1.00  0.00    -0.007 C 
HETATM    8  C1  UNL     1     -27.491 -21.832 -30.961  1.00  0.00     0.008 C 
ENDBRANCH   6   7
ENDBRANCH   1   6
TORSDOF 2
ENDMDL
MODEL 3
REMARK VINA RESULT: -4.560969170      3.226      4.046
REMARK  2 active torsions:
REMARK  status: ('A' for Active; 'I' for Inactive)
REMARK    1  A    between atoms: C2_2  and  C3_3 
REMARK    2  A    between atoms: C3_3  and  N1_4 
ROOT
HETATM    1  N1  UNL     1     -27.646 -24.115 -30.668  1.00  0.00     0.116 N 
HETATM    2  C4  UNL     1     -26.647 -24.616 -31.584  1.00  0.00     0.301 C 
HETATM    3  C5  UNL     1     -27.453 -25.488 -32.549  1.00  0.00     0.200 C 
HETATM    4  O1  UNL     1     -28.516 -25.872 -31.699  1.00  0.00    -0.361 OA
HETATM    5  C6  UNL     1     -28.882 -24.612 -31.216  1.00  0.00     0.440 C 
ENDROOT
BRANCH   1   6
HETATM    6  C3  UNL     1     -27.623 -22.673 -30.569  1.00  0.00     0.302 C 
BRANCH   6   7
HETATM    7  C2  UNL     1     -27.066 -22.207 -29.283  1.00  0.00    -0.007 C 
HETATM    8  C1  UNL     1     -25.768 -22.063 -29.097  1.00  0.00     0.008 C 
ENDBRANCH   6   7
ENDBRANCH   1   6
TORSDOF 2
ENDMDL
MODEL 4
REMARK VINA RESULT: -4.532190801      2.362      3.468
REMARK  2 active torsions:
REMARK  status: ('A' for Active; 'I' for Inactive)
REMARK    1  A    between atoms: C2_2  and  C3_3 
REMARK    2  A    between atoms: C3_3  and  N1_4 
ROOT
HETATM    1  N1  UNL     1     -27.333 -22.787 -29.772  1.00  0.00     0.116 N 
HETATM    2  C4  UNL     1     -27.187 -24.135 -30.268  1.00  0.00     0.301 C 
HETATM    3  C5  UNL     1     -26.904 -23.939 -31.759  1.00  0.00     0.200 C 
HETATM    4  O1  UNL     1     -27.571 -22.710 -31.972  1.00  0.00    -0.361 OA
HETATM    5  C6  UNL     1     -27.024 -21.973 -30.920  1.00  0.00     0.440 C 
ENDROOT
BRANCH   1   6
HETATM    6  C3  UNL     1     -26.461 -22.519 -28.650  1.00  0.00     0.302 C 
BRANCH   6   7
HETATM    7  C2  UNL     1     -25.109 -22.103 -29.077  1.00  0.00    -0.007 C 
HETATM    8  C1  UNL     1     -24.032 -22.787 -28.745  1.00  0.00     0.008 C 
ENDBRANCH   6   7
ENDBRANCH   1   6
TORSDOF 2
ENDMDL
MODEL 5
REMARK VINA RESULT: -4.517322028      2.086      3.440
REMARK  2 active torsions:
REMARK  status: ('A' for Active; 'I' for Inactive)
REMARK    1  A    between atoms: C2_2  and  C3_3 
REMARK    2  A    between atoms: C3_3  and  N1_4 
ROOT
HETATM    1  N1  UNL     1     -26.402 -23.103 -30.369  1.00  0.00     0.116 N 
HETATM    2  C4  UNL     1     -27.522 -22.919 -31.263  1.00  0.00     0.301 C 
HETATM    3  C5  UNL     1     -28.212 -24.285 -31.259  1.00  0.00     0.200 C 
HETATM    4  O1  UNL     1     -27.102 -25.115 -30.977  1.00  0.00    -0.361 OA
HETATM    5  C6  UNL     1     -26.594 -24.439 -29.865  1.00  0.00     0.440 C 
ENDROOT
BRANCH   1   6
HETATM    6  C3  UNL     1     -26.372 -22.112 -29.318  1.00  0.00     0.302 C 
BRANCH   6   7
HETATM    7  C2  UNL     1     -25.233 -22.304 -28.397  1.00  0.00    -0.007 C 
HETATM    8  C1  UNL     1     -23.986 -22.314 -28.825  1.00  0.00     0.008 C 
ENDBRANCH   6   7
ENDBRANCH   1   6
TORSDOF 2
ENDMDL
