MODEL 1
REMARK VINA RESULT: -4.482906495      0.000      0.000
REMARK  2 active torsions:
REMARK  status: ('A' for Active; 'I' for Inactive)
REMARK       I    between atoms: N1_2  and  C2_4 
REMARK    1  A    between atoms: C2_4  and  C3_6 
REMARK    2  A    between atoms: N2_10  and  O2_11 
ROOT
HETATM    1  C3  UNL     1       4.662  16.947  38.242  1.00  0.00     0.127 C 
HETATM    2  C4  UNL     1       4.389  18.432  38.306  1.00  0.00     0.046 C 
HETATM    3  C5  UNL     1       4.544  19.113  36.984  1.00  0.00     0.035 C 
HETATM    4  C6  UNL     1       3.061  18.788  38.955  1.00  0.00     0.035 C 
HETATM    5  N2  UNL     1       5.456  18.592  39.245  1.00  0.00    -0.180 NA
HETATM    6  C7  UNL     1       6.017  17.335  38.739  1.00  0.00     0.046 C 
HETATM    7  C8  UNL     1       6.995  17.504  37.625  1.00  0.00     0.035 C 
HETATM    8  C9  UNL     1       6.578  16.536  39.875  1.00  0.00     0.035 C 
ENDROOT
BRANCH   1   9
HETATM    9  C2  UNL     1       3.836  16.108  39.094  1.00  0.00     0.229 C 
HETATM   10  N1  UNL     1       2.635  15.489  38.656  1.00  0.00    -0.346 N 
HETATM   11  C1  UNL     1       1.637  15.300  39.418  1.00  0.00     0.121 C 
ATOM     12  H1  UNL     1       2.571  15.182  37.684  1.00  0.00     0.167 HD
HETATM   13  O1  UNL     1       4.176  15.902  40.287  1.00  0.00    -0.273 OA
ENDBRANCH   1   9
BRANCH   5  14
HETATM   14  O2  UNL     1       6.279  19.642  39.017  1.00  0.00    -0.311 OA
ATOM     15  H2  UNL     1       5.848  20.471  38.850  1.00  0.00     0.237 HD
ENDBRANCH   5  14
TORSDOF 2
ENDMDL
MODEL 2
REMARK VINA RESULT: -4.085901946      1.389      1.424
REMARK  2 active torsions:
REMARK  status: ('A' for Active; 'I' for Inactive)
REMARK       I    between atoms: N1_2  and  C2_4 
REMARK    1  A    between atoms: C2_4  and  C3_6 
REMARK    2  A    between atoms: N2_10  and  O2_11 
ROOT
HETATM    1  C3  UNL     1       5.490  16.613  38.340  1.00  0.00     0.127 C 
HETATM    2  C4  UNL     1       4.663  17.871  38.215  1.00  0.00     0.046 C 
HETATM    3  C5  UNL     1       4.494  18.323  36.799  1.00  0.00     0.035 C 
HETATM    4  C6  UNL     1       3.324  17.803  38.932  1.00  0.00     0.035 C 
HETATM    5  N2  UNL     1       5.615  18.581  39.011  1.00  0.00    -0.180 NA
HETATM    6  C7  UNL     1       6.603  17.564  38.640  1.00  0.00     0.046 C 
HETATM    7  C8  UNL     1       7.399  17.896  37.423  1.00  0.00     0.035 C 
HETATM    8  C9  UNL     1       7.470  17.244  39.819  1.00  0.00     0.035 C 
ENDROOT
BRANCH   1   9
HETATM    9  C2  UNL     1       5.086  15.683  39.382  1.00  0.00     0.229 C 
HETATM   10  N1  UNL     1       5.156  14.271  39.241  1.00  0.00    -0.346 N 
HETATM   11  C1  UNL     1       4.320  13.481  39.779  1.00  0.00     0.121 C 
ATOM     12  H1  UNL     1       5.912  13.874  38.682  1.00  0.00     0.167 HD
HETATM   13  O1  UNL     1       4.647  16.121  40.476  1.00  0.00    -0.273 OA
ENDBRANCH   1   9
BRANCH   5  14
HETATM   14  O2  UNL     1       5.956  19.809  38.555  1.00  0.00    -0.311 OA
ATOM     15  H2  UNL     1       5.452  20.532  38.910  1.00  0.00     0.237 HD
ENDBRANCH   5  14
TORSDOF 2
ENDMDL
MODEL 3
REMARK VINA RESULT: -3.504515900      1.819      2.914
REMARK  2 active torsions:
REMARK  status: ('A' for Active; 'I' for Inactive)
REMARK       I    between atoms: N1_2  and  C2_4 
REMARK    1  A    between atoms: C2_4  and  C3_6 
REMARK    2  A    between atoms: N2_10  and  O2_11 
ROOT
HETATM    1  C3  UNL     1       4.635  17.241  39.768  1.00  0.00     0.127 C 
HETATM    2  C4  UNL     1       5.588  17.804  38.739  1.00  0.00     0.046 C 
HETATM    3  C5  UNL     1       5.940  19.236  38.989  1.00  0.00     0.035 C 
HETATM    4  C6  UNL     1       6.835  16.962  38.526  1.00  0.00     0.035 C 
HETATM    5  N2  UNL     1       4.633  17.545  37.706  1.00  0.00    -0.180 NA
HETATM    6  C7  UNL     1       3.594  17.549  38.740  1.00  0.00     0.046 C 
HETATM    7  C8  UNL     1       2.960  18.880  38.967  1.00  0.00     0.035 C 
HETATM    8  C9  UNL     1       2.587  16.479  38.453  1.00  0.00     0.035 C 
ENDROOT
BRANCH   1   9
HETATM    9  C2  UNL     1       4.841  15.850  40.135  1.00  0.00     0.229 C 
HETATM   10  N1  UNL     1       5.285  14.857  39.220  1.00  0.00    -0.346 N 
HETATM   11  C1  UNL     1       4.912  13.644  39.283  1.00  0.00     0.121 C 
ATOM     12  H1  UNL     1       5.932  15.130  38.480  1.00  0.00     0.167 HD
HETATM   13  O1  UNL     1       4.624  15.475  41.315  1.00  0.00    -0.273 OA
ENDBRANCH   1   9
BRANCH   5  14
HETATM   14  O2  UNL     1       4.460  18.543  36.809  1.00  0.00    -0.311 OA
ATOM     15  H2  UNL     1       4.002  18.302  36.012  1.00  0.00     0.237 HD
ENDBRANCH   5  14
TORSDOF 2
ENDMDL
MODEL 4
REMARK VINA RESULT: -3.482067682      7.211      8.929
REMARK  2 active torsions:
REMARK  status: ('A' for Active; 'I' for Inactive)
REMARK       I    between atoms: N1_2  and  C2_4 
REMARK    1  A    between atoms: C2_4  and  C3_6 
REMARK    2  A    between atoms: N2_10  and  O2_11 
ROOT
HETATM    1  C3  UNL     1       6.739  12.294  44.198  1.00  0.00     0.127 C 
HETATM    2  C4  UNL     1       6.126  11.239  45.088  1.00  0.00     0.046 C 
HETATM    3  C5  UNL     1       5.497  11.807  46.321  1.00  0.00     0.035 C 
HETATM    4  C6  UNL     1       5.170  10.302  44.367  1.00  0.00     0.035 C 
HETATM    5  N2  UNL     1       7.405  10.618  45.242  1.00  0.00    -0.180 NA
HETATM    6  C7  UNL     1       8.011  11.902  44.878  1.00  0.00     0.046 C 
HETATM    7  C8  UNL     1       8.320  12.786  46.039  1.00  0.00     0.035 C 
HETATM    8  C9  UNL     1       9.205  11.671  44.004  1.00  0.00     0.035 C 
ENDROOT
BRANCH   1   9
HETATM    9  C2  UNL     1       6.631  12.064  42.767  1.00  0.00     0.229 C 
HETATM   10  N1  UNL     1       7.384  11.077  42.074  1.00  0.00    -0.346 N 
HETATM   11  C1  UNL     1       7.786  11.228  40.879  1.00  0.00     0.121 C 
ATOM     12  H1  UNL     1       7.612  10.209  42.559  1.00  0.00     0.167 HD
HETATM   13  O1  UNL     1       5.841  12.758  42.079  1.00  0.00    -0.273 OA
ENDBRANCH   1   9
BRANCH   5  14
HETATM   14  O2  UNL     1       7.724  10.246  46.503  1.00  0.00    -0.311 OA
ATOM     15  H2  UNL     1       8.211  10.887  47.008  1.00  0.00     0.237 HD
ENDBRANCH   5  14
TORSDOF 2
ENDMDL
MODEL 5
REMARK VINA RESULT: -3.476314955      2.203      4.873
REMARK  2 active torsions:
REMARK  status: ('A' for Active; 'I' for Inactive)
REMARK       I    between atoms: N1_2  and  C2_4 
REMARK    1  A    between atoms: C2_4  and  C3_6 
REMARK    2  A    between atoms: N2_10  and  O2_11 
ROOT
HETATM    1  C3  UNL     1       3.892  14.815  39.138  1.00  0.00     0.127 C 
HETATM    2  C4  UNL     1       3.478  13.950  40.305  1.00  0.00     0.046 C 
HETATM    3  C5  UNL     1       2.853  12.658  39.883  1.00  0.00     0.035 C 
HETATM    4  C6  UNL     1       4.582  13.718  41.324  1.00  0.00     0.035 C 
HETATM    5  N2  UNL     1       2.594  14.978  40.760  1.00  0.00    -0.180 NA
HETATM    6  C7  UNL     1       2.590  15.505  39.391  1.00  0.00     0.046 C 
HETATM    7  C8  UNL     1       1.496  14.968  38.530  1.00  0.00     0.035 C 
HETATM    8  C9  UNL     1       2.610  17.002  39.423  1.00  0.00     0.035 C 
ENDROOT
BRANCH   1   9
HETATM    9  C2  UNL     1       5.115  15.581  39.312  1.00  0.00     0.229 C 
HETATM   10  N1  UNL     1       5.387  16.791  38.618  1.00  0.00    -0.346 N 
HETATM   11  C1  UNL     1       6.556  17.136  38.263  1.00  0.00     0.121 C 
ATOM     12  H1  UNL     1       4.607  17.410  38.394  1.00  0.00     0.167 HD
HETATM   13  O1  UNL     1       5.998  15.178  40.112  1.00  0.00    -0.273 OA
ENDBRANCH   1   9
BRANCH   5  14
HETATM   14  O2  UNL     1       1.365  14.561  41.146  1.00  0.00    -0.311 OA
ATOM     15  H2  UNL     1       1.354  13.849  41.775  1.00  0.00     0.237 HD
ENDBRANCH   5  14
TORSDOF 2
ENDMDL
