MODEL 1
REMARK VINA RESULT: -5.694240168      0.000      0.000
REMARK  4 active torsions:
REMARK  status: ('A' for Active; 'I' for Inactive)
REMARK       I    between atoms: C2_2  and  N1_4 
REMARK    1  A    between atoms: N1_4  and  C3_5 
REMARK       I    between atoms: N1_4  and  C5_9 
REMARK    2  A    between atoms: C3_5  and  C4_6 
REMARK    3  A    between atoms: C4_6  and  O2_7 
REMARK    4  A    between atoms: C5_9  and  C6_11 
ROOT
HETATM    1  C1  UNL     1      80.242  70.375 -11.176  1.00  0.00     0.117 C 
HETATM    2  C2  UNL     1      80.952  71.037 -10.066  1.00  0.00     0.222 C 
HETATM    3  O1  UNL     1      80.197  71.594  -9.194  1.00  0.00    -0.273 OA
HETATM    4  N1  UNL     1      82.353  71.100  -9.896  1.00  0.00    -0.286 N 
HETATM    5  C5  UNL     1      83.217  70.525 -10.846  1.00  0.00     0.232 C 
HETATM    6  O3  UNL     1      82.720  69.911 -11.816  1.00  0.00    -0.272 OA
ENDROOT
BRANCH   5   7
HETATM    7  C6  UNL     1      84.689  70.578 -10.810  1.00  0.00     0.095 A 
HETATM    8  C7  UNL     1      85.386  71.629 -11.691  1.00  0.00    -0.027 A 
HETATM    9  C8  UNL     1      86.535  72.415 -11.100  1.00  0.00     0.016 C 
HETATM   10  C9  UNL     1      84.567  72.375 -12.681  1.00  0.00     0.016 C 
HETATM   11  C10 UNL     1      85.595  70.115 -11.840  1.00  0.00    -0.027 A 
HETATM   12  C11 UNL     1      85.240  69.583 -13.177  1.00  0.00     0.016 C 
HETATM   13  C12 UNL     1      86.962  69.601 -11.335  1.00  0.00     0.016 C 
ENDBRANCH   5   7
BRANCH   4  14
HETATM   14  C3  UNL     1      82.851  71.806  -8.722  1.00  0.00     0.161 C 
BRANCH  14  15
HETATM   15  C4  UNL     1      82.733  70.981  -7.477  1.00  0.00     0.184 C 
BRANCH  15  16
HETATM   16  O2  UNL     1      81.708  71.427  -6.660  1.00  0.00    -0.399 OA
ATOM     17  H2  UNL     1      81.552  70.833  -5.934  1.00  0.00     0.209 HD
ENDBRANCH  15  16
ENDBRANCH  14  15
ENDBRANCH   4  14
TORSDOF 4
ENDMDL
MODEL 2
REMARK VINA RESULT: -5.199416259      1.508      3.206
REMARK  4 active torsions:
REMARK  status: ('A' for Active; 'I' for Inactive)
REMARK       I    between atoms: C2_2  and  N1_4 
REMARK    1  A    between atoms: N1_4  and  C3_5 
REMARK       I    between atoms: N1_4  and  C5_9 
REMARK    2  A    between atoms: C3_5  and  C4_6 
REMARK    3  A    between atoms: C4_6  and  O2_7 
REMARK    4  A    between atoms: C5_9  and  C6_11 
ROOT
HETATM    1  C1  UNL     1      82.701  71.707  -7.398  1.00  0.00     0.117 C 
HETATM    2  C2  UNL     1      82.000  71.006  -8.491  1.00  0.00     0.222 C 
HETATM    3  O1  UNL     1      80.893  70.455  -8.160  1.00  0.00    -0.273 OA
HETATM    4  N1  UNL     1      82.442  70.903  -9.829  1.00  0.00    -0.286 N 
HETATM    5  C5  UNL     1      83.666  71.470 -10.226  1.00  0.00     0.232 C 
HETATM    6  O3  UNL     1      84.330  72.115  -9.384  1.00  0.00    -0.272 OA
ENDROOT
BRANCH   5   7
HETATM    7  C6  UNL     1      84.259  71.377 -11.572  1.00  0.00     0.095 A 
HETATM    8  C7  UNL     1      85.358  70.325 -11.795  1.00  0.00    -0.027 A 
HETATM    9  C8  UNL     1      85.315  69.497 -13.060  1.00  0.00     0.016 C 
HETATM   10  C9  UNL     1      85.911  69.619 -10.609  1.00  0.00     0.016 C 
HETATM   11  C10 UNL     1      85.573  71.835 -11.970  1.00  0.00    -0.027 A 
HETATM   12  C11 UNL     1      86.630  72.401 -11.099  1.00  0.00     0.016 C 
HETATM   13  C12 UNL     1      85.694  72.302 -13.438  1.00  0.00     0.016 C 
ENDBRANCH   5   7
BRANCH   4  14
HETATM   14  C3  UNL     1      81.593  70.163 -10.755  1.00  0.00     0.161 C 
BRANCH  14  15
HETATM   15  C4  UNL     1      80.198  70.708 -10.798  1.00  0.00     0.184 C 
BRANCH  15  16
HETATM   16  O2  UNL     1      79.534  70.331 -11.954  1.00  0.00    -0.399 OA
ATOM     17  H2  UNL     1      78.812  70.915 -12.151  1.00  0.00     0.209 HD
ENDBRANCH  15  16
ENDBRANCH  14  15
ENDBRANCH   4  14
TORSDOF 4
ENDMDL
MODEL 3
REMARK VINA RESULT: -5.050435858      6.072      8.392
REMARK  4 active torsions:
REMARK  status: ('A' for Active; 'I' for Inactive)
REMARK       I    between atoms: C2_2  and  N1_4 
REMARK    1  A    between atoms: N1_4  and  C3_5 
REMARK       I    between atoms: N1_4  and  C5_9 
REMARK    2  A    between atoms: C3_5  and  C4_6 
REMARK    3  A    between atoms: C4_6  and  O2_7 
REMARK    4  A    between atoms: C5_9  and  C6_11 
ROOT
HETATM    1  C1  UNL     1      78.018  65.635 -14.260  1.00  0.00     0.117 C 
HETATM    2  C2  UNL     1      78.958  66.390 -13.411  1.00  0.00     0.222 C 
HETATM    3  O1  UNL     1      79.698  67.230 -14.032  1.00  0.00    -0.273 OA
HETATM    4  N1  UNL     1      79.100  66.260 -12.011  1.00  0.00    -0.286 N 
HETATM    5  C5  UNL     1      78.327  65.328 -11.295  1.00  0.00     0.232 C 
HETATM    6  O3  UNL     1      77.474  64.654 -11.914  1.00  0.00    -0.272 OA
ENDROOT
BRANCH   5   7
HETATM    7  C6  UNL     1      78.427  65.060  -9.849  1.00  0.00     0.095 A 
HETATM    8  C7  UNL     1      79.365  63.928  -9.397  1.00  0.00    -0.027 A 
HETATM    9  C8  UNL     1      80.259  64.168  -8.201  1.00  0.00     0.016 C 
HETATM   10  C9  UNL     1      79.944  63.034 -10.435  1.00  0.00     0.016 C 
HETATM   11  C10 UNL     1      77.852  63.938  -9.137  1.00  0.00    -0.027 A 
HETATM   12  C11 UNL     1      77.130  62.780  -9.716  1.00  0.00     0.016 C 
HETATM   13  C12 UNL     1      77.453  64.220  -7.672  1.00  0.00     0.016 C 
ENDBRANCH   5   7
BRANCH   4  14
HETATM   14  C3  UNL     1      80.094  67.106 -11.361  1.00  0.00     0.161 C 
BRANCH  14  15
HETATM   15  C4  UNL     1      79.501  68.387 -10.859  1.00  0.00     0.184 C 
BRANCH  15  16
HETATM   16  O2  UNL     1      79.346  69.314 -11.876  1.00  0.00    -0.399 OA
ATOM     17  H2  UNL     1      79.543  70.196 -11.582  1.00  0.00     0.209 HD
ENDBRANCH  15  16
ENDBRANCH  14  15
ENDBRANCH   4  14
TORSDOF 4
ENDMDL
MODEL 4
REMARK VINA RESULT: -4.995599382      1.188      1.820
REMARK  4 active torsions:
REMARK  status: ('A' for Active; 'I' for Inactive)
REMARK       I    between atoms: C2_2  and  N1_4 
REMARK    1  A    between atoms: N1_4  and  C3_5 
REMARK       I    between atoms: N1_4  and  C5_9 
REMARK    2  A    between atoms: C3_5  and  C4_6 
REMARK    3  A    between atoms: C4_6  and  O2_7 
REMARK    4  A    between atoms: C5_9  and  C6_11 
ROOT
HETATM    1  C1  UNL     1      80.722  69.201 -10.822  1.00  0.00     0.117 C 
HETATM    2  C2  UNL     1      81.122  70.288  -9.909  1.00  0.00     0.222 C 
HETATM    3  O1  UNL     1      80.337  70.480  -8.916  1.00  0.00    -0.273 OA
HETATM    4  N1  UNL     1      82.267  71.105 -10.042  1.00  0.00    -0.286 N 
HETATM    5  C5  UNL     1      83.139  70.945 -11.134  1.00  0.00     0.232 C 
HETATM    6  O3  UNL     1      82.910  70.031 -11.956  1.00  0.00    -0.272 OA
ENDROOT
BRANCH   5   7
HETATM    7  C6  UNL     1      84.326  71.772 -11.412  1.00  0.00     0.095 A 
HETATM    8  C7  UNL     1      85.305  71.275 -12.489  1.00  0.00    -0.027 A 
HETATM    9  C8  UNL     1      85.852  72.275 -13.482  1.00  0.00     0.016 C 
HETATM   10  C9  UNL     1      85.123  69.901 -13.028  1.00  0.00     0.016 C 
HETATM   11  C10 UNL     1      85.690  71.487 -11.018  1.00  0.00    -0.027 A 
HETATM   12  C11 UNL     1      86.193  70.268 -10.341  1.00  0.00     0.016 C 
HETATM   13  C12 UNL     1      86.575  72.725 -10.757  1.00  0.00     0.016 C 
ENDBRANCH   5   7
BRANCH   4  14
HETATM   14  C3  UNL     1      82.479  72.126  -9.023  1.00  0.00     0.161 C 
BRANCH  14  15
HETATM   15  C4  UNL     1      83.301  71.617  -7.879  1.00  0.00     0.184 C 
BRANCH  15  16
HETATM   16  O2  UNL     1      84.549  72.216  -7.835  1.00  0.00    -0.399 OA
ATOM     17  H2  UNL     1      85.060  71.913  -7.094  1.00  0.00     0.209 HD
ENDBRANCH  15  16
ENDBRANCH  14  15
ENDBRANCH   4  14
TORSDOF 4
ENDMDL
MODEL 5
REMARK VINA RESULT: -4.810147567      7.759      9.556
REMARK  4 active torsions:
REMARK  status: ('A' for Active; 'I' for Inactive)
REMARK       I    between atoms: C2_2  and  N1_4 
REMARK    1  A    between atoms: N1_4  and  C3_5 
REMARK       I    between atoms: N1_4  and  C5_9 
REMARK    2  A    between atoms: C3_5  and  C4_6 
REMARK    3  A    between atoms: C4_6  and  O2_7 
REMARK    4  A    between atoms: C5_9  and  C6_11 
ROOT
HETATM    1  C1  UNL     1      82.144  62.852  -6.802  1.00  0.00     0.117 C 
HETATM    2  C2  UNL     1      80.730  62.537  -6.523  1.00  0.00     0.222 C 
HETATM    3  O1  UNL     1      80.536  61.707  -5.568  1.00  0.00    -0.273 OA
HETATM    4  N1  UNL     1      79.612  63.066  -7.206  1.00  0.00    -0.286 N 
HETATM    5  C5  UNL     1      79.783  63.959  -8.279  1.00  0.00     0.232 C 
HETATM    6  O3  UNL     1      80.942  64.317  -8.582  1.00  0.00    -0.272 OA
ENDROOT
BRANCH   5   7
HETATM    7  C6  UNL     1      78.701  64.527  -9.103  1.00  0.00     0.095 A 
HETATM    8  C7  UNL     1      78.190  63.688 -10.286  1.00  0.00    -0.027 A 
HETATM    9  C8  UNL     1      76.698  63.602 -10.516  1.00  0.00     0.016 C 
HETATM   10  C9  UNL     1      78.949  62.467 -10.665  1.00  0.00     0.016 C 
HETATM   11  C10 UNL     1      78.829  65.076 -10.437  1.00  0.00    -0.027 A 
HETATM   12  C11 UNL     1      80.043  65.095 -11.288  1.00  0.00     0.016 C 
HETATM   13  C12 UNL     1      77.836  66.207 -10.784  1.00  0.00     0.016 C 
ENDBRANCH   5   7
BRANCH   4  14
HETATM   14  C3  UNL     1      78.293  62.622  -6.769  1.00  0.00     0.161 C 
BRANCH  14  15
HETATM   15  C4  UNL     1      77.670  63.579  -5.800  1.00  0.00     0.184 C 
BRANCH  15  16
HETATM   16  O2  UNL     1      77.817  63.154  -4.490  1.00  0.00    -0.399 OA
ATOM     17  H2  UNL     1      77.006  62.803  -4.141  1.00  0.00     0.209 HD
ENDBRANCH  15  16
ENDBRANCH  14  15
ENDBRANCH   4  14
TORSDOF 4
ENDMDL
