MODEL 1
REMARK VINA RESULT: -7.104334431      0.000      0.000
REMARK  2 active torsions:
REMARK  status: ('A' for Active; 'I' for Inactive)
REMARK    1  A    between atoms: C2_2  and  C3_3 
REMARK    2  A    between atoms: N1_7  and  C6_8 
ROOT
HETATM    1  C3  UNL     1      -8.236  22.247  31.308  1.00  0.00     0.049 C 
HETATM    2  C4  UNL     1      -8.105  23.462  30.415  1.00  0.00     0.094 C 
HETATM    3  C5  UNL     1      -7.587  24.666  31.172  1.00  0.00     0.233 C 
HETATM    4  O1  UNL     1      -8.279  25.711  31.079  1.00  0.00    -0.272 OA
HETATM    5  N1  UNL     1      -6.397  24.727  31.974  1.00  0.00    -0.266 N 
HETATM    6  C9  UNL     1      -5.579  23.581  32.293  1.00  0.00     0.328 C 
HETATM    7  O2  UNL     1      -4.532  23.779  32.958  1.00  0.00    -0.247 OA
HETATM    8  N2  UNL     1      -5.832  22.201  31.924  1.00  0.00    -0.328 N 
HETATM    9  C10 UNL     1      -5.041  21.171  32.502  1.00  0.00     0.155 C 
HETATM   10  C11 UNL     1      -6.864  21.765  30.980  1.00  0.00     0.044 C 
HETATM   11  C12 UNL     1      -6.711  20.368  30.503  1.00  0.00     0.039 C 
HETATM   12  C13 UNL     1      -6.931  22.718  29.776  1.00  0.00     0.024 C 
HETATM   13  C14 UNL     1      -7.273  22.006  28.498  1.00  0.00     0.013 C 
ENDROOT
BRANCH   5  14
HETATM   14  C6  UNL     1      -5.978  26.010  32.506  1.00  0.00     0.089 C 
HETATM   15  C7  UNL     1      -6.918  26.360  33.668  1.00  0.00     0.032 C 
HETATM   16  C8  UNL     1      -5.995  27.101  31.488  1.00  0.00     0.032 C 
ENDBRANCH   5  14
BRANCH   1  17
HETATM   17  C2  UNL     1      -8.586  22.481  32.701  1.00  0.00    -0.029 C 
HETATM   18  C1  UNL     1      -8.694  21.482  33.550  1.00  0.00     0.007 C 
ENDBRANCH   1  17
TORSDOF 2
ENDMDL
MODEL 2
REMARK VINA RESULT: -6.440419549      3.230      5.309
REMARK  2 active torsions:
REMARK  status: ('A' for Active; 'I' for Inactive)
REMARK    1  A    between atoms: C2_2  and  C3_3 
REMARK    2  A    between atoms: N1_7  and  C6_8 
ROOT
HETATM    1  C3  UNL     1      -6.751  26.071  31.729  1.00  0.00     0.049 C 
HETATM    2  C4  UNL     1      -6.568  27.484  31.218  1.00  0.00     0.094 C 
HETATM    3  C5  UNL     1      -7.890  28.145  30.895  1.00  0.00     0.233 C 
HETATM    4  O1  UNL     1      -7.991  28.634  29.741  1.00  0.00    -0.272 OA
HETATM    5  N1  UNL     1      -9.025  28.264  31.767  1.00  0.00    -0.266 N 
HETATM    6  C9  UNL     1      -9.117  27.633  33.063  1.00  0.00     0.328 C 
HETATM    7  O2  UNL     1     -10.142  27.862  33.751  1.00  0.00    -0.247 OA
HETATM    8  N2  UNL     1      -8.141  26.749  33.671  1.00  0.00    -0.328 N 
HETATM    9  C10 UNL     1      -8.486  26.045  34.857  1.00  0.00     0.155 C 
HETATM   10  C11 UNL     1      -6.792  26.511  33.153  1.00  0.00     0.044 C 
HETATM   11  C12 UNL     1      -5.872  25.852  34.112  1.00  0.00     0.039 C 
HETATM   12  C13 UNL     1      -6.167  27.824  32.655  1.00  0.00     0.024 C 
HETATM   13  C14 UNL     1      -4.682  27.878  32.886  1.00  0.00     0.013 C 
ENDROOT
BRANCH   5  14
HETATM   14  C6  UNL     1     -10.157  29.062  31.337  1.00  0.00     0.089 C 
HETATM   15  C7  UNL     1     -10.405  30.132  32.410  1.00  0.00     0.032 C 
HETATM   16  C8  UNL     1     -11.395  28.256  31.124  1.00  0.00     0.032 C 
ENDBRANCH   5  14
BRANCH   1  17
HETATM   17  C2  UNL     1      -7.873  25.313  31.195  1.00  0.00    -0.029 C 
HETATM   18  C1  UNL     1      -7.692  24.129  30.651  1.00  0.00     0.007 C 
ENDBRANCH   1  17
TORSDOF 2
ENDMDL
MODEL 3
REMARK VINA RESULT: -6.111151455      1.926      4.867
REMARK  2 active torsions:
REMARK  status: ('A' for Active; 'I' for Inactive)
REMARK    1  A    between atoms: C2_2  and  C3_3 
REMARK    2  A    between atoms: N1_7  and  C6_8 
ROOT
HETATM    1  C3  UNL     1      -5.942  26.376  31.899  1.00  0.00     0.049 C 
HETATM    2  C4  UNL     1      -6.803  25.965  30.724  1.00  0.00     0.094 C 
HETATM    3  C5  UNL     1      -7.211  24.510  30.805  1.00  0.00     0.233 C 
HETATM    4  O1  UNL     1      -6.959  23.813  29.789  1.00  0.00    -0.272 OA
HETATM    5  N1  UNL     1      -7.850  23.859  31.914  1.00  0.00    -0.266 N 
HETATM    6  C9  UNL     1      -8.074  24.483  33.196  1.00  0.00     0.328 C 
HETATM    7  O2  UNL     1      -8.694  23.823  34.066  1.00  0.00    -0.247 OA
HETATM    8  N2  UNL     1      -7.658  25.813  33.601  1.00  0.00    -0.328 N 
HETATM    9  C10 UNL     1      -7.770  26.189  34.968  1.00  0.00     0.155 C 
HETATM   10  C11 UNL     1      -7.116  26.830  32.698  1.00  0.00     0.044 C 
HETATM   11  C12 UNL     1      -7.087  28.202  33.262  1.00  0.00     0.039 C 
HETATM   12  C13 UNL     1      -7.885  26.834  31.367  1.00  0.00     0.024 C 
HETATM   13  C14 UNL     1      -8.005  28.211  30.776  1.00  0.00     0.013 C 
ENDROOT
BRANCH   5  14
HETATM   14  C6  UNL     1      -8.302  22.490  31.755  1.00  0.00     0.089 C 
HETATM   15  C7  UNL     1      -7.068  21.580  31.844  1.00  0.00     0.032 C 
HETATM   16  C8  UNL     1      -9.019  22.255  30.467  1.00  0.00     0.032 C 
ENDBRANCH   5  14
BRANCH   1  17
HETATM   17  C2  UNL     1      -5.058  25.365  32.460  1.00  0.00    -0.029 C 
HETATM   18  C1  UNL     1      -4.026  25.704  33.202  1.00  0.00     0.007 C 
ENDBRANCH   1  17
TORSDOF 2
ENDMDL
MODEL 4
REMARK VINA RESULT: -6.004402486      1.657      4.974
REMARK  2 active torsions:
REMARK  status: ('A' for Active; 'I' for Inactive)
REMARK    1  A    between atoms: C2_2  and  C3_3 
REMARK    2  A    between atoms: N1_7  and  C6_8 
ROOT
HETATM    1  C3  UNL     1      -6.267  25.781  33.756  1.00  0.00     0.049 C 
HETATM    2  C4  UNL     1      -5.399  24.594  33.397  1.00  0.00     0.094 C 
HETATM    3  C5  UNL     1      -6.068  23.692  32.382  1.00  0.00     0.233 C 
HETATM    4  O1  UNL     1      -6.145  22.477  32.696  1.00  0.00    -0.272 OA
HETATM    5  N1  UNL     1      -6.615  24.085  31.114  1.00  0.00    -0.266 N 
HETATM    6  C9  UNL     1      -6.730  25.456  30.675  1.00  0.00     0.328 C 
HETATM    7  O2  UNL     1      -7.176  25.662  29.519  1.00  0.00    -0.247 OA
HETATM    8  N2  UNL     1      -6.384  26.644  31.432  1.00  0.00    -0.328 N 
HETATM    9  C10 UNL     1      -6.762  27.920  30.933  1.00  0.00     0.155 C 
HETATM   10  C11 UNL     1      -5.656  26.642  32.703  1.00  0.00     0.044 C 
HETATM   11  C12 UNL     1      -5.121  27.965  33.109  1.00  0.00     0.039 C 
HETATM   12  C13 UNL     1      -4.517  25.611  32.670  1.00  0.00     0.024 C 
HETATM   13  C14 UNL     1      -3.315  26.057  33.455  1.00  0.00     0.013 C 
ENDROOT
BRANCH   5  14
HETATM   14  C6  UNL     1      -7.085  23.057  30.206  1.00  0.00     0.089 C 
HETATM   15  C7  UNL     1      -8.472  22.609  30.691  1.00  0.00     0.032 C 
HETATM   16  C8  UNL     1      -6.168  21.882  30.124  1.00  0.00     0.032 C 
ENDBRANCH   5  14
BRANCH   1  17
HETATM   17  C2  UNL     1      -7.708  25.577  33.749  1.00  0.00    -0.029 C 
HETATM   18  C1  UNL     1      -8.517  26.434  34.332  1.00  0.00     0.007 C 
ENDBRANCH   1  17
TORSDOF 2
ENDMDL
MODEL 5
REMARK VINA RESULT: -5.656942001      1.708      4.856
REMARK  2 active torsions:
REMARK  status: ('A' for Active; 'I' for Inactive)
REMARK    1  A    between atoms: C2_2  and  C3_3 
REMARK    2  A    between atoms: N1_7  and  C6_8 
ROOT
HETATM    1  C3  UNL     1      -7.834  26.423  32.303  1.00  0.00     0.049 C 
HETATM    2  C4  UNL     1      -8.340  25.046  32.677  1.00  0.00     0.094 C 
HETATM    3  C5  UNL     1      -7.486  23.949  32.080  1.00  0.00     0.233 C 
HETATM    4  O1  UNL     1      -8.101  23.076  31.416  1.00  0.00    -0.272 OA
HETATM    5  N1  UNL     1      -6.062  23.810  32.199  1.00  0.00    -0.266 N 
HETATM    6  C9  UNL     1      -5.202  24.799  32.805  1.00  0.00     0.328 C 
HETATM    7  O2  UNL     1      -3.978  24.531  32.896  1.00  0.00    -0.247 OA
HETATM    8  N2  UNL     1      -5.599  26.092  33.331  1.00  0.00    -0.328 N 
HETATM    9  C10 UNL     1      -4.596  27.031  33.695  1.00  0.00     0.155 C 
HETATM   10  C11 UNL     1      -6.984  26.526  33.524  1.00  0.00     0.044 C 
HETATM   11  C12 UNL     1      -7.141  27.726  34.382  1.00  0.00     0.039 C 
HETATM   12  C13 UNL     1      -7.836  25.375  34.084  1.00  0.00     0.024 C 
HETATM   13  C14 UNL     1      -8.904  25.856  35.026  1.00  0.00     0.013 C 
ENDROOT
BRANCH   5  14
HETATM   14  C6  UNL     1      -5.430  22.610  31.684  1.00  0.00     0.089 C 
HETATM   15  C7  UNL     1      -5.968  22.376  30.264  1.00  0.00     0.032 C 
HETATM   16  C8  UNL     1      -5.680  21.406  32.530  1.00  0.00     0.032 C 
ENDBRANCH   5  14
BRANCH   1  17
HETATM   17  C2  UNL     1      -7.208  26.567  30.996  1.00  0.00    -0.029 C 
HETATM   18  C1  UNL     1      -6.919  27.755  30.512  1.00  0.00     0.007 C 
ENDBRANCH   1  17
TORSDOF 2
ENDMDL
