MODEL 1
REMARK VINA RESULT: -6.933638059      0.000      0.000
REMARK  2 active torsions:
REMARK  status: ('A' for Active; 'I' for Inactive)
REMARK    1  A    between atoms: C4_4  and  C5_5 
REMARK       I    between atoms: N1_7  and  C7_8 
REMARK    2  A    between atoms: C7_8  and  C8_10 
ROOT
HETATM    1  C5  UNL     1      -7.614  26.046  32.043  1.00  0.00     0.033 C 
HETATM    2  C6  UNL     1      -7.963  24.972  31.024  1.00  0.00     0.135 C 
HETATM    3  N1  UNL     1      -6.834  24.045  31.130  1.00  0.00    -0.339 N 
HETATM    4  C7  UNL     1      -6.845  22.714  30.640  1.00  0.00     0.309 C 
HETATM    5  O1  UNL     1      -7.926  22.338  30.067  1.00  0.00    -0.263 OA
HETATM    6  C9  UNL     1      -5.734  24.657  31.787  1.00  0.00     0.093 C 
HETATM    7  C10 UNL     1      -5.748  24.525  33.317  1.00  0.00     0.035 C 
HETATM    8  C11 UNL     1      -5.411  26.001  33.318  1.00  0.00    -0.040 C 
HETATM    9  C12 UNL     1      -3.889  26.114  33.148  1.00  0.00     0.015 C 
HETATM   10  C13 UNL     1      -5.819  26.783  34.499  1.00  0.00     0.015 C 
HETATM   11  C14 UNL     1      -6.130  26.126  32.031  1.00  0.00     0.025 C 
ENDROOT
BRANCH   4  12
HETATM   12  C8  UNL     1      -5.717  21.820  30.769  1.00  0.00     0.322 C 
HETATM   13  N2  UNL     1      -5.492  21.239  32.058  1.00  0.00    -0.053 NA
HETATM   14  O2  UNL     1      -4.960  21.552  29.812  1.00  0.00    -0.266 OA
ENDBRANCH   4  12
BRANCH   1  15
HETATM   15  C4  UNL     1      -8.280  27.323  31.730  1.00  0.00    -0.018 C 
HETATM   16  C2  UNL     1      -9.072  27.922  32.575  1.00  0.00    -0.091 C 
HETATM   17  C1  UNL     1      -9.437  27.470  33.928  1.00  0.00     0.042 C 
HETATM   18  C3  UNL     1      -9.683  29.230  32.119  1.00  0.00     0.042 C 
ENDBRANCH   1  15
TORSDOF 2
ENDMDL
MODEL 2
REMARK VINA RESULT: -6.534098532      3.123      5.575
REMARK  2 active torsions:
REMARK  status: ('A' for Active; 'I' for Inactive)
REMARK    1  A    between atoms: C4_4  and  C5_5 
REMARK       I    between atoms: N1_7  and  C7_8 
REMARK    2  A    between atoms: C7_8  and  C8_10 
ROOT
HETATM    1  C5  UNL     1      -8.097  22.386  32.880  1.00  0.00     0.033 C 
HETATM    2  C6  UNL     1      -8.261  23.830  33.326  1.00  0.00     0.135 C 
HETATM    3  N1  UNL     1      -7.462  24.566  32.344  1.00  0.00    -0.339 N 
HETATM    4  C7  UNL     1      -7.564  25.962  32.116  1.00  0.00     0.309 C 
HETATM    5  O1  UNL     1      -8.414  26.587  32.840  1.00  0.00    -0.263 OA
HETATM    6  C9  UNL     1      -6.577  23.696  31.654  1.00  0.00     0.093 C 
HETATM    7  C10 UNL     1      -7.174  23.036  30.402  1.00  0.00     0.035 C 
HETATM    8  C11 UNL     1      -6.568  21.759  30.943  1.00  0.00    -0.040 C 
HETATM    9  C12 UNL     1      -5.100  21.733  30.495  1.00  0.00     0.015 C 
HETATM   10  C13 UNL     1      -7.210  20.491  30.551  1.00  0.00     0.015 C 
HETATM   11  C14 UNL     1      -6.727  22.308  32.308  1.00  0.00     0.025 C 
ENDROOT
BRANCH   4  12
HETATM   12  C8  UNL     1      -6.767  26.658  31.131  1.00  0.00     0.322 C 
HETATM   13  N2  UNL     1      -5.600  27.339  31.603  1.00  0.00    -0.053 NA
HETATM   14  O2  UNL     1      -7.065  26.678  29.918  1.00  0.00    -0.266 OA
ENDBRANCH   4  12
BRANCH   1  15
HETATM   15  C4  UNL     1      -8.328  21.449  33.993  1.00  0.00    -0.018 C 
HETATM   16  C2  UNL     1      -8.946  20.311  33.831  1.00  0.00    -0.091 C 
HETATM   17  C1  UNL     1      -9.500  19.769  32.578  1.00  0.00     0.042 C 
HETATM   18  C3  UNL     1      -9.108  19.447  35.063  1.00  0.00     0.042 C 
ENDBRANCH   1  15
TORSDOF 2
ENDMDL
MODEL 3
REMARK VINA RESULT: -6.307669157      2.367      3.616
REMARK  2 active torsions:
REMARK  status: ('A' for Active; 'I' for Inactive)
REMARK    1  A    between atoms: C4_4  and  C5_5 
REMARK       I    between atoms: N1_7  and  C7_8 
REMARK    2  A    between atoms: C7_8  and  C8_10 
ROOT
HETATM    1  C5  UNL     1      -8.927  27.856  33.172  1.00  0.00     0.033 C 
HETATM    2  C6  UNL     1      -7.732  27.776  32.235  1.00  0.00     0.135 C 
HETATM    3  N1  UNL     1      -6.979  26.637  32.767  1.00  0.00    -0.339 N 
HETATM    4  C7  UNL     1      -5.970  25.943  32.052  1.00  0.00     0.309 C 
HETATM    5  O1  UNL     1      -5.723  26.375  30.873  1.00  0.00    -0.263 OA
HETATM    6  C9  UNL     1      -7.396  26.324  34.087  1.00  0.00     0.093 C 
HETATM    7  C10 UNL     1      -8.579  25.347  34.171  1.00  0.00     0.035 C 
HETATM    8  C11 UNL     1      -9.142  26.317  35.188  1.00  0.00    -0.040 C 
HETATM    9  C12 UNL     1      -8.506  25.967  36.541  1.00  0.00     0.015 C 
HETATM   10  C13 UNL     1     -10.607  26.352  35.344  1.00  0.00     0.015 C 
HETATM   11  C14 UNL     1      -8.418  27.404  34.493  1.00  0.00     0.025 C 
ENDROOT
BRANCH   4  12
HETATM   12  C8  UNL     1      -5.251  24.815  32.601  1.00  0.00     0.322 C 
HETATM   13  N2  UNL     1      -5.884  23.534  32.509  1.00  0.00    -0.053 NA
HETATM   14  O2  UNL     1      -4.129  24.931  33.137  1.00  0.00    -0.266 OA
ENDBRANCH   4  12
BRANCH   1  15
HETATM   15  C4  UNL     1      -9.507  29.211  33.191  1.00  0.00    -0.018 C 
HETATM   16  C2  UNL     1     -10.766  29.435  32.933  1.00  0.00    -0.091 C 
HETATM   17  C1  UNL     1     -11.796  28.439  32.593  1.00  0.00     0.042 C 
HETATM   18  C3  UNL     1     -11.222  30.877  32.994  1.00  0.00     0.042 C 
ENDBRANCH   1  15
TORSDOF 2
ENDMDL
MODEL 4
REMARK VINA RESULT: -5.979155568      3.488      5.944
REMARK  2 active torsions:
REMARK  status: ('A' for Active; 'I' for Inactive)
REMARK    1  A    between atoms: C4_4  and  C5_5 
REMARK       I    between atoms: N1_7  and  C7_8 
REMARK    2  A    between atoms: C7_8  and  C8_10 
ROOT
HETATM    1  C5  UNL     1      -7.192  26.142  32.413  1.00  0.00     0.033 C 
HETATM    2  C6  UNL     1      -7.822  26.806  31.198  1.00  0.00     0.135 C 
HETATM    3  N1  UNL     1      -8.793  27.724  31.798  1.00  0.00    -0.339 N 
HETATM    4  C7  UNL     1      -9.392  28.812  31.112  1.00  0.00     0.309 C 
HETATM    5  O1  UNL     1      -9.044  28.963  29.890  1.00  0.00    -0.263 OA
HETATM    6  C9  UNL     1      -9.050  27.380  33.151  1.00  0.00     0.093 C 
HETATM    7  C10 UNL     1      -8.092  28.020  34.168  1.00  0.00     0.035 C 
HETATM    8  C11 UNL     1      -8.013  26.634  34.772  1.00  0.00    -0.040 C 
HETATM    9  C12 UNL     1      -9.219  26.484  35.710  1.00  0.00     0.015 C 
HETATM   10  C13 UNL     1      -6.786  26.293  35.513  1.00  0.00     0.015 C 
HETATM   11  C14 UNL     1      -8.276  26.076  33.427  1.00  0.00     0.025 C 
ENDROOT
BRANCH   4  12
HETATM   12  C8  UNL     1     -10.341  29.707  31.736  1.00  0.00     0.322 C 
HETATM   13  N2  UNL     1     -11.679  29.693  31.227  1.00  0.00    -0.053 NA
HETATM   14  O2  UNL     1     -10.028  30.468  32.676  1.00  0.00    -0.266 OA
ENDBRANCH   4  12
BRANCH   1  15
HETATM   15  C4  UNL     1      -6.618  24.829  32.072  1.00  0.00    -0.018 C 
HETATM   16  C2  UNL     1      -5.380  24.517  32.342  1.00  0.00    -0.091 C 
HETATM   17  C1  UNL     1      -4.372  25.364  33.002  1.00  0.00     0.042 C 
HETATM   18  C3  UNL     1      -4.929  23.130  31.937  1.00  0.00     0.042 C 
ENDBRANCH   1  15
TORSDOF 2
ENDMDL
MODEL 5
REMARK VINA RESULT: -5.716941182      1.843      2.619
REMARK  2 active torsions:
REMARK  status: ('A' for Active; 'I' for Inactive)
REMARK    1  A    between atoms: C4_4  and  C5_5 
REMARK       I    between atoms: N1_7  and  C7_8 
REMARK    2  A    between atoms: C7_8  and  C8_10 
ROOT
HETATM    1  C5  UNL     1      -7.901  25.009  33.596  1.00  0.00     0.033 C 
HETATM    2  C6  UNL     1      -8.175  23.566  33.201  1.00  0.00     0.135 C 
HETATM    3  N1  UNL     1      -7.509  23.454  31.901  1.00  0.00    -0.339 N 
HETATM    4  C7  UNL     1      -7.181  22.224  31.275  1.00  0.00     0.309 C 
HETATM    5  O1  UNL     1      -7.512  21.165  31.914  1.00  0.00    -0.263 OA
HETATM    6  C9  UNL     1      -7.237  24.736  31.357  1.00  0.00     0.093 C 
HETATM    7  C10 UNL     1      -5.893  25.343  31.787  1.00  0.00     0.035 C 
HETATM    8  C11 UNL     1      -6.689  26.608  32.030  1.00  0.00    -0.040 C 
HETATM    9  C12 UNL     1      -6.805  27.332  30.681  1.00  0.00     0.015 C 
HETATM   10  C13 UNL     1      -6.163  27.551  33.034  1.00  0.00     0.015 C 
HETATM   11  C14 UNL     1      -7.869  25.764  32.316  1.00  0.00     0.025 C 
ENDROOT
BRANCH   4  12
HETATM   12  C8  UNL     1      -6.514  22.147  29.995  1.00  0.00     0.322 C 
HETATM   13  N2  UNL     1      -5.197  21.584  29.981  1.00  0.00    -0.053 NA
HETATM   14  O2  UNL     1      -7.044  22.546  28.937  1.00  0.00    -0.266 OA
ENDBRANCH   4  12
BRANCH   1  15
HETATM   15  C4  UNL     1      -8.906  25.505  34.553  1.00  0.00    -0.018 C 
HETATM   16  C2  UNL     1      -8.576  26.095  35.668  1.00  0.00    -0.091 C 
HETATM   17  C1  UNL     1      -7.215  26.367  36.163  1.00  0.00     0.042 C 
HETATM   18  C3  UNL     1      -9.714  26.557  36.552  1.00  0.00     0.042 C 
ENDBRANCH   1  15
TORSDOF 2
ENDMDL
