MODEL 1
REMARK VINA RESULT: -7.674449282      0.000      0.000
REMARK  6 active torsions:
REMARK  status: ('A' for Active; 'I' for Inactive)
REMARK    1  A    between atoms: C4_6  and  C5_7 
REMARK    2  A    between atoms: C6_11  and  N3_12 
REMARK    3  A    between atoms: C11_18  and  N4_19 
REMARK       I    between atoms: N4_19  and  C12_21 
REMARK    4  A    between atoms: C12_21  and  C13_23 
REMARK    5  A    between atoms: C13_23  and  C14_24 
REMARK    6  A    between atoms: C15_27  and  N6_28 
ROOT
HETATM    1  N3  UNL     1      30.367   8.629   4.359  1.00  0.00    -0.355 N 
HETATM    2  C7  UNL     1      30.130   8.618   5.785  1.00  0.00     0.130 C 
HETATM    3  C8  UNL     1      29.937   7.207   6.298  1.00  0.00     0.061 C 
HETATM    4  C9  UNL     1      31.206   6.446   5.948  1.00  0.00    -0.018 A 
HETATM    5  C10 UNL     1      31.619   6.614   4.661  1.00  0.00     0.011 A 
HETATM    6  S2  UNL     1      33.034   5.640   4.588  1.00  0.00    -0.073 SA
HETATM    7  C11 UNL     1      33.046   5.061   6.192  1.00  0.00     0.098 A 
HETATM    8  C17 UNL     1      31.942   5.644   6.742  1.00  0.00     0.086 A 
HETATM    9  C18 UNL     1      31.620   5.368   8.152  1.00  0.00     0.103 C 
HETATM   10  N9  UNL     1      31.363   5.127   9.278  1.00  0.00    -0.191 NA
HETATM   11  C19 UNL     1      30.897   7.490   3.656  1.00  0.00     0.171 C 
ENDROOT
BRANCH   7  12
HETATM   12  N4  UNL     1      33.997   4.181   6.790  1.00  0.00    -0.320 N 
HETATM   13  C12 UNL     1      34.983   4.671   7.688  1.00  0.00     0.229 C 
HETATM   14  O1  UNL     1      35.043   5.882   7.960  1.00  0.00    -0.273 OA
ATOM     15  H4  UNL     1      33.968   3.186   6.570  1.00  0.00     0.169 HD
BRANCH  13  16
HETATM   16  C13 UNL     1      35.950   3.740   8.309  1.00  0.00     0.180 C 
BRANCH  16  17
HETATM   17  C14 UNL     1      35.751   3.751   9.773  1.00  0.00     0.110 A 
HETATM   18  N5  UNL     1      34.488   3.966  10.242  1.00  0.00    -0.180 N 
HETATM   19  C15 UNL     1      34.198   4.008  11.551  1.00  0.00     0.681 A 
ATOM     20  H5  UNL     1      33.733   4.101   9.569  1.00  0.00     0.185 HD
HETATM   21  N7  UNL     1      35.180   3.833  12.458  1.00  0.00    -0.141 N 
HETATM   22  C16 UNL     1      36.442   3.616  12.006  1.00  0.00     0.339 A 
ATOM     23  H7  UNL     1      34.980   3.862  13.458  1.00  0.00     0.189 HD
HETATM   24  O2  UNL     1      37.370   3.451  12.847  1.00  0.00    -0.246 OA
HETATM   25  N8  UNL     1      36.723   3.577  10.667  1.00  0.00    -0.297 N 
ATOM     26  H8  UNL     1      37.679   3.413  10.353  1.00  0.00     0.172 HD
BRANCH  19  27
HETATM   27  N6  UNL     1      32.986   4.217  11.977  1.00  0.00    -0.234 N 
ATOM     28  H62 UNL     1      32.354   4.770  11.399  1.00  0.00     0.174 HD
ATOM     29  H61 UNL     1      32.659   3.841  12.867  1.00  0.00     0.174 HD
ENDBRANCH  19  27
ENDBRANCH  16  17
ENDBRANCH  13  16
ENDBRANCH   7  12
BRANCH   1  30
HETATM   30  C6  UNL     1      30.054   9.812   3.625  1.00  0.00     0.165 A 
HETATM   31  S1  UNL     1      31.071  11.144   3.207  1.00  0.00     0.024 SA
HETATM   32  N2  UNL     1      29.939  12.070   2.377  1.00  0.00    -0.308 N 
HETATM   33  C5  UNL     1      28.833  11.320   2.455  1.00  0.00     0.132 A 
ATOM     34  H2  UNL     1      30.065  12.976   1.926  1.00  0.00     0.176 HD
HETATM   35  N10 UNL     1      28.908  10.191   3.082  1.00  0.00    -0.320 N 
ATOM     36  H10 UNL     1      28.084   9.595   3.160  1.00  0.00     0.169 HD
BRANCH  33  37
HETATM   37  C4  UNL     1      27.560  11.792   1.831  1.00  0.00     0.066 A 
HETATM   38  C3  UNL     1      26.309  11.251   1.910  1.00  0.00     0.111 A 
HETATM   39  N1  UNL     1      25.351  11.859   1.281  1.00  0.00    -0.362 N 
HETATM   40  C2  UNL     1      25.605  12.963   0.596  1.00  0.00     0.047 A 
ATOM     41  H1  UNL     1      24.402  11.487   1.316  1.00  0.00     0.165 HD
HETATM   42  C1  UNL     1      24.647  13.821  -0.196  1.00  0.00     0.076 C 
HETATM   43  S3  UNL     1      27.290  13.161   0.846  1.00  0.00    -0.072 SA
ENDBRANCH  33  37
ENDBRANCH   1  30
TORSDOF 6
ENDMDL
MODEL 2
REMARK VINA RESULT: -7.588596783      2.159      3.092
REMARK  6 active torsions:
REMARK  status: ('A' for Active; 'I' for Inactive)
REMARK    1  A    between atoms: C4_6  and  C5_7 
REMARK    2  A    between atoms: C6_11  and  N3_12 
REMARK    3  A    between atoms: C11_18  and  N4_19 
REMARK       I    between atoms: N4_19  and  C12_21 
REMARK    4  A    between atoms: C12_21  and  C13_23 
REMARK    5  A    between atoms: C13_23  and  C14_24 
REMARK    6  A    between atoms: C15_27  and  N6_28 
ROOT
HETATM    1  N3  UNL     1      30.805   7.953   5.161  1.00  0.00    -0.355 N 
HETATM    2  C7  UNL     1      31.470   6.716   4.818  1.00  0.00     0.130 C 
HETATM    3  C8  UNL     1      32.896   6.702   5.323  1.00  0.00     0.061 C 
HETATM    4  C9  UNL     1      32.819   6.882   6.831  1.00  0.00    -0.018 A 
HETATM    5  C10 UNL     1      32.003   7.899   7.229  1.00  0.00     0.011 A 
HETATM    6  S2  UNL     1      32.141   7.845   8.942  1.00  0.00    -0.073 SA
HETATM    7  C11 UNL     1      33.225   6.536   9.085  1.00  0.00     0.098 A 
HETATM    8  C17 UNL     1      33.452   6.177   7.788  1.00  0.00     0.086 A 
HETATM    9  C18 UNL     1      34.362   5.053   7.511  1.00  0.00     0.103 C 
HETATM   10  N9  UNL     1      35.106   4.162   7.300  1.00  0.00    -0.191 NA
HETATM   11  C19 UNL     1      31.222   8.773   6.267  1.00  0.00     0.171 C 
ENDROOT
BRANCH   7  12
HETATM   12  N4  UNL     1      33.750   5.971  10.285  1.00  0.00    -0.320 N 
HETATM   13  C12 UNL     1      33.313   4.702  10.749  1.00  0.00     0.229 C 
HETATM   14  O1  UNL     1      32.453   4.062  10.120  1.00  0.00    -0.273 OA
ATOM     15  H4  UNL     1      34.451   6.487  10.819  1.00  0.00     0.169 HD
BRANCH  13  16
HETATM   16  C13 UNL     1      33.881   4.127  11.987  1.00  0.00     0.180 C 
BRANCH  16  17
HETATM   17  C14 UNL     1      35.291   3.758  11.740  1.00  0.00     0.110 A 
HETATM   18  N5  UNL     1      36.103   3.588  12.824  1.00  0.00    -0.180 N 
HETATM   19  C15 UNL     1      37.400   3.266  12.713  1.00  0.00     0.681 A 
ATOM     20  H5  UNL     1      35.707   3.712  13.756  1.00  0.00     0.185 HD
HETATM   21  N7  UNL     1      37.944   3.097  11.492  1.00  0.00    -0.141 N 
HETATM   22  C16 UNL     1      37.148   3.262  10.405  1.00  0.00     0.339 A 
ATOM     23  H7  UNL     1      38.929   2.853  11.387  1.00  0.00     0.189 HD
HETATM   24  O2  UNL     1      37.648   3.106   9.255  1.00  0.00    -0.246 OA
HETATM   25  N8  UNL     1      35.826   3.591  10.533  1.00  0.00    -0.297 N 
ATOM     26  H8  UNL     1      35.249   3.710   9.701  1.00  0.00     0.172 HD
BRANCH  19  27
HETATM   27  N6  UNL     1      38.158   3.110  13.760  1.00  0.00    -0.234 N 
ATOM     28  H62 UNL     1      38.121   2.223  14.262  1.00  0.00     0.174 HD
ATOM     29  H61 UNL     1      38.781   3.849  14.085  1.00  0.00     0.174 HD
ENDBRANCH  19  27
ENDBRANCH  16  17
ENDBRANCH  13  16
ENDBRANCH   7  12
BRANCH   1  30
HETATM   30  C6  UNL     1      29.700   8.378   4.362  1.00  0.00     0.165 A 
HETATM   31  S1  UNL     1      28.242   7.537   3.974  1.00  0.00     0.024 SA
HETATM   32  N2  UNL     1      27.524   8.716   3.016  1.00  0.00    -0.308 N 
HETATM   33  C5  UNL     1      28.429   9.702   3.034  1.00  0.00     0.132 A 
ATOM     34  H2  UNL     1      26.622   8.689   2.539  1.00  0.00     0.176 HD
HETATM   35  N10 UNL     1      29.514   9.517   3.714  1.00  0.00    -0.320 N 
ATOM     36  H10 UNL     1      30.225  10.247   3.751  1.00  0.00     0.169 HD
BRANCH  33  37
HETATM   37  C4  UNL     1      28.177  10.969   2.283  1.00  0.00     0.066 A 
HETATM   38  C3  UNL     1      29.072  11.813   1.691  1.00  0.00     0.111 A 
HETATM   39  N1  UNL     1      28.601  12.856   1.081  1.00  0.00    -0.362 N 
HETATM   40  C2  UNL     1      27.296  13.069   1.048  1.00  0.00     0.047 A 
ATOM     41  H1  UNL     1      29.238  13.511   0.627  1.00  0.00     0.165 HD
HETATM   42  C1  UNL     1      26.544  14.206   0.396  1.00  0.00     0.076 C 
HETATM   43  S3  UNL     1      26.690  11.728   1.927  1.00  0.00    -0.072 SA
ENDBRANCH  33  37
ENDBRANCH   1  30
TORSDOF 6
ENDMDL
MODEL 3
REMARK VINA RESULT: -7.518242470      1.656      2.154
REMARK  6 active torsions:
REMARK  status: ('A' for Active; 'I' for Inactive)
REMARK    1  A    between atoms: C4_6  and  C5_7 
REMARK    2  A    between atoms: C6_11  and  N3_12 
REMARK    3  A    between atoms: C11_18  and  N4_19 
REMARK       I    between atoms: N4_19  and  C12_21 
REMARK    4  A    between atoms: C12_21  and  C13_23 
REMARK    5  A    between atoms: C13_23  and  C14_24 
REMARK    6  A    between atoms: C15_27  and  N6_28 
ROOT
HETATM    1  N3  UNL     1      30.085   8.540   4.723  1.00  0.00    -0.355 N 
HETATM    2  C7  UNL     1      28.968   8.049   5.499  1.00  0.00     0.130 C 
HETATM    3  C8  UNL     1      29.138   6.584   5.841  1.00  0.00     0.061 C 
HETATM    4  C9  UNL     1      30.438   6.474   6.622  1.00  0.00    -0.018 A 
HETATM    5  C10 UNL     1      31.487   7.132   6.052  1.00  0.00     0.011 A 
HETATM    6  S2  UNL     1      32.773   6.810   7.148  1.00  0.00    -0.073 SA
HETATM    7  C11 UNL     1      31.929   5.859   8.284  1.00  0.00     0.098 A 
HETATM    8  C17 UNL     1      30.664   5.817   7.775  1.00  0.00     0.086 A 
HETATM    9  C18 UNL     1      29.629   5.064   8.505  1.00  0.00     0.103 C 
HETATM   10  N9  UNL     1      28.813   4.445   9.090  1.00  0.00    -0.191 NA
HETATM   11  C19 UNL     1      31.382   7.919   4.761  1.00  0.00     0.171 C 
ENDROOT
BRANCH   7  12
HETATM   12  N4  UNL     1      32.446   5.265   9.474  1.00  0.00    -0.320 N 
HETATM   13  C12 UNL     1      33.069   3.989   9.443  1.00  0.00     0.229 C 
HETATM   14  O1  UNL     1      33.164   3.358   8.377  1.00  0.00    -0.273 OA
ATOM     15  H4  UNL     1      32.369   5.765  10.360  1.00  0.00     0.169 HD
BRANCH  13  16
HETATM   16  C13 UNL     1      33.613   3.398  10.685  1.00  0.00     0.180 C 
BRANCH  16  17
HETATM   17  C14 UNL     1      35.086   3.333  10.578  1.00  0.00     0.110 A 
HETATM   18  N5  UNL     1      35.803   3.205  11.732  1.00  0.00    -0.180 N 
HETATM   19  C15 UNL     1      37.143   3.149  11.750  1.00  0.00     0.681 A 
ATOM     20  H5  UNL     1      35.298   3.149  12.617  1.00  0.00     0.185 HD
HETATM   21  N7  UNL     1      37.829   3.221  10.593  1.00  0.00    -0.141 N 
HETATM   22  C16 UNL     1      37.130   3.347   9.436  1.00  0.00     0.339 A 
ATOM     23  H7  UNL     1      38.849   3.181  10.586  1.00  0.00     0.189 HD
HETATM   24  O2  UNL     1      37.764   3.416   8.346  1.00  0.00    -0.246 OA
HETATM   25  N8  UNL     1      35.763   3.403   9.433  1.00  0.00    -0.297 N 
ATOM     26  H8  UNL     1      35.260   3.500   8.551  1.00  0.00     0.172 HD
BRANCH  19  27
HETATM   27  N6  UNL     1      37.807   3.028  12.863  1.00  0.00    -0.234 N 
ATOM     28  H62 UNL     1      37.380   3.366  13.726  1.00  0.00     0.174 HD
ATOM     29  H61 UNL     1      38.735   2.606  12.889  1.00  0.00     0.174 HD
ENDBRANCH  19  27
ENDBRANCH  16  17
ENDBRANCH  13  16
ENDBRANCH   7  12
BRANCH   1  30
HETATM   30  C6  UNL     1      29.885   9.676   3.882  1.00  0.00     0.165 A 
HETATM   31  S1  UNL     1      31.028  10.851   3.339  1.00  0.00     0.024 SA
HETATM   32  N2  UNL     1      29.987  11.808   2.430  1.00  0.00    -0.308 N 
HETATM   33  C5  UNL     1      28.810  11.187   2.581  1.00  0.00     0.132 A 
ATOM     34  H2  UNL     1      30.198  12.651   1.896  1.00  0.00     0.176 HD
HETATM   35  N10 UNL     1      28.777  10.120   3.311  1.00  0.00    -0.320 N 
ATOM     36  H10 UNL     1      27.897   9.621   3.446  1.00  0.00     0.169 HD
BRANCH  33  37
HETATM   37  C4  UNL     1      27.584  11.729   1.920  1.00  0.00     0.066 A 
HETATM   38  C3  UNL     1      26.319  11.216   1.898  1.00  0.00     0.111 A 
HETATM   39  N1  UNL     1      25.411  11.885   1.258  1.00  0.00    -0.362 N 
HETATM   40  C2  UNL     1      25.727  13.021   0.657  1.00  0.00     0.047 A 
ATOM     41  H1  UNL     1      24.454  11.535   1.217  1.00  0.00     0.165 HD
HETATM   42  C1  UNL     1      24.833  13.950  -0.131  1.00  0.00     0.076 C 
HETATM   43  S3  UNL     1      27.400  13.161   1.009  1.00  0.00    -0.072 SA
ENDBRANCH  33  37
ENDBRANCH   1  30
TORSDOF 6
ENDMDL
MODEL 4
REMARK VINA RESULT: -7.506046403      2.357      3.039
REMARK  6 active torsions:
REMARK  status: ('A' for Active; 'I' for Inactive)
REMARK    1  A    between atoms: C4_6  and  C5_7 
REMARK    2  A    between atoms: C6_11  and  N3_12 
REMARK    3  A    between atoms: C11_18  and  N4_19 
REMARK       I    between atoms: N4_19  and  C12_21 
REMARK    4  A    between atoms: C12_21  and  C13_23 
REMARK    5  A    between atoms: C13_23  and  C14_24 
REMARK    6  A    between atoms: C15_27  and  N6_28 
ROOT
HETATM    1  N3  UNL     1      30.008   7.945   5.818  1.00  0.00    -0.355 N 
HETATM    2  C7  UNL     1      31.264   8.534   6.228  1.00  0.00     0.130 C 
HETATM    3  C8  UNL     1      31.383   8.577   7.736  1.00  0.00     0.061 C 
HETATM    4  C9  UNL     1      31.270   7.139   8.217  1.00  0.00    -0.018 A 
HETATM    5  C10 UNL     1      30.229   6.450   7.671  1.00  0.00     0.011 A 
HETATM    6  S2  UNL     1      30.372   4.903   8.410  1.00  0.00    -0.073 SA
HETATM    7  C11 UNL     1      31.745   5.193   9.379  1.00  0.00     0.098 A 
HETATM    8  C17 UNL     1      32.055   6.492   9.100  1.00  0.00     0.086 A 
HETATM    9  C18 UNL     1      33.213   7.106   9.769  1.00  0.00     0.103 C 
HETATM   10  N9  UNL     1      34.134   7.592  10.324  1.00  0.00    -0.191 NA
HETATM   11  C19 UNL     1      29.267   7.044   6.661  1.00  0.00     0.171 C 
ENDROOT
BRANCH   7  12
HETATM   12  N4  UNL     1      32.394   4.276  10.259  1.00  0.00    -0.320 N 
HETATM   13  C12 UNL     1      33.486   3.484   9.814  1.00  0.00     0.229 C 
HETATM   14  O1  UNL     1      33.890   3.567   8.641  1.00  0.00    -0.273 OA
ATOM     15  H4  UNL     1      32.070   4.189  11.222  1.00  0.00     0.169 HD
BRANCH  13  16
HETATM   16  C13 UNL     1      34.156   2.552  10.745  1.00  0.00     0.180 C 
BRANCH  16  17
HETATM   17  C14 UNL     1      35.600   2.866  10.781  1.00  0.00     0.110 A 
HETATM   18  N5  UNL     1      36.223   2.859  11.995  1.00  0.00    -0.180 N 
HETATM   19  C15 UNL     1      37.526   3.143  12.142  1.00  0.00     0.681 A 
ATOM     20  H5  UNL     1      35.675   2.630  12.824  1.00  0.00     0.185 HD
HETATM   21  N7  UNL     1      38.269   3.448  11.060  1.00  0.00    -0.141 N 
HETATM   22  C16 UNL     1      37.663   3.457   9.845  1.00  0.00     0.339 A 
ATOM     23  H7  UNL     1      39.261   3.667  11.152  1.00  0.00     0.189 HD
HETATM   24  O2  UNL     1      38.351   3.742   8.825  1.00  0.00    -0.246 OA
HETATM   25  N8  UNL     1      36.333   3.167   9.710  1.00  0.00    -0.297 N 
ATOM     26  H8  UNL     1      35.901   3.181   8.787  1.00  0.00     0.172 HD
BRANCH  19  27
HETATM   27  N6  UNL     1      38.100   3.132  13.310  1.00  0.00    -0.234 N 
ATOM     28  H62 UNL     1      37.729   2.514  14.032  1.00  0.00     0.174 HD
ATOM     29  H61 UNL     1      38.905   3.723  13.517  1.00  0.00     0.174 HD
ENDBRANCH  19  27
ENDBRANCH  16  17
ENDBRANCH  13  16
ENDBRANCH   7  12
BRANCH   1  30
HETATM   30  C6  UNL     1      29.485   8.280   4.533  1.00  0.00     0.165 A 
HETATM   31  S1  UNL     1      28.935   7.240   3.268  1.00  0.00     0.024 SA
HETATM   32  N2  UNL     1      28.509   8.418   2.147  1.00  0.00    -0.308 N 
HETATM   33  C5  UNL     1      28.805   9.555   2.788  1.00  0.00     0.132 A 
ATOM     34  H2  UNL     1      28.120   8.296   1.211  1.00  0.00     0.176 HD
HETATM   35  N10 UNL     1      29.293   9.468   3.983  1.00  0.00    -0.320 N 
ATOM     36  H10 UNL     1      29.529  10.315   4.500  1.00  0.00     0.169 HD
BRANCH  33  37
HETATM   37  C4  UNL     1      28.575  10.874   2.124  1.00  0.00     0.066 A 
HETATM   38  C3  UNL     1      29.455  11.655   1.431  1.00  0.00     0.111 A 
HETATM   39  N1  UNL     1      29.007  12.765   0.933  1.00  0.00    -0.362 N 
HETATM   40  C2  UNL     1      27.739  13.104   1.104  1.00  0.00     0.047 A 
ATOM     41  H1  UNL     1      29.633  13.377   0.409  1.00  0.00     0.165 HD
HETATM   42  C1  UNL     1      27.019  14.337   0.610  1.00  0.00     0.076 C 
HETATM   43  S3  UNL     1      27.136  11.787   2.021  1.00  0.00    -0.072 SA
ENDBRANCH  33  37
ENDBRANCH   1  30
TORSDOF 6
ENDMDL
MODEL 5
REMARK VINA RESULT: -7.504930550      0.809      1.379
REMARK  6 active torsions:
REMARK  status: ('A' for Active; 'I' for Inactive)
REMARK    1  A    between atoms: C4_6  and  C5_7 
REMARK    2  A    between atoms: C6_11  and  N3_12 
REMARK    3  A    between atoms: C11_18  and  N4_19 
REMARK       I    between atoms: N4_19  and  C12_21 
REMARK    4  A    between atoms: C12_21  and  C13_23 
REMARK    5  A    between atoms: C13_23  and  C14_24 
REMARK    6  A    between atoms: C15_27  and  N6_28 
ROOT
HETATM    1  N3  UNL     1      30.419   8.662   4.470  1.00  0.00    -0.355 N 
HETATM    2  C7  UNL     1      30.279   8.706   5.908  1.00  0.00     0.130 C 
HETATM    3  C8  UNL     1      30.079   7.321   6.483  1.00  0.00     0.061 C 
HETATM    4  C9  UNL     1      31.297   6.506   6.075  1.00  0.00    -0.018 A 
HETATM    5  C10 UNL     1      31.625   6.618   4.757  1.00  0.00     0.011 A 
HETATM    6  S2  UNL     1      33.001   5.595   4.624  1.00  0.00    -0.073 SA
HETATM    7  C11 UNL     1      33.105   5.070   6.243  1.00  0.00     0.098 A 
HETATM    8  C17 UNL     1      32.060   5.707   6.845  1.00  0.00     0.086 A 
HETATM    9  C18 UNL     1      31.828   5.489   8.282  1.00  0.00     0.103 C 
HETATM   10  N9  UNL     1      31.642   5.294   9.431  1.00  0.00    -0.191 NA
HETATM   11  C19 UNL     1      30.863   7.484   3.774  1.00  0.00     0.171 C 
ENDROOT
BRANCH   7  12
HETATM   12  N4  UNL     1      34.068   4.179   6.805  1.00  0.00    -0.320 N 
HETATM   13  C12 UNL     1      35.047   4.645   7.722  1.00  0.00     0.229 C 
HETATM   14  O1  UNL     1      35.091   5.845   8.043  1.00  0.00    -0.273 OA
ATOM     15  H4  UNL     1      34.052   3.193   6.545  1.00  0.00     0.169 HD
BRANCH  13  16
HETATM   16  C13 UNL     1      36.026   3.703   8.306  1.00  0.00     0.180 C 
BRANCH  16  17
HETATM   17  C14 UNL     1      35.879   3.710   9.777  1.00  0.00     0.110 A 
HETATM   18  N5  UNL     1      36.975   3.401  10.528  1.00  0.00    -0.180 N 
HETATM   19  C15 UNL     1      36.948   3.366  11.869  1.00  0.00     0.681 A 
ATOM     20  H5  UNL     1      37.851   3.188  10.050  1.00  0.00     0.185 HD
HETATM   21  N7  UNL     1      35.802   3.645  12.521  1.00  0.00    -0.141 N 
HETATM   22  C16 UNL     1      34.703   3.956  11.786  1.00  0.00     0.339 A 
ATOM     23  H7  UNL     1      35.761   3.623  13.540  1.00  0.00     0.189 HD
HETATM   24  O2  UNL     1      33.624   4.219  12.388  1.00  0.00    -0.246 OA
HETATM   25  N8  UNL     1      34.745   3.987  10.419  1.00  0.00    -0.297 N 
ATOM     26  H8  UNL     1      33.906   4.223   9.890  1.00  0.00     0.172 HD
BRANCH  19  27
HETATM   27  N6  UNL     1      38.005   3.067  12.566  1.00  0.00    -0.234 N 
ATOM     28  H62 UNL     1      38.548   3.824  12.981  1.00  0.00     0.174 HD
ATOM     29  H61 UNL     1      38.299   2.100  12.705  1.00  0.00     0.174 HD
ENDBRANCH  19  27
ENDBRANCH  16  17
ENDBRANCH  13  16
ENDBRANCH   7  12
BRANCH   1  30
HETATM   30  C6  UNL     1      30.092   9.830   3.717  1.00  0.00     0.165 A 
HETATM   31  S1  UNL     1      31.096  11.164   3.274  1.00  0.00     0.024 SA
HETATM   32  N2  UNL     1      29.953  12.066   2.433  1.00  0.00    -0.308 N 
HETATM   33  C5  UNL     1      28.854  11.308   2.527  1.00  0.00     0.132 A 
ATOM     34  H2  UNL     1      30.069  12.966   1.967  1.00  0.00     0.176 HD
HETATM   35  N10 UNL     1      28.941  10.191   3.173  1.00  0.00    -0.320 N 
ATOM     36  H10 UNL     1      28.122   9.588   3.264  1.00  0.00     0.169 HD
BRANCH  33  37
HETATM   37  C4  UNL     1      27.574  11.759   1.901  1.00  0.00     0.066 A 
HETATM   38  C3  UNL     1      26.317  11.246   2.043  1.00  0.00     0.111 A 
HETATM   39  N1  UNL     1      25.355  11.826   1.396  1.00  0.00    -0.362 N 
HETATM   40  C2  UNL     1      25.610  12.876   0.632  1.00  0.00     0.047 A 
ATOM     41  H1  UNL     1      24.401  11.472   1.476  1.00  0.00     0.165 HD
HETATM   42  C1  UNL     1      24.648  13.695  -0.195  1.00  0.00     0.076 C 
HETATM   43  S3  UNL     1      27.303  13.062   0.832  1.00  0.00    -0.072 SA
ENDBRANCH  33  37
ENDBRANCH   1  30
TORSDOF 6
ENDMDL
