MODEL 1
REMARK VINA RESULT: -9.834087541      0.000      0.000
REMARK  7 active torsions:
REMARK  status: ('A' for Active; 'I' for Inactive)
REMARK    1  A    between atoms: C1_2  and  C2_3 
REMARK    2  A    between atoms: C1_2  and  C11_17 
REMARK    3  A    between atoms: C2_3  and  S1_4 
REMARK    4  A    between atoms: S1_4  and  C3_5 
REMARK    5  A    between atoms: C4_6  and  C5_7 
REMARK    6  A    between atoms: C13_19  and  N3_20 
REMARK    7  A    between atoms: C15_24  and  N4_25 
ROOT
HETATM    1  O1  UNL     1     -26.696  -6.881   7.813  1.00  0.00    -0.291 OA
HETATM    2  C1  UNL     1     -25.593  -7.415   7.640  1.00  0.00     0.169 C 
ENDROOT
BRANCH   2   3
HETATM    3  C2  UNL     1     -24.337  -6.675   7.473  1.00  0.00     0.164 C 
BRANCH   3   4
HETATM    4  S1  UNL     1     -24.320  -5.029   6.895  1.00  0.00    -0.103 SA
BRANCH   4   5
HETATM    5  C3  UNL     1     -24.962  -3.761   7.999  1.00  0.00     0.092 A 
HETATM    6  C4  UNL     1     -25.364  -2.566   7.493  1.00  0.00     0.024 A 
HETATM    7  S2  UNL     1     -25.843  -1.701   8.895  1.00  0.00    -0.055 SA
HETATM    8  C8  UNL     1     -25.506  -2.906  10.044  1.00  0.00     0.156 A 
HETATM    9  N1  UNL     1     -25.543  -3.175  11.370  1.00  0.00    -0.345 N 
HETATM   10  N2  UNL     1     -25.044  -3.916   9.325  1.00  0.00    -0.294 N 
HETATM   11  C9  UNL     1     -25.081  -4.422  11.508  1.00  0.00     0.108 A 
ATOM     12  H1  UNL     1     -25.859  -2.553  12.113  1.00  0.00     0.167 HD
HETATM   13  C10 UNL     1     -24.774  -4.877  10.242  1.00  0.00     0.117 A 
BRANCH   6  14
HETATM   14  C5  UNL     1     -25.463  -1.987   6.124  1.00  0.00     0.028 A 
HETATM   15  C6  UNL     1     -25.048  -0.533   5.944  1.00  0.00     0.010 A 
HETATM   16  C7  UNL     1     -24.174  -1.655   5.460  1.00  0.00     0.010 A 
ENDBRANCH   6  14
ENDBRANCH   4   5
ENDBRANCH   3   4
ENDBRANCH   2   3
BRANCH   2  17
HETATM   17  C11 UNL     1     -25.589  -8.883   7.606  1.00  0.00     0.015 A 
HETATM   18  C12 UNL     1     -24.508  -9.554   8.109  1.00  0.00     0.051 A 
HETATM   19  C13 UNL     1     -24.452 -10.954   8.099  1.00  0.00     0.106 A 
HETATM   20  C14 UNL     1     -25.502 -11.670   7.575  1.00  0.00     0.072 A 
HETATM   21  C15 UNL     1     -26.608 -11.008   7.060  1.00  0.00     0.106 A 
HETATM   22  C16 UNL     1     -26.629  -9.613   7.087  1.00  0.00     0.051 A 
BRANCH  19  23
HETATM   23  N3  UNL     1     -23.312 -11.606   8.636  1.00  0.00    -0.116 N 
HETATM   24  O2  UNL     1     -23.205 -12.839   8.517  1.00  0.00    -0.532 OA
HETATM   25  O3  UNL     1     -22.318 -10.922   9.286  1.00  0.00    -0.532 OA
ENDBRANCH  19  23
BRANCH  21  26
HETATM   26  N4  UNL     1     -27.709 -11.708   6.502  1.00  0.00    -0.116 N 
HETATM   27  O4  UNL     1     -27.720 -12.947   6.464  1.00  0.00    -0.532 OA
HETATM   28  O5  UNL     1     -28.763 -10.985   6.012  1.00  0.00    -0.532 OA
ENDBRANCH  21  26
ENDBRANCH   2  17
TORSDOF 7
ENDMDL
MODEL 2
REMARK VINA RESULT: -9.806524755      0.057      2.881
REMARK  7 active torsions:
REMARK  status: ('A' for Active; 'I' for Inactive)
REMARK    1  A    between atoms: C1_2  and  C2_3 
REMARK    2  A    between atoms: C1_2  and  C11_17 
REMARK    3  A    between atoms: C2_3  and  S1_4 
REMARK    4  A    between atoms: S1_4  and  C3_5 
REMARK    5  A    between atoms: C4_6  and  C5_7 
REMARK    6  A    between atoms: C13_19  and  N3_20 
REMARK    7  A    between atoms: C15_24  and  N4_25 
ROOT
HETATM    1  O1  UNL     1     -26.676  -6.890   7.741  1.00  0.00    -0.291 OA
HETATM    2  C1  UNL     1     -25.554  -7.395   7.605  1.00  0.00     0.169 C 
ENDROOT
BRANCH   2   3
HETATM    3  C2  UNL     1     -24.317  -6.622   7.445  1.00  0.00     0.164 C 
BRANCH   3   4
HETATM    4  S1  UNL     1     -24.341  -4.978   6.860  1.00  0.00    -0.103 SA
BRANCH   4   5
HETATM    5  C3  UNL     1     -24.975  -3.716   7.975  1.00  0.00     0.092 A 
HETATM    6  C4  UNL     1     -25.375  -2.516   7.479  1.00  0.00     0.024 A 
HETATM    7  S2  UNL     1     -25.847  -1.659   8.889  1.00  0.00    -0.055 SA
HETATM    8  C8  UNL     1     -25.509  -2.874  10.029  1.00  0.00     0.156 A 
HETATM    9  N1  UNL     1     -25.542  -3.152  11.352  1.00  0.00    -0.345 N 
HETATM   10  N2  UNL     1     -25.053  -3.880   9.300  1.00  0.00    -0.294 N 
HETATM   11  C9  UNL     1     -25.083  -4.401  11.480  1.00  0.00     0.108 A 
ATOM     12  H1  UNL     1     -25.854  -2.534  12.101  1.00  0.00     0.167 HD
HETATM   13  C10 UNL     1     -24.782  -4.848  10.210  1.00  0.00     0.117 A 
BRANCH   6  14
HETATM   14  C5  UNL     1     -25.477  -1.927   6.114  1.00  0.00     0.028 A 
HETATM   15  C6  UNL     1     -25.032  -0.482   5.938  1.00  0.00     0.010 A 
HETATM   16  C7  UNL     1     -24.189  -1.620   5.437  1.00  0.00     0.010 A 
ENDBRANCH   6  14
ENDBRANCH   4   5
ENDBRANCH   3   4
ENDBRANCH   2   3
BRANCH   2  17
HETATM   17  C11 UNL     1     -25.506  -8.862   7.612  1.00  0.00     0.015 A 
HETATM   18  C12 UNL     1     -26.564  -9.563   7.100  1.00  0.00     0.051 A 
HETATM   19  C13 UNL     1     -26.571 -10.963   7.085  1.00  0.00     0.106 A 
HETATM   20  C14 UNL     1     -25.494 -11.651   7.594  1.00  0.00     0.072 A 
HETATM   21  C15 UNL     1     -24.411 -10.958   8.118  1.00  0.00     0.106 A 
HETATM   22  C16 UNL     1     -24.440  -9.564   8.116  1.00  0.00     0.051 A 
BRANCH  19  23
HETATM   23  N3  UNL     1     -27.688 -11.646   6.538  1.00  0.00    -0.116 N 
HETATM   24  O2  UNL     1     -27.692 -12.890   6.523  1.00  0.00    -0.532 OA
HETATM   25  O3  UNL     1     -28.770 -10.981   6.023  1.00  0.00    -0.532 OA
ENDBRANCH  19  23
BRANCH  21  26
HETATM   26  N4  UNL     1     -23.284 -11.629   8.661  1.00  0.00    -0.116 N 
HETATM   27  O4  UNL     1     -23.171 -12.860   8.565  1.00  0.00    -0.532 OA
HETATM   28  O5  UNL     1     -22.320 -10.886   9.287  1.00  0.00    -0.532 OA
ENDBRANCH  21  26
ENDBRANCH   2  17
TORSDOF 7
ENDMDL
MODEL 3
REMARK VINA RESULT: -9.635216606      1.210      2.983
REMARK  7 active torsions:
REMARK  status: ('A' for Active; 'I' for Inactive)
REMARK    1  A    between atoms: C1_2  and  C2_3 
REMARK    2  A    between atoms: C1_2  and  C11_17 
REMARK    3  A    between atoms: C2_3  and  S1_4 
REMARK    4  A    between atoms: S1_4  and  C3_5 
REMARK    5  A    between atoms: C4_6  and  C5_7 
REMARK    6  A    between atoms: C13_19  and  N3_20 
REMARK    7  A    between atoms: C15_24  and  N4_25 
ROOT
HETATM    1  O1  UNL     1     -26.559  -6.542   7.361  1.00  0.00    -0.291 OA
HETATM    2  C1  UNL     1     -25.488  -7.126   7.567  1.00  0.00     0.169 C 
ENDROOT
BRANCH   2   3
HETATM    3  C2  UNL     1     -24.215  -6.444   7.828  1.00  0.00     0.164 C 
BRANCH   3   4
HETATM    4  S1  UNL     1     -23.803  -4.948   7.029  1.00  0.00    -0.103 SA
BRANCH   4   5
HETATM    5  C3  UNL     1     -24.607  -3.450   7.622  1.00  0.00     0.092 A 
HETATM    6  C4  UNL     1     -25.084  -3.398   8.893  1.00  0.00     0.024 A 
HETATM    7  S2  UNL     1     -25.778  -1.831   8.974  1.00  0.00    -0.055 SA
HETATM    8  C8  UNL     1     -25.423  -1.331   7.389  1.00  0.00     0.156 A 
HETATM    9  N1  UNL     1     -25.555  -0.296   6.528  1.00  0.00    -0.345 N 
HETATM   10  N2  UNL     1     -24.794  -2.368   6.859  1.00  0.00    -0.294 N 
HETATM   11  C9  UNL     1     -24.982  -0.689   5.386  1.00  0.00     0.108 A 
ATOM     12  H1  UNL     1     -26.003   0.601   6.712  1.00  0.00     0.167 HD
HETATM   13  C10 UNL     1     -24.512  -1.969   5.594  1.00  0.00     0.117 A 
BRANCH   6  14
HETATM   14  C5  UNL     1     -25.078  -4.331  10.054  1.00  0.00     0.028 A 
HETATM   15  C6  UNL     1     -24.306  -3.904  11.295  1.00  0.00     0.010 A 
HETATM   16  C7  UNL     1     -25.808  -3.870  11.266  1.00  0.00     0.010 A 
ENDBRANCH   6  14
ENDBRANCH   4   5
ENDBRANCH   3   4
ENDBRANCH   2   3
BRANCH   2  17
HETATM   17  C11 UNL     1     -25.541  -8.593   7.541  1.00  0.00     0.015 A 
HETATM   18  C12 UNL     1     -24.442  -9.304   7.939  1.00  0.00     0.051 A 
HETATM   19  C13 UNL     1     -24.438 -10.704   7.930  1.00  0.00     0.106 A 
HETATM   20  C14 UNL     1     -25.561 -11.382   7.515  1.00  0.00     0.072 A 
HETATM   21  C15 UNL     1     -26.686 -10.679   7.107  1.00  0.00     0.106 A 
HETATM   22  C16 UNL     1     -26.653  -9.284   7.129  1.00  0.00     0.051 A 
BRANCH  19  23
HETATM   23  N3  UNL     1     -23.276 -11.398   8.357  1.00  0.00    -0.116 N 
HETATM   24  O2  UNL     1     -23.069 -12.551   7.940  1.00  0.00    -0.532 OA
HETATM   25  O3  UNL     1     -22.368 -10.840   9.219  1.00  0.00    -0.532 OA
ENDBRANCH  19  23
BRANCH  21  26
HETATM   26  N4  UNL     1     -27.862 -11.338   6.663  1.00  0.00    -0.116 N 
HETATM   27  O4  UNL     1     -27.874 -12.566   6.489  1.00  0.00    -0.532 OA
HETATM   28  O5  UNL     1     -28.985 -10.591   6.437  1.00  0.00    -0.532 OA
ENDBRANCH  21  26
ENDBRANCH   2  17
TORSDOF 7
ENDMDL
MODEL 4
REMARK VINA RESULT: -9.595266496      1.280      4.174
REMARK  7 active torsions:
REMARK  status: ('A' for Active; 'I' for Inactive)
REMARK    1  A    between atoms: C1_2  and  C2_3 
REMARK    2  A    between atoms: C1_2  and  C11_17 
REMARK    3  A    between atoms: C2_3  and  S1_4 
REMARK    4  A    between atoms: S1_4  and  C3_5 
REMARK    5  A    between atoms: C4_6  and  C5_7 
REMARK    6  A    between atoms: C13_19  and  N3_20 
REMARK    7  A    between atoms: C15_24  and  N4_25 
ROOT
HETATM    1  O1  UNL     1     -26.479  -6.422   7.421  1.00  0.00    -0.291 OA
HETATM    2  C1  UNL     1     -25.379  -6.972   7.564  1.00  0.00     0.169 C 
ENDROOT
BRANCH   2   3
HETATM    3  C2  UNL     1     -24.111  -6.250   7.716  1.00  0.00     0.164 C 
BRANCH   3   4
HETATM    4  S1  UNL     1     -23.808  -4.754   6.870  1.00  0.00    -0.103 SA
BRANCH   4   5
HETATM    5  C3  UNL     1     -24.641  -3.280   7.480  1.00  0.00     0.092 A 
HETATM    6  C4  UNL     1     -25.129  -3.256   8.748  1.00  0.00     0.024 A 
HETATM    7  S2  UNL     1     -25.850  -1.702   8.849  1.00  0.00    -0.055 SA
HETATM    8  C8  UNL     1     -25.491  -1.172   7.275  1.00  0.00     0.156 A 
HETATM    9  N1  UNL     1     -25.634  -0.125   6.429  1.00  0.00    -0.345 N 
HETATM   10  N2  UNL     1     -24.840  -2.188   6.733  1.00  0.00    -0.294 N 
HETATM   11  C9  UNL     1     -25.045  -0.489   5.286  1.00  0.00     0.108 A 
ATOM     12  H1  UNL     1     -26.097   0.762   6.624  1.00  0.00     0.167 HD
HETATM   13  C10 UNL     1     -24.555  -1.765   5.478  1.00  0.00     0.117 A 
BRANCH   6  14
HETATM   14  C5  UNL     1     -25.117  -4.208   9.894  1.00  0.00     0.028 A 
HETATM   15  C6  UNL     1     -24.179  -3.900  11.054  1.00  0.00     0.010 A 
HETATM   16  C7  UNL     1     -25.662  -3.691  11.178  1.00  0.00     0.010 A 
ENDBRANCH   6  14
ENDBRANCH   4   5
ENDBRANCH   3   4
ENDBRANCH   2   3
BRANCH   2  17
HETATM   17  C11 UNL     1     -25.393  -8.440   7.578  1.00  0.00     0.015 A 
HETATM   18  C12 UNL     1     -26.523  -9.096   7.170  1.00  0.00     0.051 A 
HETATM   19  C13 UNL     1     -26.591 -10.495   7.167  1.00  0.00     0.106 A 
HETATM   20  C14 UNL     1     -25.502 -11.227   7.581  1.00  0.00     0.072 A 
HETATM   21  C15 UNL     1     -24.347 -10.580   7.999  1.00  0.00     0.106 A 
HETATM   22  C16 UNL     1     -24.317  -9.185   7.989  1.00  0.00     0.051 A 
BRANCH  19  23
HETATM   23  N3  UNL     1     -27.781 -11.131   6.729  1.00  0.00    -0.116 N 
HETATM   24  O2  UNL     1     -27.919 -12.354   6.910  1.00  0.00    -0.532 OA
HETATM   25  O3  UNL     1     -28.792 -10.442   6.111  1.00  0.00    -0.532 OA
ENDBRANCH  19  23
BRANCH  21  26
HETATM   26  N4  UNL     1     -23.205 -11.296   8.442  1.00  0.00    -0.116 N 
HETATM   27  O4  UNL     1     -22.374 -10.765   9.193  1.00  0.00    -0.532 OA
HETATM   28  O5  UNL     1     -23.043 -12.590   8.027  1.00  0.00    -0.532 OA
ENDBRANCH  21  26
ENDBRANCH   2  17
TORSDOF 7
ENDMDL
MODEL 5
REMARK VINA RESULT: -9.389443423      1.886      2.852
REMARK  7 active torsions:
REMARK  status: ('A' for Active; 'I' for Inactive)
REMARK    1  A    between atoms: C1_2  and  C2_3 
REMARK    2  A    between atoms: C1_2  and  C11_17 
REMARK    3  A    between atoms: C2_3  and  S1_4 
REMARK    4  A    between atoms: S1_4  and  C3_5 
REMARK    5  A    between atoms: C4_6  and  C5_7 
REMARK    6  A    between atoms: C13_19  and  N3_20 
REMARK    7  A    between atoms: C15_24  and  N4_25 
ROOT
HETATM    1  O1  UNL     1     -26.443  -6.296   6.944  1.00  0.00    -0.291 OA
HETATM    2  C1  UNL     1     -25.737  -6.865   7.786  1.00  0.00     0.169 C 
ENDROOT
BRANCH   2   3
HETATM    3  C2  UNL     1     -24.986  -6.169   8.837  1.00  0.00     0.164 C 
BRANCH   3   4
HETATM    4  S1  UNL     1     -25.207  -4.464   9.136  1.00  0.00    -0.103 SA
BRANCH   4   5
HETATM    5  C3  UNL     1     -24.904  -3.341   7.763  1.00  0.00     0.092 A 
HETATM    6  C4  UNL     1     -25.479  -2.110   7.760  1.00  0.00     0.024 A 
HETATM    7  S2  UNL     1     -24.943  -1.445   6.271  1.00  0.00    -0.055 SA
HETATM    8  C8  UNL     1     -24.021  -2.768   5.738  1.00  0.00     0.156 A 
HETATM    9  N1  UNL     1     -23.240  -3.201   4.721  1.00  0.00    -0.345 N 
HETATM   10  N2  UNL     1     -24.152  -3.662   6.705  1.00  0.00    -0.294 N 
HETATM   11  C9  UNL     1     -22.852  -4.436   5.052  1.00  0.00     0.108 A 
ATOM     12  H1  UNL     1     -22.998  -2.689   3.873  1.00  0.00     0.167 HD
HETATM   13  C10 UNL     1     -23.417  -4.718   6.279  1.00  0.00     0.117 A 
BRANCH   6  14
HETATM   14  C5  UNL     1     -26.345  -1.353   8.707  1.00  0.00     0.028 A 
HETATM   15  C6  UNL     1     -25.967   0.091   9.005  1.00  0.00     0.010 A 
HETATM   16  C7  UNL     1     -27.137  -0.239   8.121  1.00  0.00     0.010 A 
ENDBRANCH   6  14
ENDBRANCH   4   5
ENDBRANCH   3   4
ENDBRANCH   2   3
BRANCH   2  17
HETATM   17  C11 UNL     1     -25.678  -8.329   7.691  1.00  0.00     0.015 A 
HETATM   18  C12 UNL     1     -24.541  -8.975   8.095  1.00  0.00     0.051 A 
HETATM   19  C13 UNL     1     -24.431 -10.369   8.022  1.00  0.00     0.106 A 
HETATM   20  C14 UNL     1     -25.485 -11.107   7.536  1.00  0.00     0.072 A 
HETATM   21  C15 UNL     1     -26.646 -10.471   7.120  1.00  0.00     0.106 A 
HETATM   22  C16 UNL     1     -26.719  -9.080   7.207  1.00  0.00     0.051 A 
BRANCH  19  23
HETATM   23  N3  UNL     1     -23.235 -10.994   8.459  1.00  0.00    -0.116 N 
HETATM   24  O2  UNL     1     -22.141 -10.456   8.209  1.00  0.00    -0.532 OA
HETATM   25  O3  UNL     1     -23.240 -12.177   9.151  1.00  0.00    -0.532 OA
ENDBRANCH  19  23
BRANCH  21  26
HETATM   26  N4  UNL     1     -27.753 -11.194   6.603  1.00  0.00    -0.116 N 
HETATM   27  O4  UNL     1     -28.720 -10.601   6.102  1.00  0.00    -0.532 OA
HETATM   28  O5  UNL     1     -27.727 -12.560   6.664  1.00  0.00    -0.532 OA
ENDBRANCH  21  26
ENDBRANCH   2  17
TORSDOF 7
ENDMDL
