MODEL 1
REMARK VINA RESULT: -6.209051592      0.000      0.000
REMARK  1 active torsions:
REMARK  status: ('A' for Active; 'I' for Inactive)
REMARK    1  A    between atoms: C8_15  and  C9_16 
ROOT
HETATM    1  C1  UNL     1      23.410  36.402  42.790  1.00  0.00     0.273 C 
HETATM    2  N1  UNL     1      24.433  36.682  41.841  1.00  0.00    -0.063 N 
HETATM    3  C2  UNL     1      23.955  37.387  40.709  1.00  0.00     0.273 C 
HETATM    4  C3  UNL     1      25.650  37.304  42.396  1.00  0.00     0.229 C 
HETATM    5  C4  UNL     1      26.631  37.447  41.243  1.00  0.00     0.224 C 
HETATM    6  N2  UNL     1      27.976  37.473  41.716  1.00  0.00    -0.062 N 
ATOM      7  H21 UNL     1      28.134  38.125  42.483  1.00  0.00     0.278 HD
ATOM      8  H22 UNL     1      28.637  37.898  41.065  1.00  0.00     0.278 HD
HETATM    9  C5  UNL     1      28.273  36.114  42.040  1.00  0.00     0.223 C 
HETATM   10  C6  UNL     1      27.735  35.380  40.802  1.00  0.00     0.052 C 
HETATM   11  C7  UNL     1      27.606  33.981  41.359  1.00  0.00     0.240 C 
HETATM   12  N3  UNL     1      27.453  34.091  42.774  1.00  0.00    -0.068 N 
ATOM     13  H31 UNL     1      28.192  33.620  43.296  1.00  0.00     0.277 HD
ATOM     14  H32 UNL     1      26.670  33.547  43.137  1.00  0.00     0.277 HD
HETATM   15  C8  UNL     1      27.353  35.527  43.084  1.00  0.00     0.225 C 
HETATM   16  C9  UNL     1      25.938  35.923  42.927  1.00  0.00     0.083 C 
HETATM   17  C10 UNL     1      25.353  35.566  41.561  1.00  0.00     0.205 C 
HETATM   18  C11 UNL     1      26.415  36.054  40.617  1.00  0.00     0.058 C 
ENDROOT
TORSDOF 1
ENDMDL
MODEL 2
REMARK VINA RESULT: -6.199073951      1.214      1.536
REMARK  1 active torsions:
REMARK  status: ('A' for Active; 'I' for Inactive)
REMARK    1  A    between atoms: C8_15  and  C9_16 
ROOT
HETATM    1  C1  UNL     1      22.875  35.265  41.010  1.00  0.00     0.273 C 
HETATM    2  N1  UNL     1      23.768  36.366  41.119  1.00  0.00    -0.063 N 
HETATM    3  C2  UNL     1      23.169  37.599  40.763  1.00  0.00     0.273 C 
HETATM    4  C3  UNL     1      24.489  36.464  42.403  1.00  0.00     0.229 C 
HETATM    5  C4  UNL     1      25.435  37.649  42.283  1.00  0.00     0.224 C 
HETATM    6  N2  UNL     1      26.550  37.505  43.160  1.00  0.00    -0.062 N 
ATOM      7  H21 UNL     1      26.296  37.267  44.118  1.00  0.00     0.278 HD
ATOM      8  H22 UNL     1      27.021  38.383  43.380  1.00  0.00     0.278 HD
HETATM    9  C5  UNL     1      27.388  36.539  42.524  1.00  0.00     0.223 C 
HETATM   10  C6  UNL     1      27.402  37.052  41.076  1.00  0.00     0.052 C 
HETATM   11  C7  UNL     1      27.855  35.802  40.357  1.00  0.00     0.240 C 
HETATM   12  N3  UNL     1      27.492  34.683  41.166  1.00  0.00    -0.068 N 
ATOM     13  H31 UNL     1      28.293  34.121  41.456  1.00  0.00     0.277 HD
ATOM     14  H32 UNL     1      27.003  33.953  40.646  1.00  0.00     0.277 HD
HETATM   15  C8  UNL     1      26.713  35.207  42.299  1.00  0.00     0.225 C 
HETATM   16  C9  UNL     1      25.305  35.315  41.865  1.00  0.00     0.083 C 
HETATM   17  C10 UNL     1      25.122  36.133  40.587  1.00  0.00     0.205 C 
HETATM   18  C11 UNL     1      25.955  37.353  40.862  1.00  0.00     0.058 C 
ENDROOT
TORSDOF 1
ENDMDL
MODEL 3
REMARK VINA RESULT: -6.041789802      1.890      4.458
REMARK  1 active torsions:
REMARK  status: ('A' for Active; 'I' for Inactive)
REMARK    1  A    between atoms: C8_15  and  C9_16 
ROOT
HETATM    1  C1  UNL     1      26.436  35.187  41.398  1.00  0.00     0.273 C 
HETATM    2  N1  UNL     1      25.463  36.180  41.700  1.00  0.00    -0.063 N 
HETATM    3  C2  UNL     1      26.026  37.345  42.276  1.00  0.00     0.273 C 
HETATM    4  C3  UNL     1      24.543  36.511  40.595  1.00  0.00     0.229 C 
HETATM    5  C4  UNL     1      23.549  37.523  41.144  1.00  0.00     0.224 C 
HETATM    6  N2  UNL     1      22.321  37.479  40.421  1.00  0.00    -0.062 N 
ATOM      7  H21 UNL     1      22.435  37.511  39.408  1.00  0.00     0.278 HD
ATOM      8  H22 UNL     1      21.762  38.329  40.501  1.00  0.00     0.278 HD
HETATM    9  C5  UNL     1      21.663  36.304  40.894  1.00  0.00     0.223 C 
HETATM   10  C6  UNL     1      21.844  36.443  42.413  1.00  0.00     0.052 C 
HETATM   11  C7  UNL     1      21.599  35.014  42.841  1.00  0.00     0.240 C 
HETATM   12  N3  UNL     1      21.904  34.172  41.729  1.00  0.00    -0.068 N 
ATOM     13  H31 UNL     1      21.108  33.616  41.417  1.00  0.00     0.277 HD
ATOM     14  H32 UNL     1      22.518  33.394  41.972  1.00  0.00     0.277 HD
HETATM   15  C8  UNL     1      22.455  35.037  40.674  1.00  0.00     0.225 C 
HETATM   16  C9  UNL     1      23.903  35.185  40.925  1.00  0.00     0.083 C 
HETATM   17  C10 UNL     1      24.231  35.680  42.333  1.00  0.00     0.205 C 
HETATM   18  C11 UNL     1      23.283  36.835  42.498  1.00  0.00     0.058 C 
ENDROOT
TORSDOF 1
ENDMDL
MODEL 4
REMARK VINA RESULT: -5.975544888      4.007      5.662
REMARK  1 active torsions:
REMARK  status: ('A' for Active; 'I' for Inactive)
REMARK    1  A    between atoms: C8_15  and  C9_16 
ROOT
HETATM    1  C1  UNL     1      19.043  35.626  44.018  1.00  0.00     0.273 C 
HETATM    2  N1  UNL     1      20.427  35.382  43.799  1.00  0.00    -0.063 N 
HETATM    3  C2  UNL     1      21.108  34.979  44.974  1.00  0.00     0.273 C 
HETATM    4  C3  UNL     1      20.735  34.494  42.662  1.00  0.00     0.229 C 
HETATM    5  C4  UNL     1      22.251  34.427  42.558  1.00  0.00     0.224 C 
HETATM    6  N2  UNL     1      22.660  34.115  41.228  1.00  0.00    -0.062 N 
ATOM      7  H21 UNL     1      22.177  33.314  40.822  1.00  0.00     0.278 HD
ATOM      8  H22 UNL     1      23.601  33.727  41.163  1.00  0.00     0.278 HD
HETATM    9  C5  UNL     1      22.482  35.330  40.500  1.00  0.00     0.223 C 
HETATM   10  C6  UNL     1      23.116  36.354  41.453  1.00  0.00     0.052 C 
HETATM   11  C7  UNL     1      22.497  37.627  40.923  1.00  0.00     0.240 C 
HETATM   12  N3  UNL     1      21.273  37.277  40.278  1.00  0.00    -0.068 N 
ATOM     13  H31 UNL     1      21.254  37.529  39.290  1.00  0.00     0.277 HD
ATOM     14  H32 UNL     1      20.484  37.853  40.574  1.00  0.00     0.277 HD
HETATM   15  C8  UNL     1      21.060  35.840  40.513  1.00  0.00     0.225 C 
HETATM   16  C9  UNL     1      20.383  35.693  41.818  1.00  0.00     0.083 C 
HETATM   17  C10 UNL     1      21.118  36.382  42.967  1.00  0.00     0.205 C 
HETATM   18  C11 UNL     1      22.536  35.928  42.762  1.00  0.00     0.058 C 
ENDROOT
TORSDOF 1
ENDMDL
MODEL 5
REMARK VINA RESULT: -5.969330641      1.417      3.679
REMARK  1 active torsions:
REMARK  status: ('A' for Active; 'I' for Inactive)
REMARK    1  A    between atoms: C8_15  and  C9_16 
ROOT
HETATM    1  C1  UNL     1      28.002  35.560  42.543  1.00  0.00     0.273 C 
HETATM    2  N1  UNL     1      26.971  36.296  41.896  1.00  0.00    -0.063 N 
HETATM    3  C2  UNL     1      27.434  37.506  41.325  1.00  0.00     0.273 C 
HETATM    4  C3  UNL     1      26.152  35.523  40.942  1.00  0.00     0.229 C 
HETATM    5  C4  UNL     1      25.076  36.466  40.427  1.00  0.00     0.224 C 
HETATM    6  N2  UNL     1      23.927  35.743  39.991  1.00  0.00    -0.062 N 
ATOM      7  H21 UNL     1      24.139  34.967  39.364  1.00  0.00     0.278 HD
ATOM      8  H22 UNL     1      23.334  36.258  39.340  1.00  0.00     0.278 HD
HETATM    9  C5  UNL     1      23.266  35.353  41.195  1.00  0.00     0.223 C 
HETATM   10  C6  UNL     1      23.292  36.663  41.996  1.00  0.00     0.052 C 
HETATM   11  C7  UNL     1      23.054  36.126  43.389  1.00  0.00     0.240 C 
HETATM   12  N3  UNL     1      23.495  34.768  43.410  1.00  0.00    -0.068 N 
ATOM     13  H31 UNL     1      22.753  34.109  43.643  1.00  0.00     0.277 HD
ATOM     14  H32 UNL     1      24.109  34.558  44.198  1.00  0.00     0.277 HD
HETATM   15  C8  UNL     1      24.119  34.500  42.104  1.00  0.00     0.225 C 
HETATM   16  C9  UNL     1      25.529  34.931  42.181  1.00  0.00     0.083 C 
HETATM   17  C10 UNL     1      25.699  36.380  42.636  1.00  0.00     0.205 C 
HETATM   18  C11 UNL     1      24.701  37.107  41.779  1.00  0.00     0.058 C 
ENDROOT
TORSDOF 1
ENDMDL
