MODEL 1
REMARK VINA RESULT: -7.138885102      0.000      0.000
REMARK  10 active torsions:
REMARK  status: ('A' for Active; 'I' for Inactive)
REMARK    1  A    between atoms: C2_2  and  C3_3 
REMARK    2  A    between atoms: C4_4  and  C5_5 
REMARK    3  A    between atoms: C5_5  and  C6_6 
REMARK    4  A    between atoms: C6_6  and  C7_7 
REMARK    5  A    between atoms: C7_7  and  C8_8 
REMARK    6  A    between atoms: C8_8  and  C9_9 
REMARK    7  A    between atoms: C9_9  and  C10_10 
REMARK    8  A    between atoms: C11_11  and  C12_12 
REMARK    9  A    between atoms: C12_12  and  C13_13 
REMARK   10  A    between atoms: C13_13  and  N1_14 
ROOT
HETATM    1  C9  UNL     1      -2.813  11.095  19.198  1.00  0.00     0.027 C 
ENDROOT
BRANCH   1   2
HETATM    2  C8  UNL     1      -3.456  11.627  17.910  1.00  0.00     0.004 C 
BRANCH   2   3
HETATM    3  C7  UNL     1      -3.239  13.120  17.920  1.00  0.00     0.001 C 
BRANCH   3   4
HETATM    4  C6  UNL     1      -1.857  13.494  18.396  1.00  0.00     0.004 C 
BRANCH   4   5
HETATM    5  C5  UNL     1      -1.768  15.018  18.252  1.00  0.00     0.027 C 
BRANCH   5   6
HETATM    6  C4  UNL     1      -2.931  15.573  17.546  1.00  0.00    -0.031 C 
HETATM    7  C3  UNL     1      -3.105  16.884  17.526  1.00  0.00    -0.031 C 
BRANCH   7   8
HETATM    8  C2  UNL     1      -4.237  17.523  16.845  1.00  0.00     0.022 C 
HETATM    9  C1  UNL     1      -3.723  18.523  15.845  1.00  0.00     0.009 C 
ENDBRANCH   7   8
ENDBRANCH   5   6
ENDBRANCH   4   5
ENDBRANCH   3   4
ENDBRANCH   2   3
ENDBRANCH   1   2
BRANCH   1  10
HETATM   10  C10 UNL     1      -3.858  10.457  20.065  1.00  0.00    -0.031 C 
HETATM   11  C11 UNL     1      -3.894  10.771  21.337  1.00  0.00    -0.029 C 
BRANCH  11  12
HETATM   12  C12 UNL     1      -4.891  10.188  22.264  1.00  0.00     0.054 C 
BRANCH  12  13
HETATM   13  C13 UNL     1      -5.133  11.133  23.429  1.00  0.00     0.233 C 
BRANCH  13  14
HETATM   14  N1  UNL     1      -4.249  10.744  24.516  1.00  0.00    -0.079 N 
ATOM     15  H13 UNL     1      -3.347  10.402  24.187  1.00  0.00     0.274 HD
ATOM     16  H12 UNL     1      -3.906  11.542  25.051  1.00  0.00     0.274 HD
ATOM     17  H11 UNL     1      -4.741  10.063  25.095  1.00  0.00     0.274 HD
ENDBRANCH  13  14
ENDBRANCH  12  13
ENDBRANCH  11  12
ENDBRANCH   1  10
TORSDOF 10
ENDMDL
MODEL 2
REMARK VINA RESULT: -7.056784432      0.525      1.220
REMARK  10 active torsions:
REMARK  status: ('A' for Active; 'I' for Inactive)
REMARK    1  A    between atoms: C2_2  and  C3_3 
REMARK    2  A    between atoms: C4_4  and  C5_5 
REMARK    3  A    between atoms: C5_5  and  C6_6 
REMARK    4  A    between atoms: C6_6  and  C7_7 
REMARK    5  A    between atoms: C7_7  and  C8_8 
REMARK    6  A    between atoms: C8_8  and  C9_9 
REMARK    7  A    between atoms: C9_9  and  C10_10 
REMARK    8  A    between atoms: C11_11  and  C12_12 
REMARK    9  A    between atoms: C12_12  and  C13_13 
REMARK   10  A    between atoms: C13_13  and  N1_14 
ROOT
HETATM    1  C9  UNL     1      -2.963  10.007  19.765  1.00  0.00     0.027 C 
ENDROOT
BRANCH   1   2
HETATM    2  C8  UNL     1      -2.416  11.228  19.012  1.00  0.00     0.004 C 
BRANCH   2   3
HETATM    3  C7  UNL     1      -3.470  11.599  17.998  1.00  0.00     0.001 C 
BRANCH   3   4
HETATM    4  C6  UNL     1      -3.452  13.071  17.668  1.00  0.00     0.004 C 
BRANCH   4   5
HETATM    5  C5  UNL     1      -2.141  13.611  18.253  1.00  0.00     0.027 C 
BRANCH   5   6
HETATM    6  C4  UNL     1      -2.040  15.071  18.124  1.00  0.00    -0.031 C 
HETATM    7  C3  UNL     1      -3.058  15.743  17.613  1.00  0.00    -0.031 C 
BRANCH   7   8
HETATM    8  C2  UNL     1      -3.042  17.201  17.448  1.00  0.00     0.022 C 
HETATM    9  C1  UNL     1      -4.178  17.618  16.555  1.00  0.00     0.009 C 
ENDBRANCH   7   8
ENDBRANCH   5   6
ENDBRANCH   4   5
ENDBRANCH   3   4
ENDBRANCH   2   3
ENDBRANCH   1   2
BRANCH   1  10
HETATM   10  C10 UNL     1      -3.938  10.450  20.816  1.00  0.00    -0.031 C 
HETATM   11  C11 UNL     1      -4.427   9.552  21.636  1.00  0.00    -0.029 C 
BRANCH  11  12
HETATM   12  C12 UNL     1      -5.395   9.902  22.701  1.00  0.00     0.054 C 
BRANCH  12  13
HETATM   13  C13 UNL     1      -4.940  11.155  23.427  1.00  0.00     0.233 C 
BRANCH  13  14
HETATM   14  N1  UNL     1      -4.275  10.749  24.655  1.00  0.00    -0.079 N 
ATOM     15  H13 UNL     1      -4.587   9.837  24.988  1.00  0.00     0.274 HD
ATOM     16  H12 UNL     1      -3.292  10.514  24.513  1.00  0.00     0.274 HD
ATOM     17  H11 UNL     1      -4.408  11.488  25.346  1.00  0.00     0.274 HD
ENDBRANCH  13  14
ENDBRANCH  12  13
ENDBRANCH  11  12
ENDBRANCH   1  10
TORSDOF 10
ENDMDL
MODEL 3
REMARK VINA RESULT: -6.743486878      0.947      1.226
REMARK  10 active torsions:
REMARK  status: ('A' for Active; 'I' for Inactive)
REMARK    1  A    between atoms: C2_2  and  C3_3 
REMARK    2  A    between atoms: C4_4  and  C5_5 
REMARK    3  A    between atoms: C5_5  and  C6_6 
REMARK    4  A    between atoms: C6_6  and  C7_7 
REMARK    5  A    between atoms: C7_7  and  C8_8 
REMARK    6  A    between atoms: C8_8  and  C9_9 
REMARK    7  A    between atoms: C9_9  and  C10_10 
REMARK    8  A    between atoms: C11_11  and  C12_12 
REMARK    9  A    between atoms: C12_12  and  C13_13 
REMARK   10  A    between atoms: C13_13  and  N1_14 
ROOT
HETATM    1  C9  UNL     1      -3.722  10.669  19.570  1.00  0.00     0.027 C 
ENDROOT
BRANCH   1   2
HETATM    2  C8  UNL     1      -4.424  11.373  18.401  1.00  0.00     0.004 C 
BRANCH   2   3
HETATM    3  C7  UNL     1      -3.461  12.424  17.908  1.00  0.00     0.001 C 
BRANCH   3   4
HETATM    4  C6  UNL     1      -2.076  12.244  18.479  1.00  0.00     0.004 C 
BRANCH   4   5
HETATM    5  C5  UNL     1      -1.443  13.641  18.478  1.00  0.00     0.027 C 
BRANCH   5   6
HETATM    6  C4  UNL     1      -2.402  14.679  18.077  1.00  0.00    -0.031 C 
HETATM    7  C3  UNL     1      -2.022  15.946  18.095  1.00  0.00    -0.031 C 
BRANCH   7   8
HETATM    8  C2  UNL     1      -2.914  17.046  17.711  1.00  0.00     0.022 C 
HETATM    9  C1  UNL     1      -3.911  16.554  16.697  1.00  0.00     0.009 C 
ENDBRANCH   7   8
ENDBRANCH   5   6
ENDBRANCH   4   5
ENDBRANCH   3   4
ENDBRANCH   2   3
ENDBRANCH   1   2
BRANCH   1  10
HETATM   10  C10 UNL     1      -4.652  10.579  20.745  1.00  0.00    -0.031 C 
HETATM   11  C11 UNL     1      -4.237   9.970  21.828  1.00  0.00    -0.029 C 
BRANCH  11  12
HETATM   12  C12 UNL     1      -5.088   9.836  23.032  1.00  0.00     0.054 C 
BRANCH  12  13
HETATM   13  C13 UNL     1      -5.016  11.103  23.865  1.00  0.00     0.233 C 
BRANCH  13  14
HETATM   14  N1  UNL     1      -4.204  10.826  25.039  1.00  0.00    -0.079 N 
ATOM     15  H13 UNL     1      -3.352  10.311  24.816  1.00  0.00     0.274 HD
ATOM     16  H12 UNL     1      -3.762  11.663  25.420  1.00  0.00     0.274 HD
ATOM     17  H11 UNL     1      -4.789  10.343  25.722  1.00  0.00     0.274 HD
ENDBRANCH  13  14
ENDBRANCH  12  13
ENDBRANCH  11  12
ENDBRANCH   1  10
TORSDOF 10
ENDMDL
MODEL 4
REMARK VINA RESULT: -6.699019166      3.199      7.194
REMARK  10 active torsions:
REMARK  status: ('A' for Active; 'I' for Inactive)
REMARK    1  A    between atoms: C2_2  and  C3_3 
REMARK    2  A    between atoms: C4_4  and  C5_5 
REMARK    3  A    between atoms: C5_5  and  C6_6 
REMARK    4  A    between atoms: C6_6  and  C7_7 
REMARK    5  A    between atoms: C7_7  and  C8_8 
REMARK    6  A    between atoms: C8_8  and  C9_9 
REMARK    7  A    between atoms: C9_9  and  C10_10 
REMARK    8  A    between atoms: C11_11  and  C12_12 
REMARK    9  A    between atoms: C12_12  and  C13_13 
REMARK   10  A    between atoms: C13_13  and  N1_14 
ROOT
HETATM    1  C9  UNL     1      -2.135  13.498  18.329  1.00  0.00     0.027 C 
ENDROOT
BRANCH   1   2
HETATM    2  C8  UNL     1      -3.467  13.013  17.741  1.00  0.00     0.004 C 
BRANCH   2   3
HETATM    3  C7  UNL     1      -3.543  11.537  18.040  1.00  0.00     0.001 C 
BRANCH   3   4
HETATM    4  C6  UNL     1      -2.335  11.044  18.799  1.00  0.00     0.004 C 
BRANCH   4   5
HETATM    5  C5  UNL     1      -2.855   9.947  19.736  1.00  0.00     0.027 C 
BRANCH   5   6
HETATM    6  C4  UNL     1      -3.951  10.426  20.589  1.00  0.00    -0.031 C 
HETATM    7  C3  UNL     1      -4.339   9.684  21.614  1.00  0.00    -0.031 C 
BRANCH   7   8
HETATM    8  C2  UNL     1      -5.424  10.086  22.516  1.00  0.00     0.022 C 
HETATM    9  C1  UNL     1      -4.933  11.165  23.444  1.00  0.00     0.009 C 
ENDBRANCH   7   8
ENDBRANCH   5   6
ENDBRANCH   4   5
ENDBRANCH   3   4
ENDBRANCH   2   3
ENDBRANCH   1   2
BRANCH   1  10
HETATM   10  C10 UNL     1      -2.022  14.987  18.177  1.00  0.00    -0.031 C 
HETATM   11  C11 UNL     1      -3.028  15.642  17.654  1.00  0.00    -0.029 C 
BRANCH  11  12
HETATM   12  C12 UNL     1      -3.001  17.110  17.466  1.00  0.00     0.054 C 
BRANCH  12  13
HETATM   13  C13 UNL     1      -4.158  17.545  16.583  1.00  0.00     0.233 C 
BRANCH  13  14
HETATM   14  N1  UNL     1      -3.720  18.686  15.795  1.00  0.00    -0.079 N 
ATOM     15  H13 UNL     1      -2.975  18.449  15.139  1.00  0.00     0.274 HD
ATOM     16  H12 UNL     1      -4.416  18.983  15.111  1.00  0.00     0.274 HD
ATOM     17  H11 UNL     1      -3.456  19.432  16.438  1.00  0.00     0.274 HD
ENDBRANCH  13  14
ENDBRANCH  12  13
ENDBRANCH  11  12
ENDBRANCH   1  10
TORSDOF 10
ENDMDL
MODEL 5
REMARK VINA RESULT: -6.636767776      2.930      3.520
REMARK  10 active torsions:
REMARK  status: ('A' for Active; 'I' for Inactive)
REMARK    1  A    between atoms: C2_2  and  C3_3 
REMARK    2  A    between atoms: C4_4  and  C5_5 
REMARK    3  A    between atoms: C5_5  and  C6_6 
REMARK    4  A    between atoms: C6_6  and  C7_7 
REMARK    5  A    between atoms: C7_7  and  C8_8 
REMARK    6  A    between atoms: C8_8  and  C9_9 
REMARK    7  A    between atoms: C9_9  and  C10_10 
REMARK    8  A    between atoms: C11_11  and  C12_12 
REMARK    9  A    between atoms: C12_12  and  C13_13 
REMARK   10  A    between atoms: C13_13  and  N1_14 
ROOT
HETATM    1  C9  UNL     1      -1.892  11.221  18.307  1.00  0.00     0.027 C 
ENDROOT
BRANCH   1   2
HETATM    2  C8  UNL     1      -3.260  11.893  18.132  1.00  0.00     0.004 C 
BRANCH   2   3
HETATM    3  C7  UNL     1      -2.977  13.338  17.806  1.00  0.00     0.001 C 
BRANCH   3   4
HETATM    4  C6  UNL     1      -1.684  13.820  18.417  1.00  0.00     0.004 C 
BRANCH   4   5
HETATM    5  C5  UNL     1      -1.697  15.346  18.263  1.00  0.00     0.027 C 
BRANCH   5   6
HETATM    6  C4  UNL     1      -2.813  15.805  17.425  1.00  0.00    -0.031 C 
HETATM    7  C3  UNL     1      -3.192  17.071  17.496  1.00  0.00    -0.031 C 
BRANCH   7   8
HETATM    8  C2  UNL     1      -4.295  17.613  16.695  1.00  0.00     0.022 C 
HETATM    9  C1  UNL     1      -3.760  18.644  15.738  1.00  0.00     0.009 C 
ENDBRANCH   7   8
ENDBRANCH   5   6
ENDBRANCH   4   5
ENDBRANCH   3   4
ENDBRANCH   2   3
ENDBRANCH   1   2
BRANCH   1  10
HETATM   10  C10 UNL     1      -1.846   9.943  17.522  1.00  0.00    -0.031 C 
HETATM   11  C11 UNL     1      -2.150   8.823  18.130  1.00  0.00    -0.029 C 
BRANCH  11  12
HETATM   12  C12 UNL     1      -2.130   7.517  17.432  1.00  0.00     0.054 C 
BRANCH  12  13
HETATM   13  C13 UNL     1      -1.605   6.437  18.361  1.00  0.00     0.233 C 
BRANCH  13  14
HETATM   14  N1  UNL     1      -1.469   7.013  19.690  1.00  0.00    -0.079 N 
ATOM     15  H13 UNL     1      -2.368   7.238  20.115  1.00  0.00     0.274 HD
ATOM     16  H12 UNL     1      -1.156   6.334  20.384  1.00  0.00     0.274 HD
ATOM     17  H11 UNL     1      -0.851   7.822  19.622  1.00  0.00     0.274 HD
ENDBRANCH  13  14
ENDBRANCH  12  13
ENDBRANCH  11  12
ENDBRANCH   1  10
TORSDOF 10
ENDMDL
