MODEL 1
REMARK VINA RESULT: -7.317101538      0.000      0.000
REMARK  9 active torsions:
REMARK  status: ('A' for Active; 'I' for Inactive)
REMARK    1  A    between atoms: C2_2  and  N1_4 
REMARK    2  A    between atoms: N1_4  and  C4_6 
REMARK    3  A    between atoms: C5_9  and  N3_10 
REMARK    4  A    between atoms: C8_13  and  O1_14 
REMARK    5  A    between atoms: O1_14  and  C9_15 
REMARK    6  A    between atoms: C9_15  and  C10_16 
REMARK    7  A    between atoms: C10_16  and  C11_17 
REMARK    8  A    between atoms: C11_17  and  C12_18 
REMARK    9  A    between atoms: C16_24  and  N4_25 
ROOT
HETATM    1  C4  UNL     1       4.550  50.033  21.619  1.00  0.00     0.681 A 
HETATM    2  N2  UNL     1       4.390  49.991  22.959  1.00  0.00    -0.177 N 
ATOM      3  H2  UNL     1       5.191  49.794  23.558  1.00  0.00     0.185 HD
HETATM    4  C5  UNL     1       3.187  50.205  23.505  1.00  0.00     0.122 A 
HETATM    5  C15 UNL     1       2.124  50.469  22.663  1.00  0.00     0.097 A 
HETATM    6  C16 UNL     1       2.260  50.517  21.291  1.00  0.00     0.122 A 
HETATM    7  N6  UNL     1       3.514  50.289  20.809  1.00  0.00    -0.177 N 
ATOM      8  H6  UNL     1       3.669  50.314  19.802  1.00  0.00     0.185 HD
ENDROOT
BRANCH   4   9
HETATM    9  N3  UNL     1       3.019  50.161  24.915  1.00  0.00    -0.367 N 
HETATM   10  C6  UNL     1       2.527  48.934  25.523  1.00  0.00     0.127 C 
HETATM   11  C7  UNL     1       3.201  48.888  26.902  1.00  0.00     0.051 C 
HETATM   12  C8  UNL     1       2.547  49.919  27.751  1.00  0.00     0.124 C 
HETATM   13  C13 UNL     1       2.335  51.219  26.950  1.00  0.00     0.051 C 
HETATM   14  C14 UNL     1       3.297  51.258  25.781  1.00  0.00     0.127 C 
BRANCH  12  15
HETATM   15  O1  UNL     1       1.288  49.514  28.168  1.00  0.00    -0.386 OA
BRANCH  15  16
HETATM   16  C9  UNL     1       0.398  50.560  28.090  1.00  0.00     0.168 C 
BRANCH  16  17
HETATM   17  C10 UNL     1      -0.994  50.096  27.847  1.00  0.00     0.032 C 
BRANCH  17  18
HETATM   18  C11 UNL     1      -1.304  50.026  26.363  1.00  0.00     0.073 C 
BRANCH  18  19
HETATM   19  C12 UNL     1      -2.729  50.354  26.062  1.00  0.00     0.353 C 
HETATM   20  F1  UNL     1      -3.411  50.442  27.276  1.00  0.00    -0.214 F 
HETATM   21  F2  UNL     1      -3.276  49.387  25.244  1.00  0.00    -0.214 F 
ENDBRANCH  18  19
ENDBRANCH  17  18
ENDBRANCH  16  17
ENDBRANCH  15  16
ENDBRANCH  12  15
ENDBRANCH   4   9
BRANCH   1  22
HETATM   22  N1  UNL     1       5.703  49.824  21.144  1.00  0.00    -0.222 N 
ATOM     23  H1  UNL     1       6.188  50.599  20.692  1.00  0.00     0.178 HD
BRANCH  22  24
HETATM   24  C2  UNL     1       6.357  48.564  21.208  1.00  0.00     0.091 C 
HETATM   25  C1  UNL     1       6.897  48.268  19.808  1.00  0.00     0.032 C 
HETATM   26  C3  UNL     1       7.511  48.545  22.208  1.00  0.00     0.032 C 
ENDBRANCH  22  24
ENDBRANCH   1  22
BRANCH   6  27
HETATM   27  N4  UNL     1       1.168  50.763  20.417  1.00  0.00    -0.365 N 
HETATM   28  C17 UNL     1       1.353  50.501  19.010  1.00  0.00     0.126 C 
HETATM   29  C18 UNL     1       0.675  49.185  18.678  1.00  0.00     0.039 C 
HETATM   30  C19 UNL     1      -0.831  49.421  18.677  1.00  0.00     0.115 C 
HETATM   31  N5  UNL     1      -1.170  50.763  18.966  1.00  0.00    -0.416 N 
HETATM   32  C20 UNL     1      -1.279  51.153  20.319  1.00  0.00     0.090 C 
ATOM     33  H5  UNL     1      -1.333  51.434  18.215  1.00  0.00     0.153 HD
HETATM   34  C21 UNL     1      -1.881  52.574  20.311  1.00  0.00     0.033 C 
HETATM   35  C22 UNL     1      -0.019  51.244  21.108  1.00  0.00     0.148 C 
ENDBRANCH   6  27
TORSDOF 9
ENDMDL
MODEL 2
REMARK VINA RESULT: -7.247302103      0.876      1.656
REMARK  9 active torsions:
REMARK  status: ('A' for Active; 'I' for Inactive)
REMARK    1  A    between atoms: C2_2  and  N1_4 
REMARK    2  A    between atoms: N1_4  and  C4_6 
REMARK    3  A    between atoms: C5_9  and  N3_10 
REMARK    4  A    between atoms: C8_13  and  O1_14 
REMARK    5  A    between atoms: O1_14  and  C9_15 
REMARK    6  A    between atoms: C9_15  and  C10_16 
REMARK    7  A    between atoms: C10_16  and  C11_17 
REMARK    8  A    between atoms: C11_17  and  C12_18 
REMARK    9  A    between atoms: C16_24  and  N4_25 
ROOT
HETATM    1  C4  UNL     1       3.711  50.106  21.429  1.00  0.00     0.681 A 
HETATM    2  N2  UNL     1       3.723  50.065  22.778  1.00  0.00    -0.177 N 
ATOM      3  H2  UNL     1       4.600  49.903  23.272  1.00  0.00     0.185 HD
HETATM    4  C5  UNL     1       2.592  50.235  23.473  1.00  0.00     0.122 A 
HETATM    5  C15 UNL     1       1.421  50.452  22.772  1.00  0.00     0.097 A 
HETATM    6  C16 UNL     1       1.380  50.499  21.394  1.00  0.00     0.122 A 
HETATM    7  N6  UNL     1       2.570  50.317  20.758  1.00  0.00    -0.177 N 
ATOM      8  H6  UNL     1       2.595  50.343  19.738  1.00  0.00     0.185 HD
ENDROOT
BRANCH   4   9
HETATM    9  N3  UNL     1       2.605  50.192  24.893  1.00  0.00    -0.367 N 
HETATM   10  C6  UNL     1       2.149  48.983  25.561  1.00  0.00     0.127 C 
HETATM   11  C7  UNL     1       2.994  48.906  26.841  1.00  0.00     0.051 C 
HETATM   12  C8  UNL     1       2.495  49.957  27.767  1.00  0.00     0.124 C 
HETATM   13  C13 UNL     1       2.231  51.268  26.998  1.00  0.00     0.051 C 
HETATM   14  C14 UNL     1       3.035  51.274  25.715  1.00  0.00     0.127 C 
BRANCH  12  15
HETATM   15  O1  UNL     1       1.285  49.600  28.343  1.00  0.00    -0.386 OA
BRANCH  15  16
HETATM   16  C9  UNL     1       0.360  50.605  28.180  1.00  0.00     0.168 C 
BRANCH  16  17
HETATM   17  C10 UNL     1      -1.007  50.076  27.929  1.00  0.00     0.032 C 
BRANCH  17  18
HETATM   18  C11 UNL     1      -1.319  50.031  26.444  1.00  0.00     0.073 C 
BRANCH  18  19
HETATM   19  C12 UNL     1      -2.745  50.367  26.152  1.00  0.00     0.353 C 
HETATM   20  F1  UNL     1      -3.430  50.407  27.367  1.00  0.00    -0.214 F 
HETATM   21  F2  UNL     1      -3.287  49.431  25.296  1.00  0.00    -0.214 F 
ENDBRANCH  18  19
ENDBRANCH  17  18
ENDBRANCH  16  17
ENDBRANCH  15  16
ENDBRANCH  12  15
ENDBRANCH   4   9
BRANCH   1  22
HETATM   22  N1  UNL     1       4.801  49.940  20.812  1.00  0.00    -0.222 N 
ATOM     23  H1  UNL     1       5.279  50.763  20.444  1.00  0.00     0.178 HD
BRANCH  22  24
HETATM   24  C2  UNL     1       5.394  48.665  20.604  1.00  0.00     0.091 C 
HETATM   25  C1  UNL     1       4.995  48.208  19.201  1.00  0.00     0.032 C 
HETATM   26  C3  UNL     1       6.918  48.696  20.710  1.00  0.00     0.032 C 
ENDBRANCH  22  24
ENDBRANCH   1  22
BRANCH   6  27
HETATM   27  N4  UNL     1       0.177  50.697  20.666  1.00  0.00    -0.365 N 
HETATM   28  C17 UNL     1      -1.054  50.823  21.408  1.00  0.00     0.126 C 
HETATM   29  C18 UNL     1      -1.430  52.291  21.458  1.00  0.00     0.039 C 
HETATM   30  C19 UNL     1      -1.946  52.690  20.080  1.00  0.00     0.115 C 
HETATM   31  N5  UNL     1      -1.941  51.612  19.165  1.00  0.00    -0.416 N 
HETATM   32  C20 UNL     1      -0.751  51.337  18.456  1.00  0.00     0.090 C 
ATOM     33  H5  UNL     1      -2.777  51.045  19.021  1.00  0.00     0.153 HD
HETATM   34  C21 UNL     1      -1.119  50.285  17.388  1.00  0.00     0.033 C 
HETATM   35  C22 UNL     1       0.387  50.760  19.226  1.00  0.00     0.148 C 
ENDBRANCH   6  27
TORSDOF 9
ENDMDL
MODEL 3
REMARK VINA RESULT: -7.029032192      4.321      8.069
REMARK  9 active torsions:
REMARK  status: ('A' for Active; 'I' for Inactive)
REMARK    1  A    between atoms: C2_2  and  N1_4 
REMARK    2  A    between atoms: N1_4  and  C4_6 
REMARK    3  A    between atoms: C5_9  and  N3_10 
REMARK    4  A    between atoms: C8_13  and  O1_14 
REMARK    5  A    between atoms: O1_14  and  C9_15 
REMARK    6  A    between atoms: C9_15  and  C10_16 
REMARK    7  A    between atoms: C10_16  and  C11_17 
REMARK    8  A    between atoms: C11_17  and  C12_18 
REMARK    9  A    between atoms: C16_24  and  N4_25 
ROOT
HETATM    1  C4  UNL     1      -3.087  51.569  15.687  1.00  0.00     0.681 A 
HETATM    2  N2  UNL     1      -2.765  51.645  16.996  1.00  0.00    -0.177 N 
ATOM      3  H2  UNL     1      -3.429  52.048  17.657  1.00  0.00     0.185 HD
HETATM    4  C5  UNL     1      -1.583  51.194  17.432  1.00  0.00     0.122 A 
HETATM    5  C15 UNL     1      -0.709  50.654  16.508  1.00  0.00     0.097 A 
HETATM    6  C16 UNL     1      -1.011  50.565  15.165  1.00  0.00     0.122 A 
HETATM    7  N6  UNL     1      -2.232  51.044  14.798  1.00  0.00    -0.177 N 
ATOM      8  H6  UNL     1      -2.506  51.002  13.816  1.00  0.00     0.185 HD
ENDROOT
BRANCH   4   9
HETATM    9  N3  UNL     1      -1.246  51.273  18.809  1.00  0.00    -0.367 N 
HETATM   10  C6  UNL     1      -1.011  50.038  19.543  1.00  0.00     0.127 C 
HETATM   11  C7  UNL     1       0.047  50.409  20.594  1.00  0.00     0.051 C 
HETATM   12  C8  UNL     1      -0.625  51.240  21.627  1.00  0.00     0.124 C 
HETATM   13  C13 UNL     1      -1.562  52.269  20.963  1.00  0.00     0.051 C 
HETATM   14  C14 UNL     1      -1.129  52.497  19.529  1.00  0.00     0.127 C 
BRANCH  12  15
HETATM   15  O1  UNL     1      -1.426  50.473  22.459  1.00  0.00    -0.386 OA
BRANCH  15  16
HETATM   16  C9  UNL     1      -0.652  49.745  23.333  1.00  0.00     0.168 C 
BRANCH  16  17
HETATM   17  C10 UNL     1      -0.822  50.192  24.741  1.00  0.00     0.032 C 
BRANCH  17  18
HETATM   18  C11 UNL     1      -1.970  49.466  25.418  1.00  0.00     0.073 C 
BRANCH  18  19
HETATM   19  C12 UNL     1      -3.188  50.322  25.548  1.00  0.00     0.353 C 
HETATM   20  F1  UNL     1      -2.869  51.591  25.066  1.00  0.00    -0.214 F 
HETATM   21  F2  UNL     1      -3.595  50.368  26.864  1.00  0.00    -0.214 F 
ENDBRANCH  18  19
ENDBRANCH  17  18
ENDBRANCH  16  17
ENDBRANCH  15  16
ENDBRANCH  12  15
ENDBRANCH   4   9
BRANCH   1  22
HETATM   22  N1  UNL     1      -4.213  52.007  15.318  1.00  0.00    -0.222 N 
ATOM     23  H1  UNL     1      -4.753  52.571  15.975  1.00  0.00     0.178 HD
BRANCH  22  24
HETATM   24  C2  UNL     1      -4.767  51.753  14.033  1.00  0.00     0.091 C 
HETATM   25  C1  UNL     1      -5.479  50.402  14.111  1.00  0.00     0.032 C 
HETATM   26  C3  UNL     1      -5.764  52.824  13.595  1.00  0.00     0.032 C 
ENDBRANCH  22  24
ENDBRANCH   1  22
BRANCH   6  27
HETATM   27  N4  UNL     1      -0.109  50.035  14.206  1.00  0.00    -0.365 N 
HETATM   28  C17 UNL     1      -0.450  50.165  12.809  1.00  0.00     0.126 C 
HETATM   29  C18 UNL     1       0.374  51.295  12.222  1.00  0.00     0.039 C 
HETATM   30  C19 UNL     1       1.808  50.799  12.069  1.00  0.00     0.115 C 
HETATM   31  N5  UNL     1       1.968  49.460  12.494  1.00  0.00    -0.416 N 
HETATM   32  C20 UNL     1       2.206  49.212  13.863  1.00  0.00     0.090 C 
ATOM     33  H5  UNL     1       1.912  48.690  11.826  1.00  0.00     0.153 HD
HETATM   34  C21 UNL     1       2.566  47.715  13.974  1.00  0.00     0.033 C 
HETATM   35  C22 UNL     1       1.073  49.433  14.806  1.00  0.00     0.148 C 
ENDBRANCH   6  27
TORSDOF 9
ENDMDL
MODEL 4
REMARK VINA RESULT: -6.924337560      4.376      8.024
REMARK  9 active torsions:
REMARK  status: ('A' for Active; 'I' for Inactive)
REMARK    1  A    between atoms: C2_2  and  N1_4 
REMARK    2  A    between atoms: N1_4  and  C4_6 
REMARK    3  A    between atoms: C5_9  and  N3_10 
REMARK    4  A    between atoms: C8_13  and  O1_14 
REMARK    5  A    between atoms: O1_14  and  C9_15 
REMARK    6  A    between atoms: C9_15  and  C10_16 
REMARK    7  A    between atoms: C10_16  and  C11_17 
REMARK    8  A    between atoms: C11_17  and  C12_18 
REMARK    9  A    between atoms: C16_24  and  N4_25 
ROOT
HETATM    1  C4  UNL     1      -3.035  51.576  15.756  1.00  0.00     0.681 A 
HETATM    2  N2  UNL     1      -2.723  51.664  17.066  1.00  0.00    -0.177 N 
ATOM      3  H2  UNL     1      -3.375  52.106  17.713  1.00  0.00     0.185 HD
HETATM    4  C5  UNL     1      -1.563  51.176  17.522  1.00  0.00     0.122 A 
HETATM    5  C15 UNL     1      -0.703  50.584  16.617  1.00  0.00     0.097 A 
HETATM    6  C16 UNL     1      -0.996  50.481  15.274  1.00  0.00     0.122 A 
HETATM    7  N6  UNL     1      -2.194  51.001  14.885  1.00  0.00    -0.177 N 
ATOM      8  H6  UNL     1      -2.460  50.950  13.902  1.00  0.00     0.185 HD
ENDROOT
BRANCH   4   9
HETATM    9  N3  UNL     1      -1.236  51.268  18.901  1.00  0.00    -0.367 N 
HETATM   10  C6  UNL     1      -0.980  50.042  19.642  1.00  0.00     0.127 C 
HETATM   11  C7  UNL     1       0.064  50.438  20.697  1.00  0.00     0.051 C 
HETATM   12  C8  UNL     1      -0.631  51.261  21.722  1.00  0.00     0.124 C 
HETATM   13  C13 UNL     1      -1.585  52.268  21.048  1.00  0.00     0.051 C 
HETATM   14  C14 UNL     1      -1.149  52.498  19.616  1.00  0.00     0.127 C 
BRANCH  12  15
HETATM   15  O1  UNL     1      -1.421  50.482  22.554  1.00  0.00    -0.386 OA
BRANCH  15  16
HETATM   16  C9  UNL     1      -0.636  49.755  23.420  1.00  0.00     0.168 C 
BRANCH  16  17
HETATM   17  C10 UNL     1      -0.862  50.138  24.839  1.00  0.00     0.032 C 
BRANCH  17  18
HETATM   18  C11 UNL     1      -2.059  49.412  25.425  1.00  0.00     0.073 C 
BRANCH  18  19
HETATM   19  C12 UNL     1      -3.233  50.314  25.619  1.00  0.00     0.353 C 
HETATM   20  F1  UNL     1      -2.898  51.566  25.103  1.00  0.00    -0.214 F 
HETATM   21  F2  UNL     1      -3.557  50.389  26.957  1.00  0.00    -0.214 F 
ENDBRANCH  18  19
ENDBRANCH  17  18
ENDBRANCH  16  17
ENDBRANCH  15  16
ENDBRANCH  12  15
ENDBRANCH   4   9
BRANCH   1  22
HETATM   22  N1  UNL     1      -4.140  52.051  15.367  1.00  0.00    -0.222 N 
ATOM     23  H1  UNL     1      -4.625  52.709  15.976  1.00  0.00     0.178 HD
BRANCH  22  24
HETATM   24  C2  UNL     1      -4.740  51.713  14.124  1.00  0.00     0.091 C 
HETATM   25  C1  UNL     1      -5.532  50.424  14.344  1.00  0.00     0.032 C 
HETATM   26  C3  UNL     1      -5.680  52.800  13.604  1.00  0.00     0.032 C 
ENDBRANCH  22  24
ENDBRANCH   1  22
BRANCH   6  27
HETATM   27  N4  UNL     1      -0.107  49.897  14.333  1.00  0.00    -0.365 N 
HETATM   28  C17 UNL     1       0.247  48.508  14.505  1.00  0.00     0.126 C 
HETATM   29  C18 UNL     1      -0.550  47.688  13.509  1.00  0.00     0.039 C 
HETATM   30  C19 UNL     1       0.052  47.914  12.127  1.00  0.00     0.115 C 
HETATM   31  N5  UNL     1       1.161  48.792  12.154  1.00  0.00    -0.416 N 
HETATM   32  C20 UNL     1       0.920  50.182  12.093  1.00  0.00     0.090 C 
ATOM     33  H5  UNL     1       2.112  48.429  12.218  1.00  0.00     0.153 HD
HETATM   34  C21 UNL     1       2.299  50.850  11.905  1.00  0.00     0.033 C 
HETATM   35  C22 UNL     1       0.312  50.824  13.292  1.00  0.00     0.148 C 
ENDBRANCH   6  27
TORSDOF 9
ENDMDL
MODEL 5
REMARK VINA RESULT: -6.913428629      3.996      7.419
REMARK  9 active torsions:
REMARK  status: ('A' for Active; 'I' for Inactive)
REMARK    1  A    between atoms: C2_2  and  N1_4 
REMARK    2  A    between atoms: N1_4  and  C4_6 
REMARK    3  A    between atoms: C5_9  and  N3_10 
REMARK    4  A    between atoms: C8_13  and  O1_14 
REMARK    5  A    between atoms: O1_14  and  C9_15 
REMARK    6  A    between atoms: C9_15  and  C10_16 
REMARK    7  A    between atoms: C10_16  and  C11_17 
REMARK    8  A    between atoms: C11_17  and  C12_18 
REMARK    9  A    between atoms: C16_24  and  N4_25 
ROOT
HETATM    1  C4  UNL     1      -2.294  51.330  16.014  1.00  0.00     0.681 A 
HETATM    2  N2  UNL     1      -2.347  51.482  17.354  1.00  0.00    -0.177 N 
ATOM      3  H2  UNL     1      -3.126  51.987  17.776  1.00  0.00     0.185 HD
HETATM    4  C5  UNL     1      -1.384  50.975  18.133  1.00  0.00     0.122 A 
HETATM    5  C15 UNL     1      -0.344  50.296  17.528  1.00  0.00     0.097 A 
HETATM    6  C16 UNL     1      -0.265  50.127  16.162  1.00  0.00     0.122 A 
HETATM    7  N6  UNL     1      -1.281  50.671  15.435  1.00  0.00    -0.177 N 
ATOM      8  H6  UNL     1      -1.271  50.574  14.420  1.00  0.00     0.185 HD
ENDROOT
BRANCH   4   9
HETATM    9  N3  UNL     1      -1.441  51.134  19.543  1.00  0.00    -0.367 N 
HETATM   10  C6  UNL     1      -0.747  52.261  20.148  1.00  0.00     0.127 C 
HETATM   11  C7  UNL     1      -1.599  52.628  21.373  1.00  0.00     0.051 C 
HETATM   12  C8  UNL     1      -1.387  51.570  22.395  1.00  0.00     0.124 C 
HETATM   13  C13 UNL     1      -1.400  50.176  21.737  1.00  0.00     0.051 C 
HETATM   14  C14 UNL     1      -2.136  50.246  20.415  1.00  0.00     0.127 C 
BRANCH  12  15
HETATM   15  O1  UNL     1      -0.151  51.693  23.010  1.00  0.00    -0.386 OA
BRANCH  15  16
HETATM   16  C9  UNL     1       0.031  50.686  23.930  1.00  0.00     0.168 C 
BRANCH  16  17
HETATM   17  C10 UNL     1      -0.598  51.001  25.240  1.00  0.00     0.032 C 
BRANCH  17  18
HETATM   18  C11 UNL     1      -1.543  49.898  25.680  1.00  0.00     0.073 C 
BRANCH  18  19
HETATM   19  C12 UNL     1      -2.962  50.359  25.751  1.00  0.00     0.353 C 
HETATM   20  F1  UNL     1      -3.359  50.312  27.087  1.00  0.00    -0.214 F 
HETATM   21  F2  UNL     1      -3.759  49.560  24.958  1.00  0.00    -0.214 F 
ENDBRANCH  18  19
ENDBRANCH  17  18
ENDBRANCH  16  17
ENDBRANCH  15  16
ENDBRANCH  12  15
ENDBRANCH   4   9
BRANCH   1  22
HETATM   22  N1  UNL     1      -3.224  51.825  15.315  1.00  0.00    -0.222 N 
ATOM     23  H1  UNL     1      -3.277  52.840  15.228  1.00  0.00     0.178 HD
BRANCH  22  24
HETATM   24  C2  UNL     1      -4.200  51.039  14.644  1.00  0.00     0.091 C 
HETATM   25  C1  UNL     1      -5.561  51.673  14.931  1.00  0.00     0.032 C 
HETATM   26  C3  UNL     1      -3.978  50.982  13.133  1.00  0.00     0.032 C 
ENDBRANCH  22  24
ENDBRANCH   1  22
BRANCH   6  27
HETATM   27  N4  UNL     1       0.814  49.454  15.530  1.00  0.00    -0.365 N 
HETATM   28  C17 UNL     1       0.794  49.341  14.091  1.00  0.00     0.126 C 
HETATM   29  C18 UNL     1       1.755  50.365  13.521  1.00  0.00     0.039 C 
HETATM   30  C19 UNL     1       3.175  49.870  13.775  1.00  0.00     0.115 C 
HETATM   31  N5  UNL     1       3.203  48.624  14.444  1.00  0.00    -0.416 N 
HETATM   32  C20 UNL     1       3.126  48.615  15.854  1.00  0.00     0.090 C 
ATOM     33  H5  UNL     1       3.276  47.752  13.920  1.00  0.00     0.153 HD
HETATM   34  C21 UNL     1       3.415  47.164  16.292  1.00  0.00     0.033 C 
HETATM   35  C22 UNL     1       1.818  48.978  16.470  1.00  0.00     0.148 C 
ENDBRANCH   6  27
TORSDOF 9
ENDMDL
