MODEL 1
REMARK VINA RESULT: -8.277273839      0.000      0.000
REMARK  5 active torsions:
REMARK  status: ('A' for Active; 'I' for Inactive)
REMARK    1  A    between atoms: N2_6  and  C5_7 
REMARK    2  A    between atoms: C5_7  and  C6_8 
REMARK    3  A    between atoms: C6_8  and  N4_13 
REMARK    4  A    between atoms: N3_9  and  O1_11 
REMARK    5  A    between atoms: N4_13  and  C7_15 
ROOT
HETATM    1  C6  UNL     1       8.382   7.550  45.771  1.00  0.00     0.126 C 
HETATM    2  N3  UNL     1       8.871   7.640  46.962  1.00  0.00    -0.255 N 
ATOM      3  H3  UNL     1       8.352   8.188  47.648  1.00  0.00     0.195 HD
ENDROOT
BRANCH   1   4
HETATM    4  C5  UNL     1       9.178   6.741  44.813  1.00  0.00     0.350 C 
BRANCH   4   5
HETATM    5  N2  UNL     1       9.021   7.140  43.451  1.00  0.00     0.100 N 
HETATM    6  C4  UNL     1       8.240   6.295  42.634  1.00  0.00     0.278 C 
HETATM    7  C3  UNL     1       8.871   5.014  42.214  1.00  0.00     0.075 C 
HETATM    8  C2  UNL     1      10.084   5.148  41.361  1.00  0.00     0.064 C 
HETATM    9  N1  UNL     1      10.241   6.355  40.663  1.00  0.00    -0.376 N 
HETATM   10  C1  UNL     1       9.621   6.443  39.382  1.00  0.00     0.154 C 
HETATM   11  C18 UNL     1      10.318   7.547  41.408  1.00  0.00     0.092 C 
HETATM   12  C17 UNL     1      10.340   7.368  42.900  1.00  0.00     0.317 C 
ENDBRANCH   4   5
ENDBRANCH   1   4
BRANCH   1  13
HETATM   13  N4  UNL     1       7.185   8.178  45.415  1.00  0.00    -0.368 N 
ATOM     14  H4  UNL     1       6.379   7.573  45.253  1.00  0.00     0.161 HD
BRANCH  13  15
HETATM   15  C7  UNL     1       6.977   9.581  45.253  1.00  0.00     0.032 C 
HETATM   16  C8  UNL     1       8.160  10.349  44.749  1.00  0.00     0.035 C 
HETATM   17  C9  UNL     1       7.764  11.791  44.569  1.00  0.00    -0.012 C 
HETATM   18  C10 UNL     1       7.417  12.456  45.868  1.00  0.00     0.009 C 
HETATM   19  C14 UNL     1       6.623  11.897  43.586  1.00  0.00     0.009 C 
HETATM   20  C11 UNL     1       6.246  11.661  46.460  1.00  0.00    -0.012 C 
HETATM   21  C12 UNL     1       5.074  11.877  45.539  1.00  0.00     0.009 C 
HETATM   22  C16 UNL     1       6.620  10.221  46.594  1.00  0.00     0.035 C 
HETATM   23  C13 UNL     1       5.416  11.245  44.203  1.00  0.00    -0.012 C 
HETATM   24  C15 UNL     1       5.746   9.772  44.385  1.00  0.00     0.035 C 
ENDBRANCH  13  15
ENDBRANCH   1  13
BRANCH   2  25
HETATM   25  O1  UNL     1      10.038   7.050  47.368  1.00  0.00    -0.288 OA
ATOM     26  H1  UNL     1      10.772   7.516  47.750  1.00  0.00     0.244 HD
ENDBRANCH   2  25
TORSDOF 5
ENDMDL
MODEL 2
REMARK VINA RESULT: -8.133495013      0.205      1.464
REMARK  5 active torsions:
REMARK  status: ('A' for Active; 'I' for Inactive)
REMARK    1  A    between atoms: N2_6  and  C5_7 
REMARK    2  A    between atoms: C5_7  and  C6_8 
REMARK    3  A    between atoms: C6_8  and  N4_13 
REMARK    4  A    between atoms: N3_9  and  O1_11 
REMARK    5  A    between atoms: N4_13  and  C7_15 
ROOT
HETATM    1  C6  UNL     1       8.412   7.580  45.667  1.00  0.00     0.126 C 
HETATM    2  N3  UNL     1       8.792   7.647  46.899  1.00  0.00    -0.255 N 
ATOM      3  H3  UNL     1       8.187   8.140  47.556  1.00  0.00     0.195 HD
ENDROOT
BRANCH   1   4
HETATM    4  C5  UNL     1       9.330   6.852  44.754  1.00  0.00     0.350 C 
BRANCH   4   5
HETATM    5  N2  UNL     1       9.138   7.163  43.374  1.00  0.00     0.100 N 
HETATM    6  C4  UNL     1       8.364   6.250  42.625  1.00  0.00     0.278 C 
HETATM    7  C3  UNL     1       9.021   4.963  42.271  1.00  0.00     0.075 C 
HETATM    8  C2  UNL     1      10.214   5.076  41.388  1.00  0.00     0.064 C 
HETATM    9  N1  UNL     1      10.327   6.241  40.615  1.00  0.00    -0.376 N 
HETATM   10  C1  UNL     1       9.681   6.236  39.343  1.00  0.00     0.154 C 
HETATM   11  C18 UNL     1      10.385   7.478  41.285  1.00  0.00     0.092 C 
HETATM   12  C17 UNL     1      10.439   7.391  42.784  1.00  0.00     0.317 C 
ENDBRANCH   4   5
ENDBRANCH   1   4
BRANCH   1  13
HETATM   13  N4  UNL     1       7.217   8.160  45.230  1.00  0.00    -0.368 N 
ATOM     14  H4  UNL     1       6.494   7.524  44.895  1.00  0.00     0.161 HD
BRANCH  13  15
HETATM   15  C7  UNL     1       6.908   9.554  45.206  1.00  0.00     0.032 C 
HETATM   16  C8  UNL     1       6.724  10.192  46.549  1.00  0.00     0.035 C 
HETATM   17  C9  UNL     1       6.473  11.665  46.358  1.00  0.00    -0.012 C 
HETATM   18  C10 UNL     1       5.187  11.938  45.638  1.00  0.00     0.009 C 
HETATM   19  C14 UNL     1       7.640  12.301  45.642  1.00  0.00     0.009 C 
HETATM   20  C11 UNL     1       5.300  11.245  44.274  1.00  0.00    -0.012 C 
HETATM   21  C12 UNL     1       6.380  11.970  43.515  1.00  0.00     0.009 C 
HETATM   22  C16 UNL     1       5.596   9.792  44.460  1.00  0.00     0.035 C 
HETATM   23  C13 UNL     1       7.689  11.739  44.246  1.00  0.00    -0.012 C 
HETATM   24  C15 UNL     1       7.969  10.250  44.372  1.00  0.00     0.035 C 
ENDBRANCH  13  15
ENDBRANCH   1  13
BRANCH   2  25
HETATM   25  O1  UNL     1       9.950   7.102  47.384  1.00  0.00    -0.288 OA
ATOM     26  H1  UNL     1      10.076   6.179  47.566  1.00  0.00     0.244 HD
ENDBRANCH   2  25
TORSDOF 5
ENDMDL
MODEL 3
REMARK VINA RESULT: -7.927952142      0.203      1.581
REMARK  5 active torsions:
REMARK  status: ('A' for Active; 'I' for Inactive)
REMARK    1  A    between atoms: N2_6  and  C5_7 
REMARK    2  A    between atoms: C5_7  and  C6_8 
REMARK    3  A    between atoms: C6_8  and  N4_13 
REMARK    4  A    between atoms: N3_9  and  O1_11 
REMARK    5  A    between atoms: N4_13  and  C7_15 
ROOT
HETATM    1  C6  UNL     1       8.269   7.467  45.720  1.00  0.00     0.126 C 
HETATM    2  N3  UNL     1       8.826   7.639  46.871  1.00  0.00    -0.255 N 
ATOM      3  H3  UNL     1       8.338   8.222  47.552  1.00  0.00     0.195 HD
ENDROOT
BRANCH   1   4
HETATM    4  C5  UNL     1       9.022   6.611  44.768  1.00  0.00     0.350 C 
BRANCH   4   5
HETATM    5  N2  UNL     1       8.886   7.008  43.403  1.00  0.00     0.100 N 
HETATM    6  C4  UNL     1       8.170   6.130  42.561  1.00  0.00     0.278 C 
HETATM    7  C3  UNL     1       8.872   4.882  42.156  1.00  0.00     0.075 C 
HETATM    8  C2  UNL     1      10.101   5.077  41.340  1.00  0.00     0.064 C 
HETATM    9  N1  UNL     1      10.222   6.293  40.650  1.00  0.00    -0.376 N 
HETATM   10  C1  UNL     1       9.636   6.358  39.351  1.00  0.00     0.154 C 
HETATM   11  C18 UNL     1      10.221   7.484  41.400  1.00  0.00     0.092 C 
HETATM   12  C17 UNL     1      10.208   7.300  42.891  1.00  0.00     0.317 C 
ENDBRANCH   4   5
ENDBRANCH   1   4
BRANCH   1  13
HETATM   13  N4  UNL     1       7.041   8.053  45.398  1.00  0.00    -0.368 N 
ATOM     14  H4  UNL     1       6.239   7.428  45.322  1.00  0.00     0.161 HD
BRANCH  13  15
HETATM   15  C7  UNL     1       6.799   9.440  45.163  1.00  0.00     0.032 C 
HETATM   16  C8  UNL     1       5.629   9.745  44.279  1.00  0.00     0.035 C 
HETATM   17  C9  UNL     1       5.465  11.240  44.184  1.00  0.00    -0.012 C 
HETATM   18  C10 UNL     1       6.626  11.901  43.503  1.00  0.00     0.009 C 
HETATM   19  C14 UNL     1       5.239  11.824  45.558  1.00  0.00     0.009 C 
HETATM   20  C11 UNL     1       7.866  11.561  44.339  1.00  0.00    -0.012 C 
HETATM   21  C12 UNL     1       7.693  12.256  45.664  1.00  0.00     0.009 C 
HETATM   22  C16 UNL     1       8.004  10.080  44.474  1.00  0.00     0.035 C 
HETATM   23  C13 UNL     1       6.498  11.629  46.358  1.00  0.00    -0.012 C 
HETATM   24  C15 UNL     1       6.704  10.130  46.512  1.00  0.00     0.035 C 
ENDBRANCH  13  15
ENDBRANCH   1  13
BRANCH   2  25
HETATM   25  O1  UNL     1      10.025   7.093  47.242  1.00  0.00    -0.288 OA
ATOM     26  H1  UNL     1      10.263   6.870  48.135  1.00  0.00     0.244 HD
ENDBRANCH   2  25
TORSDOF 5
ENDMDL
MODEL 4
REMARK VINA RESULT: -7.898899357      1.039      1.222
REMARK  5 active torsions:
REMARK  status: ('A' for Active; 'I' for Inactive)
REMARK    1  A    between atoms: N2_6  and  C5_7 
REMARK    2  A    between atoms: C5_7  and  C6_8 
REMARK    3  A    between atoms: C6_8  and  N4_13 
REMARK    4  A    between atoms: N3_9  and  O1_11 
REMARK    5  A    between atoms: N4_13  and  C7_15 
ROOT
HETATM    1  C6  UNL     1       8.388   7.837  45.966  1.00  0.00     0.126 C 
HETATM    2  N3  UNL     1       9.081   7.544  47.014  1.00  0.00    -0.255 N 
ATOM      3  H3  UNL     1       8.690   7.787  47.925  1.00  0.00     0.195 HD
ENDROOT
BRANCH   1   4
HETATM    4  C5  UNL     1       9.004   7.462  44.668  1.00  0.00     0.350 C 
BRANCH   4   5
HETATM    5  N2  UNL     1       8.081   6.909  43.730  1.00  0.00     0.100 N 
HETATM    6  C4  UNL     1       8.294   5.565  43.355  1.00  0.00     0.278 C 
HETATM    7  C3  UNL     1       9.430   5.310  42.427  1.00  0.00     0.075 C 
HETATM    8  C2  UNL     1       9.310   5.937  41.083  1.00  0.00     0.064 C 
HETATM    9  N1  UNL     1       8.020   6.278  40.651  1.00  0.00    -0.376 N 
HETATM   10  C1  UNL     1       7.274   5.263  39.982  1.00  0.00     0.154 C 
HETATM   11  C18 UNL     1       7.280   7.192  41.427  1.00  0.00     0.092 C 
HETATM   12  C17 UNL     1       8.025   7.794  42.586  1.00  0.00     0.317 C 
ENDBRANCH   4   5
ENDBRANCH   1   4
BRANCH   1  13
HETATM   13  N4  UNL     1       7.145   8.470  46.056  1.00  0.00    -0.368 N 
ATOM     14  H4  UNL     1       6.371   7.913  46.418  1.00  0.00     0.161 HD
BRANCH  13  15
HETATM   15  C7  UNL     1       6.850   9.818  45.690  1.00  0.00     0.032 C 
HETATM   16  C8  UNL     1       8.020  10.624  45.216  1.00  0.00     0.035 C 
HETATM   17  C9  UNL     1       7.537  11.991  44.808  1.00  0.00    -0.012 C 
HETATM   18  C10 UNL     1       6.992  12.775  45.963  1.00  0.00     0.009 C 
HETATM   19  C14 UNL     1       6.515  11.871  43.704  1.00  0.00     0.009 C 
HETATM   20  C11 UNL     1       5.825  11.954  46.528  1.00  0.00    -0.012 C 
HETATM   21  C12 UNL     1       4.754  11.949  45.469  1.00  0.00     0.009 C 
HETATM   22  C16 UNL     1       6.291  10.582  46.890  1.00  0.00     0.035 C 
HETATM   23  C13 UNL     1       5.298  11.192  44.271  1.00  0.00    -0.012 C 
HETATM   24  C15 UNL     1       5.717   9.788  44.680  1.00  0.00     0.035 C 
ENDBRANCH  13  15
ENDBRANCH   1  13
BRANCH   2  25
HETATM   25  O1  UNL     1      10.304   6.928  46.989  1.00  0.00    -0.288 OA
ATOM     26  H1  UNL     1      10.487   6.079  47.374  1.00  0.00     0.244 HD
ENDBRANCH   2  25
TORSDOF 5
ENDMDL
MODEL 5
REMARK VINA RESULT: -7.611404118      1.336      6.127
REMARK  5 active torsions:
REMARK  status: ('A' for Active; 'I' for Inactive)
REMARK    1  A    between atoms: N2_6  and  C5_7 
REMARK    2  A    between atoms: C5_7  and  C6_8 
REMARK    3  A    between atoms: C6_8  and  N4_13 
REMARK    4  A    between atoms: N3_9  and  O1_11 
REMARK    5  A    between atoms: N4_13  and  C7_15 
ROOT
HETATM    1  C6  UNL     1       8.514   7.227  45.337  1.00  0.00     0.126 C 
HETATM    2  N3  UNL     1       9.223   6.579  46.200  1.00  0.00    -0.255 N 
ATOM      3  H3  UNL     1       9.396   5.589  46.025  1.00  0.00     0.195 HD
ENDROOT
BRANCH   1   4
HETATM    4  C5  UNL     1       8.292   8.663  45.642  1.00  0.00     0.350 C 
BRANCH   4   5
HETATM    5  N2  UNL     1       7.538   9.354  44.647  1.00  0.00     0.100 N 
HETATM    6  C4  UNL     1       8.125  10.519  44.108  1.00  0.00     0.278 C 
HETATM    7  C3  UNL     1       8.126  11.724  44.982  1.00  0.00     0.075 C 
HETATM    8  C2  UNL     1       6.783  12.255  45.340  1.00  0.00     0.064 C 
HETATM    9  N1  UNL     1       5.716  11.911  44.496  1.00  0.00    -0.376 N 
HETATM   10  C1  UNL     1       5.488  12.756  43.370  1.00  0.00     0.154 C 
HETATM   11  C18 UNL     1       5.416  10.546  44.328  1.00  0.00     0.092 C 
HETATM   12  C17 UNL     1       6.218   9.606  45.184  1.00  0.00     0.317 C 
ENDBRANCH   4   5
ENDBRANCH   1   4
BRANCH   1  13
HETATM   13  N4  UNL     1       7.992   6.608  44.197  1.00  0.00    -0.368 N 
ATOM     14  H4  UNL     1       7.058   6.207  44.279  1.00  0.00     0.161 HD
BRANCH  13  15
HETATM   15  C7  UNL     1       8.636   6.483  42.929  1.00  0.00     0.032 C 
HETATM   16  C8  UNL     1       9.894   7.280  42.768  1.00  0.00     0.035 C 
HETATM   17  C9  UNL     1      10.485   6.990  41.413  1.00  0.00    -0.012 C 
HETATM   18  C10 UNL     1       9.605   7.457  40.293  1.00  0.00     0.009 C 
HETATM   19  C14 UNL     1      10.789   5.517  41.285  1.00  0.00     0.009 C 
HETATM   20  C11 UNL     1       8.272   6.713  40.453  1.00  0.00    -0.012 C 
HETATM   21  C12 UNL     1       8.561   5.258  40.196  1.00  0.00     0.009 C 
HETATM   22  C16 UNL     1       7.707   6.961  41.814  1.00  0.00     0.035 C 
HETATM   23  C13 UNL     1       9.483   4.771  41.298  1.00  0.00    -0.012 C 
HETATM   24  C15 UNL     1       8.847   5.004  42.660  1.00  0.00     0.035 C 
ENDBRANCH  13  15
ENDBRANCH   1  13
BRANCH   2  25
HETATM   25  O1  UNL     1       9.757   7.129  47.334  1.00  0.00    -0.288 OA
ATOM     26  H1  UNL     1      10.132   6.629  48.050  1.00  0.00     0.244 HD
ENDBRANCH   2  25
TORSDOF 5
ENDMDL
