MODEL 1
REMARK VINA RESULT: -4.129021366      0.000      0.000
REMARK  11 active torsions:
REMARK  status: ('A' for Active; 'I' for Inactive)
REMARK    1  A    between atoms: C2_2  and  C3_3 
REMARK    2  A    between atoms: C3_3  and  C4_4 
REMARK    3  A    between atoms: C4_4  and  C5_5 
REMARK    4  A    between atoms: C5_5  and  C6_6 
REMARK    5  A    between atoms: C6_6  and  C7_7 
REMARK    6  A    between atoms: C8_8  and  C9_9 
REMARK    7  A    between atoms: C9_9  and  C10_10 
REMARK    8  A    between atoms: C10_10  and  C11_11 
REMARK    9  A    between atoms: C11_11  and  C12_12 
REMARK   10  A    between atoms: C12_12  and  C13_13 
REMARK   11  A    between atoms: C13_13  and  N1_14 
ROOT
HETATM    1  C9  UNL     1     -31.979 -23.228 -39.579  1.00  0.00     0.027 C 
ENDROOT
BRANCH   1   2
HETATM    2  C8  UNL     1     -33.239 -23.903 -39.894  1.00  0.00    -0.031 C 
HETATM    3  C7  UNL     1     -33.761 -24.893 -39.212  1.00  0.00    -0.031 C 
BRANCH   3   4
HETATM    4  C6  UNL     1     -33.155 -25.479 -38.017  1.00  0.00     0.027 C 
BRANCH   4   5
HETATM    5  C5  UNL     1     -32.805 -26.940 -38.235  1.00  0.00     0.004 C 
BRANCH   5   6
HETATM    6  C4  UNL     1     -31.342 -27.131 -37.947  1.00  0.00     0.004 C 
BRANCH   6   7
HETATM    7  C3  UNL     1     -30.674 -25.900 -37.435  1.00  0.00     0.026 C 
BRANCH   7   8
HETATM    8  C2  UNL     1     -29.353 -25.762 -38.123  1.00  0.00    -0.037 C 
HETATM    9  C1  UNL     1     -29.246 -25.978 -39.417  1.00  0.00     0.007 C 
ENDBRANCH   7   8
ENDBRANCH   6   7
ENDBRANCH   5   6
ENDBRANCH   4   5
ENDBRANCH   3   4
ENDBRANCH   1   2
BRANCH   1  10
HETATM   10  C10 UNL     1     -31.045 -23.104 -40.771  1.00  0.00     0.004 C 
BRANCH  10  11
HETATM   11  C11 UNL     1     -31.864 -22.954 -42.010  1.00  0.00     0.002 C 
BRANCH  11  12
HETATM   12  C12 UNL     1     -31.140 -23.553 -43.228  1.00  0.00     0.027 C 
BRANCH  12  13
HETATM   13  C13 UNL     1     -29.752 -23.952 -42.714  1.00  0.00     0.229 C 
BRANCH  13  14
HETATM   14  N1  UNL     1     -28.804 -23.525 -43.698  1.00  0.00    -0.079 N 
ATOM     15  H13 UNL     1     -28.579 -22.531 -43.634  1.00  0.00     0.274 HD
ATOM     16  H12 UNL     1     -27.863 -23.881 -43.530  1.00  0.00     0.274 HD
ATOM     17  H11 UNL     1     -29.178 -23.794 -44.608  1.00  0.00     0.274 HD
ENDBRANCH  13  14
ENDBRANCH  12  13
ENDBRANCH  11  12
ENDBRANCH  10  11
ENDBRANCH   1  10
TORSDOF 11
ENDMDL
MODEL 2
REMARK VINA RESULT: -4.065126730      1.154      2.824
REMARK  11 active torsions:
REMARK  status: ('A' for Active; 'I' for Inactive)
REMARK    1  A    between atoms: C2_2  and  C3_3 
REMARK    2  A    between atoms: C3_3  and  C4_4 
REMARK    3  A    between atoms: C4_4  and  C5_5 
REMARK    4  A    between atoms: C5_5  and  C6_6 
REMARK    5  A    between atoms: C6_6  and  C7_7 
REMARK    6  A    between atoms: C8_8  and  C9_9 
REMARK    7  A    between atoms: C9_9  and  C10_10 
REMARK    8  A    between atoms: C10_10  and  C11_11 
REMARK    9  A    between atoms: C11_11  and  C12_12 
REMARK   10  A    between atoms: C12_12  and  C13_13 
REMARK   11  A    between atoms: C13_13  and  N1_14 
ROOT
HETATM    1  C9  UNL     1     -31.366 -23.804 -38.944  1.00  0.00     0.027 C 
ENDROOT
BRANCH   1   2
HETATM    2  C8  UNL     1     -30.326 -24.585 -39.614  1.00  0.00    -0.031 C 
HETATM    3  C7  UNL     1     -29.748 -25.656 -39.127  1.00  0.00    -0.031 C 
BRANCH   3   4
HETATM    4  C6  UNL     1     -30.062 -26.239 -37.822  1.00  0.00     0.027 C 
BRANCH   4   5
HETATM    5  C5  UNL     1     -31.156 -27.286 -37.935  1.00  0.00     0.004 C 
BRANCH   5   6
HETATM    6  C4  UNL     1     -32.101 -27.118 -36.779  1.00  0.00     0.004 C 
BRANCH   6   7
HETATM    7  C3  UNL     1     -33.424 -26.553 -37.173  1.00  0.00     0.026 C 
BRANCH   7   8
HETATM    8  C2  UNL     1     -33.665 -26.881 -38.611  1.00  0.00    -0.037 C 
HETATM    9  C1  UNL     1     -34.455 -26.127 -39.347  1.00  0.00     0.007 C 
ENDBRANCH   7   8
ENDBRANCH   6   7
ENDBRANCH   5   6
ENDBRANCH   4   5
ENDBRANCH   3   4
ENDBRANCH   1   2
BRANCH   1  10
HETATM   10  C10 UNL     1     -32.266 -23.045 -39.904  1.00  0.00     0.004 C 
BRANCH  10  11
HETATM   11  C11 UNL     1     -31.532 -22.838 -41.187  1.00  0.00     0.002 C 
BRANCH  11  12
HETATM   12  C12 UNL     1     -32.506 -22.773 -42.377  1.00  0.00     0.027 C 
BRANCH  12  13
HETATM   13  C13 UNL     1     -31.913 -23.714 -43.432  1.00  0.00     0.229 C 
BRANCH  13  14
HETATM   14  N1  UNL     1     -30.505 -23.460 -43.474  1.00  0.00    -0.079 N 
ATOM     15  H13 UNL     1     -30.104 -23.272 -42.555  1.00  0.00     0.274 HD
ATOM     16  H12 UNL     1     -29.954 -24.290 -43.689  1.00  0.00     0.274 HD
ATOM     17  H11 UNL     1     -30.360 -22.699 -44.139  1.00  0.00     0.274 HD
ENDBRANCH  13  14
ENDBRANCH  12  13
ENDBRANCH  11  12
ENDBRANCH  10  11
ENDBRANCH   1  10
TORSDOF 11
ENDMDL
MODEL 3
REMARK VINA RESULT: -4.033236320      0.966      2.374
REMARK  11 active torsions:
REMARK  status: ('A' for Active; 'I' for Inactive)
REMARK    1  A    between atoms: C2_2  and  C3_3 
REMARK    2  A    between atoms: C3_3  and  C4_4 
REMARK    3  A    between atoms: C4_4  and  C5_5 
REMARK    4  A    between atoms: C5_5  and  C6_6 
REMARK    5  A    between atoms: C6_6  and  C7_7 
REMARK    6  A    between atoms: C8_8  and  C9_9 
REMARK    7  A    between atoms: C9_9  and  C10_10 
REMARK    8  A    between atoms: C10_10  and  C11_11 
REMARK    9  A    between atoms: C11_11  and  C12_12 
REMARK   10  A    between atoms: C12_12  and  C13_13 
REMARK   11  A    between atoms: C13_13  and  N1_14 
ROOT
HETATM    1  C9  UNL     1     -32.888 -23.862 -40.253  1.00  0.00     0.027 C 
ENDROOT
BRANCH   1   2
HETATM    2  C8  UNL     1     -32.112 -23.261 -39.169  1.00  0.00    -0.031 C 
HETATM    3  C7  UNL     1     -30.998 -23.742 -38.675  1.00  0.00    -0.031 C 
BRANCH   3   4
HETATM    4  C6  UNL     1     -30.353 -24.970 -39.142  1.00  0.00     0.027 C 
BRANCH   4   5
HETATM    5  C5  UNL     1     -30.047 -25.906 -37.986  1.00  0.00     0.004 C 
BRANCH   5   6
HETATM    6  C4  UNL     1     -31.009 -27.059 -38.036  1.00  0.00     0.004 C 
BRANCH   6   7
HETATM    7  C3  UNL     1     -31.956 -27.091 -36.884  1.00  0.00     0.026 C 
BRANCH   7   8
HETATM    8  C2  UNL     1     -33.302 -26.657 -37.370  1.00  0.00    -0.037 C 
HETATM    9  C1  UNL     1     -33.708 -26.965 -38.584  1.00  0.00     0.007 C 
ENDBRANCH   7   8
ENDBRANCH   6   7
ENDBRANCH   5   6
ENDBRANCH   4   5
ENDBRANCH   3   4
ENDBRANCH   1   2
BRANCH   1  10
HETATM   10  C10 UNL     1     -33.171 -22.905 -41.399  1.00  0.00     0.004 C 
BRANCH  10  11
HETATM   11  C11 UNL     1     -31.874 -22.517 -42.030  1.00  0.00     0.002 C 
BRANCH  11  12
HETATM   12  C12 UNL     1     -31.484 -23.503 -43.144  1.00  0.00     0.027 C 
BRANCH  12  13
HETATM   13  C13 UNL     1     -30.032 -23.893 -42.844  1.00  0.00     0.229 C 
BRANCH  13  14
HETATM   14  N1  UNL     1     -29.237 -23.409 -43.932  1.00  0.00    -0.079 N 
ATOM     15  H13 UNL     1     -29.081 -24.110 -44.658  1.00  0.00     0.274 HD
ATOM     16  H12 UNL     1     -29.725 -22.728 -44.514  1.00  0.00     0.274 HD
ATOM     17  H11 UNL     1     -28.372 -23.047 -43.531  1.00  0.00     0.274 HD
ENDBRANCH  13  14
ENDBRANCH  12  13
ENDBRANCH  11  12
ENDBRANCH  10  11
ENDBRANCH   1  10
TORSDOF 11
ENDMDL
MODEL 4
REMARK VINA RESULT: -3.993423552      1.280      3.036
REMARK  11 active torsions:
REMARK  status: ('A' for Active; 'I' for Inactive)
REMARK    1  A    between atoms: C2_2  and  C3_3 
REMARK    2  A    between atoms: C3_3  and  C4_4 
REMARK    3  A    between atoms: C4_4  and  C5_5 
REMARK    4  A    between atoms: C5_5  and  C6_6 
REMARK    5  A    between atoms: C6_6  and  C7_7 
REMARK    6  A    between atoms: C8_8  and  C9_9 
REMARK    7  A    between atoms: C9_9  and  C10_10 
REMARK    8  A    between atoms: C10_10  and  C11_11 
REMARK    9  A    between atoms: C11_11  and  C12_12 
REMARK   10  A    between atoms: C12_12  and  C13_13 
REMARK   11  A    between atoms: C13_13  and  N1_14 
ROOT
HETATM    1  C9  UNL     1     -31.167 -22.761 -38.639  1.00  0.00     0.027 C 
ENDROOT
BRANCH   1   2
HETATM    2  C8  UNL     1     -30.831 -23.458 -37.397  1.00  0.00    -0.031 C 
HETATM    3  C7  UNL     1     -30.361 -24.678 -37.314  1.00  0.00    -0.031 C 
BRANCH   3   4
HETATM    4  C6  UNL     1     -30.095 -25.538 -38.468  1.00  0.00     0.027 C 
BRANCH   4   5
HETATM    5  C5  UNL     1     -30.634 -26.940 -38.246  1.00  0.00     0.004 C 
BRANCH   5   6
HETATM    6  C4  UNL     1     -31.925 -26.842 -37.483  1.00  0.00     0.004 C 
BRANCH   6   7
HETATM    7  C3  UNL     1     -33.135 -26.948 -38.349  1.00  0.00     0.026 C 
BRANCH   7   8
HETATM    8  C2  UNL     1     -34.209 -26.089 -37.763  1.00  0.00    -0.037 C 
HETATM    9  C1  UNL     1     -33.995 -25.413 -36.654  1.00  0.00     0.007 C 
ENDBRANCH   7   8
ENDBRANCH   6   7
ENDBRANCH   5   6
ENDBRANCH   4   5
ENDBRANCH   3   4
ENDBRANCH   1   2
BRANCH   1  10
HETATM   10  C10 UNL     1     -32.621 -22.921 -39.050  1.00  0.00     0.004 C 
BRANCH  10  11
HETATM   11  C11 UNL     1     -32.670 -23.542 -40.407  1.00  0.00     0.002 C 
BRANCH  11  12
HETATM   12  C12 UNL     1     -31.432 -23.159 -41.236  1.00  0.00     0.027 C 
BRANCH  12  13
HETATM   13  C13 UNL     1     -31.918 -23.121 -42.689  1.00  0.00     0.229 C 
BRANCH  13  14
HETATM   14  N1  UNL     1     -30.794 -23.444 -43.514  1.00  0.00    -0.079 N 
ATOM     15  H13 UNL     1     -30.634 -22.765 -44.258  1.00  0.00     0.274 HD
ATOM     16  H12 UNL     1     -29.900 -23.326 -43.037  1.00  0.00     0.274 HD
ATOM     17  H11 UNL     1     -30.942 -24.392 -43.860  1.00  0.00     0.274 HD
ENDBRANCH  13  14
ENDBRANCH  12  13
ENDBRANCH  11  12
ENDBRANCH  10  11
ENDBRANCH   1  10
TORSDOF 11
ENDMDL
MODEL 5
REMARK VINA RESULT: -3.972481003      2.227      3.519
REMARK  11 active torsions:
REMARK  status: ('A' for Active; 'I' for Inactive)
REMARK    1  A    between atoms: C2_2  and  C3_3 
REMARK    2  A    between atoms: C3_3  and  C4_4 
REMARK    3  A    between atoms: C4_4  and  C5_5 
REMARK    4  A    between atoms: C5_5  and  C6_6 
REMARK    5  A    between atoms: C6_6  and  C7_7 
REMARK    6  A    between atoms: C8_8  and  C9_9 
REMARK    7  A    between atoms: C9_9  and  C10_10 
REMARK    8  A    between atoms: C10_10  and  C11_11 
REMARK    9  A    between atoms: C11_11  and  C12_12 
REMARK   10  A    between atoms: C12_12  and  C13_13 
REMARK   11  A    between atoms: C13_13  and  N1_14 
ROOT
HETATM    1  C9  UNL     1     -31.308 -23.504 -38.015  1.00  0.00     0.027 C 
ENDROOT
BRANCH   1   2
HETATM    2  C8  UNL     1     -30.679 -24.168 -39.157  1.00  0.00    -0.031 C 
HETATM    3  C7  UNL     1     -30.125 -25.355 -39.135  1.00  0.00    -0.031 C 
BRANCH   3   4
HETATM    4  C6  UNL     1     -30.051 -26.207 -37.948  1.00  0.00     0.027 C 
BRANCH   4   5
HETATM    5  C5  UNL     1     -31.137 -27.268 -37.962  1.00  0.00     0.004 C 
BRANCH   5   6
HETATM    6  C4  UNL     1     -32.024 -27.062 -36.767  1.00  0.00     0.004 C 
BRANCH   6   7
HETATM    7  C3  UNL     1     -33.441 -26.765 -37.126  1.00  0.00     0.026 C 
BRANCH   7   8
HETATM    8  C2  UNL     1     -33.597 -26.933 -38.603  1.00  0.00    -0.037 C 
HETATM    9  C1  UNL     1     -34.681 -26.504 -39.215  1.00  0.00     0.007 C 
ENDBRANCH   7   8
ENDBRANCH   6   7
ENDBRANCH   5   6
ENDBRANCH   4   5
ENDBRANCH   3   4
ENDBRANCH   1   2
BRANCH   1  10
HETATM   10  C10 UNL     1     -32.799 -23.272 -38.195  1.00  0.00     0.004 C 
BRANCH  10  11
HETATM   11  C11 UNL     1     -33.068 -22.970 -39.632  1.00  0.00     0.002 C 
BRANCH  11  12
HETATM   12  C12 UNL     1     -33.110 -21.452 -39.880  1.00  0.00     0.027 C 
BRANCH  12  13
HETATM   13  C13 UNL     1     -32.051 -21.190 -40.957  1.00  0.00     0.229 C 
BRANCH  13  14
HETATM   14  N1  UNL     1     -30.915 -20.626 -40.295  1.00  0.00    -0.079 N 
ATOM     15  H13 UNL     1     -30.999 -20.630 -39.278  1.00  0.00     0.274 HD
ATOM     16  H12 UNL     1     -30.082 -21.211 -40.358  1.00  0.00     0.274 HD
ATOM     17  H11 UNL     1     -30.778 -19.692 -40.684  1.00  0.00     0.274 HD
ENDBRANCH  13  14
ENDBRANCH  12  13
ENDBRANCH  11  12
ENDBRANCH  10  11
ENDBRANCH   1  10
TORSDOF 11
ENDMDL
