MODEL 1
REMARK VINA RESULT: -6.392861877      0.000      0.000
REMARK  3 active torsions:
REMARK  status: ('A' for Active; 'I' for Inactive)
REMARK    1  A    between atoms: C2_4  and  C3_5 
REMARK    2  A    between atoms: C3_5  and  N3_6 
REMARK       I    between atoms: N3_6  and  C4_8 
REMARK    3  A    between atoms: C4_8  and  C5_10 
ROOT
HETATM    1  N3  UNL     1      16.035  12.489  18.766  1.00  0.00    -0.335 N 
ATOM      2  H3  UNL     1      16.068  12.532  19.784  1.00  0.00     0.168 HD
HETATM    3  C4  UNL     1      17.074  13.121  17.969  1.00  0.00     0.250 C 
HETATM    4  O1  UNL     1      16.949  13.014  16.722  1.00  0.00    -0.270 OA
ENDROOT
BRANCH   1   5
HETATM    5  C3  UNL     1      14.977  11.814  18.114  1.00  0.00     0.094 C 
BRANCH   5   6
HETATM    6  C2  UNL     1      14.260  10.752  18.788  1.00  0.00     0.059 C 
HETATM    7  C1  UNL     1      14.553  10.010  19.813  1.00  0.00     0.129 C 
HETATM    8  N1  UNL     1      15.740  10.070  20.576  1.00  0.00    -0.086 NA
HETATM    9  N2  UNL     1      13.633   8.989  20.298  1.00  0.00    -0.086 NA
ENDBRANCH   5   6
ENDBRANCH   1   5
BRANCH   3  10
HETATM   10  C5  UNL     1      18.204  13.841  18.587  1.00  0.00     0.213 C 
HETATM   11  C6  UNL     1      17.672  14.969  19.411  1.00  0.00     0.044 C 
HETATM   12  C7  UNL     1      18.145  14.613  20.806  1.00  0.00     0.029 C 
HETATM   13  C8  UNL     1      19.345  13.744  20.501  1.00  0.00     0.168 C 
HETATM   14  O2  UNL     1      18.878  12.979  19.439  1.00  0.00    -0.376 OA
ENDBRANCH   3  10
TORSDOF 3
ENDMDL
MODEL 2
REMARK VINA RESULT: -6.302710443      3.970      4.987
REMARK  3 active torsions:
REMARK  status: ('A' for Active; 'I' for Inactive)
REMARK    1  A    between atoms: C2_4  and  C3_5 
REMARK    2  A    between atoms: C3_5  and  N3_6 
REMARK       I    between atoms: N3_6  and  C4_8 
REMARK    3  A    between atoms: C4_8  and  C5_10 
ROOT
HETATM    1  N3  UNL     1      19.789  15.056  18.369  1.00  0.00    -0.335 N 
ATOM      2  H3  UNL     1      20.216  14.188  18.692  1.00  0.00     0.168 HD
HETATM    3  C4  UNL     1      20.552  15.995  17.561  1.00  0.00     0.250 C 
HETATM    4  O1  UNL     1      19.941  17.036  17.209  1.00  0.00    -0.270 OA
ENDROOT
BRANCH   1   5
HETATM    5  C3  UNL     1      18.449  15.360  18.702  1.00  0.00     0.094 C 
BRANCH   5   6
HETATM    6  C2  UNL     1      17.561  14.323  19.186  1.00  0.00     0.059 C 
HETATM    7  C1  UNL     1      17.461  13.058  18.912  1.00  0.00     0.129 C 
HETATM    8  N1  UNL     1      18.263  12.333  18.002  1.00  0.00    -0.086 NA
HETATM    9  N2  UNL     1      16.456  12.220  19.555  1.00  0.00    -0.086 NA
ENDBRANCH   5   6
ENDBRANCH   1   5
BRANCH   3  10
HETATM   10  C5  UNL     1      21.954  15.738  17.179  1.00  0.00     0.213 C 
HETATM   11  C6  UNL     1      22.603  17.032  16.806  1.00  0.00     0.044 C 
HETATM   12  C7  UNL     1      23.716  17.153  17.825  1.00  0.00     0.029 C 
HETATM   13  C8  UNL     1      23.939  15.703  18.197  1.00  0.00     0.168 C 
HETATM   14  O2  UNL     1      22.635  15.227  18.274  1.00  0.00    -0.376 OA
ENDBRANCH   3  10
TORSDOF 3
ENDMDL
MODEL 3
REMARK VINA RESULT: -6.128740011      3.035      3.587
REMARK  3 active torsions:
REMARK  status: ('A' for Active; 'I' for Inactive)
REMARK    1  A    between atoms: C2_4  and  C3_5 
REMARK    2  A    between atoms: C3_5  and  N3_6 
REMARK       I    between atoms: N3_6  and  C4_8 
REMARK    3  A    between atoms: C4_8  and  C5_10 
ROOT
HETATM    1  N3  UNL     1      18.534  13.936  17.685  1.00  0.00    -0.335 N 
ATOM      2  H3  UNL     1      19.037  13.245  17.129  1.00  0.00     0.168 HD
HETATM    3  C4  UNL     1      19.057  15.286  17.832  1.00  0.00     0.250 C 
HETATM    4  O1  UNL     1      18.366  16.068  18.534  1.00  0.00    -0.270 OA
ENDROOT
BRANCH   1   5
HETATM    5  C3  UNL     1      17.318  13.593  18.322  1.00  0.00     0.094 C 
BRANCH   5   6
HETATM    6  C2  UNL     1      17.139  12.275  18.895  1.00  0.00     0.059 C 
HETATM    7  C1  UNL     1      16.085  11.551  19.113  1.00  0.00     0.129 C 
HETATM    8  N1  UNL     1      14.750  11.906  18.816  1.00  0.00    -0.086 NA
HETATM    9  N2  UNL     1      16.185  10.228  19.718  1.00  0.00    -0.086 NA
ENDBRANCH   5   6
ENDBRANCH   1   5
BRANCH   3  10
HETATM   10  C5  UNL     1      20.319  15.708  17.194  1.00  0.00     0.213 C 
HETATM   11  C6  UNL     1      20.280  17.185  16.965  1.00  0.00     0.044 C 
HETATM   12  C7  UNL     1      21.439  17.682  17.802  1.00  0.00     0.029 C 
HETATM   13  C8  UNL     1      22.314  16.449  17.865  1.00  0.00     0.168 C 
HETATM   14  O2  UNL     1      21.372  15.445  18.058  1.00  0.00    -0.376 OA
ENDBRANCH   3  10
TORSDOF 3
ENDMDL
MODEL 4
REMARK VINA RESULT: -6.079110797      4.268      6.665
REMARK  3 active torsions:
REMARK  status: ('A' for Active; 'I' for Inactive)
REMARK    1  A    between atoms: C2_4  and  C3_5 
REMARK    2  A    between atoms: C3_5  and  N3_6 
REMARK       I    between atoms: N3_6  and  C4_8 
REMARK    3  A    between atoms: C4_8  and  C5_10 
ROOT
HETATM    1  N3  UNL     1      19.357  16.406  17.964  1.00  0.00    -0.335 N 
ATOM      2  H3  UNL     1      19.035  16.898  18.798  1.00  0.00     0.168 HD
HETATM    3  C4  UNL     1      19.018  15.006  17.759  1.00  0.00     0.250 C 
HETATM    4  O1  UNL     1      19.458  14.486  16.702  1.00  0.00    -0.270 OA
ENDROOT
BRANCH   1   5
HETATM    5  C3  UNL     1      20.138  17.078  16.996  1.00  0.00     0.094 C 
BRANCH   5   6
HETATM    6  C2  UNL     1      21.566  17.231  17.184  1.00  0.00     0.059 C 
HETATM    7  C1  UNL     1      22.438  16.550  17.863  1.00  0.00     0.129 C 
HETATM    8  N1  UNL     1      22.178  15.402  18.645  1.00  0.00    -0.086 NA
HETATM    9  N2  UNL     1      23.845  16.928  17.885  1.00  0.00    -0.086 NA
ENDBRANCH   5   6
ENDBRANCH   1   5
BRANCH   3  10
HETATM   10  C5  UNL     1      18.207  14.248  18.731  1.00  0.00     0.213 C 
HETATM   11  C6  UNL     1      16.759  14.512  18.469  1.00  0.00     0.044 C 
HETATM   12  C7  UNL     1      16.227  13.136  18.125  1.00  0.00     0.029 C 
HETATM   13  C8  UNL     1      17.230  12.245  18.825  1.00  0.00     0.168 C 
HETATM   14  O2  UNL     1      18.428  12.892  18.544  1.00  0.00    -0.376 OA
ENDBRANCH   3  10
TORSDOF 3
ENDMDL
MODEL 5
REMARK VINA RESULT: -5.968915306      4.320      5.364
REMARK  3 active torsions:
REMARK  status: ('A' for Active; 'I' for Inactive)
REMARK    1  A    between atoms: C2_4  and  C3_5 
REMARK    2  A    between atoms: C3_5  and  N3_6 
REMARK       I    between atoms: N3_6  and  C4_8 
REMARK    3  A    between atoms: C4_8  and  C5_10 
ROOT
HETATM    1  N3  UNL     1      19.876  15.559  18.119  1.00  0.00    -0.335 N 
ATOM      2  H3  UNL     1      20.438  14.846  18.582  1.00  0.00     0.168 HD
HETATM    3  C4  UNL     1      20.499  16.772  17.610  1.00  0.00     0.250 C 
HETATM    4  O1  UNL     1      19.725  17.593  17.054  1.00  0.00    -0.270 OA
ENDROOT
BRANCH   1   5
HETATM    5  C3  UNL     1      18.481  15.381  17.965  1.00  0.00     0.094 C 
BRANCH   5   6
HETATM    6  C2  UNL     1      17.851  14.145  18.379  1.00  0.00     0.059 C 
HETATM    7  C1  UNL     1      18.097  13.318  19.349  1.00  0.00     0.129 C 
HETATM    8  N1  UNL     1      19.124  13.440  20.312  1.00  0.00    -0.086 NA
HETATM    9  N2  UNL     1      17.291  12.119  19.546  1.00  0.00    -0.086 NA
ENDBRANCH   5   6
ENDBRANCH   1   5
BRANCH   3  10
HETATM   10  C5  UNL     1      21.947  17.019  17.738  1.00  0.00     0.213 C 
HETATM   11  C6  UNL     1      22.587  15.839  18.396  1.00  0.00     0.044 C 
HETATM   12  C7  UNL     1      23.552  15.349  17.336  1.00  0.00     0.029 C 
HETATM   13  C8  UNL     1      23.781  16.612  16.535  1.00  0.00     0.168 C 
HETATM   14  O2  UNL     1      22.499  17.144  16.472  1.00  0.00    -0.376 OA
ENDBRANCH   3  10
TORSDOF 3
ENDMDL
