MODEL 1
REMARK VINA RESULT: -5.582315413      0.000      0.000
REMARK  4 active torsions:
REMARK  status: ('A' for Active; 'I' for Inactive)
REMARK    1  A    between atoms: C1_2  and  N1_3 
REMARK    2  A    between atoms: N1_3  and  C2_5 
REMARK    3  A    between atoms: C2_5  and  C3_6 
REMARK    4  A    between atoms: C2_5  and  C4_9 
ROOT
HETATM    1  C4  UNL     1      21.826  16.398  17.852  1.00  0.00     0.117 C 
HETATM    2  C5  UNL     1      21.592  17.390  16.740  1.00  0.00     0.047 C 
HETATM    3  C6  UNL     1      20.348  18.188  17.153  1.00  0.00     0.122 C 
HETATM    4  N2  UNL     1      19.318  17.240  17.552  1.00  0.00    -0.386 N 
ATOM      5  H2  UNL     1      18.380  17.588  17.748  1.00  0.00     0.160 HD
HETATM    6  C7  UNL     1      19.568  15.848  17.680  1.00  0.00     0.171 C 
HETATM    7  N3  UNL     1      20.777  15.419  17.826  1.00  0.00    -0.379 N 
ATOM      8  H3  UNL     1      20.978  14.423  17.919  1.00  0.00     0.160 HD
ENDROOT
BRANCH   1   9
HETATM    9  C2  UNL     1      23.200  15.795  17.830  1.00  0.00     0.207 C 
BRANCH   9  10
HETATM   10  N1  UNL     1      23.385  14.791  16.832  1.00  0.00    -0.352 N 
ATOM     11  H1  UNL     1      22.544  14.323  16.494  1.00  0.00     0.162 HD
BRANCH  10  12
HETATM   12  C1  UNL     1      24.589  14.384  16.273  1.00  0.00     0.349 C 
HETATM   13  O1  UNL     1      24.621  13.869  15.135  1.00  0.00    -0.284 OA
ENDBRANCH  10  12
ENDBRANCH   9  10
BRANCH   9  14
HETATM   14  C3  UNL     1      23.434  15.197  19.164  1.00  0.00     0.198 C 
HETATM   15  O2  UNL     1      24.477  15.520  19.780  1.00  0.00    -0.646 OA
HETATM   16  O3  UNL     1      22.509  14.293  19.717  1.00  0.00    -0.646 OA
ENDBRANCH   9  14
ENDBRANCH   1   9
TORSDOF 4
ENDMDL
MODEL 2
REMARK VINA RESULT: -5.262416357      4.514      6.089
REMARK  4 active torsions:
REMARK  status: ('A' for Active; 'I' for Inactive)
REMARK    1  A    between atoms: C1_2  and  N1_3 
REMARK    2  A    between atoms: N1_3  and  C2_5 
REMARK    3  A    between atoms: C2_5  and  C3_6 
REMARK    4  A    between atoms: C2_5  and  C4_9 
ROOT
HETATM    1  C4  UNL     1      16.602  13.238  19.092  1.00  0.00     0.117 C 
HETATM    2  C5  UNL     1      16.317  12.696  17.713  1.00  0.00     0.047 C 
HETATM    3  C6  UNL     1      14.967  11.972  17.824  1.00  0.00     0.122 C 
HETATM    4  N2  UNL     1      15.022  11.098  18.986  1.00  0.00    -0.386 N 
ATOM      5  H2  UNL     1      14.251  10.449  19.148  1.00  0.00     0.160 HD
HETATM    6  C7  UNL     1      16.105  11.111  19.904  1.00  0.00     0.171 C 
HETATM    7  N3  UNL     1      16.883  12.138  19.971  1.00  0.00    -0.379 N 
ATOM      8  H3  UNL     1      17.667  12.168  20.623  1.00  0.00     0.160 HD
ENDROOT
BRANCH   1   9
HETATM    9  C2  UNL     1      17.666  14.295  19.105  1.00  0.00     0.207 C 
BRANCH   9  10
HETATM   10  N1  UNL     1      18.562  14.241  17.995  1.00  0.00    -0.352 N 
ATOM     11  H1  UNL     1      18.612  13.355  17.491  1.00  0.00     0.162 HD
BRANCH  10  12
HETATM   12  C1  UNL     1      19.374  15.266  17.529  1.00  0.00     0.349 C 
HETATM   13  O1  UNL     1      20.597  15.277  17.785  1.00  0.00    -0.284 OA
ENDBRANCH  10  12
ENDBRANCH   9  10
BRANCH   9  14
HETATM   14  C3  UNL     1      18.438  14.118  20.357  1.00  0.00     0.198 C 
HETATM   15  O2  UNL     1      18.060  14.745  21.376  1.00  0.00    -0.646 OA
HETATM   16  O3  UNL     1      19.561  13.272  20.393  1.00  0.00    -0.646 OA
ENDBRANCH   9  14
ENDBRANCH   1   9
TORSDOF 4
ENDMDL
MODEL 3
REMARK VINA RESULT: -5.052456875     11.881     13.064
REMARK  4 active torsions:
REMARK  status: ('A' for Active; 'I' for Inactive)
REMARK    1  A    between atoms: C1_2  and  N1_3 
REMARK    2  A    between atoms: N1_3  and  C2_5 
REMARK    3  A    between atoms: C2_5  and  C3_6 
REMARK    4  A    between atoms: C2_5  and  C4_9 
ROOT
HETATM    1  C4  UNL     1      16.313   5.610  15.208  1.00  0.00     0.117 C 
HETATM    2  C5  UNL     1      17.011   6.290  14.056  1.00  0.00     0.047 C 
HETATM    3  C6  UNL     1      18.289   5.476  13.808  1.00  0.00     0.122 C 
HETATM    4  N2  UNL     1      18.952   5.281  15.089  1.00  0.00    -0.386 N 
ATOM      5  H2  UNL     1      19.881   4.859  15.101  1.00  0.00     0.160 HD
HETATM    6  C7  UNL     1      18.358   5.655  16.323  1.00  0.00     0.171 C 
HETATM    7  N3  UNL     1      17.081   5.820  16.402  1.00  0.00    -0.379 N 
ATOM      8  H3  UNL     1      16.634   6.089  17.279  1.00  0.00     0.160 HD
ENDROOT
BRANCH   1   9
HETATM    9  C2  UNL     1      14.875   6.011  15.349  1.00  0.00     0.207 C 
BRANCH   9  10
HETATM   10  N1  UNL     1      14.562   6.652  16.586  1.00  0.00    -0.352 N 
ATOM     11  H1  UNL     1      15.344   6.840  17.213  1.00  0.00     0.162 HD
BRANCH  10  12
HETATM   12  C1  UNL     1      13.306   7.045  17.026  1.00  0.00     0.349 C 
HETATM   13  O1  UNL     1      12.903   6.731  18.167  1.00  0.00    -0.284 OA
ENDBRANCH  10  12
ENDBRANCH   9  10
BRANCH   9  14
HETATM   14  C3  UNL     1      14.065   4.777  15.227  1.00  0.00     0.198 C 
HETATM   15  O2  UNL     1      13.475   4.564  14.141  1.00  0.00    -0.646 OA
HETATM   16  O3  UNL     1      13.966   3.876  16.303  1.00  0.00    -0.646 OA
ENDBRANCH   9  14
ENDBRANCH   1   9
TORSDOF 4
ENDMDL
MODEL 4
REMARK VINA RESULT: -4.996909419     12.247     13.727
REMARK  4 active torsions:
REMARK  status: ('A' for Active; 'I' for Inactive)
REMARK    1  A    between atoms: C1_2  and  N1_3 
REMARK    2  A    between atoms: N1_3  and  C2_5 
REMARK    3  A    between atoms: C2_5  and  C3_6 
REMARK    4  A    between atoms: C2_5  and  C4_9 
ROOT
HETATM    1  C4  UNL     1      14.835   5.044  14.805  1.00  0.00     0.117 C 
HETATM    2  C5  UNL     1      14.246   4.776  13.441  1.00  0.00     0.047 C 
HETATM    3  C6  UNL     1      15.440   4.446  12.533  1.00  0.00     0.122 C 
HETATM    4  N2  UNL     1      16.452   5.473  12.734  1.00  0.00    -0.386 N 
ATOM      5  H2  UNL     1      17.270   5.480  12.124  1.00  0.00     0.160 HD
HETATM    6  C7  UNL     1      16.347   6.465  13.744  1.00  0.00     0.171 C 
HETATM    7  N3  UNL     1      15.568   6.277  14.756  1.00  0.00    -0.379 N 
ATOM      8  H3  UNL     1      15.478   6.978  15.492  1.00  0.00     0.160 HD
ENDROOT
BRANCH   1   9
HETATM    9  C2  UNL     1      13.819   5.002  15.907  1.00  0.00     0.207 C 
BRANCH   9  10
HETATM   10  N1  UNL     1      13.398   6.286  16.369  1.00  0.00    -0.352 N 
ATOM     11  H1  UNL     1      13.798   7.095  15.894  1.00  0.00     0.162 HD
BRANCH  10  12
HETATM   12  C1  UNL     1      12.504   6.549  17.397  1.00  0.00     0.349 C 
HETATM   13  O1  UNL     1      12.849   7.237  18.382  1.00  0.00    -0.284 OA
ENDBRANCH  10  12
ENDBRANCH   9  10
BRANCH   9  14
HETATM   14  C3  UNL     1      14.432   4.261  17.034  1.00  0.00     0.198 C 
HETATM   15  O2  UNL     1      13.810   3.276  17.499  1.00  0.00    -0.646 OA
HETATM   16  O3  UNL     1      15.674   4.658  17.562  1.00  0.00    -0.646 OA
ENDBRANCH   9  14
ENDBRANCH   1   9
TORSDOF 4
ENDMDL
MODEL 5
REMARK VINA RESULT: -4.988216978     12.142     13.119
REMARK  4 active torsions:
REMARK  status: ('A' for Active; 'I' for Inactive)
REMARK    1  A    between atoms: C1_2  and  N1_3 
REMARK    2  A    between atoms: N1_3  and  C2_5 
REMARK    3  A    between atoms: C2_5  and  C3_6 
REMARK    4  A    between atoms: C2_5  and  C4_9 
ROOT
HETATM    1  C4  UNL     1      15.909   4.555  14.621  1.00  0.00     0.117 C 
HETATM    2  C5  UNL     1      16.017   5.656  13.594  1.00  0.00     0.047 C 
HETATM    3  C6  UNL     1      16.397   4.960  12.280  1.00  0.00     0.122 C 
HETATM    4  N2  UNL     1      17.513   4.066  12.553  1.00  0.00    -0.386 N 
ATOM      5  H2  UNL     1      17.975   3.606  11.769  1.00  0.00     0.160 HD
HETATM    6  C7  UNL     1      17.984   3.809  13.867  1.00  0.00     0.171 C 
HETATM    7  N3  UNL     1      17.223   4.040  14.884  1.00  0.00    -0.379 N 
ATOM      8  H3  UNL     1      17.542   3.862  15.836  1.00  0.00     0.160 HD
ENDROOT
BRANCH   1   9
HETATM    9  C2  UNL     1      15.177   4.971  15.862  1.00  0.00     0.207 C 
BRANCH   9  10
HETATM   10  N1  UNL     1      14.579   6.266  15.786  1.00  0.00    -0.352 N 
ATOM     11  H1  UNL     1      14.848   6.846  14.991  1.00  0.00     0.162 HD
BRANCH  10  12
HETATM   12  C1  UNL     1      13.672   6.818  16.679  1.00  0.00     0.349 C 
HETATM   13  O1  UNL     1      14.052   7.620  17.559  1.00  0.00    -0.284 OA
ENDBRANCH  10  12
ENDBRANCH   9  10
BRANCH   9  14
HETATM   14  C3  UNL     1      16.158   4.958  16.971  1.00  0.00     0.198 C 
HETATM   15  O2  UNL     1      16.085   4.029  17.811  1.00  0.00    -0.646 OA
HETATM   16  O3  UNL     1      17.138   5.961  17.073  1.00  0.00    -0.646 OA
ENDBRANCH   9  14
ENDBRANCH   1   9
TORSDOF 4
ENDMDL
