MODEL 1
REMARK VINA RESULT: -5.976838069      0.000      0.000
REMARK  5 active torsions:
REMARK  status: ('A' for Active; 'I' for Inactive)
REMARK    1  A    between atoms: C1_2  and  C2_4 
REMARK    2  A    between atoms: C2_4  and  C3_5 
REMARK    3  A    between atoms: C3_5  and  N2_6 
REMARK    4  A    between atoms: C3_5  and  C4_10 
REMARK    5  A    between atoms: C4_10  and  C5_12 
ROOT
HETATM    1  C3  UNL     1      21.778  17.443  17.365  1.00  0.00     0.267 C 
ENDROOT
BRANCH   1   2
HETATM    2  C2  UNL     1      21.600  16.002  17.816  1.00  0.00     0.140 C 
BRANCH   2   3
HETATM    3  C1  UNL     1      22.718  15.527  18.633  1.00  0.00     0.233 C 
HETATM    4  N1  UNL     1      22.451  14.535  19.617  1.00  0.00    -0.062 NA
HETATM    5  O1  UNL     1      23.906  15.929  18.536  1.00  0.00    -0.277 OA
ENDBRANCH   2   3
ENDBRANCH   1   2
BRANCH   1   6
HETATM    6  N2  UNL     1      22.684  17.498  16.221  1.00  0.00    -0.067 N 
ATOM      7  H23 UNL     1      23.358  18.260  16.303  1.00  0.00     0.275 HD
ATOM      8  H22 UNL     1      23.342  16.718  16.216  1.00  0.00     0.275 HD
ATOM      9  H21 UNL     1      22.147  17.552  15.355  1.00  0.00     0.275 HD
ENDBRANCH   1   6
BRANCH   1  10
HETATM   10  C4  UNL     1      20.452  17.895  16.900  1.00  0.00     0.206 C 
HETATM   11  O2  UNL     1      19.433  17.241  17.201  1.00  0.00    -0.288 OA
BRANCH  10  12
HETATM   12  C5  UNL     1      20.328  19.089  16.096  1.00  0.00     0.080 A 
HETATM   13  C6  UNL     1      20.080  19.194  14.746  1.00  0.00     0.034 A 
HETATM   14  C7  UNL     1      20.030  20.532  14.424  1.00  0.00     0.019 A 
HETATM   15  C8  UNL     1      20.246  21.250  15.578  1.00  0.00     0.088 A 
HETATM   16  N3  UNL     1      20.420  20.349  16.556  1.00  0.00    -0.363 N 
ATOM     17  H3  UNL     1      20.600  20.590  17.530  1.00  0.00     0.165 HD
ENDBRANCH  10  12
ENDBRANCH   1  10
TORSDOF 5
ENDMDL
MODEL 2
REMARK VINA RESULT: -5.929316010      6.029      8.125
REMARK  5 active torsions:
REMARK  status: ('A' for Active; 'I' for Inactive)
REMARK    1  A    between atoms: C1_2  and  C2_4 
REMARK    2  A    between atoms: C2_4  and  C3_5 
REMARK    3  A    between atoms: C3_5  and  N2_6 
REMARK    4  A    between atoms: C3_5  and  C4_10 
REMARK    5  A    between atoms: C4_10  and  C5_12 
ROOT
HETATM    1  C3  UNL     1      18.328  13.789  19.140  1.00  0.00     0.267 C 
ENDROOT
BRANCH   1   2
HETATM    2  C2  UNL     1      17.195  14.574  19.783  1.00  0.00     0.140 C 
BRANCH   2   3
HETATM    3  C1  UNL     1      16.759  15.705  18.963  1.00  0.00     0.233 C 
HETATM    4  N1  UNL     1      15.361  15.924  18.817  1.00  0.00    -0.062 NA
HETATM    5  O1  UNL     1      17.527  16.507  18.372  1.00  0.00    -0.277 OA
ENDBRANCH   2   3
ENDBRANCH   1   2
BRANCH   1   6
HETATM    6  N2  UNL     1      19.032  13.012  20.156  1.00  0.00    -0.067 N 
ATOM      7  H23 UNL     1      19.992  12.804  19.881  1.00  0.00     0.275 HD
ATOM      8  H22 UNL     1      19.233  13.564  20.990  1.00  0.00     0.275 HD
ATOM      9  H21 UNL     1      18.504  12.167  20.374  1.00  0.00     0.275 HD
ENDBRANCH   1   6
BRANCH   1  10
HETATM   10  C4  UNL     1      17.692  12.832  18.214  1.00  0.00     0.206 C 
HETATM   11  O2  UNL     1      18.074  12.770  17.028  1.00  0.00    -0.288 OA
BRANCH  10  12
HETATM   12  C5  UNL     1      16.630  11.967  18.674  1.00  0.00     0.080 A 
HETATM   13  C6  UNL     1      15.297  11.987  18.332  1.00  0.00     0.034 A 
HETATM   14  C7  UNL     1      14.668  10.964  19.004  1.00  0.00     0.019 A 
HETATM   15  C8  UNL     1      15.616  10.313  19.760  1.00  0.00     0.088 A 
HETATM   16  N3  UNL     1      16.778  10.944  19.534  1.00  0.00    -0.363 N 
ATOM     17  H3  UNL     1      17.665  10.680  19.962  1.00  0.00     0.165 HD
ENDBRANCH  10  12
ENDBRANCH   1  10
TORSDOF 5
ENDMDL
MODEL 3
REMARK VINA RESULT: -5.884033748      4.890      5.883
REMARK  5 active torsions:
REMARK  status: ('A' for Active; 'I' for Inactive)
REMARK    1  A    between atoms: C1_2  and  C2_4 
REMARK    2  A    between atoms: C2_4  and  C3_5 
REMARK    3  A    between atoms: C3_5  and  N2_6 
REMARK    4  A    between atoms: C3_5  and  C4_10 
REMARK    5  A    between atoms: C4_10  and  C5_12 
ROOT
HETATM    1  C3  UNL     1      17.291  13.994  17.882  1.00  0.00     0.267 C 
ENDROOT
BRANCH   1   2
HETATM    2  C2  UNL     1      17.267  12.478  18.000  1.00  0.00     0.140 C 
BRANCH   2   3
HETATM    3  C1  UNL     1      16.208  11.999  18.889  1.00  0.00     0.233 C 
HETATM    4  N1  UNL     1      14.895  11.879  18.358  1.00  0.00    -0.062 NA
HETATM    5  O1  UNL     1      16.367  11.683  20.096  1.00  0.00    -0.277 OA
ENDBRANCH   2   3
ENDBRANCH   1   2
BRANCH   1   6
HETATM    6  N2  UNL     1      16.154  14.566  18.598  1.00  0.00    -0.067 N 
ATOM      7  H23 UNL     1      15.263  14.211  18.247  1.00  0.00     0.275 HD
ATOM      8  H22 UNL     1      16.087  14.214  19.553  1.00  0.00     0.275 HD
ATOM      9  H21 UNL     1      16.200  15.584  18.567  1.00  0.00     0.275 HD
ENDBRANCH   1   6
BRANCH   1  10
HETATM   10  C4  UNL     1      18.516  14.441  18.572  1.00  0.00     0.206 C 
HETATM   11  O2  UNL     1      18.895  13.855  19.606  1.00  0.00    -0.288 OA
BRANCH  10  12
HETATM   12  C5  UNL     1      19.280  15.555  18.057  1.00  0.00     0.080 A 
HETATM   13  C6  UNL     1      20.625  15.613  17.767  1.00  0.00     0.034 A 
HETATM   14  C7  UNL     1      20.903  16.871  17.284  1.00  0.00     0.019 A 
HETATM   15  C8  UNL     1      19.728  17.587  17.276  1.00  0.00     0.088 A 
HETATM   16  N3  UNL     1      18.780  16.763  17.746  1.00  0.00    -0.363 N 
ATOM     17  H3  UNL     1      17.800  17.021  17.854  1.00  0.00     0.165 HD
ENDBRANCH  10  12
ENDBRANCH   1  10
TORSDOF 5
ENDMDL
MODEL 4
REMARK VINA RESULT: -5.788854257     12.894     14.139
REMARK  5 active torsions:
REMARK  status: ('A' for Active; 'I' for Inactive)
REMARK    1  A    between atoms: C1_2  and  C2_4 
REMARK    2  A    between atoms: C2_4  and  C3_5 
REMARK    3  A    between atoms: C3_5  and  N2_6 
REMARK    4  A    between atoms: C3_5  and  C4_10 
REMARK    5  A    between atoms: C4_10  and  C5_12 
ROOT
HETATM    1  C3  UNL     1      13.712   4.893  16.320  1.00  0.00     0.267 C 
ENDROOT
BRANCH   1   2
HETATM    2  C2  UNL     1      14.602   3.671  16.490  1.00  0.00     0.140 C 
BRANCH   2   3
HETATM    3  C1  UNL     1      15.351   3.692  17.748  1.00  0.00     0.233 C 
HETATM    4  N1  UNL     1      16.770   3.759  17.678  1.00  0.00    -0.062 NA
HETATM    5  O1  UNL     1      14.837   3.657  18.895  1.00  0.00    -0.277 OA
ENDBRANCH   2   3
ENDBRANCH   1   2
BRANCH   1   6
HETATM    6  N2  UNL     1      12.852   5.047  17.489  1.00  0.00    -0.067 N 
ATOM      7  H23 UNL     1      12.122   4.335  17.524  1.00  0.00     0.275 HD
ATOM      8  H22 UNL     1      13.335   4.806  18.355  1.00  0.00     0.275 HD
ATOM      9  H21 UNL     1      12.468   5.992  17.515  1.00  0.00     0.275 HD
ENDBRANCH   1   6
BRANCH   1  10
HETATM   10  C4  UNL     1      14.616   6.058  16.280  1.00  0.00     0.206 C 
HETATM   11  O2  UNL     1      14.547   6.928  17.172  1.00  0.00    -0.288 OA
BRANCH  10  12
HETATM   12  C5  UNL     1      15.581   6.198  15.213  1.00  0.00     0.080 A 
HETATM   13  C6  UNL     1      15.362   6.529  13.895  1.00  0.00     0.034 A 
HETATM   14  C7  UNL     1      16.580   6.560  13.255  1.00  0.00     0.019 A 
HETATM   15  C8  UNL     1      17.549   6.249  14.180  1.00  0.00     0.088 A 
HETATM   16  N3  UNL     1      16.910   6.039  15.340  1.00  0.00    -0.363 N 
ATOM     17  H3  UNL     1      17.375   5.790  16.213  1.00  0.00     0.165 HD
ENDBRANCH  10  12
ENDBRANCH   1  10
TORSDOF 5
ENDMDL
MODEL 5
REMARK VINA RESULT: -5.695176496      4.753      5.907
REMARK  5 active torsions:
REMARK  status: ('A' for Active; 'I' for Inactive)
REMARK    1  A    between atoms: C1_2  and  C2_4 
REMARK    2  A    between atoms: C2_4  and  C3_5 
REMARK    3  A    between atoms: C3_5  and  N2_6 
REMARK    4  A    between atoms: C3_5  and  C4_10 
REMARK    5  A    between atoms: C4_10  and  C5_12 
ROOT
HETATM    1  C3  UNL     1      17.341  14.136  17.909  1.00  0.00     0.267 C 
ENDROOT
BRANCH   1   2
HETATM    2  C2  UNL     1      17.246  12.618  17.896  1.00  0.00     0.140 C 
BRANCH   2   3
HETATM    3  C1  UNL     1      16.217  12.112  18.806  1.00  0.00     0.233 C 
HETATM    4  N1  UNL     1      14.889  11.994  18.312  1.00  0.00    -0.062 NA
HETATM    5  O1  UNL     1      16.415  11.769  20.000  1.00  0.00    -0.277 OA
ENDBRANCH   2   3
ENDBRANCH   1   2
BRANCH   1   6
HETATM    6  N2  UNL     1      16.236  14.697  18.681  1.00  0.00    -0.067 N 
ATOM      7  H23 UNL     1      16.210  14.331  19.633  1.00  0.00     0.275 HD
ATOM      8  H22 UNL     1      16.385  15.681  18.904  1.00  0.00     0.275 HD
ATOM      9  H21 UNL     1      15.356  14.545  18.188  1.00  0.00     0.275 HD
ENDBRANCH   1   6
BRANCH   1  10
HETATM   10  C4  UNL     1      18.590  14.463  18.624  1.00  0.00     0.206 C 
HETATM   11  O2  UNL     1      18.876  13.864  19.680  1.00  0.00    -0.288 OA
BRANCH  10  12
HETATM   12  C5  UNL     1      19.484  15.475  18.107  1.00  0.00     0.080 A 
HETATM   13  C6  UNL     1      19.170  16.695  17.552  1.00  0.00     0.034 A 
HETATM   14  C7  UNL     1      20.347  17.326  17.219  1.00  0.00     0.019 A 
HETATM   15  C8  UNL     1      21.385  16.494  17.570  1.00  0.00     0.088 A 
HETATM   16  N3  UNL     1      20.825  15.396  18.099  1.00  0.00    -0.363 N 
ATOM     17  H3  UNL     1      21.353  14.599  18.451  1.00  0.00     0.165 HD
ENDBRANCH  10  12
ENDBRANCH   1  10
TORSDOF 5
ENDMDL
