MODEL 1
REMARK VINA RESULT: -7.415168659      0.000      0.000
REMARK  8 active torsions:
REMARK  status: ('A' for Active; 'I' for Inactive)
REMARK    1  A    between atoms: O1_2  and  C2_3 
REMARK    2  A    between atoms: C4_5  and  C5_6 
REMARK    3  A    between atoms: C5_6  and  O2_7 
REMARK    4  A    between atoms: O2_7  and  C6_8 
REMARK    5  A    between atoms: C6_8  and  C7_9 
REMARK    6  A    between atoms: C8_10  and  O3_11 
REMARK    7  A    between atoms: C9_13  and  O4_14 
REMARK    8  A    between atoms: C11_17  and  O5_18 
ROOT
HETATM    1  C7  UNL     1       8.245  28.267   6.192  1.00  0.00     0.026 A 
HETATM    2  C8  UNL     1       8.475  26.891   6.234  1.00  0.00     0.109 A 
HETATM    3  C9  UNL     1       9.024  26.191   5.193  1.00  0.00     0.102 A 
HETATM    4  C10 UNL     1       9.371  26.883   4.037  1.00  0.00     0.077 A 
HETATM    5  C11 UNL     1       9.163  28.243   3.947  1.00  0.00     0.090 A 
HETATM    6  C12 UNL     1       8.602  28.900   5.038  1.00  0.00     0.078 A 
HETATM    7 CL1  UNL     1       8.335  30.626   4.932  1.00  0.00    -0.081 Cl
ENDROOT
BRANCH   1   8
HETATM    8  C6  UNL     1       7.653  28.861   7.385  1.00  0.00     0.211 C 
BRANCH   8   9
HETATM    9  O2  UNL     1       6.408  28.360   7.752  1.00  0.00    -0.382 OA
BRANCH   9  10
HETATM   10  C5  UNL     1       5.720  29.406   8.305  1.00  0.00     0.208 C 
BRANCH  10  11
HETATM   11  C4  UNL     1       5.014  30.293   7.391  1.00  0.00    -0.010 A 
HETATM   12  C3  UNL     1       5.021  30.256   6.029  1.00  0.00     0.049 A 
HETATM   13  C2  UNL     1       4.293  31.175   5.265  1.00  0.00     0.090 A 
HETATM   14  C15 UNL     1       3.541  32.157   5.873  1.00  0.00     0.069 A 
HETATM   15  C14 UNL     1       3.528  32.205   7.243  1.00  0.00     0.051 A 
HETATM   16 CL3  UNL     1       2.621  33.323   4.958  1.00  0.00    -0.081 Cl
HETATM   17  C13 UNL     1       4.245  31.298   7.998  1.00  0.00     0.044 A 
HETATM   18 CL2  UNL     1       4.175  31.427   9.751  1.00  0.00    -0.084 Cl
BRANCH  13  19
HETATM   19  O1  UNL     1       4.335  31.091   3.892  1.00  0.00    -0.354 OA
HETATM   20  C1  UNL     1       5.327  30.414   3.170  1.00  0.00     0.210 C 
ENDBRANCH  13  19
ENDBRANCH  10  11
ENDBRANCH   9  10
ENDBRANCH   8   9
ENDBRANCH   1   8
BRANCH   2  21
HETATM   21  O3  UNL     1       8.135  26.180   7.382  1.00  0.00    -0.357 OA
ATOM     22  H3  UNL     1       7.781  25.303   7.296  1.00  0.00     0.217 HD
ENDBRANCH   2  21
BRANCH   3  23
HETATM   23  O4  UNL     1       9.245  24.816   5.256  1.00  0.00    -0.358 OA
ATOM     24  H4  UNL     1       9.528  24.314   4.501  1.00  0.00     0.217 HD
ENDBRANCH   3  23
BRANCH   5  25
HETATM   25  O5  UNL     1       9.492  28.978   2.817  1.00  0.00    -0.359 OA
ATOM     26  H5  UNL     1       8.955  29.694   2.497  1.00  0.00     0.217 HD
ENDBRANCH   5  25
TORSDOF 8
ENDMDL
MODEL 2
REMARK VINA RESULT: -7.414880098      2.666      6.778
REMARK  8 active torsions:
REMARK  status: ('A' for Active; 'I' for Inactive)
REMARK    1  A    between atoms: O1_2  and  C2_3 
REMARK    2  A    between atoms: C4_5  and  C5_6 
REMARK    3  A    between atoms: C5_6  and  O2_7 
REMARK    4  A    between atoms: O2_7  and  C6_8 
REMARK    5  A    between atoms: C6_8  and  C7_9 
REMARK    6  A    between atoms: C8_10  and  O3_11 
REMARK    7  A    between atoms: C9_13  and  O4_14 
REMARK    8  A    between atoms: C11_17  and  O5_18 
ROOT
HETATM    1  C7  UNL     1       2.968  33.191   4.413  1.00  0.00     0.026 A 
HETATM    2  C8  UNL     1       3.712  32.571   3.408  1.00  0.00     0.109 A 
HETATM    3  C9  UNL     1       3.453  32.738   2.074  1.00  0.00     0.102 A 
HETATM    4  C10 UNL     1       2.400  33.567   1.699  1.00  0.00     0.077 A 
HETATM    5  C11 UNL     1       1.636  34.202   2.655  1.00  0.00     0.090 A 
HETATM    6  C12 UNL     1       1.947  33.994   3.995  1.00  0.00     0.078 A 
HETATM    7 CL1  UNL     1       0.983  34.796   5.216  1.00  0.00    -0.081 Cl
ENDROOT
BRANCH   1   8
HETATM    8  C6  UNL     1       3.372  32.909   5.785  1.00  0.00     0.211 C 
BRANCH   8   9
HETATM    9  O2  UNL     1       3.462  31.561   6.120  1.00  0.00    -0.382 OA
BRANCH   9  10
HETATM   10  C5  UNL     1       4.113  31.506   7.324  1.00  0.00     0.208 C 
BRANCH  10  11
HETATM   11  C4  UNL     1       5.023  30.390   7.535  1.00  0.00    -0.010 A 
HETATM   12  C3  UNL     1       5.762  29.733   6.598  1.00  0.00     0.049 A 
HETATM   13  C2  UNL     1       6.603  28.668   6.937  1.00  0.00     0.090 A 
HETATM   14  C15 UNL     1       6.710  28.245   8.245  1.00  0.00     0.069 A 
HETATM   15  C14 UNL     1       5.969  28.897   9.197  1.00  0.00     0.051 A 
HETATM   16 CL3  UNL     1       7.745  26.921   8.712  1.00  0.00    -0.081 Cl
HETATM   17  C13 UNL     1       5.140  29.949   8.862  1.00  0.00     0.044 A 
HETATM   18 CL2  UNL     1       4.225  30.734  10.143  1.00  0.00    -0.084 Cl
BRANCH  13  19
HETATM   19  O1  UNL     1       7.328  28.041   5.950  1.00  0.00    -0.354 OA
HETATM   20  C1  UNL     1       7.227  28.337   4.584  1.00  0.00     0.210 C 
ENDBRANCH  13  19
ENDBRANCH  10  11
ENDBRANCH   9  10
ENDBRANCH   8   9
ENDBRANCH   1   8
BRANCH   2  21
HETATM   21  O3  UNL     1       4.770  31.738   3.761  1.00  0.00    -0.357 OA
ATOM     22  H3  UNL     1       4.583  30.892   4.151  1.00  0.00     0.217 HD
ENDBRANCH   2  21
BRANCH   3  23
HETATM   23  O4  UNL     1       4.209  32.108   1.086  1.00  0.00    -0.358 OA
ATOM     24  H4  UNL     1       4.372  32.510   0.240  1.00  0.00     0.217 HD
ENDBRANCH   3  23
BRANCH   5  25
HETATM   25  O5  UNL     1       0.577  35.038   2.334  1.00  0.00    -0.359 OA
ATOM     26  H5  UNL     1       0.635  35.984   2.387  1.00  0.00     0.217 HD
ENDBRANCH   5  25
TORSDOF 8
ENDMDL
MODEL 3
REMARK VINA RESULT: -7.411128713      1.618      3.557
REMARK  8 active torsions:
REMARK  status: ('A' for Active; 'I' for Inactive)
REMARK    1  A    between atoms: O1_2  and  C2_3 
REMARK    2  A    between atoms: C4_5  and  C5_6 
REMARK    3  A    between atoms: C5_6  and  O2_7 
REMARK    4  A    between atoms: O2_7  and  C6_8 
REMARK    5  A    between atoms: C6_8  and  C7_9 
REMARK    6  A    between atoms: C8_10  and  O3_11 
REMARK    7  A    between atoms: C9_13  and  O4_14 
REMARK    8  A    between atoms: C11_17  and  O5_18 
ROOT
HETATM    1  C7  UNL     1       7.730  27.853   3.927  1.00  0.00     0.026 A 
HETATM    2  C8  UNL     1       7.524  26.591   3.368  1.00  0.00     0.109 A 
HETATM    3  C9  UNL     1       7.913  25.429   3.979  1.00  0.00     0.102 A 
HETATM    4  C10 UNL     1       8.543  25.507   5.217  1.00  0.00     0.077 A 
HETATM    5  C11 UNL     1       8.768  26.731   5.811  1.00  0.00     0.090 A 
HETATM    6  C12 UNL     1       8.350  27.877   5.142  1.00  0.00     0.078 A 
HETATM    7 CL1  UNL     1       8.632  29.435   5.888  1.00  0.00    -0.081 Cl
ENDROOT
BRANCH   1   8
HETATM    8  C6  UNL     1       7.256  28.991   3.148  1.00  0.00     0.211 C 
BRANCH   8   9
HETATM    9  O2  UNL     1       5.875  29.157   3.106  1.00  0.00    -0.382 OA
BRANCH   9  10
HETATM   10  C5  UNL     1       5.633  30.460   3.452  1.00  0.00     0.208 C 
BRANCH  10  11
HETATM   11  C4  UNL     1       5.122  30.706   4.793  1.00  0.00    -0.010 A 
HETATM   12  C3  UNL     1       5.365  29.979   5.919  1.00  0.00     0.049 A 
HETATM   13  C2  UNL     1       4.807  30.326   7.154  1.00  0.00     0.090 A 
HETATM   14  C15 UNL     1       3.984  31.427   7.270  1.00  0.00     0.069 A 
HETATM   15  C14 UNL     1       3.731  32.165   6.142  1.00  0.00     0.051 A 
HETATM   16 CL3  UNL     1       3.266  31.895   8.789  1.00  0.00    -0.081 Cl
HETATM   17  C13 UNL     1       4.283  31.822   4.923  1.00  0.00     0.044 A 
HETATM   18 CL2  UNL     1       3.910  32.823   3.525  1.00  0.00    -0.084 Cl
BRANCH  13  19
HETATM   19  O1  UNL     1       5.086  29.557   8.260  1.00  0.00    -0.354 OA
HETATM   20  C1  UNL     1       6.257  28.804   8.425  1.00  0.00     0.210 C 
ENDBRANCH  13  19
ENDBRANCH  10  11
ENDBRANCH   9  10
ENDBRANCH   8   9
ENDBRANCH   1   8
BRANCH   2  21
HETATM   21  O3  UNL     1       6.896  26.491   2.129  1.00  0.00    -0.357 OA
ATOM     22  H3  UNL     1       6.251  25.808   1.991  1.00  0.00     0.217 HD
ENDBRANCH   2  21
BRANCH   3  23
HETATM   23  O4  UNL     1       7.699  24.178   3.401  1.00  0.00    -0.358 OA
ATOM     24  H4  UNL     1       8.317  23.463   3.498  1.00  0.00     0.217 HD
ENDBRANCH   3  23
BRANCH   5  25
HETATM   25  O5  UNL     1       9.391  26.863   7.043  1.00  0.00    -0.359 OA
ATOM     26  H5  UNL     1      10.335  26.868   7.143  1.00  0.00     0.217 HD
ENDBRANCH   5  25
TORSDOF 8
ENDMDL
MODEL 4
REMARK VINA RESULT: -7.395833403      1.760      3.652
REMARK  8 active torsions:
REMARK  status: ('A' for Active; 'I' for Inactive)
REMARK    1  A    between atoms: O1_2  and  C2_3 
REMARK    2  A    between atoms: C4_5  and  C5_6 
REMARK    3  A    between atoms: C5_6  and  O2_7 
REMARK    4  A    between atoms: O2_7  and  C6_8 
REMARK    5  A    between atoms: C6_8  and  C7_9 
REMARK    6  A    between atoms: C8_10  and  O3_11 
REMARK    7  A    between atoms: C9_13  and  O4_14 
REMARK    8  A    between atoms: C11_17  and  O5_18 
ROOT
HETATM    1  C7  UNL     1       7.859  28.415   3.074  1.00  0.00     0.026 A 
HETATM    2  C8  UNL     1       8.018  27.235   2.347  1.00  0.00     0.109 A 
HETATM    3  C9  UNL     1       9.091  26.399   2.504  1.00  0.00     0.102 A 
HETATM    4  C10 UNL     1      10.069  26.738   3.433  1.00  0.00     0.077 A 
HETATM    5  C11 UNL     1       9.956  27.894   4.176  1.00  0.00     0.090 A 
HETATM    6  C12 UNL     1       8.844  28.705   3.972  1.00  0.00     0.078 A 
HETATM    7 CL1  UNL     1       8.692  30.174   4.910  1.00  0.00    -0.081 Cl
ENDROOT
BRANCH   1   8
HETATM    8  C6  UNL     1       6.660  29.195   2.788  1.00  0.00     0.211 C 
BRANCH   8   9
HETATM    9  O2  UNL     1       5.550  28.900   3.574  1.00  0.00    -0.382 OA
BRANCH   9  10
HETATM   10  C5  UNL     1       5.072  30.100   4.030  1.00  0.00     0.208 C 
BRANCH  10  11
HETATM   11  C4  UNL     1       4.938  30.256   5.471  1.00  0.00    -0.010 A 
HETATM   12  C3  UNL     1       5.474  29.467   6.444  1.00  0.00     0.049 A 
HETATM   13  C2  UNL     1       5.266  29.730   7.802  1.00  0.00     0.090 A 
HETATM   14  C15 UNL     1       4.503  30.807   8.202  1.00  0.00     0.069 A 
HETATM   15  C14 UNL     1       3.957  31.607   7.231  1.00  0.00     0.051 A 
HETATM   16 CL3  UNL     1       4.217  31.170   9.884  1.00  0.00    -0.081 Cl
HETATM   17  C13 UNL     1       4.163  31.348   5.890  1.00  0.00     0.044 A 
HETATM   18 CL2  UNL     1       3.429  32.424   4.708  1.00  0.00    -0.084 Cl
BRANCH  13  19
HETATM   19  O1  UNL     1       5.832  28.901   8.743  1.00  0.00    -0.354 OA
HETATM   20  C1  UNL     1       7.100  28.316   8.623  1.00  0.00     0.210 C 
ENDBRANCH  13  19
ENDBRANCH  10  11
ENDBRANCH   9  10
ENDBRANCH   8   9
ENDBRANCH   1   8
BRANCH   2  21
HETATM   21  O3  UNL     1       7.051  26.876   1.412  1.00  0.00    -0.357 OA
ATOM     22  H3  UNL     1       6.629  26.029   1.484  1.00  0.00     0.217 HD
ENDBRANCH   2  21
BRANCH   3  23
HETATM   23  O4  UNL     1       9.231  25.223   1.766  1.00  0.00    -0.358 OA
ATOM     24  H4  UNL     1       8.689  24.459   1.924  1.00  0.00     0.217 HD
ENDBRANCH   3  23
BRANCH   5  25
HETATM   25  O5  UNL     1      10.903  28.278   5.114  1.00  0.00    -0.359 OA
ATOM     26  H5  UNL     1      11.838  28.209   4.958  1.00  0.00     0.217 HD
ENDBRANCH   5  25
TORSDOF 8
ENDMDL
MODEL 5
REMARK VINA RESULT: -7.390489671      2.334      3.273
REMARK  8 active torsions:
REMARK  status: ('A' for Active; 'I' for Inactive)
REMARK    1  A    between atoms: O1_2  and  C2_3 
REMARK    2  A    between atoms: C4_5  and  C5_6 
REMARK    3  A    between atoms: C5_6  and  O2_7 
REMARK    4  A    between atoms: O2_7  and  C6_8 
REMARK    5  A    between atoms: C6_8  and  C7_9 
REMARK    6  A    between atoms: C8_10  and  O3_11 
REMARK    7  A    between atoms: C9_13  and  O4_14 
REMARK    8  A    between atoms: C11_17  and  O5_18 
ROOT
HETATM    1  C7  UNL     1       9.237  28.150   3.460  1.00  0.00     0.026 A 
HETATM    2  C8  UNL     1      10.497  27.705   3.861  1.00  0.00     0.109 A 
HETATM    3  C9  UNL     1      11.202  26.746   3.184  1.00  0.00     0.102 A 
HETATM    4  C10 UNL     1      10.638  26.188   2.042  1.00  0.00     0.077 A 
HETATM    5  C11 UNL     1       9.395  26.594   1.605  1.00  0.00     0.090 A 
HETATM    6  C12 UNL     1       8.726  27.573   2.334  1.00  0.00     0.078 A 
HETATM    7 CL1  UNL     1       7.148  28.095   1.787  1.00  0.00    -0.081 Cl
ENDROOT
BRANCH   1   8
HETATM    8  C6  UNL     1       8.618  29.177   4.290  1.00  0.00     0.211 C 
BRANCH   8   9
HETATM    9  O2  UNL     1       8.531  28.881   5.646  1.00  0.00    -0.382 OA
BRANCH   9  10
HETATM   10  C5  UNL     1       7.296  28.321   5.839  1.00  0.00     0.208 C 
BRANCH  10  11
HETATM   11  C4  UNL     1       6.308  29.121   6.548  1.00  0.00    -0.010 A 
HETATM   12  C3  UNL     1       5.489  30.078   6.030  1.00  0.00     0.049 A 
HETATM   13  C2  UNL     1       4.578  30.779   6.828  1.00  0.00     0.090 A 
HETATM   14  C15 UNL     1       4.481  30.520   8.178  1.00  0.00     0.069 A 
HETATM   15  C14 UNL     1       5.302  29.559   8.712  1.00  0.00     0.051 A 
HETATM   16 CL3  UNL     1       3.361  31.369   9.210  1.00  0.00    -0.081 Cl
HETATM   17  C13 UNL     1       6.201  28.867   7.924  1.00  0.00     0.044 A 
HETATM   18 CL2  UNL     1       7.216  27.649   8.685  1.00  0.00    -0.084 Cl
BRANCH  13  19
HETATM   19  O1  UNL     1       3.774  31.735   6.252  1.00  0.00    -0.354 OA
HETATM   20  C1  UNL     1       3.903  32.188   4.931  1.00  0.00     0.210 C 
ENDBRANCH  13  19
ENDBRANCH  10  11
ENDBRANCH   9  10
ENDBRANCH   8   9
ENDBRANCH   1   8
BRANCH   2  21
HETATM   21  O3  UNL     1      11.079  28.251   5.001  1.00  0.00    -0.357 OA
ATOM     22  H3  UNL     1      11.402  27.671   5.680  1.00  0.00     0.217 HD
ENDBRANCH   2  21
BRANCH   3  23
HETATM   23  O4  UNL     1      12.461  26.315   3.603  1.00  0.00    -0.358 OA
ATOM     24  H4  UNL     1      12.583  25.510   4.092  1.00  0.00     0.217 HD
ENDBRANCH   3  23
BRANCH   5  25
HETATM   25  O5  UNL     1       8.790  26.069   0.473  1.00  0.00    -0.359 OA
ATOM     26  H5  UNL     1       9.184  25.378  -0.046  1.00  0.00     0.217 HD
ENDBRANCH   5  25
TORSDOF 8
ENDMDL
