MODEL 1
REMARK VINA RESULT: -7.442463039      0.000      0.000
REMARK  8 active torsions:
REMARK  status: ('A' for Active; 'I' for Inactive)
REMARK    1  A    between atoms: C2_2  and  C3_3 
REMARK    2  A    between atoms: C3_3  and  C4_4 
REMARK    3  A    between atoms: C4_4  and  N1_5 
REMARK    4  A    between atoms: C5_6  and  O1_7 
REMARK    5  A    between atoms: C6_9  and  O2_10 
REMARK    6  A    between atoms: C7_12  and  O3_13 
REMARK    7  A    between atoms: C8_15  and  C9_16 
REMARK    8  A    between atoms: N2_17  and  C10_19 
ROOT
HETATM    1  N1  UNL     1       2.552  33.567   3.092  1.00  0.00    -0.322 N 
HETATM    2  C5  UNL     1       1.532  34.401   3.360  1.00  0.00     0.180 A 
HETATM    3  C6  UNL     1       1.245  34.415   4.722  1.00  0.00     0.153 A 
HETATM    4  C7  UNL     1       2.141  33.545   5.288  1.00  0.00     0.132 A 
HETATM    5  C8  UNL     1       2.933  33.032   4.293  1.00  0.00     0.088 A 
ENDROOT
BRANCH   5   6
HETATM    6  C9  UNL     1       4.024  32.068   4.420  1.00  0.00     0.121 C 
HETATM    7  N2  UNL     1       4.181  31.503   5.586  1.00  0.00    -0.364 N 
ATOM      8  H2  UNL     1       3.553  31.747   6.352  1.00  0.00     0.165 HD
BRANCH   7   9
HETATM    9  C10 UNL     1       5.216  30.555   5.803  1.00  0.00     0.035 A 
HETATM   10  C11 UNL     1       6.173  30.279   4.831  1.00  0.00     0.053 A 
HETATM   11  C12 UNL     1       7.183  29.372   5.007  1.00  0.00     0.037 A 
HETATM   12 CL1  UNL     1       8.386  29.030   3.773  1.00  0.00    -0.084 Cl
HETATM   13  C13 UNL     1       7.242  28.703   6.217  1.00  0.00     0.048 A 
HETATM   14  C14 UNL     1       6.308  28.948   7.216  1.00  0.00     0.037 A 
HETATM   15 CL2  UNL     1       6.411  28.089   8.728  1.00  0.00    -0.084 Cl
HETATM   16  C15 UNL     1       5.312  29.868   6.991  1.00  0.00     0.053 A 
ENDBRANCH   7   9
ENDBRANCH   5   6
BRANCH   1  17
HETATM   17  C4  UNL     1       3.147  33.291   1.801  1.00  0.00     0.131 C 
BRANCH  17  18
HETATM   18  C3  UNL     1       4.264  34.197   1.411  1.00  0.00     0.020 C 
BRANCH  18  19
HETATM   19  C2  UNL     1       5.188  33.531   0.453  1.00  0.00    -0.003 C 
HETATM   20  C1  UNL     1       5.193  32.008   0.634  1.00  0.00     0.005 C 
ENDBRANCH  18  19
ENDBRANCH  17  18
ENDBRANCH   1  17
BRANCH   4  21
HETATM   21  O3  UNL     1       2.229  33.239   6.629  1.00  0.00    -0.356 OA
ATOM     22  H3  UNL     1       3.013  32.952   7.081  1.00  0.00     0.218 HD
ENDBRANCH   4  21
BRANCH   2  23
HETATM   23  O1  UNL     1       0.807  35.179   2.465  1.00  0.00    -0.344 OA
ATOM     24  H1  UNL     1      -0.117  35.397   2.496  1.00  0.00     0.219 HD
ENDBRANCH   2  23
BRANCH   3  25
HETATM   25  O2  UNL     1       0.258  35.154   5.383  1.00  0.00    -0.354 OA
ATOM     26  H2  UNL     1       0.101  35.211   6.318  1.00  0.00     0.218 HD
ENDBRANCH   3  25
TORSDOF 8
ENDMDL
MODEL 2
REMARK VINA RESULT: -7.411622132      0.082      1.926
REMARK  8 active torsions:
REMARK  status: ('A' for Active; 'I' for Inactive)
REMARK    1  A    between atoms: C2_2  and  C3_3 
REMARK    2  A    between atoms: C3_3  and  C4_4 
REMARK    3  A    between atoms: C4_4  and  N1_5 
REMARK    4  A    between atoms: C5_6  and  O1_7 
REMARK    5  A    between atoms: C6_9  and  O2_10 
REMARK    6  A    between atoms: C7_12  and  O3_13 
REMARK    7  A    between atoms: C8_15  and  C9_16 
REMARK    8  A    between atoms: N2_17  and  C10_19 
ROOT
HETATM    1  N1  UNL     1       2.596  33.532   3.049  1.00  0.00    -0.322 N 
HETATM    2  C5  UNL     1       1.586  34.379   3.315  1.00  0.00     0.180 A 
HETATM    3  C6  UNL     1       1.312  34.414   4.679  1.00  0.00     0.153 A 
HETATM    4  C7  UNL     1       2.205  33.542   5.248  1.00  0.00     0.132 A 
HETATM    5  C8  UNL     1       2.982  33.009   4.253  1.00  0.00     0.088 A 
ENDROOT
BRANCH   5   6
HETATM    6  C9  UNL     1       4.066  32.036   4.384  1.00  0.00     0.121 C 
HETATM    7  N2  UNL     1       4.229  31.487   5.556  1.00  0.00    -0.364 N 
ATOM      8  H2  UNL     1       3.612  31.748   6.324  1.00  0.00     0.165 HD
BRANCH   7   9
HETATM    9  C10 UNL     1       5.257  30.531   5.776  1.00  0.00     0.035 A 
HETATM   10  C11 UNL     1       5.362  29.831   6.974  1.00  0.00     0.053 A 
HETATM   11  C12 UNL     1       6.339  28.904   7.219  1.00  0.00     0.037 A 
HETATM   12 CL1  UNL     1       6.463  28.026   8.736  1.00  0.00    -0.084 Cl
HETATM   13  C13 UNL     1       7.259  28.660   6.216  1.00  0.00     0.048 A 
HETATM   14  C14 UNL     1       7.192  29.336   5.003  1.00  0.00     0.037 A 
HETATM   15 CL2  UNL     1       8.367  29.006   3.761  1.00  0.00    -0.084 Cl
HETATM   16  C15 UNL     1       6.192  30.259   4.806  1.00  0.00     0.053 A 
ENDBRANCH   7   9
ENDBRANCH   5   6
BRANCH   1  17
HETATM   17  C4  UNL     1       3.176  33.233   1.756  1.00  0.00     0.131 C 
BRANCH  17  18
HETATM   18  C3  UNL     1       4.290  34.130   1.338  1.00  0.00     0.020 C 
BRANCH  18  19
HETATM   19  C2  UNL     1       5.248  33.421   0.447  1.00  0.00    -0.003 C 
HETATM   20  C1  UNL     1       5.312  31.921   0.762  1.00  0.00     0.005 C 
ENDBRANCH  18  19
ENDBRANCH  17  18
ENDBRANCH   1  17
BRANCH   4  21
HETATM   21  O3  UNL     1       2.302  33.254   6.592  1.00  0.00    -0.356 OA
ATOM     22  H3  UNL     1       2.516  33.875   7.279  1.00  0.00     0.218 HD
ENDBRANCH   4  21
BRANCH   2  23
HETATM   23  O1  UNL     1       0.860  35.153   2.416  1.00  0.00    -0.344 OA
ATOM     24  H1  UNL     1       0.093  35.685   2.591  1.00  0.00     0.219 HD
ENDBRANCH   2  23
BRANCH   3  25
HETATM   25  O2  UNL     1       0.338  35.171   5.339  1.00  0.00    -0.354 OA
ATOM     26  H2  UNL     1      -0.162  34.932   6.111  1.00  0.00     0.218 HD
ENDBRANCH   3  25
TORSDOF 8
ENDMDL
MODEL 3
REMARK VINA RESULT: -7.204756608      4.380      7.805
REMARK  8 active torsions:
REMARK  status: ('A' for Active; 'I' for Inactive)
REMARK    1  A    between atoms: C2_2  and  C3_3 
REMARK    2  A    between atoms: C3_3  and  C4_4 
REMARK    3  A    between atoms: C4_4  and  N1_5 
REMARK    4  A    between atoms: C5_6  and  O1_7 
REMARK    5  A    between atoms: C6_9  and  O2_10 
REMARK    6  A    between atoms: C7_12  and  O3_13 
REMARK    7  A    between atoms: C8_15  and  C9_16 
REMARK    8  A    between atoms: N2_17  and  C10_19 
ROOT
HETATM    1  N1  UNL     1       7.503  28.452   6.736  1.00  0.00    -0.322 N 
HETATM    2  C5  UNL     1       8.700  27.860   6.581  1.00  0.00     0.180 A 
HETATM    3  C6  UNL     1       9.377  28.384   5.484  1.00  0.00     0.153 A 
HETATM    4  C7  UNL     1       8.537  29.335   4.964  1.00  0.00     0.132 A 
HETATM    5  C8  UNL     1       7.399  29.372   5.728  1.00  0.00     0.088 A 
ENDROOT
BRANCH   5   6
HETATM    6  C9  UNL     1       6.228  30.229   5.554  1.00  0.00     0.121 C 
HETATM    7  N2  UNL     1       5.998  30.679   4.351  1.00  0.00    -0.364 N 
ATOM      8  H2  UNL     1       6.628  30.425   3.590  1.00  0.00     0.165 HD
BRANCH   7   9
HETATM    9  C10 UNL     1       4.883  31.518   4.088  1.00  0.00     0.035 A 
HETATM   10  C11 UNL     1       4.586  31.961   2.802  1.00  0.00     0.053 A 
HETATM   11  C12 UNL     1       3.519  32.769   2.514  1.00  0.00     0.037 A 
HETATM   12 CL1  UNL     1       3.153  33.323   0.887  1.00  0.00    -0.084 Cl
HETATM   13  C13 UNL     1       2.705  33.157   3.562  1.00  0.00     0.048 A 
HETATM   14  C14 UNL     1       2.964  32.739   4.862  1.00  0.00     0.037 A 
HETATM   15 CL2  UNL     1       1.919  33.246   6.159  1.00  0.00    -0.084 Cl
HETATM   16  C15 UNL     1       4.048  31.928   5.101  1.00  0.00     0.053 A 
ENDBRANCH   7   9
ENDBRANCH   5   6
BRANCH   1  17
HETATM   17  C4  UNL     1       6.518  28.190   7.765  1.00  0.00     0.131 C 
BRANCH  17  18
HETATM   18  C3  UNL     1       6.654  29.015   8.998  1.00  0.00     0.020 C 
BRANCH  18  19
HETATM   19  C2  UNL     1       5.329  29.267   9.627  1.00  0.00    -0.003 C 
HETATM   20  C1  UNL     1       4.435  30.140   8.738  1.00  0.00     0.005 C 
ENDBRANCH  18  19
ENDBRANCH  17  18
ENDBRANCH   1  17
BRANCH   4  21
HETATM   21  O3  UNL     1       8.794  30.118   3.860  1.00  0.00    -0.356 OA
ATOM     22  H3  UNL     1       8.157  30.381   3.205  1.00  0.00     0.218 HD
ENDBRANCH   4  21
BRANCH   2  23
HETATM   23  O1  UNL     1       9.263  26.855   7.360  1.00  0.00    -0.344 OA
ATOM     24  H1  UNL     1      10.142  26.817   7.718  1.00  0.00     0.219 HD
ENDBRANCH   2  23
BRANCH   3  25
HETATM   25  O2  UNL     1      10.642  28.026   5.006  1.00  0.00    -0.354 OA
ATOM     26  H2  UNL     1      11.137  28.435   4.306  1.00  0.00     0.218 HD
ENDBRANCH   3  25
TORSDOF 8
ENDMDL
MODEL 4
REMARK VINA RESULT: -7.193785338      4.857      8.211
REMARK  8 active torsions:
REMARK  status: ('A' for Active; 'I' for Inactive)
REMARK    1  A    between atoms: C2_2  and  C3_3 
REMARK    2  A    between atoms: C3_3  and  C4_4 
REMARK    3  A    between atoms: C4_4  and  N1_5 
REMARK    4  A    between atoms: C5_6  and  O1_7 
REMARK    5  A    between atoms: C6_9  and  O2_10 
REMARK    6  A    between atoms: C7_12  and  O3_13 
REMARK    7  A    between atoms: C8_15  and  C9_16 
REMARK    8  A    between atoms: N2_17  and  C10_19 
ROOT
HETATM    1  N1  UNL     1       8.436  26.943   5.505  1.00  0.00    -0.322 N 
HETATM    2  C5  UNL     1       8.869  25.837   4.874  1.00  0.00     0.180 A 
HETATM    3  C6  UNL     1       8.400  25.796   3.564  1.00  0.00     0.153 A 
HETATM    4  C7  UNL     1       7.652  26.935   3.414  1.00  0.00     0.132 A 
HETATM    5  C8  UNL     1       7.676  27.628   4.596  1.00  0.00     0.088 A 
ENDROOT
BRANCH   5   6
HETATM    6  C9  UNL     1       7.022  28.898   4.907  1.00  0.00     0.121 C 
HETATM    7  N2  UNL     1       5.722  28.934   4.804  1.00  0.00    -0.364 N 
ATOM      8  H2  UNL     1       5.216  28.096   4.518  1.00  0.00     0.165 HD
BRANCH   7   9
HETATM    9  C10 UNL     1       5.001  30.126   5.086  1.00  0.00     0.035 A 
HETATM   10  C11 UNL     1       4.594  30.992   4.076  1.00  0.00     0.053 A 
HETATM   11  C12 UNL     1       3.898  32.147   4.313  1.00  0.00     0.037 A 
HETATM   12 CL1  UNL     1       3.389  33.235   3.030  1.00  0.00    -0.084 Cl
HETATM   13  C13 UNL     1       3.591  32.455   5.626  1.00  0.00     0.048 A 
HETATM   14  C14 UNL     1       3.978  31.618   6.666  1.00  0.00     0.037 A 
HETATM   15 CL2  UNL     1       3.576  32.035   8.308  1.00  0.00    -0.084 Cl
HETATM   16  C15 UNL     1       4.676  30.470   6.377  1.00  0.00     0.053 A 
ENDBRANCH   7   9
ENDBRANCH   5   6
BRANCH   1  17
HETATM   17  C4  UNL     1       8.718  27.347   6.867  1.00  0.00     0.131 C 
BRANCH  17  18
HETATM   18  C3  UNL     1       7.729  26.889   7.883  1.00  0.00     0.020 C 
BRANCH  18  19
HETATM   19  C2  UNL     1       7.723  27.784   9.071  1.00  0.00    -0.003 C 
HETATM   20  C1  UNL     1       6.533  28.752   9.047  1.00  0.00     0.005 C 
ENDBRANCH  18  19
ENDBRANCH  17  18
ENDBRANCH   1  17
BRANCH   4  21
HETATM   21  O3  UNL     1       6.988  27.316   2.267  1.00  0.00    -0.356 OA
ATOM     22  H3  UNL     1       6.045  27.367   2.164  1.00  0.00     0.218 HD
ENDBRANCH   4  21
BRANCH   2  23
HETATM   23  O1  UNL     1       9.674  24.824   5.382  1.00  0.00    -0.344 OA
ATOM     24  H1  UNL     1       9.439  23.919   5.546  1.00  0.00     0.219 HD
ENDBRANCH   2  23
BRANCH   3  25
HETATM   25  O2  UNL     1       8.636  24.810   2.601  1.00  0.00    -0.354 OA
ATOM     26  H2  UNL     1       9.404  24.258   2.509  1.00  0.00     0.218 HD
ENDBRANCH   3  25
TORSDOF 8
ENDMDL
MODEL 5
REMARK VINA RESULT: -7.188251857      4.850      8.409
REMARK  8 active torsions:
REMARK  status: ('A' for Active; 'I' for Inactive)
REMARK    1  A    between atoms: C2_2  and  C3_3 
REMARK    2  A    between atoms: C3_3  and  C4_4 
REMARK    3  A    between atoms: C4_4  and  N1_5 
REMARK    4  A    between atoms: C5_6  and  O1_7 
REMARK    5  A    between atoms: C6_9  and  O2_10 
REMARK    6  A    between atoms: C7_12  and  O3_13 
REMARK    7  A    between atoms: C8_15  and  C9_16 
REMARK    8  A    between atoms: N2_17  and  C10_19 
ROOT
HETATM    1  N1  UNL     1       8.425  26.950   5.510  1.00  0.00    -0.322 N 
HETATM    2  C5  UNL     1       8.858  25.845   4.878  1.00  0.00     0.180 A 
HETATM    3  C6  UNL     1       8.390  25.806   3.567  1.00  0.00     0.153 A 
HETATM    4  C7  UNL     1       7.641  26.945   3.418  1.00  0.00     0.132 A 
HETATM    5  C8  UNL     1       7.665  27.636   4.601  1.00  0.00     0.088 A 
ENDROOT
BRANCH   5   6
HETATM    6  C9  UNL     1       7.011  28.906   4.913  1.00  0.00     0.121 C 
HETATM    7  N2  UNL     1       5.719  28.963   4.739  1.00  0.00    -0.364 N 
ATOM      8  H2  UNL     1       5.220  28.141   4.399  1.00  0.00     0.165 HD
BRANCH   7   9
HETATM    9  C10 UNL     1       4.998  30.156   5.016  1.00  0.00     0.035 A 
HETATM   10  C11 UNL     1       4.650  30.517   6.314  1.00  0.00     0.053 A 
HETATM   11  C12 UNL     1       3.957  31.658   6.616  1.00  0.00     0.037 A 
HETATM   12 CL1  UNL     1       3.522  32.104   8.259  1.00  0.00    -0.084 Cl
HETATM   13  C13 UNL     1       3.592  32.484   5.569  1.00  0.00     0.048 A 
HETATM   14  C14 UNL     1       3.919  32.163   4.257  1.00  0.00     0.037 A 
HETATM   15 CL2  UNL     1       3.445  33.226   2.961  1.00  0.00    -0.084 Cl
HETATM   16  C15 UNL     1       4.616  31.005   4.004  1.00  0.00     0.053 A 
ENDBRANCH   7   9
ENDBRANCH   5   6
BRANCH   1  17
HETATM   17  C4  UNL     1       8.707  27.353   6.873  1.00  0.00     0.131 C 
BRANCH  17  18
HETATM   18  C3  UNL     1       7.720  26.888   7.888  1.00  0.00     0.020 C 
BRANCH  18  19
HETATM   19  C2  UNL     1       7.684  27.802   9.062  1.00  0.00    -0.003 C 
HETATM   20  C1  UNL     1       6.498  28.772   8.991  1.00  0.00     0.005 C 
ENDBRANCH  18  19
ENDBRANCH  17  18
ENDBRANCH   1  17
BRANCH   4  21
HETATM   21  O3  UNL     1       6.978  27.327   2.272  1.00  0.00    -0.356 OA
ATOM     22  H3  UNL     1       6.202  26.911   1.916  1.00  0.00     0.218 HD
ENDBRANCH   4  21
BRANCH   2  23
HETATM   23  O1  UNL     1       9.664  24.832   5.385  1.00  0.00    -0.344 OA
ATOM     24  H1  UNL     1       9.515  23.895   5.348  1.00  0.00     0.219 HD
ENDBRANCH   2  23
BRANCH   3  25
HETATM   25  O2  UNL     1       8.626  24.821   2.602  1.00  0.00    -0.354 OA
ATOM     26  H2  UNL     1       8.252  23.948   2.558  1.00  0.00     0.218 HD
ENDBRANCH   3  25
TORSDOF 8
ENDMDL
