MODEL 1
REMARK VINA RESULT: -8.798625752      0.000      0.000
REMARK  19 active torsions:
REMARK  status: ('A' for Active; 'I' for Inactive)
REMARK       I    between atoms: C2_2  and  N1_4 
REMARK    1  A    between atoms: N1_4  and  C3_6 
REMARK    2  A    between atoms: C5_8  and  N2_9 
REMARK    3  A    between atoms: C6_13  and  O2_14 
REMARK    4  A    between atoms: O2_14  and  C7_15 
REMARK    5  A    between atoms: C7_15  and  C9_17 
REMARK    6  A    between atoms: C9_17  and  O3_18 
REMARK    7  A    between atoms: C9_17  and  C10_20 
REMARK    8  A    between atoms: C9_17  and  C11_23 
REMARK    9  A    between atoms: C10_20  and  O4_21 
REMARK   10  A    between atoms: C11_23  and  O5_24 
REMARK   11  A    between atoms: C12_27  and  N3_28 
REMARK   12  A    between atoms: C13_29  and  N4_30 
REMARK   13  A    between atoms: N7_38  and  N8_40 
REMARK   14  A    between atoms: C18_46  and  N10_47 
REMARK   15  A    between atoms: N10_47  and  C19_49 
REMARK   16  A    between atoms: C19_49  and  C20_50 
REMARK   17  A    between atoms: C20_50  and  O7_51 
REMARK   18  A    between atoms: C20_50  and  C21_53 
REMARK   19  A    between atoms: C21_53  and  O8_54 
ROOT
HETATM    1  N3  UNL     1      84.695   2.363 124.995  1.00  0.00    -0.134 N 
HETATM    2  C13 UNL     1      85.302   1.382 125.676  1.00  0.00     0.725 A 
HETATM    3  N9  UNL     1      85.288   1.674 127.015  1.00  0.00    -0.181 N 
ATOM      4  H9  UNL     1      85.680   1.099 127.760  1.00  0.00     0.184 HD
HETATM    5  C17 UNL     1      84.675   2.834 127.168  1.00  0.00     0.137 A 
HETATM    6  C18 UNL     1      84.410   3.569 128.333  1.00  0.00     0.133 A 
HETATM    7  N11 UNL     1      83.767   4.738 128.173  1.00  0.00    -0.337 N 
ATOM      8  H11 UNL     1      83.557   5.300 128.998  1.00  0.00     0.168 HD
HETATM    9  C22 UNL     1      83.388   5.196 126.954  1.00  0.00     0.183 A 
HETATM   10  N12 UNL     1      83.668   4.450 125.881  1.00  0.00    -0.336 N 
ATOM     11  H12 UNL     1      83.380   4.800 124.968  1.00  0.00     0.168 HD
HETATM   12  C23 UNL     1      84.306   3.267 125.929  1.00  0.00     0.158 A 
ENDROOT
BRANCH   1  13
HETATM   13  C12 UNL     1      84.531   2.402 123.573  1.00  0.00     0.273 C 
HETATM   14  C3  UNL     1      85.210   3.445 122.804  1.00  0.00     0.136 C 
HETATM   15  C4  UNL     1      86.671   3.133 122.637  1.00  0.00     0.067 C 
HETATM   16  C5  UNL     1      86.730   1.910 121.749  1.00  0.00     0.240 C 
HETATM   17  C6  UNL     1      85.425   1.155 121.817  1.00  0.00     0.293 C 
HETATM   18  O6  UNL     1      84.870   1.151 123.077  1.00  0.00    -0.332 OA
BRANCH  14  19
HETATM   19  N1  UNL     1      84.967   4.797 123.161  1.00  0.00    -0.352 N 
HETATM   20  C2  UNL     1      83.970   5.556 122.530  1.00  0.00     0.214 C 
HETATM   21  C1  UNL     1      83.771   6.972 122.956  1.00  0.00     0.117 C 
HETATM   22  O1  UNL     1      83.267   5.030 121.624  1.00  0.00    -0.274 OA
ATOM     23  H1  UNL     1      85.532   5.228 123.893  1.00  0.00     0.163 HD
ENDBRANCH  14  19
BRANCH  16  24
HETATM   24  N2  UNL     1      87.869   1.078 122.053  1.00  0.00    -0.070 N 
ATOM     25  H23 UNL     1      88.366   1.416 122.877  1.00  0.00     0.274 HD
ATOM     26  H22 UNL     1      87.578   0.165 122.405  1.00  0.00     0.274 HD
ATOM     27  H21 UNL     1      88.498   0.984 121.254  1.00  0.00     0.274 HD
ENDBRANCH  16  24
BRANCH  17  28
HETATM   28  O2  UNL     1      85.722  -0.171 121.511  1.00  0.00    -0.351 OA
BRANCH  28  29
HETATM   29  C7  UNL     1      84.860  -0.682 120.579  1.00  0.00     0.159 C 
HETATM   30  C8  UNL     1      84.124   0.441 119.869  1.00  0.00     0.043 C 
BRANCH  29  31
HETATM   31  C9  UNL     1      83.929  -1.663 121.208  1.00  0.00     0.125 C 
BRANCH  31  32
HETATM   32  O3  UNL     1      84.401  -2.080 122.449  1.00  0.00    -0.383 OA
ATOM     33  H3  UNL     1      84.219  -3.002 122.593  1.00  0.00     0.210 HD
ENDBRANCH  31  32
BRANCH  31  34
HETATM   34  C10 UNL     1      83.860  -2.908 120.339  1.00  0.00     0.206 C 
BRANCH  34  35
HETATM   35  O4  UNL     1      85.096  -3.569 120.326  1.00  0.00    -0.398 OA
ATOM     36  H4  UNL     1      85.252  -3.971 119.479  1.00  0.00     0.209 HD
ENDBRANCH  34  35
ENDBRANCH  31  34
BRANCH  31  37
HETATM   37  C11 UNL     1      82.542  -1.071 121.404  1.00  0.00     0.206 C 
BRANCH  37  38
HETATM   38  O5  UNL     1      82.422  -0.630 122.725  1.00  0.00    -0.398 OA
ATOM     39  H5  UNL     1      81.973   0.207 122.729  1.00  0.00     0.209 HD
ENDBRANCH  37  38
ENDBRANCH  31  37
ENDBRANCH  29  31
ENDBRANCH  28  29
ENDBRANCH  17  28
ENDBRANCH   1  13
BRANCH   2  40
HETATM   40  N4  UNL     1      85.927   0.187 125.253  1.00  0.00     0.093 N 
HETATM   41  N5  UNL     1      87.204   0.046 124.969  1.00  0.00    -0.253 N 
HETATM   42  C14 UNL     1      87.468  -1.235 124.606  1.00  0.00     0.109 A 
ATOM     43  H5  UNL     1      87.897   0.793 125.015  1.00  0.00     0.190 HD
HETATM   44  C15 UNL     1      88.800  -1.806 124.204  1.00  0.00     0.091 C 
HETATM   45  N6  UNL     1      86.304  -1.886 124.675  1.00  0.00    -0.176 N 
HETATM   46  C16 UNL     1      85.372  -1.020 125.069  1.00  0.00     0.734 A 
ATOM     47  H6  UNL     1      86.156  -2.872 124.464  1.00  0.00     0.185 HD
HETATM   48  N7  UNL     1      84.104  -1.230 125.267  1.00  0.00    -0.136 N 
ATOM     49  H7  UNL     1      83.519  -0.452 125.571  1.00  0.00     0.205 HD
BRANCH  48  50
HETATM   50  N8  UNL     1      83.520  -2.468 125.080  1.00  0.00    -0.331 N 
ATOM     51  H82 UNL     1      84.081  -3.294 125.286  1.00  0.00     0.177 HD
ATOM     52  H81 UNL     1      82.562  -2.576 124.748  1.00  0.00     0.177 HD
ENDBRANCH  48  50
ENDBRANCH   2  40
BRANCH   6  53
HETATM   53  N10 UNL     1      84.781   3.110 129.477  1.00  0.00    -0.372 N 
ATOM     54  H10 UNL     1      85.335   3.703 130.095  1.00  0.00     0.161 HD
BRANCH  53  55
HETATM   55  C19 UNL     1      84.435   1.784 129.905  1.00  0.00     0.155 C 
BRANCH  55  56
HETATM   56  C20 UNL     1      85.576   1.087 130.633  1.00  0.00     0.159 C 
BRANCH  56  57
HETATM   57  O7  UNL     1      86.752   1.817 130.477  1.00  0.00    -0.392 OA
ATOM     58  H7  UNL     1      87.488   1.318 130.810  1.00  0.00     0.210 HD
ENDBRANCH  56  57
BRANCH  56  59
HETATM   59  C21 UNL     1      85.703  -0.312 130.078  1.00  0.00     0.197 C 
BRANCH  59  60
HETATM   60  O8  UNL     1      84.898  -0.409 128.952  1.00  0.00    -0.398 OA
ATOM     61  H8  UNL     1      85.288  -1.042 128.360  1.00  0.00     0.209 HD
ENDBRANCH  59  60
ENDBRANCH  56  59
ENDBRANCH  55  56
ENDBRANCH  53  55
ENDBRANCH   6  53
TORSDOF 19
ENDMDL
MODEL 2
REMARK VINA RESULT: -8.722044199      2.157      4.639
REMARK  19 active torsions:
REMARK  status: ('A' for Active; 'I' for Inactive)
REMARK       I    between atoms: C2_2  and  N1_4 
REMARK    1  A    between atoms: N1_4  and  C3_6 
REMARK    2  A    between atoms: C5_8  and  N2_9 
REMARK    3  A    between atoms: C6_13  and  O2_14 
REMARK    4  A    between atoms: O2_14  and  C7_15 
REMARK    5  A    between atoms: C7_15  and  C9_17 
REMARK    6  A    between atoms: C9_17  and  O3_18 
REMARK    7  A    between atoms: C9_17  and  C10_20 
REMARK    8  A    between atoms: C9_17  and  C11_23 
REMARK    9  A    between atoms: C10_20  and  O4_21 
REMARK   10  A    between atoms: C11_23  and  O5_24 
REMARK   11  A    between atoms: C12_27  and  N3_28 
REMARK   12  A    between atoms: C13_29  and  N4_30 
REMARK   13  A    between atoms: N7_38  and  N8_40 
REMARK   14  A    between atoms: C18_46  and  N10_47 
REMARK   15  A    between atoms: N10_47  and  C19_49 
REMARK   16  A    between atoms: C19_49  and  C20_50 
REMARK   17  A    between atoms: C20_50  and  O7_51 
REMARK   18  A    between atoms: C20_50  and  C21_53 
REMARK   19  A    between atoms: C21_53  and  O8_54 
ROOT
HETATM    1  N3  UNL     1      84.458   2.932 124.890  1.00  0.00    -0.134 N 
HETATM    2  C13 UNL     1      83.960   4.087 125.352  1.00  0.00     0.725 A 
HETATM    3  N9  UNL     1      83.936   4.062 126.722  1.00  0.00    -0.181 N 
ATOM      4  H9  UNL     1      83.607   4.812 127.331  1.00  0.00     0.184 HD
HETATM    5  C17 UNL     1      84.414   2.896 127.113  1.00  0.00     0.137 A 
HETATM    6  C18 UNL     1      84.589   2.378 128.405  1.00  0.00     0.133 A 
HETATM    7  N11 UNL     1      85.097   1.138 128.492  1.00  0.00    -0.337 N 
ATOM      8  H11 UNL     1      85.239   0.728 129.415  1.00  0.00     0.168 HD
HETATM    9  C22 UNL     1      85.429   0.412 127.395  1.00  0.00     0.183 A 
HETATM   10  N12 UNL     1      85.240   0.959 126.191  1.00  0.00    -0.336 N 
ATOM     11  H12 UNL     1      85.492   0.408 125.371  1.00  0.00     0.168 HD
HETATM   12  C23 UNL     1      84.739   2.191 125.991  1.00  0.00     0.158 A 
ENDROOT
BRANCH   1  13
HETATM   13  C12 UNL     1      84.624   2.598 123.508  1.00  0.00     0.273 C 
HETATM   14  C3  UNL     1      85.867   2.963 122.830  1.00  0.00     0.136 C 
HETATM   15  C4  UNL     1      86.984   2.027 123.200  1.00  0.00     0.067 C 
HETATM   16  C5  UNL     1      86.610   0.687 122.607  1.00  0.00     0.240 C 
HETATM   17  C6  UNL     1      85.119   0.617 122.382  1.00  0.00     0.293 C 
HETATM   18  O6  UNL     1      84.394   1.236 123.375  1.00  0.00    -0.332 OA
BRANCH  14  19
HETATM   19  N1  UNL     1      86.257   4.328 122.846  1.00  0.00    -0.352 N 
HETATM   20  C2  UNL     1      85.842   5.223 121.849  1.00  0.00     0.214 C 
HETATM   21  C1  UNL     1      86.291   6.644 121.930  1.00  0.00     0.117 C 
HETATM   22  O1  UNL     1      85.103   4.813 120.912  1.00  0.00    -0.274 OA
ATOM     23  H1  UNL     1      86.854   4.666 123.601  1.00  0.00     0.163 HD
ENDBRANCH  14  19
BRANCH  16  24
HETATM   24  N2  UNL     1      87.103  -0.412 123.403  1.00  0.00    -0.070 N 
ATOM     25  H23 UNL     1      86.567  -0.514 124.265  1.00  0.00     0.274 HD
ATOM     26  H22 UNL     1      86.885  -1.310 122.971  1.00  0.00     0.274 HD
ATOM     27  H21 UNL     1      88.101  -0.326 123.597  1.00  0.00     0.274 HD
ENDBRANCH  16  24
BRANCH  17  28
HETATM   28  O2  UNL     1      84.778  -0.733 122.425  1.00  0.00    -0.351 OA
BRANCH  28  29
HETATM   29  C7  UNL     1      83.431  -0.921 122.270  1.00  0.00     0.159 C 
HETATM   30  C8  UNL     1      82.828  -1.490 123.543  1.00  0.00     0.043 C 
BRANCH  29  31
HETATM   31  C9  UNL     1      83.155  -1.777 121.079  1.00  0.00     0.125 C 
BRANCH  31  32
HETATM   32  O3  UNL     1      82.357  -2.867 121.417  1.00  0.00    -0.383 OA
ATOM     33  H3  UNL     1      82.012  -3.293 120.642  1.00  0.00     0.210 HD
ENDBRANCH  31  32
BRANCH  31  34
HETATM   34  C10 UNL     1      84.465  -2.352 120.569  1.00  0.00     0.206 C 
BRANCH  34  35
HETATM   35  O4  UNL     1      85.087  -1.457 119.685  1.00  0.00    -0.398 OA
ATOM     36  H4  UNL     1      85.668  -0.871 120.156  1.00  0.00     0.209 HD
ENDBRANCH  34  35
ENDBRANCH  31  34
BRANCH  31  37
HETATM   37  C11 UNL     1      82.449  -0.996 119.982  1.00  0.00     0.206 C 
BRANCH  37  38
HETATM   38  O5  UNL     1      82.540   0.369 120.268  1.00  0.00    -0.398 OA
ATOM     39  H5  UNL     1      82.490   0.857 119.455  1.00  0.00     0.209 HD
ENDBRANCH  37  38
ENDBRANCH  31  37
ENDBRANCH  29  31
ENDBRANCH  28  29
ENDBRANCH  17  28
ENDBRANCH   1  13
BRANCH   2  40
HETATM   40  N4  UNL     1      83.476   5.237 124.689  1.00  0.00     0.093 N 
HETATM   41  N5  UNL     1      83.033   5.281 123.450  1.00  0.00    -0.253 N 
HETATM   42  C14 UNL     1      82.636   6.540 123.136  1.00  0.00     0.109 A 
ATOM     43  H5  UNL     1      82.993   4.482 122.817  1.00  0.00     0.190 HD
HETATM   44  C15 UNL     1      82.071   7.010 121.823  1.00  0.00     0.091 C 
HETATM   45  N6  UNL     1      82.849   7.278 124.227  1.00  0.00    -0.176 N 
HETATM   46  C16 UNL     1      83.358   6.484 125.167  1.00  0.00     0.734 A 
ATOM     47  H6  UNL     1      82.656   8.275 124.323  1.00  0.00     0.185 HD
HETATM   48  N7  UNL     1      83.712   6.790 126.380  1.00  0.00    -0.136 N 
ATOM     49  H7  UNL     1      84.089   6.058 126.981  1.00  0.00     0.205 HD
BRANCH  48  50
HETATM   50  N8  UNL     1      83.597   8.072 126.885  1.00  0.00    -0.331 N 
ATOM     51  H82 UNL     1      84.333   8.739 126.659  1.00  0.00     0.177 HD
ATOM     52  H81 UNL     1      82.810   8.361 127.466  1.00  0.00     0.177 HD
ENDBRANCH  48  50
ENDBRANCH   2  40
BRANCH   6  53
HETATM   53  N10 UNL     1      84.265   3.090 129.428  1.00  0.00    -0.372 N 
ATOM     54  H10 UNL     1      84.911   3.806 129.760  1.00  0.00     0.161 HD
BRANCH  53  55
HETATM   55  C19 UNL     1      83.019   2.899 130.113  1.00  0.00     0.155 C 
BRANCH  55  56
HETATM   56  C20 UNL     1      82.078   4.086 129.960  1.00  0.00     0.159 C 
BRANCH  56  57
HETATM   57  O7  UNL     1      81.510   4.077 128.688  1.00  0.00    -0.392 OA
ATOM     58  H7  UNL     1      80.803   4.711 128.646  1.00  0.00     0.210 HD
ENDBRANCH  56  57
BRANCH  56  59
HETATM   59  C21 UNL     1      82.869   5.348 130.215  1.00  0.00     0.197 C 
BRANCH  59  60
HETATM   60  O8  UNL     1      83.232   5.891 128.991  1.00  0.00    -0.398 OA
ATOM     61  H8  UNL     1      84.162   6.088 129.014  1.00  0.00     0.209 HD
ENDBRANCH  59  60
ENDBRANCH  56  59
ENDBRANCH  55  56
ENDBRANCH  53  55
ENDBRANCH   6  53
TORSDOF 19
ENDMDL
MODEL 3
REMARK VINA RESULT: -8.687939211      2.137      4.764
REMARK  19 active torsions:
REMARK  status: ('A' for Active; 'I' for Inactive)
REMARK       I    between atoms: C2_2  and  N1_4 
REMARK    1  A    between atoms: N1_4  and  C3_6 
REMARK    2  A    between atoms: C5_8  and  N2_9 
REMARK    3  A    between atoms: C6_13  and  O2_14 
REMARK    4  A    between atoms: O2_14  and  C7_15 
REMARK    5  A    between atoms: C7_15  and  C9_17 
REMARK    6  A    between atoms: C9_17  and  O3_18 
REMARK    7  A    between atoms: C9_17  and  C10_20 
REMARK    8  A    between atoms: C9_17  and  C11_23 
REMARK    9  A    between atoms: C10_20  and  O4_21 
REMARK   10  A    between atoms: C11_23  and  O5_24 
REMARK   11  A    between atoms: C12_27  and  N3_28 
REMARK   12  A    between atoms: C13_29  and  N4_30 
REMARK   13  A    between atoms: N7_38  and  N8_40 
REMARK   14  A    between atoms: C18_46  and  N10_47 
REMARK   15  A    between atoms: N10_47  and  C19_49 
REMARK   16  A    between atoms: C19_49  and  C20_50 
REMARK   17  A    between atoms: C20_50  and  O7_51 
REMARK   18  A    between atoms: C20_50  and  C21_53 
REMARK   19  A    between atoms: C21_53  and  O8_54 
ROOT
HETATM    1  N3  UNL     1      84.449   3.065 124.943  1.00  0.00    -0.134 N 
HETATM    2  C13 UNL     1      83.916   4.196 125.422  1.00  0.00     0.725 A 
HETATM    3  N9  UNL     1      83.889   4.148 126.792  1.00  0.00    -0.181 N 
ATOM      4  H9  UNL     1      83.536   4.877 127.412  1.00  0.00     0.184 HD
HETATM    5  C17 UNL     1      84.401   2.990 127.164  1.00  0.00     0.137 A 
HETATM    6  C18 UNL     1      84.590   2.456 128.448  1.00  0.00     0.133 A 
HETATM    7  N11 UNL     1      85.135   1.231 128.516  1.00  0.00    -0.337 N 
ATOM      8  H11 UNL     1      85.287   0.810 129.432  1.00  0.00     0.168 HD
HETATM    9  C22 UNL     1      85.491   0.533 127.407  1.00  0.00     0.183 A 
HETATM   10  N12 UNL     1      85.288   1.095 126.213  1.00  0.00    -0.336 N 
ATOM     11  H12 UNL     1      85.558   0.566 125.384  1.00  0.00     0.168 HD
HETATM   12  C23 UNL     1      84.750   2.315 126.032  1.00  0.00     0.158 A 
ENDROOT
BRANCH   1  13
HETATM   13  C12 UNL     1      84.628   2.760 123.556  1.00  0.00     0.273 C 
HETATM   14  C3  UNL     1      85.865   3.166 122.889  1.00  0.00     0.136 C 
HETATM   15  C4  UNL     1      87.003   2.251 123.247  1.00  0.00     0.067 C 
HETATM   16  C5  UNL     1      86.664   0.913 122.630  1.00  0.00     0.240 C 
HETATM   17  C6  UNL     1      85.176   0.811 122.397  1.00  0.00     0.293 C 
HETATM   18  O6  UNL     1      84.432   1.395 123.397  1.00  0.00    -0.332 OA
BRANCH  14  19
HETATM   19  N1  UNL     1      86.222   4.540 122.931  1.00  0.00    -0.352 N 
HETATM   20  C2  UNL     1      85.782   5.444 121.953  1.00  0.00     0.214 C 
HETATM   21  C1  UNL     1      86.197   6.873 122.061  1.00  0.00     0.117 C 
HETATM   22  O1  UNL     1      85.051   5.034 121.011  1.00  0.00    -0.274 OA
ATOM     23  H1  UNL     1      86.814   4.877 123.691  1.00  0.00     0.163 HD
ENDBRANCH  14  19
BRANCH  16  24
HETATM   24  N2  UNL     1      87.179  -0.187 123.408  1.00  0.00    -0.070 N 
ATOM     25  H23 UNL     1      87.922  -0.678 122.910  1.00  0.00     0.274 HD
ATOM     26  H22 UNL     1      87.717   0.146 124.209  1.00  0.00     0.274 HD
ATOM     27  H21 UNL     1      86.441  -0.829 123.698  1.00  0.00     0.274 HD
ENDBRANCH  16  24
BRANCH  17  28
HETATM   28  O2  UNL     1      84.867  -0.547 122.414  1.00  0.00    -0.351 OA
BRANCH  28  29
HETATM   29  C7  UNL     1      83.677  -0.805 121.789  1.00  0.00     0.159 C 
HETATM   30  C8  UNL     1      82.803  -1.689 122.660  1.00  0.00     0.043 C 
BRANCH  29  31
HETATM   31  C9  UNL     1      83.913  -1.394 120.438  1.00  0.00     0.125 C 
BRANCH  31  32
HETATM   32  O3  UNL     1      85.200  -1.116 119.986  1.00  0.00    -0.383 OA
ATOM     33  H3  UNL     1      85.783  -1.851 120.137  1.00  0.00     0.210 HD
ENDBRANCH  31  32
BRANCH  31  34
HETATM   34  C10 UNL     1      82.965  -0.746 119.444  1.00  0.00     0.206 C 
BRANCH  34  35
HETATM   35  O4  UNL     1      82.429   0.438 119.971  1.00  0.00    -0.398 OA
ATOM     36  H4  UNL     1      82.652   1.180 119.421  1.00  0.00     0.209 HD
ENDBRANCH  34  35
ENDBRANCH  31  34
BRANCH  31  37
HETATM   37  C11 UNL     1      83.729  -2.903 120.446  1.00  0.00     0.206 C 
BRANCH  37  38
HETATM   38  O5  UNL     1      84.987  -3.512 120.469  1.00  0.00    -0.398 OA
ATOM     39  H5  UNL     1      84.911  -4.388 120.111  1.00  0.00     0.209 HD
ENDBRANCH  37  38
ENDBRANCH  31  37
ENDBRANCH  29  31
ENDBRANCH  28  29
ENDBRANCH  17  28
ENDBRANCH   1  13
BRANCH   2  40
HETATM   40  N4  UNL     1      83.398   5.342 124.777  1.00  0.00     0.093 N 
HETATM   41  N5  UNL     1      82.920   5.384 123.552  1.00  0.00    -0.253 N 
HETATM   42  C14 UNL     1      82.498   6.639 123.253  1.00  0.00     0.109 A 
ATOM     43  H5  UNL     1      82.872   4.587 122.917  1.00  0.00     0.190 HD
HETATM   44  C15 UNL     1      81.890   7.106 121.959  1.00  0.00     0.091 C 
HETATM   45  N6  UNL     1      82.732   7.377 124.341  1.00  0.00    -0.176 N 
HETATM   46  C16 UNL     1      83.278   6.586 125.263  1.00  0.00     0.734 A 
ATOM     47  H6  UNL     1      82.529   8.370 124.446  1.00  0.00     0.185 HD
HETATM   48  N7  UNL     1      83.662   6.893 126.467  1.00  0.00    -0.136 N 
ATOM     49  H7  UNL     1      84.065   6.163 127.055  1.00  0.00     0.205 HD
BRANCH  48  50
HETATM   50  N8  UNL     1      83.544   8.171 126.980  1.00  0.00    -0.331 N 
ATOM     51  H82 UNL     1      84.249   8.482 127.648  1.00  0.00     0.177 HD
ATOM     52  H81 UNL     1      82.787   8.799 126.713  1.00  0.00     0.177 HD
ENDBRANCH  48  50
ENDBRANCH   2  40
BRANCH   6  53
HETATM   53  N10 UNL     1      84.242   3.140 129.482  1.00  0.00    -0.372 N 
ATOM     54  H10 UNL     1      84.877   3.850 129.845  1.00  0.00     0.161 HD
BRANCH  53  55
HETATM   55  C19 UNL     1      82.983   2.926 130.137  1.00  0.00     0.155 C 
BRANCH  55  56
HETATM   56  C20 UNL     1      82.041   4.115 129.997  1.00  0.00     0.159 C 
BRANCH  56  57
HETATM   57  O7  UNL     1      81.478   4.124 128.724  1.00  0.00    -0.392 OA
ATOM     58  H7  UNL     1      80.753   4.738 128.696  1.00  0.00     0.210 HD
ENDBRANCH  56  57
BRANCH  56  59
HETATM   59  C21 UNL     1      82.830   5.373 130.274  1.00  0.00     0.197 C 
BRANCH  59  60
HETATM   60  O8  UNL     1      83.192   5.939 129.060  1.00  0.00    -0.398 OA
ATOM     61  H8  UNL     1      82.629   6.687 128.899  1.00  0.00     0.209 HD
ENDBRANCH  59  60
ENDBRANCH  56  59
ENDBRANCH  55  56
ENDBRANCH  53  55
ENDBRANCH   6  53
TORSDOF 19
ENDMDL
MODEL 4
REMARK VINA RESULT: -8.376459461      1.316      1.493
REMARK  19 active torsions:
REMARK  status: ('A' for Active; 'I' for Inactive)
REMARK       I    between atoms: C2_2  and  N1_4 
REMARK    1  A    between atoms: N1_4  and  C3_6 
REMARK    2  A    between atoms: C5_8  and  N2_9 
REMARK    3  A    between atoms: C6_13  and  O2_14 
REMARK    4  A    between atoms: O2_14  and  C7_15 
REMARK    5  A    between atoms: C7_15  and  C9_17 
REMARK    6  A    between atoms: C9_17  and  O3_18 
REMARK    7  A    between atoms: C9_17  and  C10_20 
REMARK    8  A    between atoms: C9_17  and  C11_23 
REMARK    9  A    between atoms: C10_20  and  O4_21 
REMARK   10  A    between atoms: C11_23  and  O5_24 
REMARK   11  A    between atoms: C12_27  and  N3_28 
REMARK   12  A    between atoms: C13_29  and  N4_30 
REMARK   13  A    between atoms: N7_38  and  N8_40 
REMARK   14  A    between atoms: C18_46  and  N10_47 
REMARK   15  A    between atoms: N10_47  and  C19_49 
REMARK   16  A    between atoms: C19_49  and  C20_50 
REMARK   17  A    between atoms: C20_50  and  O7_51 
REMARK   18  A    between atoms: C20_50  and  C21_53 
REMARK   19  A    between atoms: C21_53  and  O8_54 
ROOT
HETATM    1  N3  UNL     1      84.646   2.439 124.846  1.00  0.00    -0.134 N 
HETATM    2  C13 UNL     1      85.208   1.464 125.572  1.00  0.00     0.725 A 
HETATM    3  N9  UNL     1      85.139   1.783 126.903  1.00  0.00    -0.181 N 
ATOM      4  H9  UNL     1      85.489   1.217 127.676  1.00  0.00     0.184 HD
HETATM    5  C17 UNL     1      84.538   2.953 127.006  1.00  0.00     0.137 A 
HETATM    6  C18 UNL     1      84.233   3.716 128.143  1.00  0.00     0.133 A 
HETATM    7  N11 UNL     1      83.616   4.890 127.933  1.00  0.00    -0.337 N 
ATOM      8  H11 UNL     1      83.378   5.472 128.736  1.00  0.00     0.168 HD
HETATM    9  C22 UNL     1      83.297   5.329 126.689  1.00  0.00     0.183 A 
HETATM   10  N12 UNL     1      83.613   4.558 125.645  1.00  0.00    -0.336 N 
ATOM     11  H12 UNL     1      83.370   4.893 124.713  1.00  0.00     0.168 HD
HETATM   12  C23 UNL     1      84.230   3.367 125.743  1.00  0.00     0.158 A 
ENDROOT
BRANCH   1  13
HETATM   13  C12 UNL     1      84.545   2.452 123.418  1.00  0.00     0.273 C 
HETATM   14  C3  UNL     1      85.283   3.461 122.659  1.00  0.00     0.136 C 
HETATM   15  C4  UNL     1      86.742   3.111 122.562  1.00  0.00     0.067 C 
HETATM   16  C5  UNL     1      86.810   1.868 121.703  1.00  0.00     0.240 C 
HETATM   17  C6  UNL     1      85.484   1.146 121.728  1.00  0.00     0.293 C 
HETATM   18  O6  UNL     1      84.875   1.183 122.962  1.00  0.00    -0.332 OA
BRANCH  14  19
HETATM   19  N1  UNL     1      85.060   4.827 122.977  1.00  0.00    -0.352 N 
HETATM   20  C2  UNL     1      84.067   5.578 122.331  1.00  0.00     0.214 C 
HETATM   21  C1  UNL     1      83.888   7.009 122.716  1.00  0.00     0.117 C 
HETATM   22  O1  UNL     1      83.351   5.035 121.446  1.00  0.00    -0.274 OA
ATOM     23  H1  UNL     1      85.635   5.272 123.692  1.00  0.00     0.163 HD
ENDBRANCH  14  19
BRANCH  16  24
HETATM   24  N2  UNL     1      87.913   1.015 122.073  1.00  0.00    -0.070 N 
ATOM     25  H23 UNL     1      87.823   0.090 121.653  1.00  0.00     0.274 HD
ATOM     26  H22 UNL     1      88.779   1.312 121.623  1.00  0.00     0.274 HD
ATOM     27  H21 UNL     1      88.024   0.952 123.086  1.00  0.00     0.274 HD
ENDBRANCH  16  24
BRANCH  17  28
HETATM   28  O2  UNL     1      85.761  -0.193 121.462  1.00  0.00    -0.351 OA
BRANCH  28  29
HETATM   29  C7  UNL     1      84.913  -0.708 120.519  1.00  0.00     0.159 C 
HETATM   30  C8  UNL     1      84.206   0.412 119.776  1.00  0.00     0.043 C 
BRANCH  29  31
HETATM   31  C9  UNL     1      83.957  -1.669 121.143  1.00  0.00     0.125 C 
BRANCH  31  32
HETATM   32  O3  UNL     1      84.399  -2.074 122.399  1.00  0.00    -0.383 OA
ATOM     33  H3  UNL     1      85.271  -1.741 122.580  1.00  0.00     0.210 HD
ENDBRANCH  31  32
BRANCH  31  34
HETATM   34  C10 UNL     1      83.891  -2.925 120.291  1.00  0.00     0.206 C 
BRANCH  34  35
HETATM   35  O4  UNL     1      85.125  -3.590 120.295  1.00  0.00    -0.398 OA
ATOM     36  H4  UNL     1      85.142  -4.269 119.630  1.00  0.00     0.209 HD
ENDBRANCH  34  35
ENDBRANCH  31  34
BRANCH  31  37
HETATM   37  C11 UNL     1      82.574  -1.057 121.302  1.00  0.00     0.206 C 
BRANCH  37  38
HETATM   38  O5  UNL     1      82.436  -0.587 122.611  1.00  0.00    -0.398 OA
ATOM     39  H5  UNL     1      82.188   0.330 122.583  1.00  0.00     0.209 HD
ENDBRANCH  37  38
ENDBRANCH  31  37
ENDBRANCH  29  31
ENDBRANCH  28  29
ENDBRANCH  17  28
ENDBRANCH   1  13
BRANCH   2  40
HETATM   40  N4  UNL     1      85.833   0.251 125.200  1.00  0.00     0.093 N 
HETATM   41  N5  UNL     1      87.118   0.088 124.968  1.00  0.00    -0.253 N 
HETATM   42  C14 UNL     1      87.378  -1.204 124.644  1.00  0.00     0.109 A 
ATOM     43  H5  UNL     1      87.818   0.828 125.023  1.00  0.00     0.190 HD
HETATM   44  C15 UNL     1      88.717  -1.800 124.307  1.00  0.00     0.091 C 
HETATM   45  N6  UNL     1      86.205  -1.839 124.685  1.00  0.00    -0.176 N 
HETATM   46  C16 UNL     1      85.270  -0.953 125.023  1.00  0.00     0.734 A 
ATOM     47  H6  UNL     1      86.052  -2.828 124.491  1.00  0.00     0.185 HD
HETATM   48  N7  UNL     1      83.993  -1.143 125.178  1.00  0.00    -0.136 N 
ATOM     49  H7  UNL     1      83.407  -0.351 125.442  1.00  0.00     0.205 HD
BRANCH  48  50
HETATM   50  N8  UNL     1      83.400  -2.378 124.997  1.00  0.00    -0.331 N 
ATOM     51  H82 UNL     1      82.392  -2.404 124.847  1.00  0.00     0.177 HD
ATOM     52  H81 UNL     1      83.934  -3.247 125.010  1.00  0.00     0.177 HD
ENDBRANCH  48  50
ENDBRANCH   2  40
BRANCH   6  53
HETATM   53  N10 UNL     1      84.547   3.275 129.312  1.00  0.00    -0.372 N 
ATOM     54  H10 UNL     1      85.457   3.513 129.705  1.00  0.00     0.161 HD
BRANCH  53  55
HETATM   55  C19 UNL     1      83.647   2.456 130.074  1.00  0.00     0.155 C 
BRANCH  55  56
HETATM   56  C20 UNL     1      82.516   3.258 130.703  1.00  0.00     0.159 C 
BRANCH  56  57
HETATM   57  O7  UNL     1      82.973   4.527 131.051  1.00  0.00    -0.392 OA
ATOM     58  H7  UNL     1      82.821   4.682 131.976  1.00  0.00     0.210 HD
ENDBRANCH  56  57
BRANCH  56  59
HETATM   59  C21 UNL     1      82.009   2.493 131.903  1.00  0.00     0.197 C 
BRANCH  59  60
HETATM   60  O8  UNL     1      80.657   2.238 131.720  1.00  0.00    -0.398 OA
ATOM     61  H8  UNL     1      80.398   1.549 132.321  1.00  0.00     0.209 HD
ENDBRANCH  59  60
ENDBRANCH  56  59
ENDBRANCH  55  56
ENDBRANCH  53  55
ENDBRANCH   6  53
TORSDOF 19
ENDMDL
MODEL 5
REMARK VINA RESULT: -8.316353598      3.460      7.600
REMARK  19 active torsions:
REMARK  status: ('A' for Active; 'I' for Inactive)
REMARK       I    between atoms: C2_2  and  N1_4 
REMARK    1  A    between atoms: N1_4  and  C3_6 
REMARK    2  A    between atoms: C5_8  and  N2_9 
REMARK    3  A    between atoms: C6_13  and  O2_14 
REMARK    4  A    between atoms: O2_14  and  C7_15 
REMARK    5  A    between atoms: C7_15  and  C9_17 
REMARK    6  A    between atoms: C9_17  and  O3_18 
REMARK    7  A    between atoms: C9_17  and  C10_20 
REMARK    8  A    between atoms: C9_17  and  C11_23 
REMARK    9  A    between atoms: C10_20  and  O4_21 
REMARK   10  A    between atoms: C11_23  and  O5_24 
REMARK   11  A    between atoms: C12_27  and  N3_28 
REMARK   12  A    between atoms: C13_29  and  N4_30 
REMARK   13  A    between atoms: N7_38  and  N8_40 
REMARK   14  A    between atoms: C18_46  and  N10_47 
REMARK   15  A    between atoms: N10_47  and  C19_49 
REMARK   16  A    between atoms: C19_49  and  C20_50 
REMARK   17  A    between atoms: C20_50  and  O7_51 
REMARK   18  A    between atoms: C20_50  and  C21_53 
REMARK   19  A    between atoms: C21_53  and  O8_54 
ROOT
HETATM    1  N3  UNL     1      84.940   2.749 126.318  1.00  0.00    -0.134 N 
HETATM    2  C13 UNL     1      84.507   1.943 127.298  1.00  0.00     0.725 A 
HETATM    3  N9  UNL     1      84.818   0.643 126.995  1.00  0.00    -0.181 N 
ATOM      4  H9  UNL     1      84.606  -0.174 127.568  1.00  0.00     0.184 HD
HETATM    5  C17 UNL     1      85.439   0.638 125.831  1.00  0.00     0.137 A 
HETATM    6  C18 UNL     1      85.952  -0.434 125.085  1.00  0.00     0.133 A 
HETATM    7  N11 UNL     1      86.533  -0.129 123.913  1.00  0.00    -0.337 N 
ATOM      8  H11 UNL     1      86.917  -0.882 123.343  1.00  0.00     0.168 HD
HETATM    9  C22 UNL     1      86.627   1.147 123.462  1.00  0.00     0.183 A 
HETATM   10  N12 UNL     1      86.121   2.126 124.218  1.00  0.00    -0.336 N 
ATOM     11  H12 UNL     1      86.195   3.082 123.872  1.00  0.00     0.168 HD
HETATM   12  C23 UNL     1      85.520   1.931 125.405  1.00  0.00     0.158 A 
ENDROOT
BRANCH   1  13
HETATM   13  C12 UNL     1      84.782   4.171 126.289  1.00  0.00     0.273 C 
HETATM   14  C3  UNL     1      84.312   4.812 125.061  1.00  0.00     0.136 C 
HETATM   15  C4  UNL     1      82.829   4.636 124.888  1.00  0.00     0.067 C 
HETATM   16  C5  UNL     1      82.188   5.434 126.002  1.00  0.00     0.240 C 
HETATM   17  C6  UNL     1      83.168   5.628 127.133  1.00  0.00     0.293 C 
HETATM   18  O6  UNL     1      83.963   4.525 127.351  1.00  0.00    -0.332 OA
BRANCH  14  19
HETATM   19  N1  UNL     1      85.043   4.577 123.867  1.00  0.00    -0.352 N 
HETATM   20  C2  UNL     1      85.275   5.599 122.934  1.00  0.00     0.214 C 
HETATM   21  C1  UNL     1      86.051   5.279 121.700  1.00  0.00     0.117 C 
HETATM   22  O1  UNL     1      84.828   6.758 123.156  1.00  0.00    -0.274 OA
ATOM     23  H1  UNL     1      85.407   3.643 123.682  1.00  0.00     0.163 HD
ENDBRANCH  14  19
BRANCH  16  24
HETATM   24  N2  UNL     1      80.944   4.848 126.439  1.00  0.00    -0.070 N 
ATOM     25  H23 UNL     1      80.183   5.526 126.407  1.00  0.00     0.274 HD
ATOM     26  H22 UNL     1      80.590   4.177 125.756  1.00  0.00     0.274 HD
ATOM     27  H21 UNL     1      81.025   4.426 127.365  1.00  0.00     0.274 HD
ENDBRANCH  16  24
BRANCH  17  28
HETATM   28  O2  UNL     1      82.407   5.803 128.286  1.00  0.00    -0.351 OA
BRANCH  28  29
HETATM   29  C7  UNL     1      82.888   6.824 129.061  1.00  0.00     0.159 C 
HETATM   30  C8  UNL     1      82.928   6.405 130.521  1.00  0.00     0.043 C 
BRANCH  29  31
HETATM   31  C9  UNL     1      82.088   8.065 128.848  1.00  0.00     0.125 C 
BRANCH  31  32
HETATM   32  O3  UNL     1      80.954   7.807 128.083  1.00  0.00    -0.383 OA
ATOM     33  H3  UNL     1      81.189   7.540 127.201  1.00  0.00     0.210 HD
ENDBRANCH  31  32
BRANCH  31  34
HETATM   34  C10 UNL     1      82.919   9.058 128.054  1.00  0.00     0.206 C 
BRANCH  34  35
HETATM   35  O4  UNL     1      82.411  10.357 128.201  1.00  0.00    -0.398 OA
ATOM     36  H4  UNL     1      83.114  10.996 128.181  1.00  0.00     0.209 HD
ENDBRANCH  34  35
ENDBRANCH  31  34
BRANCH  31  37
HETATM   37  C11 UNL     1      81.640   8.675 130.167  1.00  0.00     0.206 C 
BRANCH  37  38
HETATM   38  O5  UNL     1      80.381   9.256 129.991  1.00  0.00    -0.398 OA
ATOM     39  H5  UNL     1      79.992   9.408 130.844  1.00  0.00     0.209 HD
ENDBRANCH  37  38
ENDBRANCH  31  37
ENDBRANCH  29  31
ENDBRANCH  28  29
ENDBRANCH  17  28
ENDBRANCH   1  13
BRANCH   2  40
HETATM   40  N4  UNL     1      83.814   2.210 128.501  1.00  0.00     0.093 N 
HETATM   41  N5  UNL     1      82.583   2.665 128.593  1.00  0.00    -0.253 N 
HETATM   42  C14 UNL     1      82.226   2.797 129.896  1.00  0.00     0.109 A 
ATOM     43  H5  UNL     1      81.983   2.888 127.800  1.00  0.00     0.190 HD
HETATM   44  C15 UNL     1      80.907   3.287 130.429  1.00  0.00     0.091 C 
HETATM   45  N6  UNL     1      83.283   2.405 130.611  1.00  0.00    -0.176 N 
HETATM   46  C16 UNL     1      84.245   2.049 129.760  1.00  0.00     0.734 A 
ATOM     47  H6  UNL     1      83.344   2.383 131.628  1.00  0.00     0.185 HD
HETATM   48  N7  UNL     1      85.438   1.606 130.027  1.00  0.00    -0.136 N 
ATOM     49  H7  UNL     1      86.060   1.375 129.252  1.00  0.00     0.205 HD
BRANCH  48  50
HETATM   50  N8  UNL     1      85.893   1.436 131.320  1.00  0.00    -0.331 N 
ATOM     51  H82 UNL     1      86.890   1.566 131.494  1.00  0.00     0.177 HD
ATOM     52  H81 UNL     1      85.272   1.190 132.091  1.00  0.00     0.177 HD
ENDBRANCH  48  50
ENDBRANCH   2  40
BRANCH   6  53
HETATM   53  N10 UNL     1      85.848  -1.636 125.538  1.00  0.00    -0.372 N 
ATOM     54  H10 UNL     1      85.103  -2.237 125.187  1.00  0.00     0.161 HD
BRANCH  53  55
HETATM   55  C19 UNL     1      86.756  -2.149 126.524  1.00  0.00     0.155 C 
BRANCH  55  56
HETATM   56  C20 UNL     1      86.073  -2.438 127.854  1.00  0.00     0.159 C 
BRANCH  56  57
HETATM   57  O7  UNL     1      86.398  -1.447 128.777  1.00  0.00    -0.392 OA
ATOM     58  H7  UNL     1      86.379  -1.806 129.656  1.00  0.00     0.210 HD
ENDBRANCH  56  57
BRANCH  56  59
HETATM   59  C21 UNL     1      86.512  -3.807 128.319  1.00  0.00     0.197 C 
BRANCH  59  60
HETATM   60  O8  UNL     1      87.810  -4.022 127.879  1.00  0.00    -0.398 OA
ATOM     61  H8  UNL     1      88.346  -4.251 128.630  1.00  0.00     0.209 HD
ENDBRANCH  59  60
ENDBRANCH  56  59
ENDBRANCH  55  56
ENDBRANCH  53  55
ENDBRANCH   6  53
TORSDOF 19
ENDMDL
