MODEL 1
REMARK VINA RESULT: -9.009369833      0.000      0.000
REMARK  22 active torsions:
REMARK  status: ('A' for Active; 'I' for Inactive)
REMARK    1  A    between atoms: N1_1  and  N2_4 
REMARK    2  A    between atoms: N2_4  and  C1_6 
REMARK    3  A    between atoms: C1_6  and  C18_45 
REMARK    4  A    between atoms: C2_7  and  O1_8 
REMARK    5  A    between atoms: C2_7  and  N3_10 
REMARK    6  A    between atoms: N3_10  and  C3_12 
REMARK    7  A    between atoms: C3_12  and  O2_13 
REMARK    8  A    between atoms: C3_12  and  N4_15 
REMARK    9  A    between atoms: C7_21  and  O4_22 
REMARK   10  A    between atoms: O4_22  and  C8_23 
REMARK   11  A    between atoms: C8_23  and  C9_25 
REMARK   12  A    between atoms: C9_25  and  N5_26 
REMARK   13  A    between atoms: C9_25  and  C10_30 
REMARK   14  A    between atoms: C15_38  and  O8_39 
REMARK   15  A    between atoms: C18_45  and  O11_46 
REMARK   16  A    between atoms: C18_45  and  C19_48 
REMARK   17  A    between atoms: C19_48  and  O12_49 
REMARK   18  A    between atoms: C19_48  and  C20_51 
REMARK   19  A    between atoms: C20_51  and  O13_52 
REMARK   20  A    between atoms: C20_51  and  C21_54 
REMARK   21  A    between atoms: C21_54  and  N6_55 
REMARK   22  A    between atoms: C21_54  and  N7_59 
ROOT
HETATM    1  C3  UNL     1      83.344  -1.495 121.550  1.00  0.00     0.329 C 
ENDROOT
BRANCH   1   2
HETATM    2  N3  UNL     1      83.369  -0.265 120.740  1.00  0.00    -0.326 N 
ATOM      3  H3  UNL     1      82.521   0.292 120.634  1.00  0.00     0.166 HD
BRANCH   2   4
HETATM    4  C2  UNL     1      84.555   0.143 120.115  1.00  0.00     0.170 C 
HETATM    5  C1  UNL     1      85.039   1.451 119.845  1.00  0.00     0.130 C 
BRANCH   5   6
HETATM    6  N2  UNL     1      86.241   1.501 119.255  1.00  0.00    -0.301 N 
ATOM      7  H2  UNL     1      86.263   1.657 118.247  1.00  0.00     0.186 HD
BRANCH   6   8
HETATM    8  N1  UNL     1      87.427   1.362 119.892  1.00  0.00    -0.344 N 
ATOM      9  H12 UNL     1      87.641   0.433 120.254  1.00  0.00     0.176 HD
ATOM     10  H11 UNL     1      88.108   2.109 120.033  1.00  0.00     0.176 HD
ENDBRANCH   6   8
ENDBRANCH   5   6
BRANCH   5  11
HETATM   11  C18 UNL     1      84.425   2.706 120.142  1.00  0.00     0.107 C 
BRANCH  11  12
HETATM   12  O11 UNL     1      83.242   2.846 119.541  1.00  0.00    -0.360 OA
ATOM     13  H11 UNL     1      82.637   3.370 120.053  1.00  0.00     0.217 HD
ENDBRANCH  11  12
BRANCH  11  14
HETATM   14  C19 UNL     1      84.877   3.806 120.967  1.00  0.00     0.209 C 
BRANCH  14  15
HETATM   15  O12 UNL     1      86.214   4.178 120.519  1.00  0.00    -0.386 OA
ATOM     16  H12 UNL     1      86.188   4.267 119.574  1.00  0.00     0.210 HD
ENDBRANCH  14  15
BRANCH  14  17
HETATM   17  C20 UNL     1      84.044   5.085 120.802  1.00  0.00     0.211 C 
BRANCH  17  18
HETATM   18  O13 UNL     1      84.877   6.021 120.202  1.00  0.00    -0.389 OA
ATOM     19  H13 UNL     1      84.563   6.128 119.311  1.00  0.00     0.210 HD
ENDBRANCH  17  18
BRANCH  17  20
HETATM   20  C21 UNL     1      83.572   5.580 122.142  1.00  0.00     0.409 C 
BRANCH  20  21
HETATM   21  N6  UNL     1      84.704   6.170 122.836  1.00  0.00    -0.048 N 
ATOM     22  H63 UNL     1      85.076   6.989 122.355  1.00  0.00     0.276 HD
ATOM     23  H62 UNL     1      84.434   6.629 123.706  1.00  0.00     0.276 HD
ATOM     24  H61 UNL     1      85.407   5.445 122.978  1.00  0.00     0.276 HD
ENDBRANCH  20  21
BRANCH  20  25
HETATM   25  N7  UNL     1      82.569   6.619 122.011  1.00  0.00    -0.048 N 
ATOM     26  H73 UNL     1      81.887   6.388 121.289  1.00  0.00     0.276 HD
ATOM     27  H72 UNL     1      81.946   6.637 122.819  1.00  0.00     0.276 HD
ATOM     28  H71 UNL     1      82.988   7.534 121.845  1.00  0.00     0.276 HD
ENDBRANCH  20  25
ENDBRANCH  17  20
ENDBRANCH  14  17
ENDBRANCH  11  14
ENDBRANCH   5  11
BRANCH   4  29
HETATM   29  O1  UNL     1      85.278  -0.897 119.755  1.00  0.00    -0.344 OA
ATOM     30  H1  UNL     1      86.020  -0.767 119.178  1.00  0.00     0.219 HD
ENDBRANCH   4  29
ENDBRANCH   2   4
ENDBRANCH   1   2
BRANCH   1  31
HETATM   31  O2  UNL     1      83.238  -2.625 120.747  1.00  0.00    -0.359 OA
ATOM     32  H2  UNL     1      84.056  -3.107 120.722  1.00  0.00     0.214 HD
ENDBRANCH   1  31
BRANCH   1  33
HETATM   33  N4  UNL     1      84.534  -1.624 122.356  1.00  0.00    -0.330 N 
HETATM   34  C4  UNL     1      84.837  -0.805 123.299  1.00  0.00     0.136 C 
HETATM   35  O3  UNL     1      84.091   0.297 123.677  1.00  0.00    -0.323 OA
HETATM   36  C12 UNL     1      86.097  -1.063 124.046  1.00  0.00     0.155 C 
HETATM   37  C5  UNL     1      84.537   1.185 124.720  1.00  0.00     0.201 C 
HETATM   38  C6  UNL     1      85.616   2.042 124.225  1.00  0.00    -0.014 C 
HETATM   39  C17 UNL     1      85.015   0.320 125.819  1.00  0.00     0.059 A 
HETATM   40  C7  UNL     1      85.453   3.349 124.464  1.00  0.00     0.152 C 
HETATM   41  C11 UNL     1      86.853   1.767 123.479  1.00  0.00     0.114 C 
HETATM   42  S1  UNL     1      87.365   0.069 123.464  1.00  0.00    -0.147 SA
HETATM   43  C13 UNL     1      85.766  -0.786 125.486  1.00  0.00    -0.017 A 
HETATM   44  C16 UNL     1      84.696   0.614 127.131  1.00  0.00     0.299 A 
HETATM   45  C14 UNL     1      86.200  -1.604 126.494  1.00  0.00     0.073 A 
HETATM   46  C15 UNL     1      85.852  -1.265 127.803  1.00  0.00     0.187 A 
HETATM   47  O9  UNL     1      85.135  -0.201 128.069  1.00  0.00    -0.251 OA
HETATM   48  O10 UNL     1      84.021   1.596 127.488  1.00  0.00    -0.259 OA
ATOM     49  H4  UNL     1      85.166  -2.403 122.169  1.00  0.00     0.165 HD
BRANCH  40  50
HETATM   50  O4  UNL     1      84.377   3.903 125.118  1.00  0.00    -0.289 OA
BRANCH  50  51
HETATM   51  C8  UNL     1      84.463   4.749 126.208  1.00  0.00     0.304 C 
HETATM   52  O5  UNL     1      85.531   4.759 126.868  1.00  0.00    -0.262 OA
BRANCH  51  53
HETATM   53  C9  UNL     1      83.371   5.644 126.644  1.00  0.00     0.382 C 
BRANCH  53  54
HETATM   54  N5  UNL     1      83.159   5.600 128.071  1.00  0.00    -0.056 N 
ATOM     55  H53 UNL     1      82.226   5.250 128.293  1.00  0.00     0.276 HD
ATOM     56  H52 UNL     1      83.716   4.863 128.502  1.00  0.00     0.276 HD
ATOM     57  H51 UNL     1      83.329   6.500 128.518  1.00  0.00     0.276 HD
ENDBRANCH  53  54
BRANCH  53  58
HETATM   58  C10 UNL     1      83.550   7.012 126.144  1.00  0.00     0.214 C 
HETATM   59  O6  UNL     1      83.249   7.338 124.974  1.00  0.00    -0.646 OA
HETATM   60  O7  UNL     1      84.067   7.990 126.975  1.00  0.00    -0.646 OA
ENDBRANCH  53  58
ENDBRANCH  51  53
ENDBRANCH  50  51
ENDBRANCH  40  50
BRANCH  46  61
HETATM   61  O8  UNL     1      86.290  -2.093 128.842  1.00  0.00    -0.341 OA
ATOM     62  H8  UNL     1      85.648  -2.629 129.293  1.00  0.00     0.220 HD
ENDBRANCH  46  61
ENDBRANCH   1  33
TORSDOF 22
ENDMDL
MODEL 2
REMARK VINA RESULT: -8.920863498      1.016      1.362
REMARK  22 active torsions:
REMARK  status: ('A' for Active; 'I' for Inactive)
REMARK    1  A    between atoms: N1_1  and  N2_4 
REMARK    2  A    between atoms: N2_4  and  C1_6 
REMARK    3  A    between atoms: C1_6  and  C18_45 
REMARK    4  A    between atoms: C2_7  and  O1_8 
REMARK    5  A    between atoms: C2_7  and  N3_10 
REMARK    6  A    between atoms: N3_10  and  C3_12 
REMARK    7  A    between atoms: C3_12  and  O2_13 
REMARK    8  A    between atoms: C3_12  and  N4_15 
REMARK    9  A    between atoms: C7_21  and  O4_22 
REMARK   10  A    between atoms: O4_22  and  C8_23 
REMARK   11  A    between atoms: C8_23  and  C9_25 
REMARK   12  A    between atoms: C9_25  and  N5_26 
REMARK   13  A    between atoms: C9_25  and  C10_30 
REMARK   14  A    between atoms: C15_38  and  O8_39 
REMARK   15  A    between atoms: C18_45  and  O11_46 
REMARK   16  A    between atoms: C18_45  and  C19_48 
REMARK   17  A    between atoms: C19_48  and  O12_49 
REMARK   18  A    between atoms: C19_48  and  C20_51 
REMARK   19  A    between atoms: C20_51  and  O13_52 
REMARK   20  A    between atoms: C20_51  and  C21_54 
REMARK   21  A    between atoms: C21_54  and  N6_55 
REMARK   22  A    between atoms: C21_54  and  N7_59 
ROOT
HETATM    1  C3  UNL     1      83.067  -1.569 121.865  1.00  0.00     0.329 C 
ENDROOT
BRANCH   1   2
HETATM    2  N3  UNL     1      83.250  -0.932 120.550  1.00  0.00    -0.326 N 
ATOM      3  H3  UNL     1      82.439  -0.736 119.963  1.00  0.00     0.166 HD
BRANCH   2   4
HETATM    4  C2  UNL     1      84.534  -0.597 120.102  1.00  0.00     0.170 C 
HETATM    5  C1  UNL     1      85.189   0.664 120.078  1.00  0.00     0.130 C 
BRANCH   5   6
HETATM    6  N2  UNL     1      86.446   0.642 119.612  1.00  0.00    -0.301 N 
ATOM      7  H2  UNL     1      86.640   0.041 118.811  1.00  0.00     0.186 HD
BRANCH   6   8
HETATM    8  N1  UNL     1      87.477   1.356 120.122  1.00  0.00    -0.344 N 
ATOM      9  H12 UNL     1      87.382   1.660 121.091  1.00  0.00     0.176 HD
ATOM     10  H11 UNL     1      88.326   1.605 119.614  1.00  0.00     0.176 HD
ENDBRANCH   6   8
ENDBRANCH   5   6
BRANCH   5  11
HETATM   11  C18 UNL     1      84.693   1.934 120.504  1.00  0.00     0.107 C 
BRANCH  11  12
HETATM   12  O11 UNL     1      84.372   1.943 121.799  1.00  0.00    -0.360 OA
ATOM     13  H11 UNL     1      83.967   2.761 122.064  1.00  0.00     0.217 HD
ENDBRANCH  11  12
BRANCH  11  14
HETATM   14  C19 UNL     1      84.494   3.164 119.768  1.00  0.00     0.209 C 
BRANCH  14  15
HETATM   15  O12 UNL     1      83.064   3.448 119.755  1.00  0.00    -0.386 OA
ATOM     16  H12 UNL     1      82.617   2.703 120.140  1.00  0.00     0.210 HD
ENDBRANCH  14  15
BRANCH  14  17
HETATM   17  C20 UNL     1      85.126   4.393 120.437  1.00  0.00     0.211 C 
BRANCH  17  18
HETATM   18  O13 UNL     1      86.154   3.916 121.242  1.00  0.00    -0.389 OA
ATOM     19  H13 UNL     1      85.749   3.343 121.883  1.00  0.00     0.210 HD
ENDBRANCH  17  18
BRANCH  17  20
HETATM   20  C21 UNL     1      84.105   5.125 121.264  1.00  0.00     0.409 C 
BRANCH  20  21
HETATM   21  N6  UNL     1      84.573   5.167 122.638  1.00  0.00    -0.048 N 
ATOM     22  H63 UNL     1      85.568   5.379 122.707  1.00  0.00     0.276 HD
ATOM     23  H62 UNL     1      84.222   5.978 123.147  1.00  0.00     0.276 HD
ATOM     24  H61 UNL     1      84.328   4.286 123.089  1.00  0.00     0.276 HD
ENDBRANCH  20  21
BRANCH  20  25
HETATM   25  N7  UNL     1      83.942   6.499 120.830  1.00  0.00    -0.048 N 
ATOM     26  H73 UNL     1      84.828   6.896 120.517  1.00  0.00     0.276 HD
ATOM     27  H72 UNL     1      83.423   6.552 119.953  1.00  0.00     0.276 HD
ATOM     28  H71 UNL     1      83.511   7.077 121.551  1.00  0.00     0.276 HD
ENDBRANCH  20  25
ENDBRANCH  17  20
ENDBRANCH  14  17
ENDBRANCH  11  14
ENDBRANCH   5  11
BRANCH   4  29
HETATM   29  O1  UNL     1      85.170  -1.660 119.657  1.00  0.00    -0.344 OA
ATOM     30  H1  UNL     1      85.016  -1.952 118.766  1.00  0.00     0.219 HD
ENDBRANCH   4  29
ENDBRANCH   2   4
ENDBRANCH   1   2
BRANCH   1  31
HETATM   31  O2  UNL     1      82.432  -2.799 121.746  1.00  0.00    -0.359 OA
ATOM     32  H2  UNL     1      82.038  -3.065 122.568  1.00  0.00     0.214 HD
ENDBRANCH   1  31
BRANCH   1  33
HETATM   33  N4  UNL     1      84.329  -1.774 122.536  1.00  0.00    -0.330 N 
HETATM   34  C4  UNL     1      84.699  -1.095 123.561  1.00  0.00     0.136 C 
HETATM   35  O3  UNL     1      83.967  -0.087 124.165  1.00  0.00    -0.323 OA
HETATM   36  C12 UNL     1      86.027  -1.416 124.148  1.00  0.00     0.155 C 
HETATM   37  C5  UNL     1      84.486   0.650 125.288  1.00  0.00     0.201 C 
HETATM   38  C6  UNL     1      85.497   1.609 124.836  1.00  0.00    -0.014 C 
HETATM   39  C17 UNL     1      85.083  -0.351 126.198  1.00  0.00     0.059 A 
HETATM   40  C7  UNL     1      85.328   2.860 125.283  1.00  0.00     0.152 C 
HETATM   41  C11 UNL     1      86.666   1.492 123.952  1.00  0.00     0.114 C 
HETATM   42  S1  UNL     1      87.212  -0.166 123.635  1.00  0.00    -0.147 SA
HETATM   43  C13 UNL     1      85.824  -1.368 125.637  1.00  0.00    -0.017 A 
HETATM   44  C16 UNL     1      84.878  -0.267 127.562  1.00  0.00     0.299 A 
HETATM   45  C14 UNL     1      86.366  -2.311 126.467  1.00  0.00     0.073 A 
HETATM   46  C15 UNL     1      86.132  -2.183 127.838  1.00  0.00     0.187 A 
HETATM   47  O9  UNL     1      85.419  -1.196 128.324  1.00  0.00    -0.251 OA
HETATM   48  O10 UNL     1      84.218   0.627 128.120  1.00  0.00    -0.259 OA
ATOM     49  H4  UNL     1      84.957  -2.494 122.179  1.00  0.00     0.165 HD
BRANCH  40  50
HETATM   50  O4  UNL     1      84.305   3.272 126.105  1.00  0.00    -0.289 OA
BRANCH  50  51
HETATM   51  C8  UNL     1      83.332   4.190 125.757  1.00  0.00     0.304 C 
HETATM   52  O5  UNL     1      82.543   3.895 124.826  1.00  0.00    -0.262 OA
BRANCH  51  53
HETATM   53  C9  UNL     1      83.164   5.501 126.418  1.00  0.00     0.382 C 
BRANCH  53  54
HETATM   54  N5  UNL     1      83.464   5.450 127.828  1.00  0.00    -0.056 N 
ATOM     55  H53 UNL     1      83.206   4.547 128.227  1.00  0.00     0.276 HD
ATOM     56  H52 UNL     1      84.471   5.418 127.988  1.00  0.00     0.276 HD
ATOM     57  H51 UNL     1      83.034   6.216 128.346  1.00  0.00     0.276 HD
ENDBRANCH  53  54
BRANCH  53  58
HETATM   58  C10 UNL     1      83.899   6.565 125.723  1.00  0.00     0.214 C 
HETATM   59  O6  UNL     1      85.146   6.559 125.629  1.00  0.00    -0.646 OA
HETATM   60  O7  UNL     1      83.210   7.617 125.146  1.00  0.00    -0.646 OA
ENDBRANCH  53  58
ENDBRANCH  51  53
ENDBRANCH  50  51
ENDBRANCH  40  50
BRANCH  46  61
HETATM   61  O8  UNL     1      86.682  -3.140 128.698  1.00  0.00    -0.341 OA
ATOM     62  H8  UNL     1      87.074  -2.843 129.510  1.00  0.00     0.220 HD
ENDBRANCH  46  61
ENDBRANCH   1  33
TORSDOF 22
ENDMDL
MODEL 3
REMARK VINA RESULT: -8.862994498      1.857      2.918
REMARK  22 active torsions:
REMARK  status: ('A' for Active; 'I' for Inactive)
REMARK    1  A    between atoms: N1_1  and  N2_4 
REMARK    2  A    between atoms: N2_4  and  C1_6 
REMARK    3  A    between atoms: C1_6  and  C18_45 
REMARK    4  A    between atoms: C2_7  and  O1_8 
REMARK    5  A    between atoms: C2_7  and  N3_10 
REMARK    6  A    between atoms: N3_10  and  C3_12 
REMARK    7  A    between atoms: C3_12  and  O2_13 
REMARK    8  A    between atoms: C3_12  and  N4_15 
REMARK    9  A    between atoms: C7_21  and  O4_22 
REMARK   10  A    between atoms: O4_22  and  C8_23 
REMARK   11  A    between atoms: C8_23  and  C9_25 
REMARK   12  A    between atoms: C9_25  and  N5_26 
REMARK   13  A    between atoms: C9_25  and  C10_30 
REMARK   14  A    between atoms: C15_38  and  O8_39 
REMARK   15  A    between atoms: C18_45  and  O11_46 
REMARK   16  A    between atoms: C18_45  and  C19_48 
REMARK   17  A    between atoms: C19_48  and  O12_49 
REMARK   18  A    between atoms: C19_48  and  C20_51 
REMARK   19  A    between atoms: C20_51  and  O13_52 
REMARK   20  A    between atoms: C20_51  and  C21_54 
REMARK   21  A    between atoms: C21_54  and  N6_55 
REMARK   22  A    between atoms: C21_54  and  N7_59 
ROOT
HETATM    1  C3  UNL     1      82.310  -1.377 122.547  1.00  0.00     0.329 C 
ENDROOT
BRANCH   1   2
HETATM    2  N3  UNL     1      82.732  -1.301 121.137  1.00  0.00    -0.326 N 
ATOM      3  H3  UNL     1      83.648  -1.656 120.861  1.00  0.00     0.166 HD
BRANCH   2   4
HETATM    4  C2  UNL     1      81.880  -0.743 120.176  1.00  0.00     0.170 C 
HETATM    5  C1  UNL     1      82.182   0.084 119.061  1.00  0.00     0.130 C 
BRANCH   5   6
HETATM    6  N2  UNL     1      81.129   0.427 118.306  1.00  0.00    -0.301 N 
ATOM      7  H2  UNL     1      80.352  -0.232 118.256  1.00  0.00     0.186 HD
BRANCH   6   8
HETATM    8  N1  UNL     1      81.017   1.580 117.605  1.00  0.00    -0.344 N 
ATOM      9  H12 UNL     1      80.201   1.663 116.998  1.00  0.00     0.176 HD
ATOM     10  H11 UNL     1      81.679   2.355 117.641  1.00  0.00     0.176 HD
ENDBRANCH   6   8
ENDBRANCH   5   6
BRANCH   5  11
HETATM   11  C18 UNL     1      83.454   0.572 118.634  1.00  0.00     0.107 C 
BRANCH  11  12
HETATM   12  O11 UNL     1      83.926  -0.098 117.580  1.00  0.00    -0.360 OA
ATOM     13  H11 UNL     1      84.792   0.197 117.324  1.00  0.00     0.217 HD
ENDBRANCH  11  12
BRANCH  11  14
HETATM   14  C19 UNL     1      84.277   1.644 119.153  1.00  0.00     0.209 C 
BRANCH  14  15
HETATM   15  O12 UNL     1      83.388   2.701 119.619  1.00  0.00    -0.386 OA
ATOM     16  H12 UNL     1      83.927   3.438 119.881  1.00  0.00     0.210 HD
ENDBRANCH  14  15
BRANCH  14  17
HETATM   17  C20 UNL     1      85.095   1.251 120.391  1.00  0.00     0.211 C 
BRANCH  17  18
HETATM   18  O13 UNL     1      84.301   1.540 121.494  1.00  0.00    -0.389 OA
ATOM     19  H13 UNL     1      84.873   1.513 122.252  1.00  0.00     0.210 HD
ENDBRANCH  17  18
BRANCH  17  20
HETATM   20  C21 UNL     1      86.377   2.036 120.444  1.00  0.00     0.409 C 
BRANCH  20  21
HETATM   21  N6  UNL     1      87.196   1.652 119.308  1.00  0.00    -0.048 N 
ATOM     22  H63 UNL     1      88.094   2.135 119.291  1.00  0.00     0.276 HD
ATOM     23  H62 UNL     1      87.550   0.699 119.383  1.00  0.00     0.276 HD
ATOM     24  H61 UNL     1      86.654   1.803 118.456  1.00  0.00     0.276 HD
ENDBRANCH  20  21
BRANCH  20  25
HETATM   25  N7  UNL     1      86.143   3.463 120.335  1.00  0.00    -0.048 N 
ATOM     26  H73 UNL     1      86.645   3.861 119.541  1.00  0.00     0.276 HD
ATOM     27  H72 UNL     1      85.187   3.659 120.035  1.00  0.00     0.276 HD
ATOM     28  H71 UNL     1      86.369   3.953 121.200  1.00  0.00     0.276 HD
ENDBRANCH  20  25
ENDBRANCH  17  20
ENDBRANCH  14  17
ENDBRANCH  11  14
ENDBRANCH   5  11
BRANCH   4  29
HETATM   29  O1  UNL     1      80.629  -1.084 120.403  1.00  0.00    -0.344 OA
ATOM     30  H1  UNL     1      80.350  -1.256 121.295  1.00  0.00     0.219 HD
ENDBRANCH   4  29
ENDBRANCH   2   4
ENDBRANCH   1   2
BRANCH   1  31
HETATM   31  O2  UNL     1      81.294  -2.309 122.719  1.00  0.00    -0.359 OA
ATOM     32  H2  UNL     1      80.495  -2.031 122.289  1.00  0.00     0.214 HD
ENDBRANCH   1  31
BRANCH   1  33
HETATM   33  N4  UNL     1      83.408  -1.740 123.411  1.00  0.00    -0.330 N 
HETATM   34  C4  UNL     1      84.064  -0.885 124.111  1.00  0.00     0.136 C 
HETATM   35  O3  UNL     1      83.827   0.478 124.144  1.00  0.00    -0.323 OA
HETATM   36  C12 UNL     1      85.172  -1.404 124.956  1.00  0.00     0.155 C 
HETATM   37  C5  UNL     1      84.647   1.365 124.930  1.00  0.00     0.201 C 
HETATM   38  C6  UNL     1      85.939   1.571 124.271  1.00  0.00    -0.014 C 
HETATM   39  C17 UNL     1      84.825   0.707 126.241  1.00  0.00     0.059 A 
HETATM   40  C7  UNL     1      86.309   2.851 124.142  1.00  0.00     0.152 C 
HETATM   41  C11 UNL     1      86.924   0.649 123.683  1.00  0.00     0.114 C 
HETATM   42  S1  UNL     1      86.738  -1.053 124.149  1.00  0.00    -0.147 SA
HETATM   43  C13 UNL     1      85.068  -0.649 126.252  1.00  0.00    -0.017 A 
HETATM   44  C16 UNL     1      84.729   1.438 127.410  1.00  0.00     0.299 A 
HETATM   45  C14 UNL     1      85.217  -1.273 127.461  1.00  0.00     0.073 A 
HETATM   46  C15 UNL     1      85.112  -0.491 128.614  1.00  0.00     0.187 A 
HETATM   47  O9  UNL     1      84.880   0.797 128.551  1.00  0.00    -0.251 OA
HETATM   48  O10 UNL     1      84.511   2.661 127.458  1.00  0.00    -0.259 OA
ATOM     49  H4  UNL     1      83.676  -2.722 123.469  1.00  0.00     0.165 HD
BRANCH  40  50
HETATM   50  O4  UNL     1      85.575   3.931 124.574  1.00  0.00    -0.289 OA
BRANCH  50  51
HETATM   51  C8  UNL     1      84.465   4.443 123.928  1.00  0.00     0.304 C 
HETATM   52  O5  UNL     1      84.363   4.260 122.690  1.00  0.00    -0.262 OA
BRANCH  51  53
HETATM   53  C9  UNL     1      83.390   5.194 124.608  1.00  0.00     0.382 C 
BRANCH  53  54
HETATM   54  N5  UNL     1      82.868   4.492 125.756  1.00  0.00    -0.056 N 
ATOM     55  H53 UNL     1      82.269   3.717 125.472  1.00  0.00     0.276 HD
ATOM     56  H52 UNL     1      83.602   3.965 126.229  1.00  0.00     0.276 HD
ATOM     57  H51 UNL     1      82.384   5.112 126.405  1.00  0.00     0.276 HD
ENDBRANCH  53  54
BRANCH  53  58
HETATM   58  C10 UNL     1      83.796   6.568 124.925  1.00  0.00     0.214 C 
HETATM   59  O6  UNL     1      83.302   7.559 124.343  1.00  0.00    -0.646 OA
HETATM   60  O7  UNL     1      84.755   6.799 125.896  1.00  0.00    -0.646 OA
ENDBRANCH  53  58
ENDBRANCH  51  53
ENDBRANCH  50  51
ENDBRANCH  40  50
BRANCH  46  61
HETATM   61  O8  UNL     1      85.263  -1.117 129.856  1.00  0.00    -0.341 OA
ATOM     62  H8  UNL     1      84.550  -1.055 130.481  1.00  0.00     0.220 HD
ENDBRANCH  46  61
ENDBRANCH   1  33
TORSDOF 22
ENDMDL
MODEL 4
REMARK VINA RESULT: -8.834760898      2.056      3.511
REMARK  22 active torsions:
REMARK  status: ('A' for Active; 'I' for Inactive)
REMARK    1  A    between atoms: N1_1  and  N2_4 
REMARK    2  A    between atoms: N2_4  and  C1_6 
REMARK    3  A    between atoms: C1_6  and  C18_45 
REMARK    4  A    between atoms: C2_7  and  O1_8 
REMARK    5  A    between atoms: C2_7  and  N3_10 
REMARK    6  A    between atoms: N3_10  and  C3_12 
REMARK    7  A    between atoms: C3_12  and  O2_13 
REMARK    8  A    between atoms: C3_12  and  N4_15 
REMARK    9  A    between atoms: C7_21  and  O4_22 
REMARK   10  A    between atoms: O4_22  and  C8_23 
REMARK   11  A    between atoms: C8_23  and  C9_25 
REMARK   12  A    between atoms: C9_25  and  N5_26 
REMARK   13  A    between atoms: C9_25  and  C10_30 
REMARK   14  A    between atoms: C15_38  and  O8_39 
REMARK   15  A    between atoms: C18_45  and  O11_46 
REMARK   16  A    between atoms: C18_45  and  C19_48 
REMARK   17  A    between atoms: C19_48  and  O12_49 
REMARK   18  A    between atoms: C19_48  and  C20_51 
REMARK   19  A    between atoms: C20_51  and  O13_52 
REMARK   20  A    between atoms: C20_51  and  C21_54 
REMARK   21  A    between atoms: C21_54  and  N6_55 
REMARK   22  A    between atoms: C21_54  and  N7_59 
ROOT
HETATM    1  C3  UNL     1      82.214  -1.143 122.341  1.00  0.00     0.329 C 
ENDROOT
BRANCH   1   2
HETATM    2  N3  UNL     1      82.681  -1.205 120.946  1.00  0.00    -0.326 N 
ATOM      3  H3  UNL     1      83.659  -1.413 120.745  1.00  0.00     0.166 HD
BRANCH   2   4
HETATM    4  C2  UNL     1      81.785  -0.978 119.893  1.00  0.00     0.170 C 
HETATM    5  C1  UNL     1      81.699   0.116 118.990  1.00  0.00     0.130 C 
BRANCH   5   6
HETATM    6  N2  UNL     1      80.736   0.013 118.064  1.00  0.00    -0.301 N 
ATOM      7  H2  UNL     1      80.983  -0.423 117.175  1.00  0.00     0.186 HD
BRANCH   6   8
HETATM    8  N1  UNL     1      79.462   0.444 118.214  1.00  0.00    -0.344 N 
ATOM      9  H12 UNL     1      79.341   1.357 118.653  1.00  0.00     0.176 HD
ATOM     10  H11 UNL     1      78.630  -0.072 117.925  1.00  0.00     0.176 HD
ENDBRANCH   6   8
ENDBRANCH   5   6
BRANCH   5  11
HETATM   11  C18 UNL     1      82.514   1.287 118.930  1.00  0.00     0.107 C 
BRANCH  11  12
HETATM   12  O11 UNL     1      81.850   2.386 119.293  1.00  0.00    -0.360 OA
ATOM     13  H11 UNL     1      82.412   3.151 119.331  1.00  0.00     0.217 HD
ENDBRANCH  11  12
BRANCH  11  14
HETATM   14  C19 UNL     1      83.901   1.453 118.550  1.00  0.00     0.209 C 
BRANCH  14  15
HETATM   15  O12 UNL     1      84.103   2.856 118.206  1.00  0.00    -0.386 OA
ATOM     16  H12 UNL     1      85.039   3.018 118.192  1.00  0.00     0.210 HD
ENDBRANCH  14  15
BRANCH  14  17
HETATM   17  C20 UNL     1      84.891   1.188 119.693  1.00  0.00     0.211 C 
BRANCH  17  18
HETATM   18  O13 UNL     1      84.262   1.600 120.861  1.00  0.00    -0.389 OA
ATOM     19  H13 UNL     1      84.020   0.809 121.329  1.00  0.00     0.210 HD
ENDBRANCH  17  18
BRANCH  17  20
HETATM   20  C21 UNL     1      86.162   1.963 119.476  1.00  0.00     0.409 C 
BRANCH  20  21
HETATM   21  N6  UNL     1      86.081   3.197 120.238  1.00  0.00    -0.048 N 
ATOM     22  H63 UNL     1      85.136   3.579 120.267  1.00  0.00     0.276 HD
ATOM     23  H62 UNL     1      86.202   3.048 121.240  1.00  0.00     0.276 HD
ATOM     24  H61 UNL     1      86.759   3.856 119.856  1.00  0.00     0.276 HD
ENDBRANCH  20  21
BRANCH  20  25
HETATM   25  N7  UNL     1      87.324   1.242 119.961  1.00  0.00    -0.048 N 
ATOM     26  H73 UNL     1      87.386   1.280 120.978  1.00  0.00     0.276 HD
ATOM     27  H72 UNL     1      87.210   0.235 119.845  1.00  0.00     0.276 HD
ATOM     28  H71 UNL     1      88.185   1.571 119.525  1.00  0.00     0.276 HD
ENDBRANCH  20  25
ENDBRANCH  17  20
ENDBRANCH  14  17
ENDBRANCH  11  14
ENDBRANCH   5  11
BRANCH   4  29
HETATM   29  O1  UNL     1      80.928  -1.971 119.783  1.00  0.00    -0.344 OA
ATOM     30  H1  UNL     1      80.803  -2.559 120.518  1.00  0.00     0.219 HD
ENDBRANCH   4  29
ENDBRANCH   2   4
ENDBRANCH   1   2
BRANCH   1  31
HETATM   31  O2  UNL     1      81.128  -1.986 122.547  1.00  0.00    -0.359 OA
ATOM     32  H2  UNL     1      80.811  -1.927 123.440  1.00  0.00     0.214 HD
ENDBRANCH   1  31
BRANCH   1  33
HETATM   33  N4  UNL     1      83.256  -1.517 123.267  1.00  0.00    -0.330 N 
HETATM   34  C4  UNL     1      83.962  -0.660 123.914  1.00  0.00     0.136 C 
HETATM   35  O3  UNL     1      83.836   0.715 123.826  1.00  0.00    -0.323 OA
HETATM   36  C12 UNL     1      85.003  -1.190 124.834  1.00  0.00     0.155 C 
HETATM   37  C5  UNL     1      84.706   1.598 124.561  1.00  0.00     0.201 C 
HETATM   38  C6  UNL     1      86.026   1.645 123.929  1.00  0.00    -0.014 C 
HETATM   39  C17 UNL     1      84.797   1.043 125.927  1.00  0.00     0.059 A 
HETATM   40  C7  UNL     1      86.502   2.876 123.705  1.00  0.00     0.152 C 
HETATM   41  C11 UNL     1      86.947   0.602 123.451  1.00  0.00     0.114 C 
HETATM   42  S1  UNL     1      86.612  -1.034 124.050  1.00  0.00    -0.147 SA
HETATM   43  C13 UNL     1      84.928  -0.322 126.059  1.00  0.00    -0.017 A 
HETATM   44  C16 UNL     1      84.732   1.877 127.028  1.00  0.00     0.299 A 
HETATM   45  C14 UNL     1      84.996  -0.850 127.320  1.00  0.00     0.073 A 
HETATM   46  C15 UNL     1      84.927   0.033 128.400  1.00  0.00     0.187 A 
HETATM   47  O9  UNL     1      84.802   1.326 128.223  1.00  0.00    -0.251 OA
HETATM   48  O10 UNL     1      84.613   3.113 126.967  1.00  0.00    -0.259 OA
ATOM     49  H4  UNL     1      83.442  -2.508 123.415  1.00  0.00     0.165 HD
BRANCH  40  50
HETATM   50  O4  UNL     1      85.848   4.044 124.022  1.00  0.00    -0.289 OA
BRANCH  50  51
HETATM   51  C8  UNL     1      85.396   4.972 123.103  1.00  0.00     0.304 C 
HETATM   52  O5  UNL     1      86.236   5.507 122.338  1.00  0.00    -0.262 OA
BRANCH  51  53
HETATM   53  C9  UNL     1      83.980   5.373 122.966  1.00  0.00     0.382 C 
BRANCH  53  54
HETATM   54  N5  UNL     1      83.660   6.542 123.750  1.00  0.00    -0.056 N 
ATOM     55  H53 UNL     1      83.323   6.281 124.677  1.00  0.00     0.276 HD
ATOM     56  H52 UNL     1      84.504   7.046 124.020  1.00  0.00     0.276 HD
ATOM     57  H51 UNL     1      82.998   7.158 123.279  1.00  0.00     0.276 HD
ENDBRANCH  53  54
BRANCH  53  58
HETATM   58  C10 UNL     1      83.582   5.512 121.560  1.00  0.00     0.214 C 
HETATM   59  O6  UNL     1      83.358   6.626 121.039  1.00  0.00    -0.646 OA
HETATM   60  O7  UNL     1      83.444   4.386 120.767  1.00  0.00    -0.646 OA
ENDBRANCH  53  58
ENDBRANCH  51  53
ENDBRANCH  50  51
ENDBRANCH  40  50
BRANCH  46  61
HETATM   61  O8  UNL     1      84.996  -0.494 129.694  1.00  0.00    -0.341 OA
ATOM     62  H8  UNL     1      85.805  -0.390 130.180  1.00  0.00     0.220 HD
ENDBRANCH  46  61
ENDBRANCH   1  33
TORSDOF 22
ENDMDL
MODEL 5
REMARK VINA RESULT: -8.833420720      2.235      3.105
REMARK  22 active torsions:
REMARK  status: ('A' for Active; 'I' for Inactive)
REMARK    1  A    between atoms: N1_1  and  N2_4 
REMARK    2  A    between atoms: N2_4  and  C1_6 
REMARK    3  A    between atoms: C1_6  and  C18_45 
REMARK    4  A    between atoms: C2_7  and  O1_8 
REMARK    5  A    between atoms: C2_7  and  N3_10 
REMARK    6  A    between atoms: N3_10  and  C3_12 
REMARK    7  A    between atoms: C3_12  and  O2_13 
REMARK    8  A    between atoms: C3_12  and  N4_15 
REMARK    9  A    between atoms: C7_21  and  O4_22 
REMARK   10  A    between atoms: O4_22  and  C8_23 
REMARK   11  A    between atoms: C8_23  and  C9_25 
REMARK   12  A    between atoms: C9_25  and  N5_26 
REMARK   13  A    between atoms: C9_25  and  C10_30 
REMARK   14  A    between atoms: C15_38  and  O8_39 
REMARK   15  A    between atoms: C18_45  and  O11_46 
REMARK   16  A    between atoms: C18_45  and  C19_48 
REMARK   17  A    between atoms: C19_48  and  O12_49 
REMARK   18  A    between atoms: C19_48  and  C20_51 
REMARK   19  A    between atoms: C20_51  and  O13_52 
REMARK   20  A    between atoms: C20_51  and  C21_54 
REMARK   21  A    between atoms: C21_54  and  N6_55 
REMARK   22  A    between atoms: C21_54  and  N7_59 
ROOT
HETATM    1  C3  UNL     1      82.965  -1.623 122.072  1.00  0.00     0.329 C 
ENDROOT
BRANCH   1   2
HETATM    2  N3  UNL     1      83.210  -1.983 120.665  1.00  0.00    -0.326 N 
ATOM      3  H3  UNL     1      82.914  -2.894 120.314  1.00  0.00     0.166 HD
BRANCH   2   4
HETATM    4  C2  UNL     1      83.849  -1.078 119.808  1.00  0.00     0.170 C 
HETATM    5  C1  UNL     1      83.294  -0.095 118.945  1.00  0.00     0.130 C 
BRANCH   5   6
HETATM    6  N2  UNL     1      84.190   0.642 118.273  1.00  0.00    -0.301 N 
ATOM      7  H2  UNL     1      84.368   0.393 117.300  1.00  0.00     0.186 HD
BRANCH   6   8
HETATM    8  N1  UNL     1      84.876   1.690 118.786  1.00  0.00    -0.344 N 
ATOM      9  H12 UNL     1      85.056   1.667 119.789  1.00  0.00     0.176 HD
ATOM     10  H11 UNL     1      85.219   2.486 118.247  1.00  0.00     0.176 HD
ENDBRANCH   6   8
ENDBRANCH   5   6
BRANCH   5  11
HETATM   11  C18 UNL     1      81.919   0.221 118.722  1.00  0.00     0.107 C 
BRANCH  11  12
HETATM   12  O11 UNL     1      81.115  -0.814 118.972  1.00  0.00    -0.360 OA
ATOM     13  H11 UNL     1      81.090  -1.433 118.252  1.00  0.00     0.217 HD
ENDBRANCH  11  12
BRANCH  11  14
HETATM   14  C19 UNL     1      81.292   1.450 118.284  1.00  0.00     0.209 C 
BRANCH  14  15
HETATM   15  O12 UNL     1      81.885   2.546 119.040  1.00  0.00    -0.386 OA
ATOM     16  H12 UNL     1      81.176   3.059 119.411  1.00  0.00     0.210 HD
ENDBRANCH  14  15
BRANCH  14  17
HETATM   17  C20 UNL     1      81.572   1.796 116.815  1.00  0.00     0.211 C 
BRANCH  17  18
HETATM   18  O13 UNL     1      82.605   2.725 116.820  1.00  0.00    -0.389 OA
ATOM     19  H13 UNL     1      82.196   3.582 116.852  1.00  0.00     0.210 HD
ENDBRANCH  17  18
BRANCH  17  20
HETATM   20  C21 UNL     1      80.344   2.377 116.169  1.00  0.00     0.409 C 
BRANCH  20  21
HETATM   21  N6  UNL     1      80.173   1.756 114.868  1.00  0.00    -0.048 N 
ATOM     22  H63 UNL     1      80.984   1.204 114.587  1.00  0.00     0.276 HD
ATOM     23  H62 UNL     1      79.488   1.000 114.881  1.00  0.00     0.276 HD
ATOM     24  H61 UNL     1      79.940   2.483 114.192  1.00  0.00     0.276 HD
ENDBRANCH  20  21
BRANCH  20  25
HETATM   25  N7  UNL     1      79.145   2.093 116.934  1.00  0.00    -0.048 N 
ATOM     26  H73 UNL     1      78.536   1.440 116.441  1.00  0.00     0.276 HD
ATOM     27  H72 UNL     1      79.355   1.526 117.756  1.00  0.00     0.276 HD
ATOM     28  H71 UNL     1      78.645   2.945 117.189  1.00  0.00     0.276 HD
ENDBRANCH  20  25
ENDBRANCH  17  20
ENDBRANCH  14  17
ENDBRANCH  11  14
ENDBRANCH   5  11
BRANCH   4  29
HETATM   29  O1  UNL     1      85.156  -1.216 119.868  1.00  0.00    -0.344 OA
ATOM     30  H1  UNL     1      85.700  -0.442 119.955  1.00  0.00     0.219 HD
ENDBRANCH   4  29
ENDBRANCH   2   4
ENDBRANCH   1   2
BRANCH   1  31
HETATM   31  O2  UNL     1      81.990  -2.436 122.638  1.00  0.00    -0.359 OA
ATOM     32  H2  UNL     1      81.516  -1.980 123.323  1.00  0.00     0.214 HD
ENDBRANCH   1  31
BRANCH   1  33
HETATM   33  N4  UNL     1      84.164  -1.737 122.866  1.00  0.00    -0.330 N 
HETATM   34  C4  UNL     1      84.521  -0.856 123.732  1.00  0.00     0.136 C 
HETATM   35  O3  UNL     1      83.830   0.305 124.028  1.00  0.00    -0.323 OA
HETATM   36  C12 UNL     1      85.783  -1.106 124.477  1.00  0.00     0.155 C 
HETATM   37  C5  UNL     1      84.333   1.256 124.986  1.00  0.00     0.201 C 
HETATM   38  C6  UNL     1      85.437   2.021 124.403  1.00  0.00    -0.014 C 
HETATM   39  C17 UNL     1      84.798   0.465 126.146  1.00  0.00     0.059 A 
HETATM   40  C7  UNL     1      85.334   3.349 124.534  1.00  0.00     0.152 C 
HETATM   41  C11 UNL     1      86.647   1.632 123.662  1.00  0.00     0.114 C 
HETATM   42  S1  UNL     1      87.086  -0.083 123.781  1.00  0.00    -0.147 SA
HETATM   43  C13 UNL     1      85.494  -0.696 125.894  1.00  0.00    -0.017 A 
HETATM   44  C16 UNL     1      84.517   0.881 127.434  1.00  0.00     0.299 A 
HETATM   45  C14 UNL     1      85.914  -1.446 126.959  1.00  0.00     0.073 A 
HETATM   46  C15 UNL     1      85.607  -0.985 128.241  1.00  0.00     0.187 A 
HETATM   47  O9  UNL     1      84.941   0.128 128.429  1.00  0.00    -0.251 OA
HETATM   48  O10 UNL     1      83.892   1.918 127.718  1.00  0.00    -0.259 OA
ATOM     49  H4  UNL     1      84.758  -2.555 122.734  1.00  0.00     0.165 HD
BRANCH  40  50
HETATM   50  O4  UNL     1      84.296   4.002 125.158  1.00  0.00    -0.289 OA
BRANCH  50  51
HETATM   51  C8  UNL     1      84.425   4.811 126.272  1.00  0.00     0.304 C 
HETATM   52  O5  UNL     1      85.485   4.734 126.941  1.00  0.00    -0.262 OA
BRANCH  51  53
HETATM   53  C9  UNL     1      83.388   5.762 126.723  1.00  0.00     0.382 C 
BRANCH  53  54
HETATM   54  N5  UNL     1      83.244   5.781 128.158  1.00  0.00    -0.056 N 
ATOM     55  H53 UNL     1      82.556   5.095 128.468  1.00  0.00     0.276 HD
ATOM     56  H52 UNL     1      84.072   5.398 128.615  1.00  0.00     0.276 HD
ATOM     57  H51 UNL     1      83.023   6.710 128.516  1.00  0.00     0.276 HD
ENDBRANCH  53  54
BRANCH  53  58
HETATM   58  C10 UNL     1      83.590   7.102 126.159  1.00  0.00     0.214 C 
HETATM   59  O6  UNL     1      83.917   8.079 126.868  1.00  0.00    -0.646 OA
HETATM   60  O7  UNL     1      83.418   7.314 124.802  1.00  0.00    -0.646 OA
ENDBRANCH  53  58
ENDBRANCH  51  53
ENDBRANCH  50  51
ENDBRANCH  40  50
BRANCH  46  61
HETATM   61  O8  UNL     1      86.031  -1.742 129.338  1.00  0.00    -0.341 OA
ATOM     62  H8  UNL     1      85.440  -1.837 130.076  1.00  0.00     0.220 HD
ENDBRANCH  46  61
ENDBRANCH   1  33
TORSDOF 22
ENDMDL
