MODEL 1
REMARK VINA RESULT: -7.154084881      0.000      0.000
REMARK  2 active torsions:
REMARK  status: ('A' for Active; 'I' for Inactive)
REMARK       I    between atoms: C1_2  and  N1_3 
REMARK       I    between atoms: C1_2  and  N4_21 
REMARK    1  A    between atoms: N1_3  and  C2_5 
REMARK    2  A    between atoms: N2_7  and  C4_8 
ROOT
HETATM    1  C2  UNL     1       9.679   7.666  42.479  1.00  0.00     0.124 C 
HETATM    2  C3  UNL     1       8.377   8.087  43.069  1.00  0.00     0.298 C 
HETATM    3  N2  UNL     1       7.664   6.827  43.176  1.00  0.00     0.097 N 
HETATM    4  C8  UNL     1       8.159   5.973  42.125  1.00  0.00     0.284 C 
HETATM    5  C9  UNL     1       9.235   6.748  41.391  1.00  0.00     0.008 C 
HETATM    6  C10 UNL     1      10.323   5.862  40.863  1.00  0.00     0.013 C 
HETATM    7  C11 UNL     1       9.698   5.332  39.590  1.00  0.00     0.001 C 
HETATM    8  C12 UNL     1       8.944   6.518  39.060  1.00  0.00     0.001 C 
HETATM    9  C13 UNL     1       8.605   7.406  40.219  1.00  0.00     0.013 C 
ENDROOT
BRANCH   1  10
HETATM   10  N1  UNL     1      10.551   8.714  42.080  1.00  0.00    -0.336 N 
HETATM   11  C1  UNL     1      11.782   9.056  42.650  1.00  0.00     0.320 C 
HETATM   12  O1  UNL     1      12.211   8.399  43.619  1.00  0.00    -0.247 OA
HETATM   13  N4  UNL     1      12.548  10.118  42.158  1.00  0.00    -0.316 N 
HETATM   14  C14 UNL     1      12.368  11.070  41.078  1.00  0.00     0.204 C 
HETATM   15  C15 UNL     1      13.816  10.721  42.495  1.00  0.00     0.204 C 
HETATM   16  S1  UNL     1      13.314  12.340  41.913  1.00  0.00    -0.129 SA
ATOM     17  H1  UNL     1      10.245   9.281  41.289  1.00  0.00     0.164 HD
ENDBRANCH   1  10
BRANCH   3  18
HETATM   18  C4  UNL     1       7.843   6.224  44.486  1.00  0.00     0.250 C 
HETATM   19  C5  UNL     1       8.605   7.145  45.412  1.00  0.00     0.065 C 
HETATM   20  C6  UNL     1       9.302   6.175  46.350  1.00  0.00     0.234 C 
HETATM   21  N3  UNL     1       9.304   4.893  45.717  1.00  0.00    -0.073 N 
HETATM   22  C7  UNL     1       8.832   5.072  44.351  1.00  0.00     0.268 C 
ATOM     23  H32 UNL     1      10.211   4.429  45.766  1.00  0.00     0.277 HD
ATOM     24  H31 UNL     1       8.769   4.196  46.234  1.00  0.00     0.277 HD
ENDBRANCH   3  18
TORSDOF 2
ENDMDL
MODEL 2
REMARK VINA RESULT: -6.833941438      5.297      6.960
REMARK  2 active torsions:
REMARK  status: ('A' for Active; 'I' for Inactive)
REMARK       I    between atoms: C1_2  and  N1_3 
REMARK       I    between atoms: C1_2  and  N4_21 
REMARK    1  A    between atoms: N1_3  and  C2_5 
REMARK    2  A    between atoms: N2_7  and  C4_8 
ROOT
HETATM    1  C2  UNL     1       6.913  11.430  44.778  1.00  0.00     0.124 C 
HETATM    2  C3  UNL     1       5.633  11.735  44.079  1.00  0.00     0.298 C 
HETATM    3  N2  UNL     1       4.741  12.036  45.184  1.00  0.00     0.097 N 
HETATM    4  C8  UNL     1       5.210  11.281  46.320  1.00  0.00     0.284 C 
HETATM    5  C9  UNL     1       6.452  10.533  45.876  1.00  0.00     0.008 C 
HETATM    6  C10 UNL     1       7.450  10.367  46.982  1.00  0.00     0.013 C 
HETATM    7  C11 UNL     1       6.883   9.181  47.732  1.00  0.00     0.001 C 
HETATM    8  C12 UNL     1       6.360   8.300  46.633  1.00  0.00     0.001 C 
HETATM    9  C13 UNL     1       6.039   9.171  45.456  1.00  0.00     0.013 C 
ENDROOT
BRANCH   1  10
HETATM   10  N1  UNL     1       7.960  10.917  43.965  1.00  0.00    -0.336 N 
HETATM   11  C1  UNL     1       9.323  11.219  44.048  1.00  0.00     0.320 C 
HETATM   12  O1  UNL     1       9.720  12.023  44.915  1.00  0.00    -0.247 OA
HETATM   13  N4  UNL     1      10.257  10.640  43.182  1.00  0.00    -0.316 N 
HETATM   14  C14 UNL     1      10.158   9.693  42.087  1.00  0.00     0.204 C 
HETATM   15  C15 UNL     1      11.686  10.725  42.996  1.00  0.00     0.204 C 
HETATM   16  S1  UNL     1      11.579  10.378  41.241  1.00  0.00    -0.129 SA
ATOM     17  H1  UNL     1       7.686  10.253  43.240  1.00  0.00     0.164 HD
ENDBRANCH   1  10
BRANCH   3  18
HETATM   18  C4  UNL     1       4.704  13.461  45.466  1.00  0.00     0.250 C 
HETATM   19  C5  UNL     1       3.991  13.741  46.769  1.00  0.00     0.065 C 
HETATM   20  C6  UNL     1       3.421  15.132  46.546  1.00  0.00     0.234 C 
HETATM   21  N3  UNL     1       3.416  15.372  45.137  1.00  0.00    -0.073 N 
HETATM   22  C7  UNL     1       3.756  14.122  44.472  1.00  0.00     0.268 C 
ATOM     23  H32 UNL     1       2.537  15.770  44.806  1.00  0.00     0.277 HD
ATOM     24  H31 UNL     1       4.024  16.144  44.864  1.00  0.00     0.277 HD
ENDBRANCH   3  18
TORSDOF 2
ENDMDL
MODEL 3
REMARK VINA RESULT: -6.743939994      3.909      5.092
REMARK  2 active torsions:
REMARK  status: ('A' for Active; 'I' for Inactive)
REMARK       I    between atoms: C1_2  and  N1_3 
REMARK       I    between atoms: C1_2  and  N4_21 
REMARK    1  A    between atoms: N1_3  and  C2_5 
REMARK    2  A    between atoms: N2_7  and  C4_8 
ROOT
HETATM    1  C2  UNL     1       8.096   8.962  43.864  1.00  0.00     0.124 C 
HETATM    2  C3  UNL     1       8.678  10.232  44.382  1.00  0.00     0.298 C 
HETATM    3  N2  UNL     1       7.520  11.105  44.435  1.00  0.00     0.097 N 
HETATM    4  C8  UNL     1       6.613  10.662  43.404  1.00  0.00     0.284 C 
HETATM    5  C9  UNL     1       7.247   9.454  42.742  1.00  0.00     0.008 C 
HETATM    6  C10 UNL     1       6.231   8.458  42.269  1.00  0.00     0.013 C 
HETATM    7  C11 UNL     1       5.789   9.070  40.956  1.00  0.00     0.001 C 
HETATM    8  C12 UNL     1       7.064   9.634  40.396  1.00  0.00     0.001 C 
HETATM    9  C13 UNL     1       7.984   9.925  41.543  1.00  0.00     0.013 C 
ENDROOT
BRANCH   1  10
HETATM   10  N1  UNL     1       9.026   7.941  43.528  1.00  0.00    -0.336 N 
HETATM   11  C1  UNL     1      10.006   7.382  44.355  1.00  0.00     0.320 C 
HETATM   12  O1  UNL     1      10.119   7.785  45.529  1.00  0.00    -0.247 OA
HETATM   13  N4  UNL     1      10.864   6.375  43.898  1.00  0.00    -0.316 N 
HETATM   14  C14 UNL     1      11.014   5.683  42.633  1.00  0.00     0.204 C 
HETATM   15  C15 UNL     1      11.946   5.604  44.463  1.00  0.00     0.204 C 
HETATM   16  S1  UNL     1      12.766   5.411  42.882  1.00  0.00    -0.129 SA
ATOM     17  H1  UNL     1       8.974   7.576  42.577  1.00  0.00     0.164 HD
ENDBRANCH   1  10
BRANCH   3  18
HETATM   18  C4  UNL     1       6.894  11.081  45.745  1.00  0.00     0.250 C 
HETATM   19  C5  UNL     1       5.403  11.310  45.643  1.00  0.00     0.065 C 
HETATM   20  C6  UNL     1       5.072  11.960  46.976  1.00  0.00     0.234 C 
HETATM   21  N3  UNL     1       6.294  12.456  47.527  1.00  0.00    -0.073 N 
HETATM   22  C7  UNL     1       7.324  12.331  46.505  1.00  0.00     0.268 C 
ATOM     23  H32 UNL     1       6.208  13.405  47.889  1.00  0.00     0.277 HD
ATOM     24  H31 UNL     1       6.547  12.000  48.403  1.00  0.00     0.277 HD
ENDBRANCH   3  18
TORSDOF 2
ENDMDL
MODEL 4
REMARK VINA RESULT: -6.743445942      3.541      4.638
REMARK  2 active torsions:
REMARK  status: ('A' for Active; 'I' for Inactive)
REMARK       I    between atoms: C1_2  and  N1_3 
REMARK       I    between atoms: C1_2  and  N4_21 
REMARK    1  A    between atoms: N1_3  and  C2_5 
REMARK    2  A    between atoms: N2_7  and  C4_8 
ROOT
HETATM    1  C2  UNL     1       8.437   8.580  43.390  1.00  0.00     0.124 C 
HETATM    2  C3  UNL     1       8.488   7.188  43.920  1.00  0.00     0.298 C 
HETATM    3  N2  UNL     1       9.215   6.487  42.878  1.00  0.00     0.097 N 
HETATM    4  C8  UNL     1       8.939   7.172  41.639  1.00  0.00     0.284 C 
HETATM    5  C9  UNL     1       8.043   8.348  41.971  1.00  0.00     0.008 C 
HETATM    6  C10 UNL     1       8.285   9.526  41.075  1.00  0.00     0.013 C 
HETATM    7  C11 UNL     1       7.493   9.143  39.843  1.00  0.00     0.001 C 
HETATM    8  C12 UNL     1       6.274   8.476  40.414  1.00  0.00     0.001 C 
HETATM    9  C13 UNL     1       6.636   7.925  41.760  1.00  0.00     0.013 C 
ENDROOT
BRANCH   1  10
HETATM   10  N1  UNL     1       7.622   9.493  44.112  1.00  0.00    -0.336 N 
HETATM   11  C1  UNL     1       8.042  10.459  45.033  1.00  0.00     0.320 C 
HETATM   12  O1  UNL     1       9.257  10.576  45.285  1.00  0.00    -0.247 OA
HETATM   13  N4  UNL     1       7.130  11.301  45.679  1.00  0.00    -0.316 N 
HETATM   14  C14 UNL     1       5.688  11.443  45.632  1.00  0.00     0.204 C 
HETATM   15  C15 UNL     1       7.216  12.367  46.649  1.00  0.00     0.204 C 
HETATM   16  S1  UNL     1       5.594  12.018  47.325  1.00  0.00    -0.129 SA
ATOM     17  H1  UNL     1       6.618   9.437  43.940  1.00  0.00     0.164 HD
ENDBRANCH   1  10
BRANCH   3  18
HETATM   18  C4  UNL     1      10.639   6.442  43.160  1.00  0.00     0.250 C 
HETATM   19  C5  UNL     1      11.370   5.589  42.147  1.00  0.00     0.065 C 
HETATM   20  C6  UNL     1      12.558   5.072  42.940  1.00  0.00     0.234 C 
HETATM   21  N3  UNL     1      12.250   5.231  44.327  1.00  0.00    -0.073 N 
HETATM   22  C7  UNL     1      10.851   5.624  44.429  1.00  0.00     0.268 C 
ATOM     23  H32 UNL     1      12.470   4.402  44.879  1.00  0.00     0.277 HD
ATOM     24  H31 UNL     1      12.879   5.879  44.801  1.00  0.00     0.277 HD
ENDBRANCH   3  18
TORSDOF 2
ENDMDL
MODEL 5
REMARK VINA RESULT: -6.716697987      3.557      5.715
REMARK  2 active torsions:
REMARK  status: ('A' for Active; 'I' for Inactive)
REMARK       I    between atoms: C1_2  and  N1_3 
REMARK       I    between atoms: C1_2  and  N4_21 
REMARK    1  A    between atoms: N1_3  and  C2_5 
REMARK    2  A    between atoms: N2_7  and  C4_8 
ROOT
HETATM    1  C2  UNL     1       8.870   6.485  42.872  1.00  0.00     0.124 C 
HETATM    2  C3  UNL     1       9.861   7.528  42.485  1.00  0.00     0.298 C 
HETATM    3  N2  UNL     1      10.440   7.895  43.765  1.00  0.00     0.097 N 
HETATM    4  C8  UNL     1       9.424   7.674  44.765  1.00  0.00     0.284 C 
HETATM    5  C9  UNL     1       8.209   7.118  44.049  1.00  0.00     0.008 C 
HETATM    6  C10 UNL     1       7.431   6.156  44.897  1.00  0.00     0.013 C 
HETATM    7  C11 UNL     1       6.617   7.096  45.760  1.00  0.00     0.001 C 
HETATM    8  C12 UNL     1       6.258   8.205  44.812  1.00  0.00     0.001 C 
HETATM    9  C13 UNL     1       7.303   8.251  43.739  1.00  0.00     0.013 C 
ENDROOT
BRANCH   1  10
HETATM   10  N1  UNL     1       7.997   6.042  41.842  1.00  0.00    -0.336 N 
HETATM   11  C1  UNL     1       8.262   5.077  40.864  1.00  0.00     0.320 C 
HETATM   12  O1  UNL     1       9.372   4.510  40.847  1.00  0.00    -0.247 OA
HETATM   13  N4  UNL     1       7.308   4.730  39.901  1.00  0.00    -0.316 N 
HETATM   14  C14 UNL     1       5.954   5.169  39.625  1.00  0.00     0.204 C 
HETATM   15  C15 UNL     1       7.250   3.811  38.788  1.00  0.00     0.204 C 
HETATM   16  S1  UNL     1       6.102   4.837  37.872  1.00  0.00    -0.129 SA
ATOM     17  H1  UNL     1       7.074   6.475  41.813  1.00  0.00     0.164 HD
ENDBRANCH   1  10
BRANCH   3  18
HETATM   18  C4  UNL     1      11.642   7.129  44.045  1.00  0.00     0.250 C 
HETATM   19  C5  UNL     1      12.058   6.308  42.845  1.00  0.00     0.065 C 
HETATM   20  C6  UNL     1      12.770   5.125  43.480  1.00  0.00     0.234 C 
HETATM   21  N3  UNL     1      12.370   5.070  44.851  1.00  0.00    -0.073 N 
HETATM   22  C7  UNL     1      11.289   6.028  45.037  1.00  0.00     0.268 C 
ATOM     23  H32 UNL     1      12.121   4.128  45.153  1.00  0.00     0.277 HD
ATOM     24  H31 UNL     1      13.146   5.217  45.496  1.00  0.00     0.277 HD
ENDBRANCH   3  18
TORSDOF 2
ENDMDL
