MODEL 1
REMARK VINA RESULT: -6.764280474      0.000      0.000
REMARK  12 active torsions:
REMARK  status: ('A' for Active; 'I' for Inactive)
REMARK    1  A    between atoms: N1_2  and  C2_4 
REMARK    2  A    between atoms: C3_7  and  C4_8 
REMARK    3  A    between atoms: C4_8  and  C5_9 
REMARK    4  A    between atoms: C5_9  and  C6_10 
REMARK    5  A    between atoms: C6_10  and  N3_11 
REMARK    6  A    between atoms: N3_11  and  C7_13 
REMARK    7  A    between atoms: N5_17  and  C9_18 
REMARK    8  A    between atoms: C9_18  and  C10_19 
REMARK    9  A    between atoms: C11_20  and  C12_21 
REMARK   10  A    between atoms: C12_21  and  C13_22 
REMARK   11  A    between atoms: C13_22  and  O1_23 
REMARK   12  A    between atoms: C16_27  and  N7_28 
ROOT
HETATM    1  C7  UNL     1       9.071  32.678  15.980  1.00  0.00     0.132 A 
HETATM    2  N4  UNL     1      10.057  32.006  15.259  1.00  0.00    -0.337 N 
ATOM      3  H4  UNL     1       9.782  31.289  14.587  1.00  0.00     0.168 HD
HETATM    4  C8  UNL     1      11.356  32.278  15.427  1.00  0.00     0.186 A 
HETATM    5  N5  UNL     1      11.776  33.198  16.283  1.00  0.00    -0.326 N 
HETATM    6  C15 UNL     1      10.883  33.874  17.001  1.00  0.00     0.150 A 
HETATM    7  N6  UNL     1      11.278  34.871  17.934  1.00  0.00    -0.080 NA
HETATM    8  C16 UNL     1       9.500  33.628  16.865  1.00  0.00     0.114 A 
ENDROOT
BRANCH   1   9
HETATM    9  N3  UNL     1       7.887  32.344  15.756  1.00  0.00    -0.374 N 
ATOM     10  H3  UNL     1       7.590  31.557  16.333  1.00  0.00     0.161 HD
BRANCH   9  11
HETATM   11  C6  UNL     1       6.894  32.782  14.920  1.00  0.00     0.121 C 
BRANCH  11  12
HETATM   12  C5  UNL     1       6.106  31.636  14.251  1.00  0.00     0.026 C 
BRANCH  12  13
HETATM   13  C4  UNL     1       6.403  31.602  12.769  1.00  0.00     0.059 C 
BRANCH  13  14
HETATM   14  C3  UNL     1       7.596  30.675  12.627  1.00  0.00     0.018 A 
HETATM   15  N2  UNL     1       8.767  31.105  12.243  1.00  0.00    -0.340 N 
HETATM   16  C2  UNL     1       9.764  30.225  12.143  1.00  0.00     0.144 A 
ATOM     17  H2  UNL     1       8.915  32.089  12.023  1.00  0.00     0.168 HD
HETATM   18  S1  UNL     1       9.033  28.757  12.602  1.00  0.00    -0.064 SA
HETATM   19  C18 UNL     1       7.458  29.345  12.906  1.00  0.00     0.078 A 
BRANCH  16  20
HETATM   20  N1  UNL     1      11.011  30.428  11.781  1.00  0.00    -0.375 N 
HETATM   21  C1  UNL     1      11.595  29.581  10.777  1.00  0.00     0.148 C 
ATOM     22  H1  UNL     1      11.557  31.176  12.207  1.00  0.00     0.161 HD
ENDBRANCH  16  20
ENDBRANCH  13  14
ENDBRANCH  12  13
ENDBRANCH  11  12
ENDBRANCH   9  11
ENDBRANCH   1   9
BRANCH   8  23
HETATM   23  N7  UNL     1       8.597  34.383  17.638  1.00  0.00    -0.389 N 
HETATM   24  C17 UNL     1       7.999  33.929  18.890  1.00  0.00     0.146 C 
ATOM     25  H7  UNL     1       8.343  35.311  17.301  1.00  0.00     0.159 HD
ENDBRANCH   8  23
BRANCH   5  26
HETATM   26  C9  UNL     1      13.222  33.496  16.463  1.00  0.00     0.158 C 
BRANCH  26  27
HETATM   27  C10 UNL     1      14.003  32.841  15.399  1.00  0.00    -0.011 C 
HETATM   28  C11 UNL     1      14.595  33.486  14.257  1.00  0.00    -0.027 C 
BRANCH  28  29
HETATM   29  C12 UNL     1      15.598  34.539  14.239  1.00  0.00     0.053 C 
BRANCH  29  30
HETATM   30  C13 UNL     1      15.313  35.785  13.521  1.00  0.00     0.170 C 
BRANCH  30  31
HETATM   31  O1  UNL     1      16.018  36.898  13.811  1.00  0.00    -0.396 OA
HETATM   32  C14 UNL     1      15.977  37.239  15.139  1.00  0.00     0.201 C 
ENDBRANCH  30  31
ENDBRANCH  29  30
ENDBRANCH  28  29
ENDBRANCH  26  27
ENDBRANCH   5  26
TORSDOF 12
ENDMDL
MODEL 2
REMARK VINA RESULT: -6.704801885      1.171      2.357
REMARK  12 active torsions:
REMARK  status: ('A' for Active; 'I' for Inactive)
REMARK    1  A    between atoms: N1_2  and  C2_4 
REMARK    2  A    between atoms: C3_7  and  C4_8 
REMARK    3  A    between atoms: C4_8  and  C5_9 
REMARK    4  A    between atoms: C5_9  and  C6_10 
REMARK    5  A    between atoms: C6_10  and  N3_11 
REMARK    6  A    between atoms: N3_11  and  C7_13 
REMARK    7  A    between atoms: N5_17  and  C9_18 
REMARK    8  A    between atoms: C9_18  and  C10_19 
REMARK    9  A    between atoms: C11_20  and  C12_21 
REMARK   10  A    between atoms: C12_21  and  C13_22 
REMARK   11  A    between atoms: C13_22  and  O1_23 
REMARK   12  A    between atoms: C16_27  and  N7_28 
ROOT
HETATM    1  C7  UNL     1       8.996  33.069  16.154  1.00  0.00     0.132 A 
HETATM    2  N4  UNL     1       8.742  34.179  16.960  1.00  0.00    -0.337 N 
ATOM      3  H4  UNL     1       7.776  34.439  17.158  1.00  0.00     0.168 HD
HETATM    4  C8  UNL     1       9.734  34.910  17.478  1.00  0.00     0.186 A 
HETATM    5  N5  UNL     1      11.009  34.622  17.258  1.00  0.00    -0.326 N 
HETATM    6  C15 UNL     1      11.317  33.574  16.498  1.00  0.00     0.150 A 
HETATM    7  N6  UNL     1      12.667  33.220  16.228  1.00  0.00    -0.080 NA
HETATM    8  C16 UNL     1      10.310  32.768  15.924  1.00  0.00     0.114 A 
ENDROOT
BRANCH   1   9
HETATM    9  N3  UNL     1       8.000  32.458  15.712  1.00  0.00    -0.374 N 
ATOM     10  H3  UNL     1       7.995  31.475  15.985  1.00  0.00     0.161 HD
BRANCH   9  11
HETATM   11  C6  UNL     1       6.913  32.793  14.948  1.00  0.00     0.121 C 
BRANCH  11  12
HETATM   12  C5  UNL     1       6.178  31.571  14.358  1.00  0.00     0.026 C 
BRANCH  12  13
HETATM   13  C4  UNL     1       6.379  31.521  12.860  1.00  0.00     0.059 C 
BRANCH  13  14
HETATM   14  C3  UNL     1       7.576  30.613  12.652  1.00  0.00     0.018 A 
HETATM   15  N2  UNL     1       8.730  31.068  12.245  1.00  0.00    -0.340 N 
HETATM   16  C2  UNL     1       9.732  30.203  12.087  1.00  0.00     0.144 A 
ATOM     17  H2  UNL     1       8.861  32.060  12.053  1.00  0.00     0.168 HD
HETATM   18  S1  UNL     1       9.031  28.713  12.521  1.00  0.00    -0.064 SA
HETATM   19  C18 UNL     1       7.461  29.274  12.892  1.00  0.00     0.078 A 
BRANCH  16  20
HETATM   20  N1  UNL     1      10.966  30.431  11.693  1.00  0.00    -0.375 N 
HETATM   21  C1  UNL     1      11.576  29.536  10.749  1.00  0.00     0.148 C 
ATOM     22  H1  UNL     1      11.482  31.233  12.053  1.00  0.00     0.161 HD
ENDBRANCH  16  20
ENDBRANCH  13  14
ENDBRANCH  12  13
ENDBRANCH  11  12
ENDBRANCH   9  11
ENDBRANCH   1   9
BRANCH   8  23
HETATM   23  N7  UNL     1      10.691  31.662  15.140  1.00  0.00    -0.389 N 
HETATM   24  C17 UNL     1      10.808  30.295  15.638  1.00  0.00     0.146 C 
ATOM     25  H7  UNL     1      10.901  31.828  14.156  1.00  0.00     0.159 HD
ENDBRANCH   8  23
BRANCH   5  26
HETATM   26  C9  UNL     1      12.108  35.439  17.840  1.00  0.00     0.158 C 
BRANCH  26  27
HETATM   27  C10 UNL     1      12.320  36.646  17.023  1.00  0.00    -0.011 C 
HETATM   28  C11 UNL     1      13.582  37.126  16.524  1.00  0.00    -0.027 C 
BRANCH  28  29
HETATM   29  C12 UNL     1      14.510  36.451  15.631  1.00  0.00     0.053 C 
BRANCH  29  30
HETATM   30  C13 UNL     1      15.678  37.181  15.129  1.00  0.00     0.170 C 
BRANCH  30  31
HETATM   31  O1  UNL     1      16.097  36.980  13.863  1.00  0.00    -0.396 OA
HETATM   32  C14 UNL     1      16.123  35.657  13.501  1.00  0.00     0.201 C 
ENDBRANCH  30  31
ENDBRANCH  29  30
ENDBRANCH  28  29
ENDBRANCH  26  27
ENDBRANCH   5  26
TORSDOF 12
ENDMDL
MODEL 3
REMARK VINA RESULT: -6.565792694      1.561      2.008
REMARK  12 active torsions:
REMARK  status: ('A' for Active; 'I' for Inactive)
REMARK    1  A    between atoms: N1_2  and  C2_4 
REMARK    2  A    between atoms: C3_7  and  C4_8 
REMARK    3  A    between atoms: C4_8  and  C5_9 
REMARK    4  A    between atoms: C5_9  and  C6_10 
REMARK    5  A    between atoms: C6_10  and  N3_11 
REMARK    6  A    between atoms: N3_11  and  C7_13 
REMARK    7  A    between atoms: N5_17  and  C9_18 
REMARK    8  A    between atoms: C9_18  and  C10_19 
REMARK    9  A    between atoms: C11_20  and  C12_21 
REMARK   10  A    between atoms: C12_21  and  C13_22 
REMARK   11  A    between atoms: C13_22  and  O1_23 
REMARK   12  A    between atoms: C16_27  and  N7_28 
ROOT
HETATM    1  C7  UNL     1       8.409  32.308  16.018  1.00  0.00     0.132 A 
HETATM    2  N4  UNL     1       9.463  32.468  15.119  1.00  0.00    -0.337 N 
ATOM      3  H4  UNL     1       9.334  33.065  14.303  1.00  0.00     0.168 HD
HETATM    4  C8  UNL     1      10.638  31.857  15.301  1.00  0.00     0.186 A 
HETATM    5  N5  UNL     1      10.867  31.069  16.343  1.00  0.00    -0.326 N 
HETATM    6  C15 UNL     1       9.901  30.878  17.237  1.00  0.00     0.150 A 
HETATM    7  N6  UNL     1      10.091  30.043  18.372  1.00  0.00    -0.080 NA
HETATM    8  C16 UNL     1       8.641  31.497  17.095  1.00  0.00     0.114 A 
ENDROOT
BRANCH   1   9
HETATM    9  N3  UNL     1       7.350  32.916  15.753  1.00  0.00    -0.374 N 
ATOM     10  H3  UNL     1       7.085  33.574  16.487  1.00  0.00     0.161 HD
BRANCH   9  11
HETATM   11  C6  UNL     1       6.458  32.909  14.713  1.00  0.00     0.121 C 
BRANCH  11  12
HETATM   12  C5  UNL     1       6.053  31.489  14.262  1.00  0.00     0.026 C 
BRANCH  12  13
HETATM   13  C4  UNL     1       6.254  31.345  12.770  1.00  0.00     0.059 C 
BRANCH  13  14
HETATM   14  C3  UNL     1       7.510  30.508  12.619  1.00  0.00     0.018 A 
HETATM   15  N2  UNL     1       8.646  31.026  12.239  1.00  0.00    -0.340 N 
HETATM   16  C2  UNL     1       9.704  30.221  12.131  1.00  0.00     0.144 A 
ATOM     17  H2  UNL     1       8.723  32.020  12.029  1.00  0.00     0.168 HD
HETATM   18  S1  UNL     1       9.082  28.700  12.575  1.00  0.00    -0.064 SA
HETATM   19  C18 UNL     1       7.469  29.170  12.885  1.00  0.00     0.078 A 
BRANCH  16  20
HETATM   20  N1  UNL     1      10.934  30.517  11.770  1.00  0.00    -0.375 N 
HETATM   21  C1  UNL     1      11.607  29.674  10.821  1.00  0.00     0.148 C 
ATOM     22  H1  UNL     1      11.403  31.335  12.159  1.00  0.00     0.161 HD
ENDBRANCH  16  20
ENDBRANCH  13  14
ENDBRANCH  12  13
ENDBRANCH  11  12
ENDBRANCH   9  11
ENDBRANCH   1   9
BRANCH   8  23
HETATM   23  N7  UNL     1       7.658  31.271  18.079  1.00  0.00    -0.389 N 
HETATM   24  C17 UNL     1       7.412  32.149  19.219  1.00  0.00     0.146 C 
ATOM     25  H7  UNL     1       7.079  30.437  17.988  1.00  0.00     0.159 HD
ENDBRANCH   8  23
BRANCH   5  26
HETATM   26  C9  UNL     1      12.178  30.394  16.540  1.00  0.00     0.158 C 
BRANCH  26  27
HETATM   27  C10 UNL     1      13.224  31.399  16.798  1.00  0.00    -0.011 C 
HETATM   28  C11 UNL     1      14.277  31.782  15.895  1.00  0.00    -0.027 C 
BRANCH  28  29
HETATM   29  C12 UNL     1      14.156  32.361  14.567  1.00  0.00     0.053 C 
BRANCH  29  30
HETATM   30  C13 UNL     1      15.082  33.423  14.163  1.00  0.00     0.170 C 
BRANCH  30  31
HETATM   31  O1  UNL     1      14.598  34.633  13.813  1.00  0.00    -0.396 OA
HETATM   32  C14 UNL     1      15.559  35.612  13.770  1.00  0.00     0.201 C 
ENDBRANCH  30  31
ENDBRANCH  29  30
ENDBRANCH  28  29
ENDBRANCH  26  27
ENDBRANCH   5  26
TORSDOF 12
ENDMDL
MODEL 4
REMARK VINA RESULT: -6.404039088      1.764      2.710
REMARK  12 active torsions:
REMARK  status: ('A' for Active; 'I' for Inactive)
REMARK    1  A    between atoms: N1_2  and  C2_4 
REMARK    2  A    between atoms: C3_7  and  C4_8 
REMARK    3  A    between atoms: C4_8  and  C5_9 
REMARK    4  A    between atoms: C5_9  and  C6_10 
REMARK    5  A    between atoms: C6_10  and  N3_11 
REMARK    6  A    between atoms: N3_11  and  C7_13 
REMARK    7  A    between atoms: N5_17  and  C9_18 
REMARK    8  A    between atoms: C9_18  and  C10_19 
REMARK    9  A    between atoms: C11_20  and  C12_21 
REMARK   10  A    between atoms: C12_21  and  C13_22 
REMARK   11  A    between atoms: C13_22  and  O1_23 
REMARK   12  A    between atoms: C16_27  and  N7_28 
ROOT
HETATM    1  C7  UNL     1       9.121  33.089  16.156  1.00  0.00     0.132 A 
HETATM    2  N4  UNL     1       8.930  34.208  16.967  1.00  0.00    -0.337 N 
ATOM      3  H4  UNL     1       7.981  34.493  17.206  1.00  0.00     0.168 HD
HETATM    4  C8  UNL     1       9.962  34.916  17.437  1.00  0.00     0.186 A 
HETATM    5  N5  UNL     1      11.219  34.595  17.162  1.00  0.00    -0.326 N 
HETATM    6  C15 UNL     1      11.466  33.537  16.394  1.00  0.00     0.150 A 
HETATM    7  N6  UNL     1      12.794  33.149  16.067  1.00  0.00    -0.080 NA
HETATM    8  C16 UNL     1      10.415  32.754  15.870  1.00  0.00     0.114 A 
ENDROOT
BRANCH   1   9
HETATM    9  N3  UNL     1       8.091  32.501  15.761  1.00  0.00    -0.374 N 
ATOM     10  H3  UNL     1       8.075  31.519  16.036  1.00  0.00     0.161 HD
BRANCH   9  11
HETATM   11  C6  UNL     1       6.979  32.861  15.047  1.00  0.00     0.121 C 
BRANCH  11  12
HETATM   12  C5  UNL     1       6.207  31.657  14.466  1.00  0.00     0.026 C 
BRANCH  12  13
HETATM   13  C4  UNL     1       6.353  31.628  12.961  1.00  0.00     0.059 C 
BRANCH  13  14
HETATM   14  C3  UNL     1       7.523  30.698  12.696  1.00  0.00     0.018 A 
HETATM   15  N2  UNL     1       8.680  31.140  12.284  1.00  0.00    -0.340 N 
HETATM   16  C2  UNL     1       9.657  30.257  12.075  1.00  0.00     0.144 A 
ATOM     17  H2  UNL     1       8.833  32.135  12.127  1.00  0.00     0.168 HD
HETATM   18  S1  UNL     1       8.927  28.769  12.466  1.00  0.00    -0.064 SA
HETATM   19  C18 UNL     1       7.378  29.354  12.888  1.00  0.00     0.078 A 
BRANCH  16  20
HETATM   20  N1  UNL     1      10.888  30.469  11.666  1.00  0.00    -0.375 N 
HETATM   21  C1  UNL     1      11.542  29.471  10.865  1.00  0.00     0.148 C 
ATOM     22  H1  UNL     1      11.373  31.331  11.914  1.00  0.00     0.161 HD
ENDBRANCH  16  20
ENDBRANCH  13  14
ENDBRANCH  12  13
ENDBRANCH  11  12
ENDBRANCH   9  11
ENDBRANCH   1   9
BRANCH   8  23
HETATM   23  N7  UNL     1      10.734  31.636  15.074  1.00  0.00    -0.389 N 
HETATM   24  C17 UNL     1      10.837  30.268  15.573  1.00  0.00     0.146 C 
ATOM     25  H7  UNL     1      10.905  31.794  14.081  1.00  0.00     0.159 HD
ENDBRANCH   8  23
BRANCH   5  26
HETATM   26  C9  UNL     1      12.362  35.387  17.691  1.00  0.00     0.158 C 
BRANCH  26  27
HETATM   27  C10 UNL     1      12.395  36.710  17.044  1.00  0.00    -0.011 C 
HETATM   28  C11 UNL     1      13.426  37.704  17.191  1.00  0.00    -0.027 C 
BRANCH  28  29
HETATM   29  C12 UNL     1      14.837  37.591  16.859  1.00  0.00     0.053 C 
BRANCH  29  30
HETATM   30  C13 UNL     1      15.404  38.476  15.838  1.00  0.00     0.170 C 
BRANCH  30  31
HETATM   31  O1  UNL     1      15.106  39.792  15.854  1.00  0.00    -0.396 OA
HETATM   32  C14 UNL     1      16.078  40.563  16.439  1.00  0.00     0.201 C 
ENDBRANCH  30  31
ENDBRANCH  29  30
ENDBRANCH  28  29
ENDBRANCH  26  27
ENDBRANCH   5  26
TORSDOF 12
ENDMDL
MODEL 5
REMARK VINA RESULT: -6.237984592      3.305      7.353
REMARK  12 active torsions:
REMARK  status: ('A' for Active; 'I' for Inactive)
REMARK    1  A    between atoms: N1_2  and  C2_4 
REMARK    2  A    between atoms: C3_7  and  C4_8 
REMARK    3  A    between atoms: C4_8  and  C5_9 
REMARK    4  A    between atoms: C5_9  and  C6_10 
REMARK    5  A    between atoms: C6_10  and  N3_11 
REMARK    6  A    between atoms: N3_11  and  C7_13 
REMARK    7  A    between atoms: N5_17  and  C9_18 
REMARK    8  A    between atoms: C9_18  and  C10_19 
REMARK    9  A    between atoms: C11_20  and  C12_21 
REMARK   10  A    between atoms: C12_21  and  C13_22 
REMARK   11  A    between atoms: C13_22  and  O1_23 
REMARK   12  A    between atoms: C16_27  and  N7_28 
ROOT
HETATM    1  C7  UNL     1      11.482  31.286  16.356  1.00  0.00     0.132 A 
HETATM    2  N4  UNL     1      10.537  30.443  15.771  1.00  0.00    -0.337 N 
ATOM      3  H4  UNL     1      10.796  29.482  15.552  1.00  0.00     0.168 HD
HETATM    4  C8  UNL     1       9.300  30.866  15.490  1.00  0.00     0.186 A 
HETATM    5  N5  UNL     1       8.904  32.104  15.751  1.00  0.00    -0.326 N 
HETATM    6  C15 UNL     1       9.760  32.956  16.310  1.00  0.00     0.150 A 
HETATM    7  N6  UNL     1       9.389  34.295  16.611  1.00  0.00    -0.080 NA
HETATM    8  C16 UNL     1      11.078  32.564  16.628  1.00  0.00     0.114 A 
ENDROOT
BRANCH   1   9
HETATM    9  N3  UNL     1      12.612  30.797  16.571  1.00  0.00    -0.374 N 
ATOM     10  H3  UNL     1      12.725  30.491  17.538  1.00  0.00     0.161 HD
BRANCH   9  11
HETATM   11  C6  UNL     1      13.734  30.573  15.818  1.00  0.00     0.121 C 
BRANCH  11  12
HETATM   12  C5  UNL     1      14.585  31.841  15.594  1.00  0.00     0.026 C 
BRANCH  12  13
HETATM   13  C4  UNL     1      14.186  32.508  14.297  1.00  0.00     0.059 C 
BRANCH  13  14
HETATM   14  C3  UNL     1      15.093  33.718  14.180  1.00  0.00     0.018 A 
HETATM   15  N2  UNL     1      14.670  34.929  14.425  1.00  0.00    -0.340 N 
HETATM   16  C2  UNL     1      15.532  35.939  14.299  1.00  0.00     0.144 A 
ATOM     17  H2  UNL     1      13.705  35.097  14.706  1.00  0.00     0.168 HD
HETATM   18  S1  UNL     1      16.971  35.164  13.822  1.00  0.00    -0.064 SA
HETATM   19  C18 UNL     1      16.396  33.555  13.806  1.00  0.00     0.078 A 
BRANCH  16  20
HETATM   20  N1  UNL     1      15.332  37.224  14.492  1.00  0.00    -0.375 N 
HETATM   21  C1  UNL     1      15.985  37.876  15.593  1.00  0.00     0.148 C 
ATOM     22  H1  UNL     1      14.721  37.750  13.867  1.00  0.00     0.161 HD
ENDBRANCH  16  20
ENDBRANCH  13  14
ENDBRANCH  12  13
ENDBRANCH  11  12
ENDBRANCH   9  11
ENDBRANCH   1   9
BRANCH   8  23
HETATM   23  N7  UNL     1      11.938  33.502  17.231  1.00  0.00    -0.389 N 
HETATM   24  C17 UNL     1      12.207  33.575  18.664  1.00  0.00     0.146 C 
ATOM     25  H7  UNL     1      12.405  34.176  16.625  1.00  0.00     0.159 HD
ENDBRANCH   8  23
BRANCH   5  26
HETATM   26  C9  UNL     1       7.525  32.567  15.437  1.00  0.00     0.158 C 
BRANCH  26  27
HETATM   27  C10 UNL     1       6.616  31.411  15.362  1.00  0.00    -0.011 C 
HETATM   28  C11 UNL     1       5.691  31.123  14.298  1.00  0.00    -0.027 C 
BRANCH  28  29
HETATM   29  C12 UNL     1       5.983  30.887  12.893  1.00  0.00     0.053 C 
BRANCH  29  30
HETATM   30  C13 UNL     1       7.134  30.055  12.533  1.00  0.00     0.170 C 
BRANCH  30  31
HETATM   31  O1  UNL     1       8.306  30.640  12.208  1.00  0.00    -0.396 OA
HETATM   32  C14 UNL     1       9.319  29.742  11.981  1.00  0.00     0.201 C 
ENDBRANCH  30  31
ENDBRANCH  29  30
ENDBRANCH  28  29
ENDBRANCH  26  27
ENDBRANCH   5  26
TORSDOF 12
ENDMDL
