MODEL 1
REMARK VINA RESULT: -5.105231936      0.000      0.000
REMARK  2 active torsions:
REMARK  status: ('A' for Active; 'I' for Inactive)
REMARK    1  A    between atoms: C2_2  and  C3_3 
REMARK    2  A    between atoms: C4_7  and  N2_9 
ROOT
HETATM    1  C3  UNL     1      50.376 -50.979  17.591  1.00  0.00     0.323 C 
HETATM    2  N1  UNL     1      51.055 -51.062  16.339  1.00  0.00    -0.015 N 
ATOM      3  H11 UNL     1      50.966 -50.205  15.793  1.00  0.00     0.283 HD
ATOM      4  H12 UNL     1      50.592 -51.696  15.688  1.00  0.00     0.283 HD
HETATM    5  C4  UNL     1      52.418 -51.419  16.569  1.00  0.00     0.285 C 
HETATM    6  C5  UNL     1      53.257 -51.431  15.314  1.00  0.00     0.078 C 
HETATM    7  C6  UNL     1      52.990 -50.473  17.591  1.00  0.00     0.095 C 
HETATM    8  C7  UNL     1      52.013 -49.373  17.844  1.00  0.00     0.174 C 
HETATM    9  O1  UNL     1      50.765 -49.829  18.250  1.00  0.00    -0.359 OA
ENDROOT
BRANCH   5  10
HETATM   10  N2  UNL     1      52.492 -52.758  17.138  1.00  0.00    -0.045 N 
ATOM     11  H23 UNL     1      53.438 -52.994  17.440  1.00  0.00     0.277 HD
ATOM     12  H22 UNL     1      52.028 -52.814  18.045  1.00  0.00     0.277 HD
ATOM     13  H21 UNL     1      52.120 -53.439  16.475  1.00  0.00     0.277 HD
ENDBRANCH   5  10
BRANCH   1  14
HETATM   14  C2  UNL     1      48.865 -51.087  17.463  1.00  0.00     0.057 C 
HETATM   15  C1  UNL     1      48.181 -49.946  18.177  1.00  0.00     0.009 C 
ENDBRANCH   1  14
TORSDOF 2
ENDMDL
MODEL 2
REMARK VINA RESULT: -4.821440599      1.723      2.301
REMARK  2 active torsions:
REMARK  status: ('A' for Active; 'I' for Inactive)
REMARK    1  A    between atoms: C2_2  and  C3_3 
REMARK    2  A    between atoms: C4_7  and  N2_9 
ROOT
HETATM    1  C3  UNL     1      49.564 -51.292  17.504  1.00  0.00     0.323 C 
HETATM    2  N1  UNL     1      50.674 -50.665  18.144  1.00  0.00    -0.015 N 
ATOM      3  H11 UNL     1      50.701 -50.855  19.146  1.00  0.00     0.283 HD
ATOM      4  H12 UNL     1      50.572 -49.651  18.192  1.00  0.00     0.283 HD
HETATM    5  C4  UNL     1      51.878 -51.060  17.485  1.00  0.00     0.285 C 
HETATM    6  C5  UNL     1      53.128 -50.536  18.151  1.00  0.00     0.078 C 
HETATM    7  C6  UNL     1      51.902 -52.563  17.402  1.00  0.00     0.095 C 
HETATM    8  C7  UNL     1      50.780 -53.118  18.216  1.00  0.00     0.174 C 
HETATM    9  O1  UNL     1      49.534 -52.631  17.841  1.00  0.00    -0.359 OA
ENDROOT
BRANCH   5  10
HETATM   10  N2  UNL     1      51.885 -50.556  16.119  1.00  0.00    -0.045 N 
ATOM     11  H23 UNL     1      52.415 -51.160  15.491  1.00  0.00     0.277 HD
ATOM     12  H22 UNL     1      50.971 -50.645  15.674  1.00  0.00     0.277 HD
ATOM     13  H21 UNL     1      52.226 -49.594  16.104  1.00  0.00     0.277 HD
ENDBRANCH   5  10
BRANCH   1  14
HETATM   14  C2  UNL     1      48.240 -50.598  17.783  1.00  0.00     0.057 C 
HETATM   15  C1  UNL     1      48.462 -49.163  18.199  1.00  0.00     0.009 C 
ENDBRANCH   1  14
TORSDOF 2
ENDMDL
MODEL 3
REMARK VINA RESULT: -4.498331383      1.839      3.943
REMARK  2 active torsions:
REMARK  status: ('A' for Active; 'I' for Inactive)
REMARK    1  A    between atoms: C2_2  and  C3_3 
REMARK    2  A    between atoms: C4_7  and  N2_9 
ROOT
HETATM    1  C3  UNL     1      51.485 -51.692  16.725  1.00  0.00     0.323 C 
HETATM    2  N1  UNL     1      50.113 -51.344  16.550  1.00  0.00    -0.015 N 
ATOM      3  H11 UNL     1      49.554 -52.128  16.211  1.00  0.00     0.283 HD
ATOM      4  H12 UNL     1      49.970 -50.713  15.760  1.00  0.00     0.283 HD
HETATM    5  C4  UNL     1      49.606 -50.806  17.773  1.00  0.00     0.285 C 
HETATM    6  C5  UNL     1      48.128 -50.502  17.730  1.00  0.00     0.078 C 
HETATM    7  C6  UNL     1      49.926 -51.772  18.883  1.00  0.00     0.095 C 
HETATM    8  C7  UNL     1      50.461 -53.036  18.297  1.00  0.00     0.174 C 
HETATM    9  O1  UNL     1      51.574 -52.840  17.489  1.00  0.00    -0.359 OA
ENDROOT
BRANCH   5  10
HETATM   10  N2  UNL     1      50.286 -49.556  18.085  1.00  0.00    -0.045 N 
ATOM     11  H23 UNL     1      49.629 -48.811  18.317  1.00  0.00     0.277 HD
ATOM     12  H22 UNL     1      50.780 -49.601  18.975  1.00  0.00     0.277 HD
ATOM     13  H21 UNL     1      50.905 -49.295  17.316  1.00  0.00     0.277 HD
ENDBRANCH   5  10
BRANCH   1  14
HETATM   14  C2  UNL     1      52.246 -51.811  15.415  1.00  0.00     0.057 C 
HETATM   15  C1  UNL     1      53.609 -51.170  15.525  1.00  0.00     0.009 C 
ENDBRANCH   1  14
TORSDOF 2
ENDMDL
MODEL 4
REMARK VINA RESULT: -4.276867603      1.549      1.910
REMARK  2 active torsions:
REMARK  status: ('A' for Active; 'I' for Inactive)
REMARK    1  A    between atoms: C2_2  and  C3_3 
REMARK    2  A    between atoms: C4_7  and  N2_9 
ROOT
HETATM    1  C3  UNL     1      49.344 -51.088  17.712  1.00  0.00     0.323 C 
HETATM    2  N1  UNL     1      50.498 -50.350  17.310  1.00  0.00    -0.015 N 
ATOM      3  H11 UNL     1      50.919 -49.838  18.085  1.00  0.00     0.283 HD
ATOM      4  H12 UNL     1      50.261 -49.551  16.721  1.00  0.00     0.283 HD
HETATM    5  C4  UNL     1      51.423 -51.236  16.677  1.00  0.00     0.285 C 
HETATM    6  C5  UNL     1      52.729 -50.576  16.307  1.00  0.00     0.078 C 
HETATM    7  C6  UNL     1      51.652 -52.411  17.590  1.00  0.00     0.095 C 
HETATM    8  C7  UNL     1      51.010 -52.142  18.911  1.00  0.00     0.174 C 
HETATM    9  O1  UNL     1      49.654 -51.859  18.815  1.00  0.00    -0.359 OA
ENDROOT
BRANCH   5  10
HETATM   10  N2  UNL     1      50.848 -51.757  15.445  1.00  0.00    -0.045 N 
ATOM     11  H23 UNL     1      49.829 -51.705  15.446  1.00  0.00     0.277 HD
ATOM     12  H22 UNL     1      51.027 -51.143  14.650  1.00  0.00     0.277 HD
ATOM     13  H21 UNL     1      51.183 -52.706  15.279  1.00  0.00     0.277 HD
ENDBRANCH   5  10
BRANCH   1  14
HETATM   14  C2  UNL     1      48.123 -50.213  17.944  1.00  0.00     0.057 C 
HETATM   15  C1  UNL     1      48.530 -48.805  18.305  1.00  0.00     0.009 C 
ENDBRANCH   1  14
TORSDOF 2
ENDMDL
MODEL 5
REMARK VINA RESULT: -4.153446682      1.530      2.279
REMARK  2 active torsions:
REMARK  status: ('A' for Active; 'I' for Inactive)
REMARK    1  A    between atoms: C2_2  and  C3_3 
REMARK    2  A    between atoms: C4_7  and  N2_9 
ROOT
HETATM    1  C3  UNL     1      49.979 -50.706  17.187  1.00  0.00     0.323 C 
HETATM    2  N1  UNL     1      50.986 -51.099  18.119  1.00  0.00    -0.015 N 
ATOM      3  H11 UNL     1      51.061 -52.113  18.203  1.00  0.00     0.283 HD
ATOM      4  H12 UNL     1      50.723 -50.893  19.083  1.00  0.00     0.283 HD
HETATM    5  C4  UNL     1      52.226 -50.492  17.752  1.00  0.00     0.285 C 
HETATM    6  C5  UNL     1      53.387 -50.928  18.614  1.00  0.00     0.078 C 
HETATM    7  C6  UNL     1      52.489 -50.793  16.301  1.00  0.00     0.095 C 
HETATM    8  C7  UNL     1      51.486 -51.786  15.814  1.00  0.00     0.174 C 
HETATM    9  O1  UNL     1      50.172 -51.374  15.994  1.00  0.00    -0.359 OA
ENDROOT
BRANCH   5  10
HETATM   10  N2  UNL     1      52.126 -49.044  17.878  1.00  0.00    -0.045 N 
ATOM     11  H23 UNL     1      52.919 -48.568  17.446  1.00  0.00     0.277 HD
ATOM     12  H22 UNL     1      51.385 -48.660  17.292  1.00  0.00     0.277 HD
ATOM     13  H21 UNL     1      52.012 -48.787  18.859  1.00  0.00     0.277 HD
ENDBRANCH   5  10
BRANCH   1  14
HETATM   14  C2  UNL     1      48.566 -50.876  17.722  1.00  0.00     0.057 C 
HETATM   15  C1  UNL     1      48.056 -49.584  18.313  1.00  0.00     0.009 C 
ENDBRANCH   1  14
TORSDOF 2
ENDMDL
