MODEL 1
REMARK VINA RESULT: -5.094125195      0.000      0.000
REMARK  1 active torsions:
REMARK  status: ('A' for Active; 'I' for Inactive)
REMARK    1  A    between atoms: C6_6  and  O1_7 
ROOT
HETATM    1  C1  UNL     1      -3.673  36.091 -16.821  1.00  0.00     0.039 C 
HETATM    2  C2  UNL     1      -2.165  36.218 -16.597  1.00  0.00     0.120 C 
HETATM    3  C3  UNL     1      -1.916  36.434 -15.143  1.00  0.00     0.032 C 
HETATM    4  C4  UNL     1      -0.615  35.920 -14.630  1.00  0.00     0.007 C 
HETATM    5  C5  UNL     1      -0.016  34.795 -15.390  1.00  0.00     0.060 C 
HETATM    6  C6  UNL     1      -0.484  34.589 -16.767  1.00  0.00     0.257 C 
HETATM    7  O2  UNL     1      -1.576  35.203 -17.209  1.00  0.00    -0.357 OA
ENDROOT
BRANCH   6   8
HETATM    8  O1  UNL     1       0.576  34.935 -17.648  1.00  0.00    -0.371 OA
ATOM      9  H1  UNL     1       1.367  35.033 -17.132  1.00  0.00     0.212 HD
ENDBRANCH   6   8
TORSDOF 1
ENDMDL
MODEL 2
REMARK VINA RESULT: -5.018271105      1.142      2.926
REMARK  1 active torsions:
REMARK  status: ('A' for Active; 'I' for Inactive)
REMARK    1  A    between atoms: C6_6  and  O1_7 
ROOT
HETATM    1  C1  UNL     1       0.336  34.616 -16.938  1.00  0.00     0.039 C 
HETATM    2  C2  UNL     1      -1.001  34.933 -16.266  1.00  0.00     0.120 C 
HETATM    3  C3  UNL     1      -0.740  35.751 -15.047  1.00  0.00     0.032 C 
HETATM    4  C4  UNL     1      -1.826  36.695 -14.661  1.00  0.00     0.007 C 
HETATM    5  C5  UNL     1      -2.711  37.151 -15.761  1.00  0.00     0.060 C 
HETATM    6  C6  UNL     1      -2.741  36.336 -16.982  1.00  0.00     0.257 C 
HETATM    7  O2  UNL     1      -1.822  35.400 -17.193  1.00  0.00    -0.357 OA
ENDROOT
BRANCH   6   8
HETATM    8  O1  UNL     1      -4.010  35.700 -17.056  1.00  0.00    -0.371 OA
ATOM      9  H1  UNL     1      -4.656  36.289 -16.685  1.00  0.00     0.212 HD
ENDBRANCH   6   8
TORSDOF 1
ENDMDL
MODEL 3
REMARK VINA RESULT: -4.844183315      1.316      1.796
REMARK  1 active torsions:
REMARK  status: ('A' for Active; 'I' for Inactive)
REMARK    1  A    between atoms: C6_6  and  O1_7 
ROOT
HETATM    1  C1  UNL     1      -3.098  37.023 -14.373  1.00  0.00     0.039 C 
HETATM    2  C2  UNL     1      -2.008  36.699 -15.396  1.00  0.00     0.120 C 
HETATM    3  C3  UNL     1      -0.867  36.051 -14.688  1.00  0.00     0.032 C 
HETATM    4  C4  UNL     1      -0.070  35.088 -15.500  1.00  0.00     0.007 C 
HETATM    5  C5  UNL     1      -0.784  34.446 -16.631  1.00  0.00     0.060 C 
HETATM    6  C6  UNL     1      -2.001  35.106 -17.120  1.00  0.00     0.257 C 
HETATM    7  O2  UNL     1      -2.579  36.071 -16.411  1.00  0.00    -0.357 OA
ENDROOT
BRANCH   6   8
HETATM    8  O1  UNL     1      -1.724  35.642 -18.407  1.00  0.00    -0.371 OA
ATOM      9  H1  UNL     1      -2.050  36.534 -18.430  1.00  0.00     0.212 HD
ENDBRANCH   6   8
TORSDOF 1
ENDMDL
MODEL 4
REMARK VINA RESULT: -4.802988330      2.238      3.310
REMARK  1 active torsions:
REMARK  status: ('A' for Active; 'I' for Inactive)
REMARK    1  A    between atoms: C6_6  and  O1_7 
ROOT
HETATM    1  C1  UNL     1      -2.872  35.898 -18.240  1.00  0.00     0.039 C 
HETATM    2  C2  UNL     1      -2.982  36.020 -16.719  1.00  0.00     0.120 C 
HETATM    3  C3  UNL     1      -1.700  35.562 -16.111  1.00  0.00     0.032 C 
HETATM    4  C4  UNL     1      -1.339  36.200 -14.814  1.00  0.00     0.007 C 
HETATM    5  C5  UNL     1      -1.904  37.551 -14.575  1.00  0.00     0.060 C 
HETATM    6  C6  UNL     1      -3.073  37.942 -15.375  1.00  0.00     0.257 C 
HETATM    7  O2  UNL     1      -3.431  37.233 -16.440  1.00  0.00    -0.357 OA
ENDROOT
BRANCH   6   8
HETATM    8  O1  UNL     1      -4.200  37.995 -14.510  1.00  0.00    -0.371 OA
ATOM      9  H1  UNL     1      -4.014  38.625 -13.824  1.00  0.00     0.212 HD
ENDBRANCH   6   8
TORSDOF 1
ENDMDL
MODEL 5
REMARK VINA RESULT: -4.645598440      2.275      2.979
REMARK  1 active torsions:
REMARK  status: ('A' for Active; 'I' for Inactive)
REMARK    1  A    between atoms: C6_6  and  O1_7 
ROOT
HETATM    1  C1  UNL     1      -1.558  36.854 -14.691  1.00  0.00     0.039 C 
HETATM    2  C2  UNL     1      -0.813  35.522 -14.796  1.00  0.00     0.120 C 
HETATM    3  C3  UNL     1      -0.820  35.083 -16.221  1.00  0.00     0.032 C 
HETATM    4  C4  UNL     1       0.346  34.259 -16.646  1.00  0.00     0.007 C 
HETATM    5  C5  UNL     1       1.596  34.455 -15.871  1.00  0.00     0.060 C 
HETATM    6  C6  UNL     1       1.474  35.063 -14.539  1.00  0.00     0.257 C 
HETATM    7  O2  UNL     1       0.343  35.653 -14.167  1.00  0.00    -0.357 OA
ENDROOT
BRANCH   6   8
HETATM    8  O1  UNL     1       1.762  34.062 -13.571  1.00  0.00    -0.371 OA
ATOM      9  H1  UNL     1       1.938  34.496 -12.745  1.00  0.00     0.212 HD
ENDBRANCH   6   8
TORSDOF 1
ENDMDL
