MODEL 1
REMARK VINA RESULT: -5.904904918      0.000      0.000
REMARK  12 active torsions:
REMARK  status: ('A' for Active; 'I' for Inactive)
REMARK    1  A    between atoms: C2_2  and  C3_3 
REMARK    2  A    between atoms: C3_3  and  N1_4 
REMARK    3  A    between atoms: N1_4  and  C4_7 
REMARK    4  A    between atoms: C4_7  and  C5_8 
REMARK    5  A    between atoms: C4_7  and  C10_13 
REMARK    6  A    between atoms: C5_8  and  C6_9 
REMARK    7  A    between atoms: C6_9  and  C7_10 
REMARK    8  A    between atoms: C7_10  and  C8_11 
REMARK    9  A    between atoms: C10_13  and  C11_14 
REMARK   10  A    between atoms: C11_14  and  C12_15 
REMARK   11  A    between atoms: C12_15  and  C13_16 
REMARK   12  A    between atoms: C13_16  and  C14_17 
ROOT
HETATM    1  C4  UNL     1       2.805   0.641   7.259  1.00  0.00     0.186 C 
ENDROOT
BRANCH   1   2
HETATM    2  N1  UNL     1       3.436   0.808   8.551  1.00  0.00    -0.068 N 
ATOM      3  H12 UNL     1       2.752   0.896   9.303  1.00  0.00     0.277 HD
ATOM      4  H11 UNL     1       3.879   1.723   8.646  1.00  0.00     0.277 HD
BRANCH   2   5
HETATM    5  C3  UNL     1       4.357  -0.263   8.784  1.00  0.00     0.259 C 
BRANCH   5   6
HETATM    6  C2  UNL     1       3.777  -1.075   9.919  1.00  0.00    -0.010 C 
HETATM    7  C1  UNL     1       3.238  -2.256   9.717  1.00  0.00     0.008 C 
ENDBRANCH   5   6
ENDBRANCH   2   5
ENDBRANCH   1   2
BRANCH   1   8
HETATM    8  C5  UNL     1       1.436  -0.033   7.416  1.00  0.00     0.033 C 
BRANCH   8   9
HETATM    9  C6  UNL     1       0.680   0.522   8.612  1.00  0.00     0.002 C 
BRANCH   9  10
HETATM   10  C7  UNL     1       0.021  -0.617   9.384  1.00  0.00    -0.000 C 
BRANCH  10  11
HETATM   11  C8  UNL     1       0.072  -0.436  10.866  1.00  0.00    -0.005 C 
HETATM   12  C9  UNL     1       0.832   0.849  11.168  1.00  0.00     0.005 C 
ENDBRANCH  10  11
ENDBRANCH   9  10
ENDBRANCH   8   9
ENDBRANCH   1   8
BRANCH   1  13
HETATM   13  C10 UNL     1       3.641  -0.244   6.404  1.00  0.00     0.033 C 
BRANCH  13  14
HETATM   14  C11 UNL     1       4.374   0.505   5.281  1.00  0.00     0.002 C 
BRANCH  14  15
HETATM   15  C12 UNL     1       4.645  -0.435   4.174  1.00  0.00     0.000 C 
BRANCH  15  16
HETATM   16  C13 UNL     1       5.647  -0.009   3.194  1.00  0.00     0.004 C 
BRANCH  16  17
HETATM   17  C14 UNL     1       7.082  -0.174   3.343  1.00  0.00    -0.014 A 
HETATM   18  C15 UNL     1       7.963  -0.458   2.150  1.00  0.00     0.005 A 
HETATM   19  C16 UNL     1       8.094   0.809   2.881  1.00  0.00     0.005 A 
ENDBRANCH  16  17
ENDBRANCH  15  16
ENDBRANCH  14  15
ENDBRANCH  13  14
ENDBRANCH   1  13
TORSDOF 12
ENDMDL
MODEL 2
REMARK VINA RESULT: -5.800220039      0.919      1.249
REMARK  12 active torsions:
REMARK  status: ('A' for Active; 'I' for Inactive)
REMARK    1  A    between atoms: C2_2  and  C3_3 
REMARK    2  A    between atoms: C3_3  and  N1_4 
REMARK    3  A    between atoms: N1_4  and  C4_7 
REMARK    4  A    between atoms: C4_7  and  C5_8 
REMARK    5  A    between atoms: C4_7  and  C10_13 
REMARK    6  A    between atoms: C5_8  and  C6_9 
REMARK    7  A    between atoms: C6_9  and  C7_10 
REMARK    8  A    between atoms: C7_10  and  C8_11 
REMARK    9  A    between atoms: C10_13  and  C11_14 
REMARK   10  A    between atoms: C11_14  and  C12_15 
REMARK   11  A    between atoms: C12_15  and  C13_16 
REMARK   12  A    between atoms: C13_16  and  C14_17 
ROOT
HETATM    1  C4  UNL     1       4.059   0.794   7.716  1.00  0.00     0.186 C 
ENDROOT
BRANCH   1   2
HETATM    2  N1  UNL     1       4.596  -0.368   8.392  1.00  0.00    -0.068 N 
ATOM      3  H12 UNL     1       5.616  -0.369   8.402  1.00  0.00     0.277 HD
ATOM      4  H11 UNL     1       4.453  -1.224   7.857  1.00  0.00     0.277 HD
BRANCH   2   5
HETATM    5  C3  UNL     1       4.046  -0.459   9.711  1.00  0.00     0.259 C 
BRANCH   5   6
HETATM    6  C2  UNL     1       3.436  -1.837   9.816  1.00  0.00    -0.010 C 
HETATM    7  C1  UNL     1       3.084  -2.518   8.749  1.00  0.00     0.008 C 
ENDBRANCH   5   6
ENDBRANCH   2   5
ENDBRANCH   1   2
BRANCH   1   8
HETATM    8  C5  UNL     1       2.713   1.196   8.332  1.00  0.00     0.033 C 
BRANCH   8   9
HETATM    9  C6  UNL     1       1.564   0.928   7.374  1.00  0.00     0.002 C 
BRANCH   9  10
HETATM   10  C7  UNL     1       0.483   0.112   8.076  1.00  0.00    -0.000 C 
BRANCH  10  11
HETATM   11  C8  UNL     1       0.505   0.254   9.563  1.00  0.00    -0.005 C 
HETATM   12  C9  UNL     1      -0.172  -0.966  10.173  1.00  0.00     0.005 C 
ENDBRANCH  10  11
ENDBRANCH   9  10
ENDBRANCH   8   9
ENDBRANCH   1   8
BRANCH   1  13
HETATM   13  C10 UNL     1       3.815   0.472   6.284  1.00  0.00     0.033 C 
BRANCH  13  14
HETATM   14  C11 UNL     1       4.724  -0.641   5.742  1.00  0.00     0.002 C 
BRANCH  14  15
HETATM   15  C12 UNL     1       4.505  -0.775   4.288  1.00  0.00     0.000 C 
BRANCH  15  16
HETATM   16  C13 UNL     1       5.446  -0.060   3.423  1.00  0.00     0.004 C 
BRANCH  16  17
HETATM   17  C14 UNL     1       6.893  -0.162   3.501  1.00  0.00    -0.014 A 
HETATM   18  C15 UNL     1       7.716  -0.526   2.288  1.00  0.00     0.005 A 
HETATM   19  C16 UNL     1       7.838   0.807   2.893  1.00  0.00     0.005 A 
ENDBRANCH  16  17
ENDBRANCH  15  16
ENDBRANCH  14  15
ENDBRANCH  13  14
ENDBRANCH   1  13
TORSDOF 12
ENDMDL
MODEL 3
REMARK VINA RESULT: -5.714411477      1.236      1.553
REMARK  12 active torsions:
REMARK  status: ('A' for Active; 'I' for Inactive)
REMARK    1  A    between atoms: C2_2  and  C3_3 
REMARK    2  A    between atoms: C3_3  and  N1_4 
REMARK    3  A    between atoms: N1_4  and  C4_7 
REMARK    4  A    between atoms: C4_7  and  C5_8 
REMARK    5  A    between atoms: C4_7  and  C10_13 
REMARK    6  A    between atoms: C5_8  and  C6_9 
REMARK    7  A    between atoms: C6_9  and  C7_10 
REMARK    8  A    between atoms: C7_10  and  C8_11 
REMARK    9  A    between atoms: C10_13  and  C11_14 
REMARK   10  A    between atoms: C11_14  and  C12_15 
REMARK   11  A    between atoms: C12_15  and  C13_16 
REMARK   12  A    between atoms: C13_16  and  C14_17 
ROOT
HETATM    1  C4  UNL     1       2.996   0.022   7.327  1.00  0.00     0.186 C 
ENDROOT
BRANCH   1   2
HETATM    2  N1  UNL     1       2.071  -1.026   6.952  1.00  0.00    -0.068 N 
ATOM      3  H12 UNL     1       2.405  -1.564   6.152  1.00  0.00     0.277 HD
ATOM      4  H11 UNL     1       1.218  -0.654   6.534  1.00  0.00     0.277 HD
BRANCH   2   5
HETATM    5  C3  UNL     1       1.797  -1.860   8.084  1.00  0.00     0.259 C 
BRANCH   5   6
HETATM    6  C2  UNL     1       3.137  -2.170   8.710  1.00  0.00    -0.010 C 
HETATM    7  C1  UNL     1       3.293  -2.225  10.013  1.00  0.00     0.008 C 
ENDBRANCH   5   6
ENDBRANCH   2   5
ENDBRANCH   1   2
BRANCH   1   8
HETATM    8  C5  UNL     1       2.232   1.260   7.816  1.00  0.00     0.033 C 
BRANCH   8   9
HETATM    9  C6  UNL     1       2.464   1.504   9.297  1.00  0.00     0.002 C 
BRANCH   9  10
HETATM   10  C7  UNL     1       1.162   1.303  10.067  1.00  0.00    -0.000 C 
BRANCH  10  11
HETATM   11  C8  UNL     1       1.334   0.522  11.329  1.00  0.00    -0.005 C 
HETATM   12  C9  UNL     1       0.257  -0.553  11.380  1.00  0.00     0.005 C 
ENDBRANCH  10  11
ENDBRANCH   9  10
ENDBRANCH   8   9
ENDBRANCH   1   8
BRANCH   1  13
HETATM   13  C10 UNL     1       3.797   0.432   6.144  1.00  0.00     0.033 C 
BRANCH  13  14
HETATM   14  C11 UNL     1       4.732  -0.670   5.624  1.00  0.00     0.002 C 
BRANCH  14  15
HETATM   15  C12 UNL     1       4.610  -0.752   4.155  1.00  0.00     0.000 C 
BRANCH  15  16
HETATM   16  C13 UNL     1       5.560   0.052   3.381  1.00  0.00     0.004 C 
BRANCH  16  17
HETATM   17  C14 UNL     1       7.005  -0.070   3.451  1.00  0.00    -0.014 A 
HETATM   18  C15 UNL     1       7.803  -0.574   2.272  1.00  0.00     0.005 A 
HETATM   19  C16 UNL     1       7.959   0.812   2.733  1.00  0.00     0.005 A 
ENDBRANCH  16  17
ENDBRANCH  15  16
ENDBRANCH  14  15
ENDBRANCH  13  14
ENDBRANCH   1  13
TORSDOF 12
ENDMDL
MODEL 4
REMARK VINA RESULT: -5.698505404      1.226      2.405
REMARK  12 active torsions:
REMARK  status: ('A' for Active; 'I' for Inactive)
REMARK    1  A    between atoms: C2_2  and  C3_3 
REMARK    2  A    between atoms: C3_3  and  N1_4 
REMARK    3  A    between atoms: N1_4  and  C4_7 
REMARK    4  A    between atoms: C4_7  and  C5_8 
REMARK    5  A    between atoms: C4_7  and  C10_13 
REMARK    6  A    between atoms: C5_8  and  C6_9 
REMARK    7  A    between atoms: C6_9  and  C7_10 
REMARK    8  A    between atoms: C7_10  and  C8_11 
REMARK    9  A    between atoms: C10_13  and  C11_14 
REMARK   10  A    between atoms: C11_14  and  C12_15 
REMARK   11  A    between atoms: C12_15  and  C13_16 
REMARK   12  A    between atoms: C13_16  and  C14_17 
ROOT
HETATM    1  C4  UNL     1       4.062  -1.090   7.327  1.00  0.00     0.186 C 
ENDROOT
BRANCH   1   2
HETATM    2  N1  UNL     1       2.822  -0.538   6.825  1.00  0.00    -0.068 N 
ATOM      3  H12 UNL     1       2.006  -1.012   7.212  1.00  0.00     0.277 HD
ATOM      4  H11 UNL     1       2.672  -0.764   5.841  1.00  0.00     0.277 HD
BRANCH   2   5
HETATM    5  C3  UNL     1       2.787   0.874   7.064  1.00  0.00     0.259 C 
BRANCH   5   6
HETATM    6  C2  UNL     1       1.364   1.198   7.452  1.00  0.00    -0.010 C 
HETATM    7  C1  UNL     1       0.493   0.253   7.731  1.00  0.00     0.008 C 
ENDBRANCH   5   6
ENDBRANCH   2   5
ENDBRANCH   1   2
BRANCH   1   8
HETATM    8  C5  UNL     1       4.120  -0.972   8.856  1.00  0.00     0.033 C 
BRANCH   8   9
HETATM    9  C6  UNL     1       3.274  -2.043   9.525  1.00  0.00     0.002 C 
BRANCH   9  10
HETATM   10  C7  UNL     1       2.180  -1.391  10.365  1.00  0.00    -0.000 C 
BRANCH  10  11
HETATM   11  C8  UNL     1       2.494   0.016  10.758  1.00  0.00    -0.005 C 
HETATM   12  C9  UNL     1       1.255   0.624  11.400  1.00  0.00     0.005 C 
ENDBRANCH  10  11
ENDBRANCH   9  10
ENDBRANCH   8   9
ENDBRANCH   1   8
BRANCH   1  13
HETATM   13  C10 UNL     1       5.212  -0.322   6.778  1.00  0.00     0.033 C 
BRANCH  13  14
HETATM   14  C11 UNL     1       6.033  -1.105   5.742  1.00  0.00     0.002 C 
BRANCH  14  15
HETATM   15  C12 UNL     1       5.434  -0.907   4.406  1.00  0.00     0.000 C 
BRANCH  15  16
HETATM   16  C13 UNL     1       6.140   0.013   3.511  1.00  0.00     0.004 C 
BRANCH  16  17
HETATM   17  C14 UNL     1       7.583   0.103   3.377  1.00  0.00    -0.014 A 
HETATM   18  C15 UNL     1       8.274  -0.293   2.094  1.00  0.00     0.005 A 
HETATM   19  C16 UNL     1       8.289   1.106   2.542  1.00  0.00     0.005 A 
ENDBRANCH  16  17
ENDBRANCH  15  16
ENDBRANCH  14  15
ENDBRANCH  13  14
ENDBRANCH   1  13
TORSDOF 12
ENDMDL
MODEL 5
REMARK VINA RESULT: -5.644288376      0.973      1.449
REMARK  12 active torsions:
REMARK  status: ('A' for Active; 'I' for Inactive)
REMARK    1  A    between atoms: C2_2  and  C3_3 
REMARK    2  A    between atoms: C3_3  and  N1_4 
REMARK    3  A    between atoms: N1_4  and  C4_7 
REMARK    4  A    between atoms: C4_7  and  C5_8 
REMARK    5  A    between atoms: C4_7  and  C10_13 
REMARK    6  A    between atoms: C5_8  and  C6_9 
REMARK    7  A    between atoms: C6_9  and  C7_10 
REMARK    8  A    between atoms: C7_10  and  C8_11 
REMARK    9  A    between atoms: C10_13  and  C11_14 
REMARK   10  A    between atoms: C11_14  and  C12_15 
REMARK   11  A    between atoms: C12_15  and  C13_16 
REMARK   12  A    between atoms: C13_16  and  C14_17 
ROOT
HETATM    1  C4  UNL     1       4.226   0.648   7.297  1.00  0.00     0.186 C 
ENDROOT
BRANCH   1   2
HETATM    2  N1  UNL     1       4.645  -0.471   8.113  1.00  0.00    -0.068 N 
ATOM      3  H12 UNL     1       5.649  -0.640   8.047  1.00  0.00     0.277 HD
ATOM      4  H11 UNL     1       4.320  -1.363   7.738  1.00  0.00     0.277 HD
BRANCH   2   5
HETATM    5  C3  UNL     1       4.221  -0.270   9.466  1.00  0.00     0.259 C 
BRANCH   5   6
HETATM    6  C2  UNL     1       3.532  -1.549   9.884  1.00  0.00    -0.010 C 
HETATM    7  C1  UNL     1       3.203  -2.472   9.008  1.00  0.00     0.008 C 
ENDBRANCH   5   6
ENDBRANCH   2   5
ENDBRANCH   1   2
BRANCH   1   8
HETATM    8  C5  UNL     1       2.839   0.382   6.696  1.00  0.00     0.033 C 
BRANCH   8   9
HETATM    9  C6  UNL     1       1.751   1.102   7.475  1.00  0.00     0.002 C 
BRANCH   9  10
HETATM   10  C7  UNL     1       0.725   0.094   7.984  1.00  0.00    -0.000 C 
BRANCH  10  11
HETATM   11  C8  UNL     1       0.475   0.193   9.454  1.00  0.00    -0.005 C 
HETATM   12  C9  UNL     1      -0.205  -1.089   9.914  1.00  0.00     0.005 C 
ENDBRANCH  10  11
ENDBRANCH   9  10
ENDBRANCH   8   9
ENDBRANCH   1   8
BRANCH   1  13
HETATM   13  C10 UNL     1       5.174   0.827   6.165  1.00  0.00     0.033 C 
BRANCH  13  14
HETATM   14  C11 UNL     1       4.480   1.025   4.809  1.00  0.00     0.002 C 
BRANCH  14  15
HETATM   15  C12 UNL     1       5.108   0.134   3.813  1.00  0.00     0.000 C 
BRANCH  15  16
HETATM   16  C13 UNL     1       6.570   0.045   3.855  1.00  0.00     0.004 C 
BRANCH  16  17
HETATM   17  C14 UNL     1       7.463   0.498   2.803  1.00  0.00    -0.014 A 
HETATM   18  C15 UNL     1       8.963   0.441   2.975  1.00  0.00     0.005 A 
HETATM   19  C16 UNL     1       8.300  -0.397   1.967  1.00  0.00     0.005 A 
ENDBRANCH  16  17
ENDBRANCH  15  16
ENDBRANCH  14  15
ENDBRANCH  13  14
ENDBRANCH   1  13
TORSDOF 12
ENDMDL
