MODEL 1
REMARK VINA RESULT: -6.411457854      0.000      0.000
REMARK  11 active torsions:
REMARK  status: ('A' for Active; 'I' for Inactive)
REMARK    1  A    between atoms: C2_2  and  C3_3 
REMARK    2  A    between atoms: C3_3  and  N1_4 
REMARK    3  A    between atoms: N1_4  and  C4_7 
REMARK    4  A    between atoms: C4_7  and  C5_8 
REMARK    5  A    between atoms: C5_8  and  C6_9 
REMARK    6  A    between atoms: C6_9  and  C7_10 
REMARK    7  A    between atoms: C7_10  and  C8_11 
REMARK    8  A    between atoms: C8_11  and  C9_12 
REMARK    9  A    between atoms: C9_12  and  C10_13 
REMARK   10  A    between atoms: C10_13  and  C11_14 
REMARK   11  A    between atoms: C11_14  and  C12_15 
ROOT
HETATM    1  C7  UNL     1       4.173  -0.074   5.754  1.00  0.00     0.000 C 
ENDROOT
BRANCH   1   2
HETATM    2  C6  UNL     1       4.513   0.470   7.129  1.00  0.00     0.002 C 
BRANCH   2   3
HETATM    3  C5  UNL     1       4.248  -0.644   8.112  1.00  0.00     0.027 C 
BRANCH   3   4
HETATM    4  C4  UNL     1       3.934  -0.165   9.498  1.00  0.00     0.232 C 
BRANCH   4   5
HETATM    5  N1  UNL     1       2.708   0.564   9.518  1.00  0.00    -0.072 N 
ATOM      6  H12 UNL     1       2.573   1.086   8.652  1.00  0.00     0.277 HD
ATOM      7  H11 UNL     1       2.753   1.346  10.171  1.00  0.00     0.277 HD
BRANCH   5   8
HETATM    8  C3  UNL     1       1.568  -0.292   9.799  1.00  0.00     0.259 C 
BRANCH   8   9
HETATM    9  C2  UNL     1       0.556  -0.179   8.724  1.00  0.00    -0.010 C 
HETATM   10  C1  UNL     1       0.742   0.527   7.623  1.00  0.00     0.008 C 
ENDBRANCH   8   9
ENDBRANCH   5   8
ENDBRANCH   4   5
ENDBRANCH   3   4
ENDBRANCH   2   3
ENDBRANCH   1   2
BRANCH   1  11
HETATM   11  C8  UNL     1       4.579   0.898   4.661  1.00  0.00     0.000 C 
BRANCH  11  12
HETATM   12  C9  UNL     1       4.940   0.072   3.446  1.00  0.00     0.000 C 
BRANCH  12  13
HETATM   13  C10 UNL     1       6.280  -0.615   3.594  1.00  0.00     0.004 C 
BRANCH  13  14
HETATM   14  C11 UNL     1       7.305   0.479   3.861  1.00  0.00     0.034 C 
BRANCH  14  15
HETATM   15  C12 UNL     1       8.415   0.427   2.853  1.00  0.00    -0.084 C 
HETATM   16  C13 UNL     1       9.483   1.176   2.753  1.00  0.00    -0.024 C 
HETATM   17  C14 UNL     1      10.316   0.775   1.599  1.00  0.00     0.027 C 
HETATM   18  C15 UNL     1       9.902  -0.631   1.320  1.00  0.00     0.008 C 
HETATM   19  C16 UNL     1       8.432  -0.590   1.737  1.00  0.00     0.034 C 
ENDBRANCH  14  15
ENDBRANCH  13  14
ENDBRANCH  12  13
ENDBRANCH  11  12
ENDBRANCH   1  11
TORSDOF 11
ENDMDL
MODEL 2
REMARK VINA RESULT: -6.387727946      1.138      1.922
REMARK  11 active torsions:
REMARK  status: ('A' for Active; 'I' for Inactive)
REMARK    1  A    between atoms: C2_2  and  C3_3 
REMARK    2  A    between atoms: C3_3  and  N1_4 
REMARK    3  A    between atoms: N1_4  and  C4_7 
REMARK    4  A    between atoms: C4_7  and  C5_8 
REMARK    5  A    between atoms: C5_8  and  C6_9 
REMARK    6  A    between atoms: C6_9  and  C7_10 
REMARK    7  A    between atoms: C7_10  and  C8_11 
REMARK    8  A    between atoms: C8_11  and  C9_12 
REMARK    9  A    between atoms: C9_12  and  C10_13 
REMARK   10  A    between atoms: C10_13  and  C11_14 
REMARK   11  A    between atoms: C11_14  and  C12_15 
ROOT
HETATM    1  C7  UNL     1       4.972  -0.930   6.586  1.00  0.00     0.000 C 
ENDROOT
BRANCH   1   2
HETATM    2  C6  UNL     1       4.518   0.465   6.971  1.00  0.00     0.002 C 
BRANCH   2   3
HETATM    3  C5  UNL     1       3.022   0.503   6.771  1.00  0.00     0.027 C 
BRANCH   3   4
HETATM    4  C4  UNL     1       2.255   0.857   8.010  1.00  0.00     0.232 C 
BRANCH   4   5
HETATM    5  N1  UNL     1       3.092   0.791   9.163  1.00  0.00    -0.072 N 
ATOM      6  H12 UNL     1       3.386   1.722   9.462  1.00  0.00     0.277 HD
ATOM      7  H11 UNL     1       4.006   0.400   8.935  1.00  0.00     0.277 HD
BRANCH   5   8
HETATM    8  C3  UNL     1       2.465   0.063  10.253  1.00  0.00     0.259 C 
BRANCH   8   9
HETATM    9  C2  UNL     1       2.260  -1.355   9.880  1.00  0.00    -0.010 C 
HETATM   10  C1  UNL     1       3.251  -2.186   9.615  1.00  0.00     0.008 C 
ENDBRANCH   8   9
ENDBRANCH   5   8
ENDBRANCH   4   5
ENDBRANCH   3   4
ENDBRANCH   2   3
ENDBRANCH   1   2
BRANCH   1  11
HETATM   11  C8  UNL     1       6.145  -0.881   5.624  1.00  0.00     0.000 C 
BRANCH  11  12
HETATM   12  C9  UNL     1       5.604  -1.216   4.251  1.00  0.00     0.000 C 
BRANCH  12  13
HETATM   13  C10 UNL     1       5.778  -0.078   3.269  1.00  0.00     0.004 C 
BRANCH  13  14
HETATM   14  C11 UNL     1       7.050   0.657   3.672  1.00  0.00     0.034 C 
BRANCH  14  15
HETATM   15  C12 UNL     1       8.182   0.308   2.752  1.00  0.00    -0.084 C 
HETATM   16  C13 UNL     1       8.248  -0.620   1.831  1.00  0.00    -0.024 C 
HETATM   17  C14 UNL     1       9.564  -0.615   1.156  1.00  0.00     0.027 C 
HETATM   18  C15 UNL     1      10.100   0.753   1.409  1.00  0.00     0.008 C 
HETATM   19  C16 UNL     1       9.493   1.055   2.779  1.00  0.00     0.034 C 
ENDBRANCH  14  15
ENDBRANCH  13  14
ENDBRANCH  12  13
ENDBRANCH  11  12
ENDBRANCH   1  11
TORSDOF 11
ENDMDL
MODEL 3
REMARK VINA RESULT: -6.380670009      0.735      1.317
REMARK  11 active torsions:
REMARK  status: ('A' for Active; 'I' for Inactive)
REMARK    1  A    between atoms: C2_2  and  C3_3 
REMARK    2  A    between atoms: C3_3  and  N1_4 
REMARK    3  A    between atoms: N1_4  and  C4_7 
REMARK    4  A    between atoms: C4_7  and  C5_8 
REMARK    5  A    between atoms: C5_8  and  C6_9 
REMARK    6  A    between atoms: C6_9  and  C7_10 
REMARK    7  A    between atoms: C7_10  and  C8_11 
REMARK    8  A    between atoms: C8_11  and  C9_12 
REMARK    9  A    between atoms: C9_12  and  C10_13 
REMARK   10  A    between atoms: C10_13  and  C11_14 
REMARK   11  A    between atoms: C11_14  and  C12_15 
ROOT
HETATM    1  C7  UNL     1       5.064   1.008   6.071  1.00  0.00     0.000 C 
ENDROOT
BRANCH   1   2
HETATM    2  C6  UNL     1       3.798   0.380   6.621  1.00  0.00     0.002 C 
BRANCH   2   3
HETATM    3  C5  UNL     1       4.206  -0.431   7.827  1.00  0.00     0.027 C 
BRANCH   3   4
HETATM    4  C4  UNL     1       3.659   0.094   9.122  1.00  0.00     0.232 C 
BRANCH   4   5
HETATM    5  N1  UNL     1       2.800   1.210   8.896  1.00  0.00    -0.072 N 
ATOM      6  H12 UNL     1       2.631   1.352   7.900  1.00  0.00     0.277 HD
ATOM      7  H11 UNL     1       3.272   2.090   9.106  1.00  0.00     0.277 HD
BRANCH   5   8
HETATM    8  C3  UNL     1       1.551   1.094   9.629  1.00  0.00     0.259 C 
BRANCH   8   9
HETATM    9  C2  UNL     1       0.683   0.062   9.018  1.00  0.00    -0.010 C 
HETATM   10  C1  UNL     1      -0.022  -0.805   9.723  1.00  0.00     0.008 C 
ENDBRANCH   8   9
ENDBRANCH   5   8
ENDBRANCH   4   5
ENDBRANCH   3   4
ENDBRANCH   2   3
ENDBRANCH   1   2
BRANCH   1  11
HETATM   11  C8  UNL     1       4.900   1.389   4.611  1.00  0.00     0.000 C 
BRANCH  11  12
HETATM   12  C9  UNL     1       4.833   0.099   3.823  1.00  0.00     0.000 C 
BRANCH  12  13
HETATM   13  C10 UNL     1       6.203  -0.414   3.439  1.00  0.00     0.004 C 
BRANCH  13  14
HETATM   14  C11 UNL     1       7.046   0.805   3.091  1.00  0.00     0.034 C 
BRANCH  14  15
HETATM   15  C12 UNL     1       8.341   0.394   2.456  1.00  0.00    -0.084 C 
HETATM   16  C13 UNL     1       8.582  -0.578   1.614  1.00  0.00    -0.024 C 
HETATM   17  C14 UNL     1      10.013  -0.626   1.242  1.00  0.00     0.027 C 
HETATM   18  C15 UNL     1      10.516   0.745   1.546  1.00  0.00     0.008 C 
HETATM   19  C16 UNL     1       9.633   1.122   2.736  1.00  0.00     0.034 C 
ENDBRANCH  14  15
ENDBRANCH  13  14
ENDBRANCH  12  13
ENDBRANCH  11  12
ENDBRANCH   1  11
TORSDOF 11
ENDMDL
MODEL 4
REMARK VINA RESULT: -6.363992973      2.151      8.713
REMARK  11 active torsions:
REMARK  status: ('A' for Active; 'I' for Inactive)
REMARK    1  A    between atoms: C2_2  and  C3_3 
REMARK    2  A    between atoms: C3_3  and  N1_4 
REMARK    3  A    between atoms: N1_4  and  C4_7 
REMARK    4  A    between atoms: C4_7  and  C5_8 
REMARK    5  A    between atoms: C5_8  and  C6_9 
REMARK    6  A    between atoms: C6_9  and  C7_10 
REMARK    7  A    between atoms: C7_10  and  C8_11 
REMARK    8  A    between atoms: C8_11  and  C9_12 
REMARK    9  A    between atoms: C9_12  and  C10_13 
REMARK   10  A    between atoms: C10_13  and  C11_14 
REMARK   11  A    between atoms: C11_14  and  C12_15 
ROOT
HETATM    1  C7  UNL     1       4.863   0.863   6.202  1.00  0.00     0.000 C 
ENDROOT
BRANCH   1   2
HETATM    2  C6  UNL     1       4.896   1.243   4.734  1.00  0.00     0.002 C 
BRANCH   2   3
HETATM    3  C5  UNL     1       4.912  -0.049   3.954  1.00  0.00     0.027 C 
BRANCH   3   4
HETATM    4  C4  UNL     1       6.138  -0.229   3.108  1.00  0.00     0.232 C 
BRANCH   4   5
HETATM    5  N1  UNL     1       7.010   0.894   3.229  1.00  0.00    -0.072 N 
ATOM      6  H12 UNL     1       7.113   1.178   4.203  1.00  0.00     0.277 HD
ATOM      7  H11 UNL     1       6.577   1.740   2.859  1.00  0.00     0.277 HD
BRANCH   5   8
HETATM    8  C3  UNL     1       8.303   0.649   2.613  1.00  0.00     0.259 C 
BRANCH   8   9
HETATM    9  C2  UNL     1       8.286  -0.623   1.857  1.00  0.00    -0.010 C 
HETATM   10  C1  UNL     1       9.069  -0.863   0.820  1.00  0.00     0.008 C 
ENDBRANCH   8   9
ENDBRANCH   5   8
ENDBRANCH   4   5
ENDBRANCH   3   4
ENDBRANCH   2   3
ENDBRANCH   1   2
BRANCH   1  11
HETATM   11  C8  UNL     1       4.429  -0.579   6.388  1.00  0.00     0.000 C 
BRANCH  11  12
HETATM   12  C9  UNL     1       3.494  -0.610   7.577  1.00  0.00     0.000 C 
BRANCH  12  13
HETATM   13  C10 UNL     1       2.072  -0.943   7.184  1.00  0.00     0.004 C 
BRANCH  13  14
HETATM   14  C11 UNL     1       1.214   0.245   7.600  1.00  0.00     0.034 C 
BRANCH  14  15
HETATM   15  C12 UNL     1       0.873   0.171   9.059  1.00  0.00    -0.084 C 
HETATM   16  C13 UNL     1       0.146  -0.709   9.699  1.00  0.00    -0.024 C 
HETATM   17  C14 UNL     1       0.071  -0.396  11.143  1.00  0.00     0.027 C 
HETATM   18  C15 UNL     1       1.257   0.472  11.392  1.00  0.00     0.008 C 
HETATM   19  C16 UNL     1       1.378   1.192  10.049  1.00  0.00     0.034 C 
ENDBRANCH  14  15
ENDBRANCH  13  14
ENDBRANCH  12  13
ENDBRANCH  11  12
ENDBRANCH   1  11
TORSDOF 11
ENDMDL
MODEL 5
REMARK VINA RESULT: -6.357855966      1.083      1.477
REMARK  11 active torsions:
REMARK  status: ('A' for Active; 'I' for Inactive)
REMARK    1  A    between atoms: C2_2  and  C3_3 
REMARK    2  A    between atoms: C3_3  and  N1_4 
REMARK    3  A    between atoms: N1_4  and  C4_7 
REMARK    4  A    between atoms: C4_7  and  C5_8 
REMARK    5  A    between atoms: C5_8  and  C6_9 
REMARK    6  A    between atoms: C6_9  and  C7_10 
REMARK    7  A    between atoms: C7_10  and  C8_11 
REMARK    8  A    between atoms: C8_11  and  C9_12 
REMARK    9  A    between atoms: C9_12  and  C10_13 
REMARK   10  A    between atoms: C10_13  and  C11_14 
REMARK   11  A    between atoms: C11_14  and  C12_15 
ROOT
HETATM    1  C7  UNL     1       5.611  -0.212   6.866  1.00  0.00     0.000 C 
ENDROOT
BRANCH   1   2
HETATM    2  C6  UNL     1       4.215  -0.630   6.444  1.00  0.00     0.002 C 
BRANCH   2   3
HETATM    3  C5  UNL     1       3.285   0.481   6.868  1.00  0.00     0.027 C 
BRANCH   3   4
HETATM    4  C4  UNL     1       3.294   0.747   8.344  1.00  0.00     0.232 C 
BRANCH   4   5
HETATM    5  N1  UNL     1       2.005   1.160   8.795  1.00  0.00    -0.072 N 
ATOM      6  H12 UNL     1       1.850   2.152   8.615  1.00  0.00     0.277 HD
ATOM      7  H11 UNL     1       1.955   1.172   9.814  1.00  0.00     0.277 HD
BRANCH   5   8
HETATM    8  C3  UNL     1       0.942   0.349   8.225  1.00  0.00     0.259 C 
BRANCH   8   9
HETATM    9  C2  UNL     1       0.702  -0.851   9.057  1.00  0.00    -0.010 C 
HETATM   10  C1  UNL     1      -0.223  -0.910   9.998  1.00  0.00     0.008 C 
ENDBRANCH   8   9
ENDBRANCH   5   8
ENDBRANCH   4   5
ENDBRANCH   3   4
ENDBRANCH   2   3
ENDBRANCH   1   2
BRANCH   1  11
HETATM   11  C8  UNL     1       6.641  -0.603   5.821  1.00  0.00     0.000 C 
BRANCH  11  12
HETATM   12  C9  UNL     1       5.878  -1.100   4.613  1.00  0.00     0.000 C 
BRANCH  12  13
HETATM   13  C10 UNL     1       6.334  -0.440   3.330  1.00  0.00     0.004 C 
BRANCH  13  14
HETATM   14  C11 UNL     1       7.417   0.560   3.715  1.00  0.00     0.034 C 
BRANCH  14  15
HETATM   15  C12 UNL     1       8.576   0.481   2.765  1.00  0.00    -0.084 C 
HETATM   16  C13 UNL     1       9.651   1.224   2.704  1.00  0.00    -0.024 C 
HETATM   17  C14 UNL     1      10.540   0.795   1.603  1.00  0.00     0.027 C 
HETATM   18  C15 UNL     1      10.134  -0.615   1.334  1.00  0.00     0.008 C 
HETATM   19  C16 UNL     1       8.645  -0.559   1.674  1.00  0.00     0.034 C 
ENDBRANCH  14  15
ENDBRANCH  13  14
ENDBRANCH  12  13
ENDBRANCH  11  12
ENDBRANCH   1  11
TORSDOF 11
ENDMDL
