MODEL 1
REMARK VINA RESULT: -9.965557568      0.000      0.000
REMARK  8 active torsions:
REMARK  status: ('A' for Active; 'I' for Inactive)
REMARK    1  A    between atoms: C6_8  and  C7_9 
REMARK    2  A    between atoms: C7_9  and  C8_10 
REMARK    3  A    between atoms: C7_9  and  C19_23 
REMARK    4  A    between atoms: C11_13  and  C12_14 
REMARK    5  A    between atoms: C13_15  and  C14_16 
REMARK       I    between atoms: C14_16  and  N2_18 
REMARK    6  A    between atoms: N4_28  and  C22_29 
REMARK    7  A    between atoms: C22_29  and  C23_30 
REMARK    8  A    between atoms: C29_37  and  N5_38 
ROOT
HETATM    1  C7  UNL     1      17.767  -2.690  55.812  1.00  0.00     0.089 C 
ENDROOT
BRANCH   1   2
HETATM    2  C6  UNL     1      18.486  -1.540  55.260  1.00  0.00    -0.044 A 
HETATM    3  C5  UNL     1      18.150  -0.223  55.524  1.00  0.00     0.010 A 
HETATM    4  C4  UNL     1      18.797   0.857  55.027  1.00  0.00     0.031 A 
HETATM    5  C3  UNL     1      19.902   0.684  54.169  1.00  0.00     0.050 A 
HETATM    6  N1  UNL     1      20.606   1.644  53.627  1.00  0.00    -0.353 N 
HETATM    7  C31 UNL     1      20.266  -0.603  53.883  1.00  0.00     0.034 A 
HETATM    8  C2  UNL     1      21.621   1.350  52.838  1.00  0.00     0.048 A 
ATOM      9  H1  UNL     1      20.369   2.619  53.813  1.00  0.00     0.166 HD
HETATM   10  C1  UNL     1      22.553   2.298  52.118  1.00  0.00     0.076 C 
HETATM   11  S1  UNL     1      21.603  -0.359  52.846  1.00  0.00    -0.075 SA
HETATM   12  C30 UNL     1      19.578  -1.706  54.412  1.00  0.00     0.029 A 
ENDBRANCH   1   2
BRANCH   1  13
HETATM   13  C8  UNL     1      17.112  -2.300  57.089  1.00  0.00    -0.045 A 
HETATM   14  C9  UNL     1      15.743  -2.428  57.260  1.00  0.00     0.009 A 
HETATM   15  C10 UNL     1      15.117  -2.101  58.435  1.00  0.00     0.012 A 
HETATM   16  C11 UNL     1      15.838  -1.615  59.535  1.00  0.00    -0.036 A 
HETATM   17  C17 UNL     1      17.201  -1.484  59.377  1.00  0.00     0.012 A 
HETATM   18  C18 UNL     1      17.814  -1.823  58.170  1.00  0.00     0.009 A 
BRANCH  16  19
HETATM   19  C12 UNL     1      15.125  -1.290  60.736  1.00  0.00     0.017 C 
HETATM   20  C13 UNL     1      15.723  -0.706  61.763  1.00  0.00     0.075 C 
BRANCH  20  21
HETATM   21  C14 UNL     1      14.950  -0.390  62.979  1.00  0.00     0.242 C 
HETATM   22  O1  UNL     1      14.223   0.635  63.038  1.00  0.00    -0.268 OA
HETATM   23  N2  UNL     1      15.047  -1.270  64.080  1.00  0.00    -0.357 N 
HETATM   24  C15 UNL     1      14.303  -0.984  65.280  1.00  0.00     0.152 C 
HETATM   25  C16 UNL     1      15.875  -2.440  64.019  1.00  0.00     0.152 C 
ENDBRANCH  20  21
ENDBRANCH  16  19
ENDBRANCH   1  13
BRANCH   1  26
HETATM   26  C19 UNL     1      16.862  -3.383  54.867  1.00  0.00     0.014 A 
HETATM   27  C20 UNL     1      15.742  -2.734  54.392  1.00  0.00     0.101 A 
HETATM   28  N3  UNL     1      14.930  -3.392  53.520  1.00  0.00    -0.361 N 
HETATM   29  C21 UNL     1      15.179  -4.639  53.109  1.00  0.00     0.184 A 
ATOM     30  H3  UNL     1      14.100  -2.916  53.167  1.00  0.00     0.166 HD
HETATM   31  N4  UNL     1      16.255  -5.307  53.545  1.00  0.00    -0.325 N 
HETATM   32  C29 UNL     1      17.089  -4.686  54.415  1.00  0.00     0.111 A 
BRANCH  31  33
HETATM   33  C22 UNL     1      16.553  -6.663  53.134  1.00  0.00     0.170 C 
BRANCH  33  34
HETATM   34  C23 UNL     1      16.138  -7.688  54.117  1.00  0.00    -0.040 A 
HETATM   35  C24 UNL     1      15.213  -7.470  55.110  1.00  0.00     0.012 A 
HETATM   36  C25 UNL     1      14.843  -8.463  56.003  1.00  0.00     0.043 A 
HETATM   37  C26 UNL     1      15.428  -9.705  55.879  1.00  0.00     0.116 A 
HETATM   38  F1  UNL     1      15.071 -10.692  56.752  1.00  0.00    -0.206 F 
HETATM   39  C27 UNL     1      16.358  -9.939  54.888  1.00  0.00     0.043 A 
HETATM   40  C28 UNL     1      16.709  -8.942  54.016  1.00  0.00     0.012 A 
ENDBRANCH  33  34
ENDBRANCH  31  33
BRANCH  32  41
HETATM   41  N5  UNL     1      18.125  -5.293  54.853  1.00  0.00    -0.385 N 
ATOM     42  H52 UNL     1      18.580  -4.974  55.709  1.00  0.00     0.157 HD
ATOM     43  H51 UNL     1      18.467  -6.091  54.318  1.00  0.00     0.157 HD
ENDBRANCH  32  41
ENDBRANCH   1  26
TORSDOF 8
ENDMDL
MODEL 2
REMARK VINA RESULT: -9.922542510      3.339      7.649
REMARK  8 active torsions:
REMARK  status: ('A' for Active; 'I' for Inactive)
REMARK    1  A    between atoms: C6_8  and  C7_9 
REMARK    2  A    between atoms: C7_9  and  C8_10 
REMARK    3  A    between atoms: C7_9  and  C19_23 
REMARK    4  A    between atoms: C11_13  and  C12_14 
REMARK    5  A    between atoms: C13_15  and  C14_16 
REMARK       I    between atoms: C14_16  and  N2_18 
REMARK    6  A    between atoms: N4_28  and  C22_29 
REMARK    7  A    between atoms: C22_29  and  C23_30 
REMARK    8  A    between atoms: C29_37  and  N5_38 
ROOT
HETATM    1  C7  UNL     1      15.514  -2.500  57.874  1.00  0.00     0.089 C 
ENDROOT
BRANCH   1   2
HETATM    2  C6  UNL     1      15.592  -1.849  59.183  1.00  0.00    -0.044 A 
HETATM    3  C5  UNL     1      16.662  -1.071  59.593  1.00  0.00     0.010 A 
HETATM    4  C4  UNL     1      16.760  -0.459  60.796  1.00  0.00     0.031 A 
HETATM    5  C3  UNL     1      15.722  -0.592  61.741  1.00  0.00     0.050 A 
HETATM    6  N1  UNL     1      15.700  -0.053  62.933  1.00  0.00    -0.353 N 
HETATM    7  C31 UNL     1      14.647  -1.354  61.375  1.00  0.00     0.034 A 
HETATM    8  C2  UNL     1      14.666  -0.254  63.726  1.00  0.00     0.048 A 
ATOM      9  H1  UNL     1      16.481   0.523  63.247  1.00  0.00     0.166 HD
HETATM   10  C1  UNL     1      14.444   0.271  65.126  1.00  0.00     0.076 C 
HETATM   11  S1  UNL     1      13.662  -1.251  62.768  1.00  0.00    -0.075 SA
HETATM   12  C30 UNL     1      14.571  -1.978  60.119  1.00  0.00     0.029 A 
ENDBRANCH   1   2
BRANCH   1  13
HETATM   13  C8  UNL     1      16.345  -1.749  56.895  1.00  0.00    -0.045 A 
HETATM   14  C9  UNL     1      17.694  -1.527  57.122  1.00  0.00     0.009 A 
HETATM   15  C10 UNL     1      18.489  -0.862  56.225  1.00  0.00     0.012 A 
HETATM   16  C11 UNL     1      17.973  -0.368  55.019  1.00  0.00    -0.036 A 
HETATM   17  C17 UNL     1      16.632  -0.582  54.782  1.00  0.00     0.012 A 
HETATM   18  C18 UNL     1      15.844  -1.262  55.713  1.00  0.00     0.009 A 
BRANCH  16  19
HETATM   19  C12 UNL     1      18.856   0.320  54.123  1.00  0.00     0.017 C 
HETATM   20  C13 UNL     1      20.112   0.580  54.449  1.00  0.00     0.075 C 
BRANCH  20  21
HETATM   21  C14 UNL     1      20.986   1.290  53.495  1.00  0.00     0.242 C 
HETATM   22  O1  UNL     1      20.801   2.505  53.226  1.00  0.00    -0.268 OA
HETATM   23  N2  UNL     1      22.039   0.569  52.891  1.00  0.00    -0.357 N 
HETATM   24  C15 UNL     1      22.908   1.239  51.955  1.00  0.00     0.152 C 
HETATM   25  C16 UNL     1      22.255  -0.816  53.194  1.00  0.00     0.152 C 
ENDBRANCH  20  21
ENDBRANCH  16  19
ENDBRANCH   1  13
BRANCH   1  26
HETATM   26  C19 UNL     1      15.771  -3.958  57.876  1.00  0.00     0.014 A 
HETATM   27  C20 UNL     1      16.835  -4.465  58.592  1.00  0.00     0.101 A 
HETATM   28  N3  UNL     1      17.045  -5.810  58.582  1.00  0.00    -0.361 N 
HETATM   29  C21 UNL     1      16.258  -6.653  57.906  1.00  0.00     0.184 A 
ATOM     30  H3  UNL     1      17.831  -6.188  59.110  1.00  0.00     0.166 HD
HETATM   31  N4  UNL     1      15.215  -6.206  57.197  1.00  0.00    -0.325 N 
HETATM   32  C29 UNL     1      14.972  -4.871  57.182  1.00  0.00     0.111 A 
BRANCH  31  33
HETATM   33  C22 UNL     1      14.348  -7.084  56.442  1.00  0.00     0.170 C 
BRANCH  33  34
HETATM   34  C23 UNL     1      15.074  -8.093  55.639  1.00  0.00    -0.040 A 
HETATM   35  C24 UNL     1      15.901  -7.785  54.585  1.00  0.00     0.012 A 
HETATM   36  C25 UNL     1      16.573  -8.761  53.866  1.00  0.00     0.043 A 
HETATM   37  C26 UNL     1      16.400 -10.078  54.232  1.00  0.00     0.116 A 
HETATM   38  F1  UNL     1      17.057 -11.049  53.532  1.00  0.00    -0.206 F 
HETATM   39  C27 UNL     1      15.573 -10.403  55.287  1.00  0.00     0.043 A 
HETATM   40  C28 UNL     1      14.918  -9.422  55.983  1.00  0.00     0.012 A 
ENDBRANCH  33  34
ENDBRANCH  31  33
BRANCH  32  41
HETATM   41  N5  UNL     1      13.985  -4.407  56.515  1.00  0.00    -0.385 N 
ATOM     42  H52 UNL     1      13.523  -3.550  56.817  1.00  0.00     0.157 HD
ATOM     43  H51 UNL     1      13.689  -4.925  55.688  1.00  0.00     0.157 HD
ENDBRANCH  32  41
ENDBRANCH   1  26
TORSDOF 8
ENDMDL
MODEL 3
REMARK VINA RESULT: -9.795433056      1.567      2.306
REMARK  8 active torsions:
REMARK  status: ('A' for Active; 'I' for Inactive)
REMARK    1  A    between atoms: C6_8  and  C7_9 
REMARK    2  A    between atoms: C7_9  and  C8_10 
REMARK    3  A    between atoms: C7_9  and  C19_23 
REMARK    4  A    between atoms: C11_13  and  C12_14 
REMARK    5  A    between atoms: C13_15  and  C14_16 
REMARK       I    between atoms: C14_16  and  N2_18 
REMARK    6  A    between atoms: N4_28  and  C22_29 
REMARK    7  A    between atoms: C22_29  and  C23_30 
REMARK    8  A    between atoms: C29_37  and  N5_38 
ROOT
HETATM    1  C7  UNL     1      18.488  -4.270  55.259  1.00  0.00     0.089 C 
ENDROOT
BRANCH   1   2
HETATM    2  C6  UNL     1      19.301  -3.301  54.520  1.00  0.00    -0.044 A 
HETATM    3  C5  UNL     1      20.229  -3.652  53.554  1.00  0.00     0.010 A 
HETATM    4  C4  UNL     1      20.992  -2.778  52.857  1.00  0.00     0.031 A 
HETATM    5  C3  UNL     1      20.873  -1.394  53.095  1.00  0.00     0.050 A 
HETATM    6  N1  UNL     1      21.552  -0.454  52.490  1.00  0.00    -0.353 N 
HETATM    7  C31 UNL     1      19.966  -1.005  54.043  1.00  0.00     0.034 A 
HETATM    8  C2  UNL     1      21.347   0.811  52.804  1.00  0.00     0.048 A 
ATOM      9  H1  UNL     1      22.239  -0.698  51.776  1.00  0.00     0.166 HD
HETATM   10  C1  UNL     1      22.019   2.038  52.231  1.00  0.00     0.076 C 
HETATM   11  S1  UNL     1      20.142   0.695  54.009  1.00  0.00    -0.075 SA
HETATM   12  C30 UNL     1      19.187  -1.934  54.751  1.00  0.00     0.029 A 
ENDBRANCH   1   2
BRANCH   1  13
HETATM   13  C8  UNL     1      17.715  -3.565  56.316  1.00  0.00    -0.045 A 
HETATM   14  C9  UNL     1      18.171  -3.513  57.623  1.00  0.00     0.009 A 
HETATM   15  C10 UNL     1      17.493  -2.847  58.611  1.00  0.00     0.012 A 
HETATM   16  C11 UNL     1      16.290  -2.178  58.347  1.00  0.00    -0.036 A 
HETATM   17  C17 UNL     1      15.826  -2.223  57.050  1.00  0.00     0.012 A 
HETATM   18  C18 UNL     1      16.535  -2.908  56.062  1.00  0.00     0.009 A 
BRANCH  16  19
HETATM   19  C12 UNL     1      15.628  -1.501  59.423  1.00  0.00     0.017 C 
HETATM   20  C13 UNL     1      16.111  -1.517  60.656  1.00  0.00     0.075 C 
BRANCH  20  21
HETATM   21  C14 UNL     1      15.396  -0.806  61.733  1.00  0.00     0.242 C 
HETATM   22  O1  UNL     1      14.257  -1.180  62.114  1.00  0.00    -0.268 OA
HETATM   23  N2  UNL     1      16.026   0.309  62.330  1.00  0.00    -0.357 N 
HETATM   24  C15 UNL     1      15.350   1.021  63.384  1.00  0.00     0.152 C 
HETATM   25  C16 UNL     1      17.325   0.740  61.900  1.00  0.00     0.152 C 
ENDBRANCH  20  21
ENDBRANCH  16  19
ENDBRANCH   1  13
BRANCH   1  26
HETATM   26  C19 UNL     1      17.664  -5.173  54.422  1.00  0.00     0.014 A 
HETATM   27  C20 UNL     1      16.720  -4.643  53.568  1.00  0.00     0.101 A 
HETATM   28  N3  UNL     1      15.980  -5.494  52.806  1.00  0.00    -0.361 N 
HETATM   29  C21 UNL     1      16.137  -6.821  52.856  1.00  0.00     0.184 A 
ATOM     30  H3  UNL     1      15.281  -5.106  52.174  1.00  0.00     0.166 HD
HETATM   31  N4  UNL     1      17.041  -7.379  53.671  1.00  0.00    -0.325 N 
HETATM   32  C29 UNL     1      17.799  -6.563  54.447  1.00  0.00     0.111 A 
BRANCH  31  33
HETATM   33  C22 UNL     1      17.232  -8.810  53.764  1.00  0.00     0.170 C 
BRANCH  33  34
HETATM   34  C23 UNL     1      16.177  -9.504  54.536  1.00  0.00    -0.040 A 
HETATM   35  C24 UNL     1      15.593  -8.991  55.671  1.00  0.00     0.012 A 
HETATM   36  C25 UNL     1      14.599  -9.669  56.357  1.00  0.00     0.043 A 
HETATM   37  C26 UNL     1      14.190 -10.894  55.876  1.00  0.00     0.116 A 
HETATM   38  F1  UNL     1      13.210 -11.572  56.543  1.00  0.00    -0.206 F 
HETATM   39  C27 UNL     1      14.766 -11.422  54.739  1.00  0.00     0.043 A 
HETATM   40  C28 UNL     1      15.749 -10.734  54.076  1.00  0.00     0.012 A 
ENDBRANCH  33  34
ENDBRANCH  31  33
BRANCH  32  41
HETATM   41  N5  UNL     1      18.670  -7.060  55.238  1.00  0.00    -0.385 N 
ATOM     42  H52 UNL     1      19.247  -6.446  55.813  1.00  0.00     0.157 HD
ATOM     43  H51 UNL     1      18.761  -8.076  55.263  1.00  0.00     0.157 HD
ENDBRANCH  32  41
ENDBRANCH   1  26
TORSDOF 8
ENDMDL
MODEL 4
REMARK VINA RESULT: -9.734828387      1.461      2.075
REMARK  8 active torsions:
REMARK  status: ('A' for Active; 'I' for Inactive)
REMARK    1  A    between atoms: C6_8  and  C7_9 
REMARK    2  A    between atoms: C7_9  and  C8_10 
REMARK    3  A    between atoms: C7_9  and  C19_23 
REMARK    4  A    between atoms: C11_13  and  C12_14 
REMARK    5  A    between atoms: C13_15  and  C14_16 
REMARK       I    between atoms: C14_16  and  N2_18 
REMARK    6  A    between atoms: N4_28  and  C22_29 
REMARK    7  A    between atoms: C22_29  and  C23_30 
REMARK    8  A    between atoms: C29_37  and  N5_38 
ROOT
HETATM    1  C7  UNL     1      18.280  -3.791  55.737  1.00  0.00     0.089 C 
ENDROOT
BRANCH   1   2
HETATM    2  C6  UNL     1      19.150  -2.963  54.899  1.00  0.00    -0.044 A 
HETATM    3  C5  UNL     1      20.009  -3.473  53.940  1.00  0.00     0.010 A 
HETATM    4  C4  UNL     1      20.823  -2.731  53.154  1.00  0.00     0.031 A 
HETATM    5  C3  UNL     1      20.837  -1.327  53.280  1.00  0.00     0.050 A 
HETATM    6  N1  UNL     1      21.576  -0.504  52.581  1.00  0.00    -0.353 N 
HETATM    7  C31 UNL     1      20.002  -0.783  54.217  1.00  0.00     0.034 A 
HETATM    8  C2  UNL     1      21.496   0.795  52.796  1.00  0.00     0.048 A 
ATOM      9  H1  UNL     1      22.213  -0.867  51.872  1.00  0.00     0.166 HD
HETATM   10  C1  UNL     1      22.254   1.906  52.106  1.00  0.00     0.076 C 
HETATM   11  S1  UNL     1      20.328   0.886  54.040  1.00  0.00    -0.075 SA
HETATM   12  C30 UNL     1      19.168  -1.577  55.020  1.00  0.00     0.029 A 
ENDBRANCH   1   2
BRANCH   1  13
HETATM   13  C8  UNL     1      17.946  -3.054  56.985  1.00  0.00    -0.045 A 
HETATM   14  C9  UNL     1      18.680  -3.240  58.145  1.00  0.00     0.009 A 
HETATM   15  C10 UNL     1      18.410  -2.555  59.302  1.00  0.00     0.012 A 
HETATM   16  C11 UNL     1      17.368  -1.620  59.370  1.00  0.00    -0.036 A 
HETATM   17  C17 UNL     1      16.631  -1.426  58.222  1.00  0.00     0.012 A 
HETATM   18  C18 UNL     1      16.925  -2.138  57.057  1.00  0.00     0.009 A 
BRANCH  16  19
HETATM   19  C12 UNL     1      17.137  -0.937  60.608  1.00  0.00     0.017 C 
HETATM   20  C13 UNL     1      15.912  -0.679  61.042  1.00  0.00     0.075 C 
BRANCH  20  21
HETATM   21  C14 UNL     1      15.721   0.027  62.323  1.00  0.00     0.242 C 
HETATM   22  O1  UNL     1      16.323   1.105  62.567  1.00  0.00    -0.268 OA
HETATM   23  N2  UNL     1      14.840  -0.538  63.272  1.00  0.00    -0.357 N 
HETATM   24  C15 UNL     1      14.635   0.131  64.532  1.00  0.00     0.152 C 
HETATM   25  C16 UNL     1      14.151  -1.766  62.999  1.00  0.00     0.152 C 
ENDBRANCH  20  21
ENDBRANCH  16  19
ENDBRANCH   1  13
BRANCH   1  26
HETATM   26  C19 UNL     1      17.099  -4.363  55.051  1.00  0.00     0.014 A 
HETATM   27  C20 UNL     1      16.627  -3.775  53.896  1.00  0.00     0.101 A 
HETATM   28  N3  UNL     1      15.543  -4.325  53.283  1.00  0.00    -0.361 N 
HETATM   29  C21 UNL     1      14.925  -5.411  53.756  1.00  0.00     0.184 A 
ATOM     30  H3  UNL     1      15.190  -3.892  52.429  1.00  0.00     0.166 HD
HETATM   31  N4  UNL     1      15.350  -6.015  54.873  1.00  0.00    -0.325 N 
HETATM   32  C29 UNL     1      16.427  -5.497  55.515  1.00  0.00     0.111 A 
BRANCH  31  33
HETATM   33  C22 UNL     1      14.700  -7.184  55.425  1.00  0.00     0.170 C 
BRANCH  33  34
HETATM   34  C23 UNL     1      15.377  -8.456  55.091  1.00  0.00    -0.040 A 
HETATM   35  C24 UNL     1      15.178  -9.634  55.774  1.00  0.00     0.012 A 
HETATM   36  C25 UNL     1      15.823 -10.808  55.419  1.00  0.00     0.043 A 
HETATM   37  C26 UNL     1      16.686 -10.782  54.346  1.00  0.00     0.116 A 
HETATM   38  F1  UNL     1      17.328 -11.932  53.986  1.00  0.00    -0.206 F 
HETATM   39  C27 UNL     1      16.896  -9.608  53.651  1.00  0.00     0.043 A 
HETATM   40  C28 UNL     1      16.248  -8.459  54.020  1.00  0.00     0.012 A 
ENDBRANCH  33  34
ENDBRANCH  31  33
BRANCH  32  41
HETATM   41  N5  UNL     1      16.860  -6.045  56.585  1.00  0.00    -0.385 N 
ATOM     42  H52 UNL     1      17.199  -7.007  56.564  1.00  0.00     0.157 HD
ATOM     43  H51 UNL     1      16.849  -5.489  57.439  1.00  0.00     0.157 HD
ENDBRANCH  32  41
ENDBRANCH   1  26
TORSDOF 8
ENDMDL
MODEL 5
REMARK VINA RESULT: -9.730981070      1.656      1.984
REMARK  8 active torsions:
REMARK  status: ('A' for Active; 'I' for Inactive)
REMARK    1  A    between atoms: C6_8  and  C7_9 
REMARK    2  A    between atoms: C7_9  and  C8_10 
REMARK    3  A    between atoms: C7_9  and  C19_23 
REMARK    4  A    between atoms: C11_13  and  C12_14 
REMARK    5  A    between atoms: C13_15  and  C14_16 
REMARK       I    between atoms: C14_16  and  N2_18 
REMARK    6  A    between atoms: N4_28  and  C22_29 
REMARK    7  A    between atoms: C22_29  and  C23_30 
REMARK    8  A    between atoms: C29_37  and  N5_38 
ROOT
HETATM    1  C7  UNL     1      17.674  -2.629  56.027  1.00  0.00     0.089 C 
ENDROOT
BRANCH   1   2
HETATM    2  C6  UNL     1      18.404  -1.505  55.435  1.00  0.00    -0.044 A 
HETATM    3  C5  UNL     1      18.116  -0.176  55.696  1.00  0.00     0.010 A 
HETATM    4  C4  UNL     1      18.774   0.879  55.163  1.00  0.00     0.031 A 
HETATM    5  C3  UNL     1      19.842   0.665  54.268  1.00  0.00     0.050 A 
HETATM    6  N1  UNL     1      20.552   1.599  53.689  1.00  0.00    -0.353 N 
HETATM    7  C31 UNL     1      20.158  -0.635  53.983  1.00  0.00     0.034 A 
HETATM    8  C2  UNL     1      21.529   1.267  52.867  1.00  0.00     0.048 A 
ATOM      9  H1  UNL     1      20.351   2.582  53.872  1.00  0.00     0.166 HD
HETATM   10  C1  UNL     1      22.460   2.180  52.102  1.00  0.00     0.076 C 
HETATM   11  S1  UNL     1      21.462  -0.440  52.895  1.00  0.00    -0.075 SA
HETATM   12  C30 UNL     1      19.458  -1.712  54.550  1.00  0.00     0.029 A 
ENDBRANCH   1   2
BRANCH   1  13
HETATM   13  C8  UNL     1      17.104  -2.215  57.337  1.00  0.00    -0.045 A 
HETATM   14  C9  UNL     1      15.735  -2.184  57.545  1.00  0.00     0.009 A 
HETATM   15  C10 UNL     1      15.184  -1.833  58.750  1.00  0.00     0.012 A 
HETATM   16  C11 UNL     1      15.986  -1.484  59.845  1.00  0.00    -0.036 A 
HETATM   17  C17 UNL     1      17.350  -1.512  59.651  1.00  0.00     0.012 A 
HETATM   18  C18 UNL     1      17.886  -1.872  58.413  1.00  0.00     0.009 A 
BRANCH  16  19
HETATM   19  C12 UNL     1      15.349  -1.126  61.078  1.00  0.00     0.017 C 
HETATM   20  C13 UNL     1      14.109  -1.500  61.355  1.00  0.00     0.075 C 
BRANCH  20  21
HETATM   21  C14 UNL     1      13.493  -1.109  62.638  1.00  0.00     0.242 C 
HETATM   22  O1  UNL     1      13.936  -0.136  63.301  1.00  0.00    -0.268 OA
HETATM   23  N2  UNL     1      12.389  -1.856  63.103  1.00  0.00    -0.357 N 
HETATM   24  C15 UNL     1      11.769  -1.496  64.353  1.00  0.00     0.152 C 
HETATM   25  C16 UNL     1      11.879  -2.967  62.352  1.00  0.00     0.152 C 
ENDBRANCH  20  21
ENDBRANCH  16  19
ENDBRANCH   1  13
BRANCH   1  26
HETATM   26  C19 UNL     1      16.693  -3.286  55.133  1.00  0.00     0.014 A 
HETATM   27  C20 UNL     1      16.113  -2.569  54.108  1.00  0.00     0.101 A 
HETATM   28  N3  UNL     1      15.219  -3.199  53.297  1.00  0.00    -0.361 N 
HETATM   29  C21 UNL     1      14.887  -4.484  53.459  1.00  0.00     0.184 A 
ATOM     30  H3  UNL     1      14.787  -2.672  52.539  1.00  0.00     0.166 HD
HETATM   31  N4  UNL     1      15.425  -5.218  54.441  1.00  0.00    -0.325 N 
HETATM   32  C29 UNL     1      16.320  -4.626  55.270  1.00  0.00     0.111 A 
BRANCH  31  33
HETATM   33  C22 UNL     1      15.081  -6.607  54.657  1.00  0.00     0.170 C 
BRANCH  33  34
HETATM   34  C23 UNL     1      14.267  -6.838  55.871  1.00  0.00    -0.040 A 
HETATM   35  C24 UNL     1      13.239  -6.018  56.273  1.00  0.00     0.012 A 
HETATM   36  C25 UNL     1      12.493  -6.278  57.411  1.00  0.00     0.043 A 
HETATM   37  C26 UNL     1      12.799  -7.398  58.153  1.00  0.00     0.116 A 
HETATM   38  F1  UNL     1      12.071  -7.666  59.277  1.00  0.00    -0.206 F 
HETATM   39  C27 UNL     1      13.828  -8.230  57.763  1.00  0.00     0.043 A 
HETATM   40  C28 UNL     1      14.554  -7.953  56.634  1.00  0.00     0.012 A 
ENDBRANCH  33  34
ENDBRANCH  31  33
BRANCH  32  41
HETATM   41  N5  UNL     1      16.854  -5.295  56.219  1.00  0.00    -0.385 N 
ATOM     42  H52 UNL     1      17.716  -5.815  56.056  1.00  0.00     0.157 HD
ATOM     43  H51 UNL     1      16.385  -5.286  57.125  1.00  0.00     0.157 HD
ENDBRANCH  32  41
ENDBRANCH   1  26
TORSDOF 8
ENDMDL
