MODEL 1
REMARK VINA RESULT: -9.587182305      0.000      0.000
REMARK  8 active torsions:
REMARK  status: ('A' for Active; 'I' for Inactive)
REMARK    1  A    between atoms: C2_2  and  N1_3 
REMARK    2  A    between atoms: N1_3  and  C3_4 
REMARK    3  A    between atoms: N1_3  and  C9_14 
REMARK    4  A    between atoms: C3_4  and  C4_5 
REMARK    5  A    between atoms: C4_5  and  C5_6 
REMARK    6  A    between atoms: C8_11  and  O3_12 
REMARK    7  A    between atoms: C9_14  and  C10_15 
REMARK    8  A    between atoms: C10_15  and  C11_16 
ROOT
HETATM    1  C11 UNL     1      17.207  -4.234  55.201  1.00  0.00     0.072 C 
HETATM    2  C12 UNL     1      18.503  -4.834  55.682  1.00  0.00     0.071 C 
HETATM    3  N2  UNL     1      19.528  -5.272  56.082  1.00  0.00    -0.196 NA
HETATM    4  C13 UNL     1      16.172  -4.296  56.266  1.00  0.00     0.020 C 
HETATM    5  C14 UNL     1      14.768  -4.121  55.701  1.00  0.00     0.024 C 
HETATM    6  C15 UNL     1      16.261  -5.658  56.876  1.00  0.00    -0.007 C 
HETATM    7  N3  UNL     1      16.403  -6.602  55.971  1.00  0.00    -0.386 N 
ATOM      8  H3  UNL     1      16.463  -7.539  56.370  1.00  0.00     0.160 HD
HETATM    9  C16 UNL     1      16.488  -6.588  54.583  1.00  0.00     0.031 C 
HETATM   10  C17 UNL     1      17.507  -7.748  54.286  1.00  0.00     0.039 C 
HETATM   11  C18 UNL     1      15.295  -7.232  53.880  1.00  0.00     0.039 C 
HETATM   12  C19 UNL     1      16.929  -5.290  54.033  1.00  0.00    -0.001 C 
HETATM   13  C20 UNL     1      16.173  -4.701  52.899  1.00  0.00     0.019 C 
HETATM   14  C21 UNL     1      18.338  -5.487  53.433  1.00  0.00     0.019 C 
HETATM   15  C22 UNL     1      16.262  -6.413  58.162  1.00  0.00     0.057 C 
HETATM   16  C23 UNL     1      16.559  -5.642  59.437  1.00  0.00     0.040 C 
HETATM   17  C24 UNL     1      16.163  -4.266  59.206  1.00  0.00    -0.077 C 
HETATM   18  C25 UNL     1      15.025  -3.802  59.645  1.00  0.00     0.002 C 
HETATM   19  C26 UNL     1      14.844  -2.348  59.232  1.00  0.00     0.055 C 
HETATM   20 CL1  UNL     1      13.190  -1.828  59.546  1.00  0.00    -0.115 Cl
HETATM   21  C27 UNL     1      15.897  -1.421  59.597  1.00  0.00     0.030 C 
HETATM   22  C28 UNL     1      17.192  -1.984  59.127  1.00  0.00     0.011 C 
HETATM   23  C29 UNL     1      17.026  -3.310  58.435  1.00  0.00     0.019 C 
HETATM   24  C30 UNL     1      16.217  -3.132  57.204  1.00  0.00     0.011 C 
HETATM   25  C31 UNL     1      14.909  -2.581  57.671  1.00  0.00     0.036 C 
ENDROOT
BRANCH   1  26
HETATM   26  C10 UNL     1      17.536  -3.034  54.425  1.00  0.00     0.047 C 
BRANCH  26  27
HETATM   27  C9  UNL     1      18.515  -2.017  54.860  1.00  0.00     0.129 C 
BRANCH  27  28
HETATM   28  N1  UNL     1      17.833  -0.748  55.131  1.00  0.00    -0.374 N 
BRANCH  28  29
HETATM   29  C2  UNL     1      17.049  -0.208  54.108  1.00  0.00     0.058 C 
HETATM   30  C1  UNL     1      15.577  -0.067  54.379  1.00  0.00     0.055 C 
ENDBRANCH  28  29
BRANCH  28  31
HETATM   31  C3  UNL     1      18.632   0.166  55.848  1.00  0.00     0.063 C 
BRANCH  31  32
HETATM   32  C4  UNL     1      18.908   1.473  55.216  1.00  0.00     0.054 C 
BRANCH  32  33
HETATM   33  C5  UNL     1      20.411   1.788  55.233  1.00  0.00     0.053 C 
HETATM   34  C6  UNL     1      20.847   2.230  53.857  1.00  0.00     0.186 C 
HETATM   35  O1  UNL     1      21.472   1.127  53.259  1.00  0.00    -0.319 OA
HETATM   36  C7  UNL     1      21.794   0.172  54.231  1.00  0.00     0.288 C 
HETATM   37  O2  UNL     1      22.432  -0.893  54.043  1.00  0.00    -0.262 OA
HETATM   38  C8  UNL     1      21.259   0.610  55.543  1.00  0.00     0.224 C 
BRANCH  38  39
HETATM   39  O3  UNL     1      22.387   1.029  56.285  1.00  0.00    -0.385 OA
ATOM     40  H3  UNL     1      22.515   0.440  57.020  1.00  0.00     0.210 HD
ENDBRANCH  38  39
ENDBRANCH  32  33
ENDBRANCH  31  32
ENDBRANCH  28  31
ENDBRANCH  27  28
ENDBRANCH  26  27
ENDBRANCH   1  26
TORSDOF 8
ENDMDL
MODEL 2
REMARK VINA RESULT: -9.316353985      3.946      6.517
REMARK  8 active torsions:
REMARK  status: ('A' for Active; 'I' for Inactive)
REMARK    1  A    between atoms: C2_2  and  N1_3 
REMARK    2  A    between atoms: N1_3  and  C3_4 
REMARK    3  A    between atoms: N1_3  and  C9_14 
REMARK    4  A    between atoms: C3_4  and  C4_5 
REMARK    5  A    between atoms: C4_5  and  C5_6 
REMARK    6  A    between atoms: C8_11  and  O3_12 
REMARK    7  A    between atoms: C9_14  and  C10_15 
REMARK    8  A    between atoms: C10_15  and  C11_16 
ROOT
HETATM    1  C11 UNL     1      16.709  -3.619  56.964  1.00  0.00     0.072 C 
HETATM    2  C12 UNL     1      15.467  -2.834  57.297  1.00  0.00     0.071 C 
HETATM    3  N2  UNL     1      14.513  -2.185  57.566  1.00  0.00    -0.196 NA
HETATM    4  C13 UNL     1      17.231  -3.235  55.627  1.00  0.00     0.020 C 
HETATM    5  C14 UNL     1      18.188  -4.282  55.071  1.00  0.00     0.024 C 
HETATM    6  C15 UNL     1      16.052  -3.151  54.711  1.00  0.00    -0.007 C 
HETATM    7  N3  UNL     1      15.213  -4.150  54.883  1.00  0.00    -0.386 N 
ATOM      8  H3  UNL     1      14.404  -4.110  54.265  1.00  0.00     0.160 HD
HETATM    9  C16 UNL     1      15.202  -5.249  55.734  1.00  0.00     0.031 C 
HETATM   10  C17 UNL     1      13.673  -5.420  56.060  1.00  0.00     0.039 C 
HETATM   11  C18 UNL     1      15.369  -6.590  55.022  1.00  0.00     0.039 C 
HETATM   12  C19 UNL     1      16.024  -5.064  56.947  1.00  0.00    -0.001 C 
HETATM   13  C20 UNL     1      16.960  -6.145  57.348  1.00  0.00     0.019 C 
HETATM   14  C21 UNL     1      15.067  -4.982  58.157  1.00  0.00     0.019 C 
HETATM   15  C22 UNL     1      15.409  -2.346  53.633  1.00  0.00     0.057 C 
HETATM   16  C23 UNL     1      15.847  -0.900  53.470  1.00  0.00     0.040 C 
HETATM   17  C24 UNL     1      17.206  -0.808  53.967  1.00  0.00    -0.077 C 
HETATM   18  C25 UNL     1      18.229  -0.809  53.159  1.00  0.00     0.002 C 
HETATM   19  C26 UNL     1      19.533  -0.741  53.942  1.00  0.00     0.055 C 
HETATM   20 CL1  UNL     1      20.900  -1.062  52.878  1.00  0.00    -0.115 Cl
HETATM   21  C27 UNL     1      19.684   0.352  54.882  1.00  0.00     0.030 C 
HETATM   22  C28 UNL     1      18.490   0.365  55.771  1.00  0.00     0.011 C 
HETATM   23  C29 UNL     1      17.510  -0.727  55.435  1.00  0.00     0.019 C 
HETATM   24  C30 UNL     1      18.141  -2.050  55.664  1.00  0.00     0.011 C 
HETATM   25  C31 UNL     1      19.334  -2.076  54.764  1.00  0.00     0.036 C 
ENDROOT
BRANCH   1  26
HETATM   26  C10 UNL     1      17.519  -3.704  58.184  1.00  0.00     0.047 C 
BRANCH  26  27
HETATM   27  C9  UNL     1      18.215  -2.551  58.790  1.00  0.00     0.129 C 
BRANCH  27  28
HETATM   28  N1  UNL     1      17.565  -2.177  60.049  1.00  0.00    -0.374 N 
BRANCH  28  29
HETATM   29  C2  UNL     1      16.860  -0.971  60.075  1.00  0.00     0.058 C 
HETATM   30  C1  UNL     1      17.155  -0.032  61.211  1.00  0.00     0.055 C 
ENDBRANCH  28  29
BRANCH  28  31
HETATM   31  C3  UNL     1      18.353  -2.459  61.183  1.00  0.00     0.063 C 
BRANCH  31  32
HETATM   32  C4  UNL     1      19.746  -2.896  60.954  1.00  0.00     0.054 C 
BRANCH  32  33
HETATM   33  C5  UNL     1      19.932  -4.371  61.338  1.00  0.00     0.053 C 
HETATM   34  C6  UNL     1      18.794  -4.806  62.229  1.00  0.00     0.186 C 
HETATM   35  O1  UNL     1      19.286  -4.798  63.542  1.00  0.00    -0.319 OA
HETATM   36  C7  UNL     1      20.686  -4.759  63.531  1.00  0.00     0.288 C 
HETATM   37  O2  UNL     1      21.439  -4.825  64.533  1.00  0.00    -0.262 OA
HETATM   38  C8  UNL     1      21.160  -4.626  62.132  1.00  0.00     0.224 C 
BRANCH  38  39
HETATM   39  O3  UNL     1      21.680  -5.896  61.791  1.00  0.00    -0.385 OA
ATOM     40  H3  UNL     1      21.216  -6.566  62.280  1.00  0.00     0.210 HD
ENDBRANCH  38  39
ENDBRANCH  32  33
ENDBRANCH  31  32
ENDBRANCH  28  31
ENDBRANCH  27  28
ENDBRANCH  26  27
ENDBRANCH   1  26
TORSDOF 8
ENDMDL
MODEL 3
REMARK VINA RESULT: -9.299738909      2.163      4.550
REMARK  8 active torsions:
REMARK  status: ('A' for Active; 'I' for Inactive)
REMARK    1  A    between atoms: C2_2  and  N1_3 
REMARK    2  A    between atoms: N1_3  and  C3_4 
REMARK    3  A    between atoms: N1_3  and  C9_14 
REMARK    4  A    between atoms: C3_4  and  C4_5 
REMARK    5  A    between atoms: C4_5  and  C5_6 
REMARK    6  A    between atoms: C8_11  and  O3_12 
REMARK    7  A    between atoms: C9_14  and  C10_15 
REMARK    8  A    between atoms: C10_15  and  C11_16 
ROOT
HETATM    1  C11 UNL     1      16.189  -2.834  57.517  1.00  0.00     0.072 C 
HETATM    2  C12 UNL     1      14.822  -2.426  57.999  1.00  0.00     0.071 C 
HETATM    3  N2  UNL     1      13.736  -2.100  58.340  1.00  0.00    -0.196 NA
HETATM    4  C13 UNL     1      16.160  -4.211  56.957  1.00  0.00     0.020 C 
HETATM    5  C14 UNL     1      17.555  -4.818  56.874  1.00  0.00     0.024 C 
HETATM    6  C15 UNL     1      15.347  -5.042  57.897  1.00  0.00    -0.007 C 
HETATM    7  N3  UNL     1      15.634  -4.797  59.157  1.00  0.00    -0.386 N 
ATOM      8  H3  UNL     1      15.090  -5.357  59.813  1.00  0.00     0.160 HD
HETATM    9  C16 UNL     1      16.526  -3.932  59.781  1.00  0.00     0.031 C 
HETATM   10  C17 UNL     1      15.741  -3.496  61.072  1.00  0.00     0.039 C 
HETATM   11  C18 UNL     1      17.668  -4.635  60.511  1.00  0.00     0.039 C 
HETATM   12  C19 UNL     1      16.918  -2.782  58.940  1.00  0.00    -0.001 C 
HETATM   13  C20 UNL     1      18.357  -2.434  58.833  1.00  0.00     0.019 C 
HETATM   14  C21 UNL     1      16.308  -1.509  59.568  1.00  0.00     0.019 C 
HETATM   15  C22 UNL     1      14.283  -6.083  57.985  1.00  0.00     0.057 C 
HETATM   16  C23 UNL     1      13.398  -6.298  56.768  1.00  0.00     0.040 C 
HETATM   17  C24 UNL     1      14.168  -5.899  55.605  1.00  0.00    -0.077 C 
HETATM   18  C25 UNL     1      14.766  -6.778  54.850  1.00  0.00     0.002 C 
HETATM   19  C26 UNL     1      15.530  -6.089  53.728  1.00  0.00     0.055 C 
HETATM   20 CL1  UNL     1      16.583  -7.242  52.911  1.00  0.00    -0.115 Cl
HETATM   21  C27 UNL     1      14.785  -5.178  52.882  1.00  0.00     0.030 C 
HETATM   22  C28 UNL     1      14.076  -4.208  53.760  1.00  0.00     0.011 C 
HETATM   23  C29 UNL     1      14.335  -4.457  55.221  1.00  0.00     0.019 C 
HETATM   24  C30 UNL     1      15.776  -4.255  55.513  1.00  0.00     0.011 C 
HETATM   25  C31 UNL     1      16.494  -5.237  54.645  1.00  0.00     0.036 C 
ENDROOT
BRANCH   1  26
HETATM   26  C10 UNL     1      16.788  -1.674  56.850  1.00  0.00     0.047 C 
BRANCH  26  27
HETATM   27  C9  UNL     1      16.445  -1.247  55.478  1.00  0.00     0.129 C 
BRANCH  27  28
HETATM   28  N1  UNL     1      17.664  -0.900  54.741  1.00  0.00    -0.374 N 
BRANCH  28  29
HETATM   29  C2  UNL     1      18.175  -1.855  53.859  1.00  0.00     0.058 C 
HETATM   30  C1  UNL     1      19.334  -2.681  54.343  1.00  0.00     0.055 C 
ENDBRANCH  28  29
BRANCH  28  31
HETATM   31  C3  UNL     1      18.610  -0.214  55.530  1.00  0.00     0.063 C 
BRANCH  31  32
HETATM   32  C4  UNL     1      18.747   1.242  55.319  1.00  0.00     0.054 C 
BRANCH  32  33
HETATM   33  C5  UNL     1      20.223   1.666  55.339  1.00  0.00     0.053 C 
HETATM   34  C6  UNL     1      20.607   2.216  53.987  1.00  0.00     0.186 C 
HETATM   35  O1  UNL     1      21.304   1.198  53.321  1.00  0.00    -0.319 OA
HETATM   36  C7  UNL     1      21.708   0.215  54.235  1.00  0.00     0.288 C 
HETATM   37  O2  UNL     1      22.420  -0.786  53.981  1.00  0.00    -0.262 OA
HETATM   38  C8  UNL     1      21.160   0.538  55.574  1.00  0.00     0.224 C 
BRANCH  38  39
HETATM   39  O3  UNL     1      22.263   0.998  56.329  1.00  0.00    -0.385 OA
ATOM     40  H3  UNL     1      22.608   1.789  55.930  1.00  0.00     0.210 HD
ENDBRANCH  38  39
ENDBRANCH  32  33
ENDBRANCH  31  32
ENDBRANCH  28  31
ENDBRANCH  27  28
ENDBRANCH  26  27
ENDBRANCH   1  26
TORSDOF 8
ENDMDL
MODEL 4
REMARK VINA RESULT: -9.283739899      1.383      1.762
REMARK  8 active torsions:
REMARK  status: ('A' for Active; 'I' for Inactive)
REMARK    1  A    between atoms: C2_2  and  N1_3 
REMARK    2  A    between atoms: N1_3  and  C3_4 
REMARK    3  A    between atoms: N1_3  and  C9_14 
REMARK    4  A    between atoms: C3_4  and  C4_5 
REMARK    5  A    between atoms: C4_5  and  C5_6 
REMARK    6  A    between atoms: C8_11  and  O3_12 
REMARK    7  A    between atoms: C9_14  and  C10_15 
REMARK    8  A    between atoms: C10_15  and  C11_16 
ROOT
HETATM    1  C11 UNL     1      16.094  -3.955  54.844  1.00  0.00     0.072 C 
HETATM    2  C12 UNL     1      17.523  -4.139  54.403  1.00  0.00     0.071 C 
HETATM    3  N2  UNL     1      18.654  -4.247  54.070  1.00  0.00    -0.196 NA
HETATM    4  C13 UNL     1      15.975  -4.107  56.318  1.00  0.00     0.020 C 
HETATM    5  C14 UNL     1      14.537  -4.369  56.745  1.00  0.00     0.024 C 
HETATM    6  C15 UNL     1      16.797  -5.297  56.697  1.00  0.00    -0.007 C 
HETATM    7  N3  UNL     1      16.631  -6.303  55.866  1.00  0.00    -0.386 N 
ATOM      8  H3  UNL     1      17.183  -7.125  56.111  1.00  0.00     0.160 HD
HETATM    9  C16 UNL     1      15.860  -6.479  54.723  1.00  0.00     0.031 C 
HETATM   10  C17 UNL     1      16.777  -7.385  53.822  1.00  0.00     0.039 C 
HETATM   11  C18 UNL     1      14.731  -7.495  54.885  1.00  0.00     0.039 C 
HETATM   12  C19 UNL     1      15.489  -5.212  54.062  1.00  0.00    -0.001 C 
HETATM   13  C20 UNL     1      14.076  -5.005  53.656  1.00  0.00     0.019 C 
HETATM   14  C21 UNL     1      16.240  -5.146  52.714  1.00  0.00     0.019 C 
HETATM   15  C22 UNL     1      17.784  -5.825  57.682  1.00  0.00     0.057 C 
HETATM   16  C23 UNL     1      18.550  -4.820  58.527  1.00  0.00     0.040 C 
HETATM   17  C24 UNL     1      17.721  -3.635  58.636  1.00  0.00    -0.077 C 
HETATM   18  C25 UNL     1      17.000  -3.403  59.698  1.00  0.00     0.002 C 
HETATM   19  C26 UNL     1      16.201  -2.117  59.534  1.00  0.00     0.055 C 
HETATM   20 CL1  UNL     1      15.003  -1.977  60.818  1.00  0.00    -0.115 Cl
HETATM   21  C27 UNL     1      16.942  -0.916  59.203  1.00  0.00     0.030 C 
HETATM   22  C28 UNL     1      17.790  -1.209  58.015  1.00  0.00     0.011 C 
HETATM   23  C29 UNL     1      17.631  -2.625  57.529  1.00  0.00     0.019 C 
HETATM   24  C30 UNL     1      16.238  -2.839  57.066  1.00  0.00     0.011 C 
HETATM   25  C31 UNL     1      15.381  -2.561  58.259  1.00  0.00     0.036 C 
ENDROOT
BRANCH   1  26
HETATM   26  C10 UNL     1      15.532  -2.843  54.070  1.00  0.00     0.047 C 
BRANCH  26  27
HETATM   27  C9  UNL     1      16.343  -1.758  53.482  1.00  0.00     0.129 C 
BRANCH  27  28
HETATM   28  N1  UNL     1      16.101  -0.503  54.201  1.00  0.00    -0.374 N 
BRANCH  28  29
HETATM   29  C2  UNL     1      15.161   0.376  53.658  1.00  0.00     0.058 C 
HETATM   30  C1  UNL     1      14.977   0.344  52.167  1.00  0.00     0.055 C 
ENDBRANCH  28  29
BRANCH  28  31
HETATM   31  C3  UNL     1      17.280   0.082  54.705  1.00  0.00     0.063 C 
BRANCH  31  32
HETATM   32  C4  UNL     1      18.563  -0.560  54.354  1.00  0.00     0.054 C 
BRANCH  32  33
HETATM   33  C5  UNL     1      19.740   0.143  55.048  1.00  0.00     0.053 C 
HETATM   34  C6  UNL     1      19.385   1.589  55.298  1.00  0.00     0.186 C 
HETATM   35  O1  UNL     1      20.023   2.338  54.300  1.00  0.00    -0.319 OA
HETATM   36  C7  UNL     1      21.017   1.568  53.682  1.00  0.00     0.288 C 
HETATM   37  O2  UNL     1      21.825   1.962  52.807  1.00  0.00    -0.262 OA
HETATM   38  C8  UNL     1      20.973   0.188  54.223  1.00  0.00     0.224 C 
BRANCH  38  39
HETATM   39  O3  UNL     1      22.103   0.081  55.066  1.00  0.00    -0.385 OA
ATOM     40  H3  UNL     1      22.020   0.703  55.780  1.00  0.00     0.210 HD
ENDBRANCH  38  39
ENDBRANCH  32  33
ENDBRANCH  31  32
ENDBRANCH  28  31
ENDBRANCH  27  28
ENDBRANCH  26  27
ENDBRANCH   1  26
TORSDOF 8
ENDMDL
MODEL 5
REMARK VINA RESULT: -9.235654849      3.573      6.020
REMARK  8 active torsions:
REMARK  status: ('A' for Active; 'I' for Inactive)
REMARK    1  A    between atoms: C2_2  and  N1_3 
REMARK    2  A    between atoms: N1_3  and  C3_4 
REMARK    3  A    between atoms: N1_3  and  C9_14 
REMARK    4  A    between atoms: C3_4  and  C4_5 
REMARK    5  A    between atoms: C4_5  and  C5_6 
REMARK    6  A    between atoms: C8_11  and  O3_12 
REMARK    7  A    between atoms: C9_14  and  C10_15 
REMARK    8  A    between atoms: C10_15  and  C11_16 
ROOT
HETATM    1  C11 UNL     1      16.145  -4.983  55.184  1.00  0.00     0.072 C 
HETATM    2  C12 UNL     1      14.845  -4.471  55.747  1.00  0.00     0.071 C 
HETATM    3  N2  UNL     1      13.844  -4.048  56.217  1.00  0.00    -0.196 NA
HETATM    4  C13 UNL     1      16.818  -3.932  54.377  1.00  0.00     0.020 C 
HETATM    5  C14 UNL     1      17.873  -4.520  53.449  1.00  0.00     0.024 C 
HETATM    6  C15 UNL     1      15.762  -3.292  53.535  1.00  0.00    -0.007 C 
HETATM    7  N3  UNL     1      14.943  -4.174  53.005  1.00  0.00    -0.386 N 
ATOM      8  H3  UNL     1      14.217  -3.754  52.424  1.00  0.00     0.160 HD
HETATM    9  C16 UNL     1      14.861  -5.560  53.071  1.00  0.00     0.031 C 
HETATM   10  C17 UNL     1      13.310  -5.817  53.052  1.00  0.00     0.039 C 
HETATM   11  C18 UNL     1      15.162  -6.265  51.751  1.00  0.00     0.039 C 
HETATM   12  C19 UNL     1      15.516  -6.132  54.265  1.00  0.00    -0.001 C 
HETATM   13  C20 UNL     1      16.430  -7.289  54.093  1.00  0.00     0.019 C 
HETATM   14  C21 UNL     1      14.412  -6.707  55.179  1.00  0.00     0.019 C 
HETATM   15  C22 UNL     1      15.234  -1.990  53.035  1.00  0.00     0.057 C 
HETATM   16  C23 UNL     1      15.640  -0.727  53.777  1.00  0.00     0.040 C 
HETATM   17  C24 UNL     1      16.921  -0.993  54.402  1.00  0.00    -0.077 C 
HETATM   18  C25 UNL     1      18.038  -0.581  53.869  1.00  0.00     0.002 C 
HETATM   19  C26 UNL     1      19.229  -1.028  54.706  1.00  0.00     0.055 C 
HETATM   20 CL1  UNL     1      20.730  -0.749  53.826  1.00  0.00    -0.115 Cl
HETATM   21  C27 UNL     1      19.223  -0.668  56.110  1.00  0.00     0.030 C 
HETATM   22  C28 UNL     1      17.927  -1.108  56.694  1.00  0.00     0.011 C 
HETATM   23  C29 UNL     1      17.035  -1.773  55.680  1.00  0.00     0.019 C 
HETATM   24  C30 UNL     1      17.676  -3.019  55.193  1.00  0.00     0.011 C 
HETATM   25  C31 UNL     1      18.973  -2.583  54.592  1.00  0.00     0.036 C 
ENDROOT
BRANCH   1  26
HETATM   26  C10 UNL     1      16.796  -5.781  56.228  1.00  0.00     0.047 C 
BRANCH  26  27
HETATM   27  C9  UNL     1      17.299  -5.218  57.498  1.00  0.00     0.129 C 
BRANCH  27  28
HETATM   28  N1  UNL     1      18.765  -5.243  57.512  1.00  0.00    -0.374 N 
BRANCH  28  29
HETATM   29  C2  UNL     1      19.395  -6.333  56.906  1.00  0.00     0.058 C 
HETATM   30  C1  UNL     1      20.279  -6.041  55.726  1.00  0.00     0.055 C 
ENDBRANCH  28  29
BRANCH  28  31
HETATM   31  C3  UNL     1      19.313  -4.812  58.737  1.00  0.00     0.063 C 
BRANCH  31  32
HETATM   32  C4  UNL     1      18.830  -3.528  59.286  1.00  0.00     0.054 C 
BRANCH  32  33
HETATM   33  C5  UNL     1      18.373  -3.689  60.744  1.00  0.00     0.053 C 
HETATM   34  C6  UNL     1      18.205  -2.326  61.370  1.00  0.00     0.186 C 
HETATM   35  O1  UNL     1      19.346  -2.099  62.153  1.00  0.00    -0.319 OA
HETATM   36  C7  UNL     1      20.027  -3.303  62.370  1.00  0.00     0.288 C 
HETATM   37  O2  UNL     1      21.039  -3.464  63.095  1.00  0.00    -0.262 OA
HETATM   38  C8  UNL     1      19.365  -4.385  61.601  1.00  0.00     0.224 C 
BRANCH  38  39
HETATM   39  O3  UNL     1      18.684  -5.164  62.564  1.00  0.00    -0.385 OA
ATOM     40  H3  UNL     1      19.277  -5.819  62.914  1.00  0.00     0.210 HD
ENDBRANCH  38  39
ENDBRANCH  32  33
ENDBRANCH  31  32
ENDBRANCH  28  31
ENDBRANCH  27  28
ENDBRANCH  26  27
ENDBRANCH   1  26
TORSDOF 8
ENDMDL
