MODEL 1
REMARK VINA RESULT: -6.947211774      0.000      0.000
REMARK  6 active torsions:
REMARK  status: ('A' for Active; 'I' for Inactive)
REMARK    1  A    between atoms: C2_2  and  C3_3 
REMARK    2  A    between atoms: C3_3  and  C4_4 
REMARK    3  A    between atoms: C5_5  and  C6_6 
REMARK    4  A    between atoms: C6_6  and  C7_7 
REMARK    5  A    between atoms: N1_12  and  N2_14 
REMARK    6  A    between atoms: N2_14  and  C12_16 
ROOT
HETATM    1  C7  UNL     1     -46.486   3.953  30.511  1.00  0.00     0.086 C 
HETATM    2  C8  UNL     1     -45.682   5.059  29.935  1.00  0.00     0.026 C 
HETATM    3  C9  UNL     1     -44.237   4.976  30.446  1.00  0.00     0.010 C 
HETATM    4  C10 UNL     1     -44.298   5.348  31.913  1.00  0.00     0.077 C 
HETATM    5  C11 UNL     1     -45.101   4.297  32.592  1.00  0.00     0.092 C 
HETATM    6  N1  UNL     1     -44.743   3.895  33.761  1.00  0.00    -0.287 N 
ATOM      7  H1  UNL     1     -43.920   4.291  34.215  1.00  0.00     0.188 HD
HETATM    8  N4  UNL     1     -46.225   3.773  31.946  1.00  0.00    -0.374 N 
ATOM      9  H4  UNL     1     -46.897   3.239  32.498  1.00  0.00     0.161 HD
ENDROOT
BRANCH   6  10
HETATM   10  N2  UNL     1     -45.495   2.916  34.393  1.00  0.00    -0.277 N 
ATOM     11  H2  UNL     1     -46.515   2.945  34.386  1.00  0.00     0.189 HD
BRANCH  10  12
HETATM   12  C12 UNL     1     -44.786   1.862  35.054  1.00  0.00     0.199 C 
HETATM   13  N3  UNL     1     -43.363   1.872  34.991  1.00  0.00    -0.068 NA
HETATM   14  S1  UNL     1     -45.551   0.682  35.855  1.00  0.00    -0.043 SA
ENDBRANCH  10  12
ENDBRANCH   6  10
BRANCH   1  15
HETATM   15  C6  UNL     1     -46.262   2.655  29.781  1.00  0.00     0.051 C 
BRANCH  15  16
HETATM   16  C5  UNL     1     -46.724   2.705  28.381  1.00  0.00    -0.029 C 
HETATM   17  C4  UNL     1     -45.875   3.015  27.415  1.00  0.00    -0.031 C 
BRANCH  17  18
HETATM   18  C3  UNL     1     -46.342   3.065  25.997  1.00  0.00     0.026 C 
BRANCH  18  19
HETATM   19  C2  UNL     1     -45.455   4.062  25.256  1.00  0.00    -0.001 C 
HETATM   20  C1  UNL     1     -44.994   5.068  26.312  1.00  0.00     0.005 C 
ENDBRANCH  18  19
ENDBRANCH  17  18
ENDBRANCH  15  16
ENDBRANCH   1  15
TORSDOF 6
ENDMDL
MODEL 2
REMARK VINA RESULT: -6.776715064      4.234      5.223
REMARK  6 active torsions:
REMARK  status: ('A' for Active; 'I' for Inactive)
REMARK    1  A    between atoms: C2_2  and  C3_3 
REMARK    2  A    between atoms: C3_3  and  C4_4 
REMARK    3  A    between atoms: C5_5  and  C6_6 
REMARK    4  A    between atoms: C6_6  and  C7_7 
REMARK    5  A    between atoms: N1_12  and  N2_14 
REMARK    6  A    between atoms: N2_14  and  C12_16 
ROOT
HETATM    1  C7  UNL     1     -44.268   5.440  30.125  1.00  0.00     0.086 C 
HETATM    2  C8  UNL     1     -45.496   4.818  30.676  1.00  0.00     0.026 C 
HETATM    3  C9  UNL     1     -46.612   5.867  30.781  1.00  0.00     0.010 C 
HETATM    4  C10 UNL     1     -46.193   6.803  31.896  1.00  0.00     0.077 C 
HETATM    5  C11 UNL     1     -44.947   7.478  31.447  1.00  0.00     0.092 C 
HETATM    6  N1  UNL     1     -44.779   8.725  31.722  1.00  0.00    -0.287 N 
ATOM      7  H1  UNL     1     -45.489   9.241  32.241  1.00  0.00     0.188 HD
HETATM    8  N4  UNL     1     -43.990   6.747  30.738  1.00  0.00    -0.374 N 
ATOM      9  H4  UNL     1     -43.053   7.138  30.642  1.00  0.00     0.161 HD
ENDROOT
BRANCH   6  10
HETATM   10  N2  UNL     1     -43.616   9.353  31.303  1.00  0.00    -0.277 N 
ATOM     11  H2  UNL     1     -43.196   9.140  30.398  1.00  0.00     0.189 HD
BRANCH  10  12
HETATM   12  C12 UNL     1     -43.027  10.312  32.188  1.00  0.00     0.199 C 
HETATM   13  N3  UNL     1     -41.678  10.702  31.950  1.00  0.00    -0.068 NA
HETATM   14  S1  UNL     1     -43.845  10.950  33.431  1.00  0.00    -0.043 SA
ENDBRANCH  10  12
ENDBRANCH   6  10
BRANCH   1  15
HETATM   15  C6  UNL     1     -44.331   5.578  28.627  1.00  0.00     0.051 C 
BRANCH  15  16
HETATM   16  C5  UNL     1     -45.080   4.481  27.987  1.00  0.00    -0.029 C 
HETATM   17  C4  UNL     1     -45.213   4.450  26.672  1.00  0.00    -0.031 C 
BRANCH  17  18
HETATM   18  C3  UNL     1     -45.972   3.340  26.023  1.00  0.00     0.026 C 
BRANCH  18  19
HETATM   19  C2  UNL     1     -46.294   2.310  27.103  1.00  0.00    -0.001 C 
HETATM   20  C1  UNL     1     -47.775   1.970  26.921  1.00  0.00     0.005 C 
ENDBRANCH  18  19
ENDBRANCH  17  18
ENDBRANCH  15  16
ENDBRANCH   1  15
TORSDOF 6
ENDMDL
MODEL 3
REMARK VINA RESULT: -6.752848778      1.299      1.913
REMARK  6 active torsions:
REMARK  status: ('A' for Active; 'I' for Inactive)
REMARK    1  A    between atoms: C2_2  and  C3_3 
REMARK    2  A    between atoms: C3_3  and  C4_4 
REMARK    3  A    between atoms: C5_5  and  C6_6 
REMARK    4  A    between atoms: C6_6  and  C7_7 
REMARK    5  A    between atoms: N1_12  and  N2_14 
REMARK    6  A    between atoms: N2_14  and  C12_16 
ROOT
HETATM    1  C7  UNL     1     -45.953   5.397  30.356  1.00  0.00     0.086 C 
HETATM    2  C8  UNL     1     -46.188   6.828  30.670  1.00  0.00     0.026 C 
HETATM    3  C9  UNL     1     -45.444   7.210  31.957  1.00  0.00     0.010 C 
HETATM    4  C10 UNL     1     -46.175   6.505  33.081  1.00  0.00     0.077 C 
HETATM    5  C11 UNL     1     -46.012   5.045  32.854  1.00  0.00     0.092 C 
HETATM    6  N1  UNL     1     -45.823   4.273  33.866  1.00  0.00    -0.287 N 
ATOM      7  H1  UNL     1     -45.787   4.657  34.811  1.00  0.00     0.188 HD
HETATM    8  N4  UNL     1     -46.066   4.546  31.549  1.00  0.00    -0.374 N 
ATOM      9  H4  UNL     1     -46.192   3.542  31.419  1.00  0.00     0.161 HD
ENDROOT
BRANCH   6  10
HETATM   10  N2  UNL     1     -45.672   2.911  33.653  1.00  0.00    -0.277 N 
ATOM     11  H2  UNL     1     -45.914   2.486  32.757  1.00  0.00     0.189 HD
BRANCH  10  12
HETATM   12  C12 UNL     1     -45.163   2.125  34.735  1.00  0.00     0.199 C 
HETATM   13  N3  UNL     1     -43.753   2.099  34.937  1.00  0.00    -0.068 NA
HETATM   14  S1  UNL     1     -46.135   1.281  35.716  1.00  0.00    -0.043 SA
ENDBRANCH  10  12
ENDBRANCH   6  10
BRANCH   1  15
HETATM   15  C6  UNL     1     -44.619   5.179  29.694  1.00  0.00     0.051 C 
BRANCH  15  16
HETATM   16  C5  UNL     1     -44.675   5.362  28.232  1.00  0.00    -0.029 C 
HETATM   17  C4  UNL     1     -45.049   4.360  27.453  1.00  0.00    -0.031 C 
BRANCH  17  18
HETATM   18  C3  UNL     1     -45.106   4.545  25.972  1.00  0.00     0.026 C 
BRANCH  18  19
HETATM   19  C2  UNL     1     -46.153   3.576  25.428  1.00  0.00    -0.001 C 
HETATM   20  C1  UNL     1     -46.452   2.607  26.573  1.00  0.00     0.005 C 
ENDBRANCH  18  19
ENDBRANCH  17  18
ENDBRANCH  15  16
ENDBRANCH   1  15
TORSDOF 6
ENDMDL
MODEL 4
REMARK VINA RESULT: -6.671769388      3.113      3.567
REMARK  6 active torsions:
REMARK  status: ('A' for Active; 'I' for Inactive)
REMARK    1  A    between atoms: C2_2  and  C3_3 
REMARK    2  A    between atoms: C3_3  and  C4_4 
REMARK    3  A    between atoms: C5_5  and  C6_6 
REMARK    4  A    between atoms: C6_6  and  C7_7 
REMARK    5  A    between atoms: N1_12  and  N2_14 
REMARK    6  A    between atoms: N2_14  and  C12_16 
ROOT
HETATM    1  C7  UNL     1     -46.870   5.939  31.595  1.00  0.00     0.086 C 
HETATM    2  C8  UNL     1     -46.024   7.119  31.292  1.00  0.00     0.026 C 
HETATM    3  C9  UNL     1     -45.141   7.454  32.502  1.00  0.00     0.010 C 
HETATM    4  C10 UNL     1     -46.081   7.990  33.562  1.00  0.00     0.077 C 
HETATM    5  C11 UNL     1     -46.993   6.877  33.934  1.00  0.00     0.092 C 
HETATM    6  N1  UNL     1     -47.328   6.729  35.168  1.00  0.00    -0.287 N 
ATOM      7  H1  UNL     1     -46.973   7.367  35.881  1.00  0.00     0.188 HD
HETATM    8  N4  UNL     1     -47.465   6.017  32.937  1.00  0.00    -0.374 N 
ATOM      9  H4  UNL     1     -48.260   5.416  33.151  1.00  0.00     0.161 HD
ENDROOT
BRANCH   6  10
HETATM   10  N2  UNL     1     -48.179   5.690  35.513  1.00  0.00    -0.277 N 
ATOM     11  H2  UNL     1     -48.854   5.315  34.846  1.00  0.00     0.189 HD
BRANCH  10  12
HETATM   12  C12 UNL     1     -48.076   5.164  36.841  1.00  0.00     0.199 C 
HETATM   13  N3  UNL     1     -49.217   4.515  37.393  1.00  0.00    -0.068 NA
HETATM   14  S1  UNL     1     -46.718   5.290  37.711  1.00  0.00    -0.043 SA
ENDBRANCH  10  12
ENDBRANCH   6  10
BRANCH   1  15
HETATM   15  C6  UNL     1     -46.110   4.649  31.444  1.00  0.00     0.051 C 
BRANCH  15  16
HETATM   16  C5  UNL     1     -45.399   4.556  30.155  1.00  0.00    -0.029 C 
HETATM   17  C4  UNL     1     -45.921   3.858  29.160  1.00  0.00    -0.031 C 
BRANCH  17  18
HETATM   18  C3  UNL     1     -45.202   3.764  27.855  1.00  0.00     0.026 C 
BRANCH  18  19
HETATM   19  C2  UNL     1     -44.921   5.188  27.381  1.00  0.00    -0.001 C 
HETATM   20  C1  UNL     1     -44.931   5.124  25.853  1.00  0.00     0.005 C 
ENDBRANCH  18  19
ENDBRANCH  17  18
ENDBRANCH  15  16
ENDBRANCH   1  15
TORSDOF 6
ENDMDL
MODEL 5
REMARK VINA RESULT: -6.602279617      4.027      4.983
REMARK  6 active torsions:
REMARK  status: ('A' for Active; 'I' for Inactive)
REMARK    1  A    between atoms: C2_2  and  C3_3 
REMARK    2  A    between atoms: C3_3  and  C4_4 
REMARK    3  A    between atoms: C5_5  and  C6_6 
REMARK    4  A    between atoms: C6_6  and  C7_7 
REMARK    5  A    between atoms: N1_12  and  N2_14 
REMARK    6  A    between atoms: N2_14  and  C12_16 
ROOT
HETATM    1  C7  UNL     1     -44.228   5.316  30.513  1.00  0.00     0.086 C 
HETATM    2  C8  UNL     1     -45.362   4.465  30.950  1.00  0.00     0.026 C 
HETATM    3  C9  UNL     1     -46.643   5.305  31.036  1.00  0.00     0.010 C 
HETATM    4  C10 UNL     1     -46.453   6.227  32.222  1.00  0.00     0.077 C 
HETATM    5  C11 UNL     1     -45.317   7.127  31.891  1.00  0.00     0.092 C 
HETATM    6  N1  UNL     1     -45.379   8.364  32.240  1.00  0.00    -0.287 N 
ATOM      7  H1  UNL     1     -46.194   8.722  32.737  1.00  0.00     0.188 HD
HETATM    8  N4  UNL     1     -44.211   6.610  31.210  1.00  0.00    -0.374 N 
ATOM      9  H4  UNL     1     -43.350   7.157  31.196  1.00  0.00     0.161 HD
ENDROOT
BRANCH   6  10
HETATM   10  N2  UNL     1     -44.317   9.202  31.931  1.00  0.00    -0.277 N 
ATOM     11  H2  UNL     1     -43.924   9.233  30.990  1.00  0.00     0.189 HD
BRANCH  10  12
HETATM   12  C12 UNL     1     -43.795  10.023  32.982  1.00  0.00     0.199 C 
HETATM   13  N3  UNL     1     -44.475  10.018  34.233  1.00  0.00    -0.068 NA
HETATM   14  S1  UNL     1     -42.476  10.937  32.783  1.00  0.00    -0.043 SA
ENDBRANCH  10  12
ENDBRANCH   6  10
BRANCH   1  15
HETATM   15  C6  UNL     1     -44.229   5.533  29.024  1.00  0.00     0.051 C 
BRANCH  15  16
HETATM   16  C5  UNL     1     -44.978   4.490  28.299  1.00  0.00    -0.029 C 
HETATM   17  C4  UNL     1     -45.043   4.520  26.978  1.00  0.00    -0.031 C 
BRANCH  17  18
HETATM   18  C3  UNL     1     -45.801   3.464  26.243  1.00  0.00     0.026 C 
BRANCH  18  19
HETATM   19  C2  UNL     1     -46.156   2.369  27.246  1.00  0.00    -0.001 C 
HETATM   20  C1  UNL     1     -47.609   1.994  26.952  1.00  0.00     0.005 C 
ENDBRANCH  18  19
ENDBRANCH  17  18
ENDBRANCH  15  16
ENDBRANCH   1  15
TORSDOF 6
ENDMDL
