MODEL 1
REMARK VINA RESULT: -5.552198125      0.000      0.000
REMARK  7 active torsions:
REMARK  status: ('A' for Active; 'I' for Inactive)
REMARK    1  A    between atoms: C2_2  and  C3_3 
REMARK    2  A    between atoms: C3_3  and  C4_4 
REMARK    3  A    between atoms: C4_4  and  N1_5 
REMARK    4  A    between atoms: N1_5  and  C5_7 
REMARK    5  A    between atoms: C5_7  and  N2_9 
REMARK    6  A    between atoms: N3_13  and  C9_14 
REMARK    7  A    between atoms: C9_14  and  N4_16 
ROOT
HETATM    1  N2  UNL     1      -3.937   4.774  11.035  1.00  0.00    -0.353 N 
HETATM    2  C6  UNL     1      -4.001   3.376  10.723  1.00  0.00     0.159 C 
HETATM    3  C7  UNL     1      -3.485   2.624  11.962  1.00  0.00     0.158 C 
HETATM    4  C8  UNL     1      -4.615   2.169  12.836  1.00  0.00     0.159 C 
HETATM    5  N3  UNL     1      -4.525   2.656  14.200  1.00  0.00    -0.353 N 
HETATM    6  C11 UNL     1      -3.820   3.877  14.502  1.00  0.00     0.159 C 
HETATM    7  C12 UNL     1      -3.163   4.479  13.273  1.00  0.00     0.158 C 
HETATM    8  C13 UNL     1      -4.160   5.176  12.407  1.00  0.00     0.159 C 
HETATM    9  O1  UNL     1      -2.534   3.393  12.626  1.00  0.00    -0.374 OA
ENDROOT
BRANCH   1  10
HETATM   10  C5  UNL     1      -3.675   5.783  10.082  1.00  0.00     0.169 C 
HETATM   11  S1  UNL     1      -2.148   6.186   9.641  1.00  0.00    -0.041 SA
BRANCH  10  12
HETATM   12  N1  UNL     1      -4.747   6.477   9.482  1.00  0.00    -0.367 N 
ATOM     13  H1  UNL     1      -5.529   5.969   9.069  1.00  0.00     0.161 HD
BRANCH  12  14
HETATM   14  C4  UNL     1      -4.716   7.928   9.464  1.00  0.00     0.122 C 
BRANCH  14  15
HETATM   15  C3  UNL     1      -5.070   8.450  10.830  1.00  0.00     0.019 C 
BRANCH  15  16
HETATM   16  C2  UNL     1      -6.506   8.932  10.865  1.00  0.00    -0.003 C 
HETATM   17  C1  UNL     1      -7.314   7.888  11.603  1.00  0.00     0.005 C 
ENDBRANCH  15  16
ENDBRANCH  14  15
ENDBRANCH  12  14
ENDBRANCH  10  12
ENDBRANCH   1  10
BRANCH   5  18
HETATM   18  C9  UNL     1      -5.123   1.955  15.290  1.00  0.00     0.169 C 
HETATM   19  S2  UNL     1      -4.509   0.505  15.710  1.00  0.00    -0.041 SA
BRANCH  18  20
HETATM   20  N4  UNL     1      -6.214   2.470  16.006  1.00  0.00    -0.371 N 
HETATM   21  C10 UNL     1      -6.977   1.622  16.875  1.00  0.00     0.148 C 
ATOM     22  H4  UNL     1      -6.466   3.454  15.907  1.00  0.00     0.161 HD
ENDBRANCH  18  20
ENDBRANCH   5  18
TORSDOF 7
ENDMDL
MODEL 2
REMARK VINA RESULT: -5.449529178      3.430      7.079
REMARK  7 active torsions:
REMARK  status: ('A' for Active; 'I' for Inactive)
REMARK    1  A    between atoms: C2_2  and  C3_3 
REMARK    2  A    between atoms: C3_3  and  C4_4 
REMARK    3  A    between atoms: C4_4  and  N1_5 
REMARK    4  A    between atoms: N1_5  and  C5_7 
REMARK    5  A    between atoms: C5_7  and  N2_9 
REMARK    6  A    between atoms: N3_13  and  C9_14 
REMARK    7  A    between atoms: C9_14  and  N4_16 
ROOT
HETATM    1  N2  UNL     1      -2.866   4.034  13.355  1.00  0.00    -0.353 N 
HETATM    2  C6  UNL     1      -2.715   3.366  12.096  1.00  0.00     0.159 C 
HETATM    3  C7  UNL     1      -1.991   4.349  11.160  1.00  0.00     0.158 C 
HETATM    4  C8  UNL     1      -0.513   4.088  11.129  1.00  0.00     0.159 C 
HETATM    5  N3  UNL     1       0.286   5.241  11.496  1.00  0.00    -0.353 N 
HETATM    6  C11 UNL     1      -0.252   6.270  12.352  1.00  0.00     0.159 C 
HETATM    7  C12 UNL     1      -1.706   6.017  12.709  1.00  0.00     0.158 C 
HETATM    8  C13 UNL     1      -1.834   4.964  13.761  1.00  0.00     0.159 C 
HETATM    9  O1  UNL     1      -2.324   5.659  11.492  1.00  0.00    -0.374 OA
ENDROOT
BRANCH   1  10
HETATM   10  C5  UNL     1      -3.959   3.834  14.227  1.00  0.00     0.169 C 
HETATM   11  S1  UNL     1      -5.223   4.877  14.289  1.00  0.00    -0.041 SA
BRANCH  10  12
HETATM   12  N1  UNL     1      -3.980   2.710  15.079  1.00  0.00    -0.367 N 
ATOM     13  H1  UNL     1      -3.111   2.282  15.398  1.00  0.00     0.161 HD
BRANCH  12  14
HETATM   14  C4  UNL     1      -5.264   2.173  15.493  1.00  0.00     0.122 C 
BRANCH  14  15
HETATM   15  C3  UNL     1      -5.051   0.860  16.196  1.00  0.00     0.019 C 
BRANCH  15  16
HETATM   16  C2  UNL     1      -5.946   0.749  17.413  1.00  0.00    -0.003 C 
HETATM   17  C1  UNL     1      -7.334   1.181  16.992  1.00  0.00     0.005 C 
ENDBRANCH  15  16
ENDBRANCH  14  15
ENDBRANCH  12  14
ENDBRANCH  10  12
ENDBRANCH   1  10
BRANCH   5  18
HETATM   18  C9  UNL     1       1.625   5.407  11.030  1.00  0.00     0.169 C 
HETATM   19  S2  UNL     1       1.895   6.437   9.796  1.00  0.00    -0.041 SA
BRANCH  18  20
HETATM   20  N4  UNL     1       2.707   4.717  11.596  1.00  0.00    -0.371 N 
HETATM   21  C10 UNL     1       3.793   5.438  12.196  1.00  0.00     0.148 C 
ATOM     22  H4  UNL     1       2.723   3.698  11.580  1.00  0.00     0.161 HD
ENDBRANCH  18  20
ENDBRANCH   5  18
TORSDOF 7
ENDMDL
MODEL 3
REMARK VINA RESULT: -5.411096232      3.071      6.946
REMARK  7 active torsions:
REMARK  status: ('A' for Active; 'I' for Inactive)
REMARK    1  A    between atoms: C2_2  and  C3_3 
REMARK    2  A    between atoms: C3_3  and  C4_4 
REMARK    3  A    between atoms: C4_4  and  N1_5 
REMARK    4  A    between atoms: N1_5  and  C5_7 
REMARK    5  A    between atoms: C5_7  and  N2_9 
REMARK    6  A    between atoms: N3_13  and  C9_14 
REMARK    7  A    between atoms: C9_14  and  N4_16 
ROOT
HETATM    1  N2  UNL     1      -3.530   3.550  13.474  1.00  0.00    -0.353 N 
HETATM    2  C6  UNL     1      -3.224   3.076  12.156  1.00  0.00     0.159 C 
HETATM    3  C7  UNL     1      -2.632   4.269  11.385  1.00  0.00     0.158 C 
HETATM    4  C8  UNL     1      -1.132   4.247  11.410  1.00  0.00     0.159 C 
HETATM    5  N3  UNL     1      -0.544   5.456  11.956  1.00  0.00    -0.353 N 
HETATM    6  C11 UNL     1      -1.275   6.274  12.894  1.00  0.00     0.159 C 
HETATM    7  C12 UNL     1      -2.681   5.754  13.133  1.00  0.00     0.158 C 
HETATM    8  C13 UNL     1      -2.678   4.571  14.045  1.00  0.00     0.159 C 
HETATM    9  O1  UNL     1      -3.185   5.460  11.848  1.00  0.00    -0.374 OA
ENDROOT
BRANCH   1  10
HETATM   10  C5  UNL     1      -4.609   3.075  14.251  1.00  0.00     0.169 C 
HETATM   11  S1  UNL     1      -5.881   4.032  14.648  1.00  0.00    -0.041 SA
BRANCH  10  12
HETATM   12  N1  UNL     1      -4.610   1.741  14.711  1.00  0.00    -0.367 N 
ATOM     13  H1  UNL     1      -4.698   0.966  14.055  1.00  0.00     0.161 HD
BRANCH  12  14
HETATM   14  C4  UNL     1      -4.483   1.495  16.135  1.00  0.00     0.122 C 
BRANCH  14  15
HETATM   15  C3  UNL     1      -5.499   0.467  16.554  1.00  0.00     0.019 C 
BRANCH  15  16
HETATM   16  C2  UNL     1      -6.765   1.133  17.051  1.00  0.00    -0.003 C 
HETATM   17  C1  UNL     1      -6.396   1.952  18.268  1.00  0.00     0.005 C 
ENDBRANCH  15  16
ENDBRANCH  14  15
ENDBRANCH  12  14
ENDBRANCH  10  12
ENDBRANCH   1  10
BRANCH   5  18
HETATM   18  C9  UNL     1       0.767   5.885  11.592  1.00  0.00     0.169 C 
HETATM   19  S2  UNL     1       0.984   7.445  11.172  1.00  0.00    -0.041 SA
BRANCH  18  20
HETATM   20  N4  UNL     1       1.867   5.015  11.584  1.00  0.00    -0.371 N 
HETATM   21  C10 UNL     1       2.471   4.620  10.344  1.00  0.00     0.148 C 
ATOM     22  H4  UNL     1       2.239   4.660  12.465  1.00  0.00     0.161 HD
ENDBRANCH  18  20
ENDBRANCH   5  18
TORSDOF 7
ENDMDL
MODEL 4
REMARK VINA RESULT: -5.379895112      1.385      1.458
REMARK  7 active torsions:
REMARK  status: ('A' for Active; 'I' for Inactive)
REMARK    1  A    between atoms: C2_2  and  C3_3 
REMARK    2  A    between atoms: C3_3  and  C4_4 
REMARK    3  A    between atoms: C4_4  and  N1_5 
REMARK    4  A    between atoms: N1_5  and  C5_7 
REMARK    5  A    between atoms: C5_7  and  N2_9 
REMARK    6  A    between atoms: N3_13  and  C9_14 
REMARK    7  A    between atoms: C9_14  and  N4_16 
ROOT
HETATM    1  N2  UNL     1      -4.053   4.575  10.831  1.00  0.00    -0.353 N 
HETATM    2  C6  UNL     1      -4.035   3.158  10.615  1.00  0.00     0.159 C 
HETATM    3  C7  UNL     1      -3.488   2.523  11.906  1.00  0.00     0.158 C 
HETATM    4  C8  UNL     1      -4.600   2.064  12.803  1.00  0.00     0.159 C 
HETATM    5  N3  UNL     1      -4.551   2.647  14.130  1.00  0.00    -0.353 N 
HETATM    6  C11 UNL     1      -3.919   3.925  14.352  1.00  0.00     0.159 C 
HETATM    7  C12 UNL     1      -3.285   4.478  13.089  1.00  0.00     0.158 C 
HETATM    8  C13 UNL     1      -4.312   5.057  12.171  1.00  0.00     0.159 C 
HETATM    9  O1  UNL     1      -2.589   3.389  12.522  1.00  0.00    -0.374 OA
ENDROOT
BRANCH   1  10
HETATM   10  C5  UNL     1      -3.839   5.531   9.813  1.00  0.00     0.169 C 
HETATM   11  S1  UNL     1      -2.723   5.307   8.633  1.00  0.00    -0.041 SA
BRANCH  10  12
HETATM   12  N1  UNL     1      -4.598   6.720   9.795  1.00  0.00    -0.367 N 
ATOM     13  H1  UNL     1      -4.531   7.390  10.560  1.00  0.00     0.161 HD
BRANCH  12  14
HETATM   14  C4  UNL     1      -5.477   6.969   8.668  1.00  0.00     0.122 C 
BRANCH  14  15
HETATM   15  C3  UNL     1      -6.907   6.931   9.133  1.00  0.00     0.019 C 
BRANCH  15  16
HETATM   16  C2  UNL     1      -7.855   6.858   7.954  1.00  0.00    -0.003 C 
HETATM   17  C1  UNL     1      -8.924   7.906   8.170  1.00  0.00     0.005 C 
ENDBRANCH  15  16
ENDBRANCH  14  15
ENDBRANCH  12  14
ENDBRANCH  10  12
ENDBRANCH   1  10
BRANCH   5  18
HETATM   18  C9  UNL     1      -5.120   1.990  15.262  1.00  0.00     0.169 C 
HETATM   19  S2  UNL     1      -4.478   0.569  15.737  1.00  0.00    -0.041 SA
BRANCH  18  20
HETATM   20  N4  UNL     1      -6.205   2.522  15.974  1.00  0.00    -0.371 N 
HETATM   21  C10 UNL     1      -6.984   1.687  16.842  1.00  0.00     0.148 C 
ATOM     22  H4  UNL     1      -6.441   3.510  15.873  1.00  0.00     0.161 HD
ENDBRANCH  18  20
ENDBRANCH   5  18
TORSDOF 7
ENDMDL
MODEL 5
REMARK VINA RESULT: -5.321730024      2.797      7.007
REMARK  7 active torsions:
REMARK  status: ('A' for Active; 'I' for Inactive)
REMARK    1  A    between atoms: C2_2  and  C3_3 
REMARK    2  A    between atoms: C3_3  and  C4_4 
REMARK    3  A    between atoms: C4_4  and  N1_5 
REMARK    4  A    between atoms: N1_5  and  C5_7 
REMARK    5  A    between atoms: C5_7  and  N2_9 
REMARK    6  A    between atoms: N3_13  and  C9_14 
REMARK    7  A    between atoms: C9_14  and  N4_16 
ROOT
HETATM    1  N2  UNL     1      -3.435   4.155  13.291  1.00  0.00    -0.353 N 
HETATM    2  C6  UNL     1      -2.033   4.417  13.438  1.00  0.00     0.159 C 
HETATM    3  C7  UNL     1      -1.356   3.931  12.145  1.00  0.00     0.158 C 
HETATM    4  C8  UNL     1      -1.153   5.059  11.176  1.00  0.00     0.159 C 
HETATM    5  N3  UNL     1      -1.766   4.829   9.883  1.00  0.00    -0.353 N 
HETATM    6  C11 UNL     1      -2.907   3.955   9.752  1.00  0.00     0.159 C 
HETATM    7  C12 UNL     1      -3.279   3.298  11.069  1.00  0.00     0.158 C 
HETATM    8  C13 UNL     1      -4.008   4.245  11.965  1.00  0.00     0.159 C 
HETATM    9  O1  UNL     1      -2.056   2.852  11.614  1.00  0.00    -0.374 OA
ENDROOT
BRANCH   1  10
HETATM   10  C5  UNL     1      -4.291   3.821  14.363  1.00  0.00     0.169 C 
HETATM   11  S1  UNL     1      -5.655   4.672  14.684  1.00  0.00    -0.041 SA
BRANCH  10  12
HETATM   12  N1  UNL     1      -3.979   2.724  15.194  1.00  0.00    -0.367 N 
ATOM     13  H1  UNL     1      -3.267   2.808  15.919  1.00  0.00     0.161 HD
BRANCH  12  14
HETATM   14  C4  UNL     1      -4.690   1.475  14.996  1.00  0.00     0.122 C 
BRANCH  14  15
HETATM   15  C3  UNL     1      -4.926   0.819  16.330  1.00  0.00     0.019 C 
BRANCH  15  16
HETATM   16  C2  UNL     1      -5.847   1.662  17.188  1.00  0.00    -0.003 C 
HETATM   17  C1  UNL     1      -7.258   1.173  16.948  1.00  0.00     0.005 C 
ENDBRANCH  15  16
ENDBRANCH  14  15
ENDBRANCH  12  14
ENDBRANCH  10  12
ENDBRANCH   1  10
BRANCH   5  18
HETATM   18  C9  UNL     1      -1.274   5.448   8.695  1.00  0.00     0.169 C 
HETATM   19  S2  UNL     1      -0.584   6.920   8.817  1.00  0.00    -0.041 SA
BRANCH  18  20
HETATM   20  N4  UNL     1      -1.364   4.837   7.436  1.00  0.00    -0.371 N 
HETATM   21  C10 UNL     1      -0.178   4.422   6.744  1.00  0.00     0.148 C 
ATOM     22  H4  UNL     1      -2.279   4.687   7.010  1.00  0.00     0.161 HD
ENDBRANCH  18  20
ENDBRANCH   5  18
TORSDOF 7
ENDMDL
