MODEL 1
REMARK VINA RESULT: -7.445445550      0.000      0.000
REMARK  4 active torsions:
REMARK  status: ('A' for Active; 'I' for Inactive)
REMARK    1  A    between atoms: C2_3  and  N2_4 
REMARK    2  A    between atoms: N2_4  and  C3_6 
REMARK    3  A    between atoms: C5_12  and  N5_13 
REMARK    4  A    between atoms: N5_13  and  C6_15 
ROOT
HETATM    1  N1  UNL     1     -13.479 -25.141 -19.600  1.00  0.00    -0.196 NA
HETATM    2  C1  UNL     1     -14.361 -25.300 -20.347  1.00  0.00     0.078 C 
HETATM    3  C2  UNL     1     -15.449 -25.520 -21.271  1.00  0.00     0.245 C 
ENDROOT
BRANCH   3   4
HETATM    4  N2  UNL     1     -15.012 -25.256 -22.623  1.00  0.00    -0.361 N 
ATOM      5  H2  UNL     1     -14.268 -24.580 -22.793  1.00  0.00     0.162 HD
BRANCH   4   6
HETATM    6  C3  UNL     1     -15.623 -25.944 -23.731  1.00  0.00     0.145 A 
HETATM    7  N3  UNL     1     -16.933 -26.214 -23.858  1.00  0.00    -0.284 N 
HETATM    8  N4  UNL     1     -17.145 -26.855 -24.995  1.00  0.00    -0.308 N 
ATOM      9  H3  UNL     1     -17.654 -25.963 -23.181  1.00  0.00     0.188 HD
HETATM   10  C4  UNL     1     -15.984 -27.026 -25.651  1.00  0.00     0.141 A 
ATOM     11  H4  UNL     1     -18.056 -27.173 -25.326  1.00  0.00     0.186 HD
HETATM   12  C5  UNL     1     -15.017 -26.452 -24.857  1.00  0.00     0.111 A 
BRANCH  12  13
HETATM   13  N5  UNL     1     -13.640 -26.381 -25.125  1.00  0.00    -0.186 N 
ATOM     14  H5  UNL     1     -13.151 -25.562 -24.765  1.00  0.00     0.184 HD
BRANCH  13  15
HETATM   15  C6  UNL     1     -12.939 -27.216 -25.762  1.00  0.00     0.687 A 
HETATM   16  N6  UNL     1     -12.678 -28.404 -25.168  1.00  0.00    -0.187 N 
HETATM   17  C7  UNL     1     -11.925 -29.318 -25.835  1.00  0.00     0.202 A 
ATOM     18  H6  UNL     1     -13.042 -28.610 -24.237  1.00  0.00     0.185 HD
HETATM   19  N7  UNL     1     -11.435 -29.060 -27.070  1.00  0.00    -0.304 N 
HETATM   20  C8  UNL     1     -11.698 -27.875 -27.654  1.00  0.00     0.339 A 
ATOM     21  H7  UNL     1     -10.871 -29.758 -27.555  1.00  0.00     0.171 HD
HETATM   22  O1  UNL     1     -11.274 -27.573 -28.801  1.00  0.00    -0.246 OA
HETATM   23  N8  UNL     1     -12.455 -26.952 -26.990  1.00  0.00    -0.141 N 
ATOM     24  H8  UNL     1     -12.656 -26.054 -27.430  1.00  0.00     0.189 HD
ENDBRANCH  13  15
ENDBRANCH  12  13
ENDBRANCH   4   6
ENDBRANCH   3   4
TORSDOF 4
ENDMDL
MODEL 2
REMARK VINA RESULT: -7.214739387      1.255      1.613
REMARK  4 active torsions:
REMARK  status: ('A' for Active; 'I' for Inactive)
REMARK    1  A    between atoms: C2_3  and  N2_4 
REMARK    2  A    between atoms: N2_4  and  C3_6 
REMARK    3  A    between atoms: C5_12  and  N5_13 
REMARK    4  A    between atoms: N5_13  and  C6_15 
ROOT
HETATM    1  N1  UNL     1     -15.040 -23.176 -24.114  1.00  0.00    -0.196 NA
HETATM    2  C1  UNL     1     -15.408 -23.913 -23.287  1.00  0.00     0.078 C 
HETATM    3  C2  UNL     1     -15.842 -24.820 -22.251  1.00  0.00     0.245 C 
ENDROOT
BRANCH   3   4
HETATM    4  N2  UNL     1     -15.605 -26.186 -22.658  1.00  0.00    -0.361 N 
ATOM      5  H2  UNL     1     -15.137 -26.832 -22.022  1.00  0.00     0.162 HD
BRANCH   4   6
HETATM    6  C3  UNL     1     -16.027 -26.641 -23.958  1.00  0.00     0.145 A 
HETATM    7  N3  UNL     1     -17.291 -26.926 -24.314  1.00  0.00    -0.284 N 
HETATM    8  N4  UNL     1     -17.318 -27.315 -25.578  1.00  0.00    -0.308 N 
ATOM      9  H3  UNL     1     -18.105 -26.854 -23.705  1.00  0.00     0.188 HD
HETATM   10  C4  UNL     1     -16.076 -27.298 -26.092  1.00  0.00     0.141 A 
ATOM     11  H4  UNL     1     -18.158 -27.588 -26.089  1.00  0.00     0.186 HD
HETATM   12  C5  UNL     1     -15.254 -26.872 -25.072  1.00  0.00     0.111 A 
BRANCH  12  13
HETATM   13  N5  UNL     1     -13.862 -26.695 -25.131  1.00  0.00    -0.186 N 
ATOM     14  H5  UNL     1     -13.485 -25.904 -24.609  1.00  0.00     0.184 HD
BRANCH  13  15
HETATM   15  C6  UNL     1     -13.024 -27.403 -25.756  1.00  0.00     0.687 A 
HETATM   16  N6  UNL     1     -12.609 -28.551 -25.172  1.00  0.00    -0.187 N 
HETATM   17  C7  UNL     1     -11.706 -29.329 -25.827  1.00  0.00     0.202 A 
ATOM     18  H6  UNL     1     -12.967 -28.828 -24.258  1.00  0.00     0.185 HD
HETATM   19  N7  UNL     1     -11.221 -28.975 -27.040  1.00  0.00    -0.304 N 
HETATM   20  C8  UNL     1     -11.639 -27.831 -27.614  1.00  0.00     0.339 A 
ATOM     21  H7  UNL     1     -10.544 -29.572 -27.516  1.00  0.00     0.171 HD
HETATM   22  O1  UNL     1     -11.228 -27.446 -28.740  1.00  0.00    -0.246 OA
HETATM   23  N8  UNL     1     -12.546 -27.045 -26.962  1.00  0.00    -0.141 N 
ATOM     24  H8  UNL     1     -12.865 -26.177 -27.394  1.00  0.00     0.189 HD
ENDBRANCH  13  15
ENDBRANCH  12  13
ENDBRANCH   4   6
ENDBRANCH   3   4
TORSDOF 4
ENDMDL
MODEL 3
REMARK VINA RESULT: -7.076321197      1.881      2.205
REMARK  4 active torsions:
REMARK  status: ('A' for Active; 'I' for Inactive)
REMARK    1  A    between atoms: C2_3  and  N2_4 
REMARK    2  A    between atoms: N2_4  and  C3_6 
REMARK    3  A    between atoms: C5_12  and  N5_13 
REMARK    4  A    between atoms: N5_13  and  C6_15 
ROOT
HETATM    1  N1  UNL     1     -15.070 -23.285 -24.117  1.00  0.00    -0.196 NA
HETATM    2  C1  UNL     1     -15.360 -24.319 -23.660  1.00  0.00     0.078 C 
HETATM    3  C2  UNL     1     -15.702 -25.595 -23.078  1.00  0.00     0.245 C 
ENDROOT
BRANCH   3   4
HETATM    4  N2  UNL     1     -15.137 -26.666 -23.867  1.00  0.00    -0.361 N 
ATOM      5  H2  UNL     1     -14.199 -27.009 -23.660  1.00  0.00     0.162 HD
BRANCH   4   6
HETATM    6  C3  UNL     1     -15.892 -27.251 -24.945  1.00  0.00     0.145 A 
HETATM    7  N3  UNL     1     -17.121 -26.871 -25.335  1.00  0.00    -0.284 N 
HETATM    8  N4  UNL     1     -17.514 -27.620 -26.352  1.00  0.00    -0.308 N 
ATOM      9  H3  UNL     1     -17.667 -26.120 -24.913  1.00  0.00     0.188 HD
HETATM   10  C4  UNL     1     -16.559 -28.514 -26.662  1.00  0.00     0.141 A 
ATOM     11  H4  UNL     1     -18.410 -27.533 -26.831  1.00  0.00     0.186 HD
HETATM   12  C5  UNL     1     -15.530 -28.286 -25.775  1.00  0.00     0.111 A 
BRANCH  12  13
HETATM   13  N5  UNL     1     -14.308 -28.976 -25.708  1.00  0.00    -0.186 N 
ATOM     14  H5  UNL     1     -14.321 -29.871 -25.219  1.00  0.00     0.184 HD
BRANCH  13  15
HETATM   15  C6  UNL     1     -13.196 -28.616 -26.184  1.00  0.00     0.687 A 
HETATM   16  N6  UNL     1     -12.271 -28.128 -25.325  1.00  0.00    -0.187 N 
HETATM   17  C7  UNL     1     -11.066 -27.734 -25.815  1.00  0.00     0.202 A 
ATOM     18  H6  UNL     1     -12.474 -28.058 -24.328  1.00  0.00     0.185 HD
HETATM   19  N7  UNL     1     -10.781 -27.821 -27.136  1.00  0.00    -0.304 N 
HETATM   20  C8  UNL     1     -11.706 -28.307 -27.984  1.00  0.00     0.339 A 
ATOM     21  H7  UNL     1      -9.871 -27.520 -27.485  1.00  0.00     0.171 HD
HETATM   22  O1  UNL     1     -11.505 -28.414 -29.223  1.00  0.00    -0.246 OA
HETATM   23  N8  UNL     1     -12.919 -28.705 -27.499  1.00  0.00    -0.141 N 
ATOM     24  H8  UNL     1     -13.623 -29.073 -28.139  1.00  0.00     0.189 HD
ENDBRANCH  13  15
ENDBRANCH  12  13
ENDBRANCH   4   6
ENDBRANCH   3   4
TORSDOF 4
ENDMDL
MODEL 4
REMARK VINA RESULT: -7.050738322      2.547      4.891
REMARK  4 active torsions:
REMARK  status: ('A' for Active; 'I' for Inactive)
REMARK    1  A    between atoms: C2_3  and  N2_4 
REMARK    2  A    between atoms: N2_4  and  C3_6 
REMARK    3  A    between atoms: C5_12  and  N5_13 
REMARK    4  A    between atoms: N5_13  and  C6_15 
ROOT
HETATM    1  N1  UNL     1     -18.177 -31.236 -29.111  1.00  0.00    -0.196 NA
HETATM    2  C1  UNL     1     -18.098 -30.128 -28.753  1.00  0.00     0.078 C 
HETATM    3  C2  UNL     1     -17.997 -28.751 -28.333  1.00  0.00     0.245 C 
ENDROOT
BRANCH   3   4
HETATM    4  N2  UNL     1     -16.689 -28.499 -27.771  1.00  0.00    -0.361 N 
ATOM      5  H2  UNL     1     -15.853 -28.727 -28.309  1.00  0.00     0.162 HD
BRANCH   4   6
HETATM    6  C3  UNL     1     -16.560 -27.929 -26.455  1.00  0.00     0.145 A 
HETATM    7  N3  UNL     1     -17.441 -27.096 -25.874  1.00  0.00    -0.284 N 
HETATM    8  N4  UNL     1     -17.010 -26.767 -24.668  1.00  0.00    -0.308 N 
ATOM      9  H3  UNL     1     -18.309 -26.768 -26.298  1.00  0.00     0.188 HD
HETATM   10  C4  UNL     1     -15.835 -27.371 -24.418  1.00  0.00     0.141 A 
ATOM     11  H4  UNL     1     -17.497 -26.145 -24.022  1.00  0.00     0.186 HD
HETATM   12  C5  UNL     1     -15.545 -28.108 -25.545  1.00  0.00     0.111 A 
BRANCH  12  13
HETATM   13  N5  UNL     1     -14.414 -28.914 -25.755  1.00  0.00    -0.186 N 
ATOM     14  H5  UNL     1     -14.511 -29.900 -25.514  1.00  0.00     0.184 HD
BRANCH  13  15
HETATM   15  C6  UNL     1     -13.291 -28.558 -26.208  1.00  0.00     0.687 A 
HETATM   16  N6  UNL     1     -12.392 -28.047 -25.335  1.00  0.00    -0.187 N 
HETATM   17  C7  UNL     1     -11.176 -27.657 -25.801  1.00  0.00     0.202 A 
ATOM     18  H6  UNL     1     -12.623 -27.958 -24.345  1.00  0.00     0.185 HD
HETATM   19  N7  UNL     1     -10.855 -27.769 -27.111  1.00  0.00    -0.304 N 
HETATM   20  C8  UNL     1     -11.755 -28.278 -27.974  1.00  0.00     0.339 A 
ATOM     21  H7  UNL     1      -9.938 -27.471 -27.442  1.00  0.00     0.171 HD
HETATM   22  O1  UNL     1     -11.520 -28.410 -29.204  1.00  0.00    -0.246 OA
HETATM   23  N8  UNL     1     -12.979 -28.672 -27.513  1.00  0.00    -0.141 N 
ATOM     24  H8  UNL     1     -13.663 -29.058 -28.163  1.00  0.00     0.189 HD
ENDBRANCH  13  15
ENDBRANCH  12  13
ENDBRANCH   4   6
ENDBRANCH   3   4
TORSDOF 4
ENDMDL
MODEL 5
REMARK VINA RESULT: -7.033473011      2.905      5.962
REMARK  4 active torsions:
REMARK  status: ('A' for Active; 'I' for Inactive)
REMARK    1  A    between atoms: C2_3  and  N2_4 
REMARK    2  A    between atoms: N2_4  and  C3_6 
REMARK    3  A    between atoms: C5_12  and  N5_13 
REMARK    4  A    between atoms: N5_13  and  C6_15 
ROOT
HETATM    1  N1  UNL     1      -9.334 -28.884 -25.252  1.00  0.00    -0.196 NA
HETATM    2  C1  UNL     1     -10.021 -28.516 -26.122  1.00  0.00     0.078 C 
HETATM    3  C2  UNL     1     -10.853 -28.046 -27.205  1.00  0.00     0.245 C 
ENDROOT
BRANCH   3   4
HETATM    4  N2  UNL     1     -11.811 -27.084 -26.711  1.00  0.00    -0.361 N 
ATOM      5  H2  UNL     1     -11.487 -26.197 -26.326  1.00  0.00     0.162 HD
BRANCH   4   6
HETATM    6  C3  UNL     1     -13.221 -27.372 -26.760  1.00  0.00     0.145 A 
HETATM    7  N3  UNL     1     -13.821 -28.195 -27.637  1.00  0.00    -0.284 N 
HETATM    8  N4  UNL     1     -15.121 -28.226 -27.396  1.00  0.00    -0.308 N 
ATOM      9  H3  UNL     1     -13.347 -28.717 -28.374  1.00  0.00     0.188 HD
HETATM   10  C4  UNL     1     -15.417 -27.427 -26.357  1.00  0.00     0.141 A 
ATOM     11  H4  UNL     1     -15.800 -28.777 -27.922  1.00  0.00     0.186 HD
HETATM   12  C5  UNL     1     -14.219 -26.883 -25.949  1.00  0.00     0.111 A 
BRANCH  12  13
HETATM   13  N5  UNL     1     -14.021 -25.981 -24.891  1.00  0.00    -0.186 N 
ATOM     14  H5  UNL     1     -13.075 -25.617 -24.779  1.00  0.00     0.184 HD
BRANCH  13  15
HETATM   15  C6  UNL     1     -14.879 -25.570 -24.062  1.00  0.00     0.687 A 
HETATM   16  N6  UNL     1     -15.410 -24.341 -24.262  1.00  0.00    -0.187 N 
HETATM   17  C7  UNL     1     -16.337 -23.878 -23.381  1.00  0.00     0.202 A 
ATOM     18  H6  UNL     1     -15.121 -23.774 -25.058  1.00  0.00     0.185 HD
HETATM   19  N7  UNL     1     -16.731 -24.618 -22.319  1.00  0.00    -0.304 N 
HETATM   20  C8  UNL     1     -16.198 -25.840 -22.127  1.00  0.00     0.339 A 
ATOM     21  H7  UNL     1     -17.427 -24.254 -21.669  1.00  0.00     0.171 HD
HETATM   22  O1  UNL     1     -16.521 -26.579 -21.160  1.00  0.00    -0.246 OA
HETATM   23  N8  UNL     1     -15.266 -26.312 -23.007  1.00  0.00    -0.141 N 
ATOM     24  H8  UNL     1     -14.860 -27.237 -22.865  1.00  0.00     0.189 HD
ENDBRANCH  13  15
ENDBRANCH  12  13
ENDBRANCH   4   6
ENDBRANCH   3   4
TORSDOF 4
ENDMDL
