MODEL 1
REMARK VINA RESULT: -6.999114572      0.000      0.000
REMARK  6 active torsions:
REMARK  status: ('A' for Active; 'I' for Inactive)
REMARK    1  A    between atoms: C2_3  and  S1_4 
REMARK    2  A    between atoms: S1_4  and  C3_5 
REMARK    3  A    between atoms: C5_7  and  N2_8 
REMARK    4  A    between atoms: N2_8  and  C6_10 
REMARK    5  A    between atoms: C6_10  and  C7_11 
REMARK    6  A    between atoms: C7_11  and  O1_12 
ROOT
HETATM    1  N1  UNL     1      -4.756   2.555  33.968  1.00  0.00    -0.197 NA
HETATM    2  C1  UNL     1      -4.764   2.951  32.884  1.00  0.00     0.069 C 
HETATM    3  C2  UNL     1      -4.757   3.458  31.525  1.00  0.00     0.203 C 
ENDROOT
BRANCH   3   4
HETATM    4  S1  UNL     1      -5.551   2.220  30.439  1.00  0.00    -0.113 SA
BRANCH   4   5
HETATM    5  C3  UNL     1      -4.280   1.108  29.897  1.00  0.00     0.034 A 
HETATM    6  C4  UNL     1      -3.198   0.763  30.678  1.00  0.00     0.069 A 
HETATM    7  C5  UNL     1      -2.202  -0.101  30.271  1.00  0.00     0.102 A 
HETATM    8  N3  UNL     1      -2.324  -0.619  29.036  1.00  0.00    -0.341 N 
HETATM    9  C8  UNL     1      -3.352  -0.326  28.223  1.00  0.00     0.063 A 
ATOM     10  H3  UNL     1      -1.606  -1.261  28.702  1.00  0.00     0.167 HD
HETATM   11  C9  UNL     1      -3.656  -0.745  26.940  1.00  0.00     0.049 A 
HETATM   12  C11 UNL     1      -4.347   0.539  28.633  1.00  0.00     0.076 A 
HETATM   13  C10 UNL     1      -4.836  -0.133  26.574  1.00  0.00     0.090 A 
HETATM   14  N4  UNL     1      -5.222   0.628  27.612  1.00  0.00    -0.363 N 
ATOM     15  H4  UNL     1      -6.067   1.199  27.626  1.00  0.00     0.165 HD
BRANCH   7  16
HETATM   16  N2  UNL     1      -1.194  -0.406  31.031  1.00  0.00    -0.374 N 
ATOM     17  H2  UNL     1      -0.406   0.240  31.073  1.00  0.00     0.161 HD
BRANCH  16  18
HETATM   18  C6  UNL     1      -1.133  -1.601  31.814  1.00  0.00     0.147 C 
BRANCH  18  19
HETATM   19  C7  UNL     1      -1.862  -1.315  33.128  1.00  0.00     0.183 C 
BRANCH  19  20
HETATM   20  O1  UNL     1      -2.684  -2.420  33.406  1.00  0.00    -0.399 OA
ATOM     21  H1  UNL     1      -2.795  -2.465  34.348  1.00  0.00     0.209 HD
ENDBRANCH  19  20
ENDBRANCH  18  19
ENDBRANCH  16  18
ENDBRANCH   7  16
ENDBRANCH   4   5
ENDBRANCH   3   4
TORSDOF 6
ENDMDL
MODEL 2
REMARK VINA RESULT: -6.708002378      3.420      5.814
REMARK  6 active torsions:
REMARK  status: ('A' for Active; 'I' for Inactive)
REMARK    1  A    between atoms: C2_3  and  S1_4 
REMARK    2  A    between atoms: S1_4  and  C3_5 
REMARK    3  A    between atoms: C5_7  and  N2_8 
REMARK    4  A    between atoms: N2_8  and  C6_10 
REMARK    5  A    between atoms: C6_10  and  C7_11 
REMARK    6  A    between atoms: C7_11  and  O1_12 
ROOT
HETATM    1  N1  UNL     1      -2.433  -0.892  38.528  1.00  0.00    -0.197 NA
HETATM    2  C1  UNL     1      -1.998  -1.517  37.661  1.00  0.00     0.069 C 
HETATM    3  C2  UNL     1      -1.438  -2.312  36.584  1.00  0.00     0.203 C 
ENDROOT
BRANCH   3   4
HETATM    4  S1  UNL     1      -2.750  -2.619  35.348  1.00  0.00    -0.113 SA
BRANCH   4   5
HETATM    5  C3  UNL     1      -2.642  -1.327  34.137  1.00  0.00     0.034 A 
HETATM    6  C4  UNL     1      -1.870  -1.424  32.999  1.00  0.00     0.069 A 
HETATM    7  C5  UNL     1      -1.776  -0.429  32.049  1.00  0.00     0.102 A 
HETATM    8  N3  UNL     1      -2.493   0.687  32.275  1.00  0.00    -0.341 N 
HETATM    9  C8  UNL     1      -3.265   0.847  33.361  1.00  0.00     0.063 A 
ATOM     10  H3  UNL     1      -2.447   1.444  31.592  1.00  0.00     0.167 HD
HETATM   11  C9  UNL     1      -4.065   1.899  33.771  1.00  0.00     0.049 A 
HETATM   12  C11 UNL     1      -3.357  -0.151  34.311  1.00  0.00     0.076 A 
HETATM   13  C10 UNL     1      -4.642   1.536  34.971  1.00  0.00     0.090 A 
HETATM   14  N4  UNL     1      -4.196   0.302  35.263  1.00  0.00    -0.363 N 
ATOM     15  H4  UNL     1      -4.458  -0.223  36.098  1.00  0.00     0.165 HD
BRANCH   7  16
HETATM   16  N2  UNL     1      -1.038  -0.550  30.987  1.00  0.00    -0.374 N 
ATOM     17  H2  UNL     1      -0.262  -1.211  31.010  1.00  0.00     0.161 HD
BRANCH  16  18
HETATM   18  C6  UNL     1      -1.259   0.194  29.786  1.00  0.00     0.147 C 
BRANCH  18  19
HETATM   19  C7  UNL     1      -2.423  -0.474  29.051  1.00  0.00     0.183 C 
BRANCH  19  20
HETATM   20  O1  UNL     1      -1.920  -1.007  27.853  1.00  0.00    -0.399 OA
ATOM     21  H1  UNL     1      -1.711  -1.920  28.010  1.00  0.00     0.209 HD
ENDBRANCH  19  20
ENDBRANCH  18  19
ENDBRANCH  16  18
ENDBRANCH   7  16
ENDBRANCH   4   5
ENDBRANCH   3   4
TORSDOF 6
ENDMDL
MODEL 3
REMARK VINA RESULT: -6.707455585      3.066      5.014
REMARK  6 active torsions:
REMARK  status: ('A' for Active; 'I' for Inactive)
REMARK    1  A    between atoms: C2_3  and  S1_4 
REMARK    2  A    between atoms: S1_4  and  C3_5 
REMARK    3  A    between atoms: C5_7  and  N2_8 
REMARK    4  A    between atoms: N2_8  and  C6_10 
REMARK    5  A    between atoms: C6_10  and  C7_11 
REMARK    6  A    between atoms: C7_11  and  O1_12 
ROOT
HETATM    1  N1  UNL     1      -4.726   2.849  33.524  1.00  0.00    -0.197 NA
HETATM    2  C1  UNL     1      -4.724   2.852  32.371  1.00  0.00     0.069 C 
HETATM    3  C2  UNL     1      -4.703   2.866  30.920  1.00  0.00     0.203 C 
ENDROOT
BRANCH   3   4
HETATM    4  S1  UNL     1      -5.517   1.345  30.313  1.00  0.00    -0.113 SA
BRANCH   4   5
HETATM    5  C3  UNL     1      -4.457   0.641  29.078  1.00  0.00     0.034 A 
HETATM    6  C4  UNL     1      -4.827   0.503  27.757  1.00  0.00     0.069 A 
HETATM    7  C5  UNL     1      -4.014  -0.042  26.785  1.00  0.00     0.102 A 
HETATM    8  N3  UNL     1      -2.795  -0.450  27.182  1.00  0.00    -0.341 N 
HETATM    9  C8  UNL     1      -2.370  -0.344  28.450  1.00  0.00     0.063 A 
ATOM     10  H3  UNL     1      -2.167  -0.858  26.489  1.00  0.00     0.167 HD
HETATM   11  C9  UNL     1      -1.175  -0.699  29.051  1.00  0.00     0.049 A 
HETATM   12  C11 UNL     1      -3.186   0.200  29.421  1.00  0.00     0.076 A 
HETATM   13  C10 UNL     1      -1.269  -0.367  30.386  1.00  0.00     0.090 A 
HETATM   14  N4  UNL     1      -2.486   0.170  30.573  1.00  0.00    -0.363 N 
ATOM     15  H4  UNL     1      -2.836   0.509  31.469  1.00  0.00     0.165 HD
BRANCH   7  16
HETATM   16  N2  UNL     1      -4.393  -0.159  25.548  1.00  0.00    -0.374 N 
ATOM     17  H2  UNL     1      -3.702  -0.003  24.815  1.00  0.00     0.161 HD
BRANCH  16  18
HETATM   18  C6  UNL     1      -5.727  -0.496  25.163  1.00  0.00     0.147 C 
BRANCH  18  19
HETATM   19  C7  UNL     1      -5.690  -0.843  23.673  1.00  0.00     0.183 C 
BRANCH  19  20
HETATM   20  O1  UNL     1      -7.015  -0.850  23.206  1.00  0.00    -0.399 OA
ATOM     21  H1  UNL     1      -7.400  -0.009  23.422  1.00  0.00     0.209 HD
ENDBRANCH  19  20
ENDBRANCH  18  19
ENDBRANCH  16  18
ENDBRANCH   7  16
ENDBRANCH   4   5
ENDBRANCH   3   4
TORSDOF 6
ENDMDL
MODEL 4
REMARK VINA RESULT: -6.619673523      2.192      4.744
REMARK  6 active torsions:
REMARK  status: ('A' for Active; 'I' for Inactive)
REMARK    1  A    between atoms: C2_3  and  S1_4 
REMARK    2  A    between atoms: S1_4  and  C3_5 
REMARK    3  A    between atoms: C5_7  and  N2_8 
REMARK    4  A    between atoms: N2_8  and  C6_10 
REMARK    5  A    between atoms: C6_10  and  C7_11 
REMARK    6  A    between atoms: C7_11  and  O1_12 
ROOT
HETATM    1  N1  UNL     1      -3.586   0.239  24.464  1.00  0.00    -0.197 NA
HETATM    2  C1  UNL     1      -3.939  -0.186  25.476  1.00  0.00     0.069 C 
HETATM    3  C2  UNL     1      -4.368  -0.735  26.749  1.00  0.00     0.203 C 
ENDROOT
BRANCH   3   4
HETATM    4  S1  UNL     1      -5.095   0.614  27.747  1.00  0.00    -0.113 SA
BRANCH   4   5
HETATM    5  C3  UNL     1      -4.256   0.620  29.309  1.00  0.00     0.034 A 
HETATM    6  C4  UNL     1      -4.818   1.120  30.465  1.00  0.00     0.069 A 
HETATM    7  C5  UNL     1      -4.178   1.131  31.687  1.00  0.00     0.102 A 
HETATM    8  N3  UNL     1      -2.936   0.615  31.719  1.00  0.00    -0.341 N 
HETATM    9  C8  UNL     1      -2.330   0.112  30.633  1.00  0.00     0.063 A 
ATOM     10  H3  UNL     1      -2.434   0.607  32.607  1.00  0.00     0.167 HD
HETATM   11  C9  UNL     1      -1.079  -0.454  30.460  1.00  0.00     0.049 A 
HETATM   12  C11 UNL     1      -2.972   0.103  29.411  1.00  0.00     0.076 A 
HETATM   13  C10 UNL     1      -0.965  -0.806  29.131  1.00  0.00     0.090 A 
HETATM   14  N4  UNL     1      -2.117  -0.459  28.533  1.00  0.00    -0.363 N 
ATOM     15  H4  UNL     1      -2.319  -0.601  27.543  1.00  0.00     0.165 HD
BRANCH   7  16
HETATM   16  N2  UNL     1      -4.736   1.610  32.758  1.00  0.00    -0.374 N 
ATOM     17  H2  UNL     1      -5.747   1.739  32.760  1.00  0.00     0.161 HD
BRANCH  16  18
HETATM   18  C6  UNL     1      -4.005   1.964  33.934  1.00  0.00     0.147 C 
BRANCH  18  19
HETATM   19  C7  UNL     1      -4.344   0.924  35.004  1.00  0.00     0.183 C 
BRANCH  19  20
HETATM   20  O1  UNL     1      -5.496   1.367  35.675  1.00  0.00    -0.399 OA
ATOM     21  H1  UNL     1      -5.303   2.220  36.046  1.00  0.00     0.209 HD
ENDBRANCH  19  20
ENDBRANCH  18  19
ENDBRANCH  16  18
ENDBRANCH   7  16
ENDBRANCH   4   5
ENDBRANCH   3   4
TORSDOF 6
ENDMDL
MODEL 5
REMARK VINA RESULT: -6.575099314      2.137      3.942
REMARK  6 active torsions:
REMARK  status: ('A' for Active; 'I' for Inactive)
REMARK    1  A    between atoms: C2_3  and  S1_4 
REMARK    2  A    between atoms: S1_4  and  C3_5 
REMARK    3  A    between atoms: C5_7  and  N2_8 
REMARK    4  A    between atoms: N2_8  and  C6_10 
REMARK    5  A    between atoms: C6_10  and  C7_11 
REMARK    6  A    between atoms: C7_11  and  O1_12 
ROOT
HETATM    1  N1  UNL     1      -5.185   0.329  27.355  1.00  0.00    -0.197 NA
HETATM    2  C1  UNL     1      -5.651   0.647  28.361  1.00  0.00     0.069 C 
HETATM    3  C2  UNL     1      -6.246   1.029  29.628  1.00  0.00     0.203 C 
ENDROOT
BRANCH   3   4
HETATM    4  S1  UNL     1      -5.163   2.266  30.428  1.00  0.00    -0.113 SA
BRANCH   4   5
HETATM    5  C3  UNL     1      -3.984   1.373  31.408  1.00  0.00     0.034 A 
HETATM    6  C4  UNL     1      -3.970   1.407  32.787  1.00  0.00     0.069 A 
HETATM    7  C5  UNL     1      -3.061   0.718  33.562  1.00  0.00     0.102 A 
HETATM    8  N3  UNL     1      -2.149  -0.021  32.904  1.00  0.00    -0.341 N 
HETATM    9  C8  UNL     1      -2.106  -0.100  31.565  1.00  0.00     0.063 A 
ATOM     10  H3  UNL     1      -1.461  -0.544  33.447  1.00  0.00     0.167 HD
HETATM   11  C9  UNL     1      -1.264  -0.791  30.713  1.00  0.00     0.049 A 
HETATM   12  C11 UNL     1      -3.017   0.591  30.792  1.00  0.00     0.076 A 
HETATM   13  C10 UNL     1      -1.666  -0.518  29.422  1.00  0.00     0.090 A 
HETATM   14  N4  UNL     1      -2.719   0.313  29.507  1.00  0.00    -0.363 N 
ATOM     15  H4  UNL     1      -3.227   0.684  28.704  1.00  0.00     0.165 HD
BRANCH   7  16
HETATM   16  N2  UNL     1      -3.074   0.771  34.860  1.00  0.00    -0.374 N 
ATOM     17  H2  UNL     1      -3.783   1.347  35.313  1.00  0.00     0.161 HD
BRANCH  16  18
HETATM   18  C6  UNL     1      -2.146   0.063  35.686  1.00  0.00     0.147 C 
BRANCH  18  19
HETATM   19  C7  UNL     1      -1.000   1.027  36.001  1.00  0.00     0.183 C 
BRANCH  19  20
HETATM   20  O1  UNL     1       0.197   0.405  35.611  1.00  0.00    -0.399 OA
ATOM     21  H1  UNL     1       0.895   1.043  35.700  1.00  0.00     0.209 HD
ENDBRANCH  19  20
ENDBRANCH  18  19
ENDBRANCH  16  18
ENDBRANCH   7  16
ENDBRANCH   4   5
ENDBRANCH   3   4
TORSDOF 6
ENDMDL
