MODEL 1
REMARK VINA RESULT: -8.585389563      0.000      0.000
REMARK  4 active torsions:
REMARK  status: ('A' for Active; 'I' for Inactive)
REMARK    1  A    between atoms: C6_6  and  C7_7 
REMARK    2  A    between atoms: C8_8  and  N1_9 
REMARK    3  A    between atoms: N1_9  and  N2_11 
REMARK    4  A    between atoms: N2_11  and  C9_13 
ROOT
HETATM    1  C7  UNL     1      -3.751   1.550  31.561  1.00  0.00     0.031 C 
HETATM    2  C8  UNL     1      -4.501   1.215  32.736  1.00  0.00     0.108 C 
ENDROOT
BRANCH   2   3
HETATM    3  N1  UNL     1      -4.421  -0.165  33.155  1.00  0.00    -0.298 N 
ATOM      4  H1  UNL     1      -5.207  -0.790  32.972  1.00  0.00     0.186 HD
BRANCH   3   5
HETATM    5  N2  UNL     1      -3.269  -0.671  33.820  1.00  0.00    -0.130 N 
ATOM      6  H2  UNL     1      -2.408  -0.835  33.298  1.00  0.00     0.205 HD
BRANCH   5   7
HETATM    7  C9  UNL     1      -3.319  -0.923  35.094  1.00  0.00     0.722 A 
HETATM    8  N3  UNL     1      -4.131  -1.806  35.714  1.00  0.00    -0.115 N 
HETATM    9  N4  UNL     1      -3.872  -1.765  37.011  1.00  0.00     0.006 NA
ATOM     10  H3  UNL     1      -4.825  -2.401  35.262  1.00  0.00     0.202 HD
HETATM   11  N5  UNL     1      -2.911  -0.878  37.256  1.00  0.00     0.006 NA
HETATM   12  N6  UNL     1      -2.584  -0.373  36.077  1.00  0.00    -0.115 N 
ATOM     13  H6  UNL     1      -1.868   0.339  35.933  1.00  0.00     0.202 HD
ENDBRANCH   5   7
ENDBRANCH   3   5
ENDBRANCH   2   3
BRANCH   1  14
HETATM   14  C6  UNL     1      -3.875   1.000  30.265  1.00  0.00    -0.023 A 
HETATM   15  C4  UNL     1      -4.946   1.269  29.434  1.00  0.00    -0.051 A 
HETATM   16  C3  UNL     1      -5.008   0.721  28.167  1.00  0.00     0.014 A 
HETATM   17  C5  UNL     1      -5.969   2.150  29.986  1.00  0.00     0.049 C 
HETATM   18  C2  UNL     1      -4.024  -0.106  27.678  1.00  0.00    -0.061 A 
HETATM   19  C1  UNL     1      -4.168  -0.652  26.310  1.00  0.00     0.048 C 
HETATM   20  C12 UNL     1      -2.952  -0.388  28.482  1.00  0.00     0.014 A 
HETATM   21  C10 UNL     1      -2.894   0.171  29.764  1.00  0.00    -0.051 A 
HETATM   22  C11 UNL     1      -1.668  -0.154  30.567  1.00  0.00     0.049 C 
ENDBRANCH   1  14
TORSDOF 4
ENDMDL
MODEL 2
REMARK VINA RESULT: -8.579857332      1.188      1.559
REMARK  4 active torsions:
REMARK  status: ('A' for Active; 'I' for Inactive)
REMARK    1  A    between atoms: C6_6  and  C7_7 
REMARK    2  A    between atoms: C8_8  and  N1_9 
REMARK    3  A    between atoms: N1_9  and  N2_11 
REMARK    4  A    between atoms: N2_11  and  C9_13 
ROOT
HETATM    1  C7  UNL     1      -3.691   1.641  31.476  1.00  0.00     0.031 C 
HETATM    2  C8  UNL     1      -4.168   1.149  32.734  1.00  0.00     0.108 C 
ENDROOT
BRANCH   2   3
HETATM    3  N1  UNL     1      -3.679  -0.154  33.122  1.00  0.00    -0.298 N 
ATOM      4  H1  UNL     1      -3.526  -0.864  32.405  1.00  0.00     0.186 HD
BRANCH   3   5
HETATM    5  N2  UNL     1      -3.408  -0.467  34.483  1.00  0.00    -0.130 N 
ATOM      6  H2  UNL     1      -4.100  -0.967  35.041  1.00  0.00     0.205 HD
BRANCH   5   7
HETATM    7  C9  UNL     1      -2.274  -0.114  35.011  1.00  0.00     0.722 A 
HETATM    8  N3  UNL     1      -1.155  -0.865  35.108  1.00  0.00    -0.115 N 
HETATM    9  N4  UNL     1      -0.223  -0.142  35.707  1.00  0.00     0.006 NA
ATOM     10  H3  UNL     1      -1.048  -1.824  34.777  1.00  0.00     0.202 HD
HETATM   11  N5  UNL     1      -0.702   1.063  36.005  1.00  0.00     0.006 NA
HETATM   12  N6  UNL     1      -1.953   1.065  35.574  1.00  0.00    -0.115 N 
ATOM     13  H6  UNL     1      -2.591   1.857  35.658  1.00  0.00     0.202 HD
ENDBRANCH   5   7
ENDBRANCH   3   5
ENDBRANCH   2   3
BRANCH   1  14
HETATM   14  C6  UNL     1      -3.835   1.051  30.200  1.00  0.00    -0.023 A 
HETATM   15  C4  UNL     1      -4.953   1.236  29.408  1.00  0.00    -0.051 A 
HETATM   16  C3  UNL     1      -5.034   0.651  28.160  1.00  0.00     0.014 A 
HETATM   17  C5  UNL     1      -6.001   2.072  29.982  1.00  0.00     0.049 C 
HETATM   18  C2  UNL     1      -4.025  -0.132  27.651  1.00  0.00    -0.061 A 
HETATM   19  C1  UNL     1      -4.192  -0.722  26.304  1.00  0.00     0.048 C 
HETATM   20  C12 UNL     1      -2.906  -0.331  28.415  1.00  0.00     0.014 A 
HETATM   21  C10 UNL     1      -2.830   0.265  29.680  1.00  0.00    -0.051 A 
HETATM   22  C11 UNL     1      -1.555   0.031  30.438  1.00  0.00     0.049 C 
ENDBRANCH   1  14
TORSDOF 4
ENDMDL
MODEL 3
REMARK VINA RESULT: -8.570682895      1.475      2.627
REMARK  4 active torsions:
REMARK  status: ('A' for Active; 'I' for Inactive)
REMARK    1  A    between atoms: C6_6  and  C7_7 
REMARK    2  A    between atoms: C8_8  and  N1_9 
REMARK    3  A    between atoms: N1_9  and  N2_11 
REMARK    4  A    between atoms: N2_11  and  C9_13 
ROOT
HETATM    1  C7  UNL     1      -2.861   1.084  31.433  1.00  0.00     0.031 C 
HETATM    2  C8  UNL     1      -3.097   0.397  32.668  1.00  0.00     0.108 C 
ENDROOT
BRANCH   2   3
HETATM    3  N1  UNL     1      -2.480  -0.904  32.788  1.00  0.00    -0.298 N 
ATOM      4  H1  UNL     1      -2.933  -1.714  32.363  1.00  0.00     0.186 HD
BRANCH   3   5
HETATM    5  N2  UNL     1      -1.252  -1.079  33.486  1.00  0.00    -0.130 N 
ATOM      6  H2  UNL     1      -0.435  -1.446  33.000  1.00  0.00     0.205 HD
BRANCH   5   7
HETATM    7  C9  UNL     1      -1.178  -0.768  34.746  1.00  0.00     0.722 A 
HETATM    8  N3  UNL     1      -0.851   0.435  35.266  1.00  0.00    -0.115 N 
HETATM    9  N4  UNL     1      -0.892   0.340  36.585  1.00  0.00     0.006 NA
ATOM     10  H3  UNL     1      -0.612   1.272  34.734  1.00  0.00     0.202 HD
HETATM   11  N5  UNL     1      -1.238  -0.894  36.942  1.00  0.00     0.006 NA
HETATM   12  N6  UNL     1      -1.409  -1.558  35.810  1.00  0.00    -0.115 N 
ATOM     13  H6  UNL     1      -1.682  -2.539  35.752  1.00  0.00     0.202 HD
ENDBRANCH   5   7
ENDBRANCH   3   5
ENDBRANCH   2   3
BRANCH   1  14
HETATM   14  C6  UNL     1      -3.180   0.654  30.125  1.00  0.00    -0.023 A 
HETATM   15  C4  UNL     1      -2.277   0.001  29.307  1.00  0.00    -0.051 A 
HETATM   16  C3  UNL     1      -2.647  -0.416  28.043  1.00  0.00     0.014 A 
HETATM   17  C5  UNL     1      -0.949  -0.206  29.872  1.00  0.00     0.049 C 
HETATM   18  C2  UNL     1      -3.910  -0.204  27.543  1.00  0.00    -0.061 A 
HETATM   19  C1  UNL     1      -4.225  -0.682  26.178  1.00  0.00     0.048 C 
HETATM   20  C12 UNL     1      -4.824   0.441  28.333  1.00  0.00     0.014 A 
HETATM   21  C10 UNL     1      -4.443   0.860  29.614  1.00  0.00    -0.051 A 
HETATM   22  C11 UNL     1      -5.513   1.524  30.431  1.00  0.00     0.049 C 
ENDBRANCH   1  14
TORSDOF 4
ENDMDL
MODEL 4
REMARK VINA RESULT: -8.546715877      0.661      1.082
REMARK  4 active torsions:
REMARK  status: ('A' for Active; 'I' for Inactive)
REMARK    1  A    between atoms: C6_6  and  C7_7 
REMARK    2  A    between atoms: C8_8  and  N1_9 
REMARK    3  A    between atoms: N1_9  and  N2_11 
REMARK    4  A    between atoms: N2_11  and  C9_13 
ROOT
HETATM    1  C7  UNL     1      -3.587   1.528  31.307  1.00  0.00     0.031 C 
HETATM    2  C8  UNL     1      -4.364   1.358  32.500  1.00  0.00     0.108 C 
ENDROOT
BRANCH   2   3
HETATM    3  N1  UNL     1      -4.527  -0.005  32.951  1.00  0.00    -0.298 N 
ATOM      4  H1  UNL     1      -5.375  -0.515  32.703  1.00  0.00     0.186 HD
BRANCH   3   5
HETATM    5  N2  UNL     1      -3.529  -0.649  33.734  1.00  0.00    -0.130 N 
ATOM      6  H2  UNL     1      -2.544  -0.558  33.484  1.00  0.00     0.205 HD
BRANCH   5   7
HETATM    7  C9  UNL     1      -3.878  -1.354  34.769  1.00  0.00     0.722 A 
HETATM    8  N3  UNL     1      -3.990  -0.922  36.043  1.00  0.00    -0.115 N 
HETATM    9  N4  UNL     1      -4.370  -1.943  36.794  1.00  0.00     0.006 NA
ATOM     10  H3  UNL     1      -3.812   0.028  36.371  1.00  0.00     0.202 HD
HETATM   11  N5  UNL     1      -4.509  -3.033  36.044  1.00  0.00     0.006 NA
HETATM   12  N6  UNL     1      -4.206  -2.658  34.811  1.00  0.00    -0.115 N 
ATOM     13  H6  UNL     1      -4.220  -3.276  34.000  1.00  0.00     0.202 HD
ENDBRANCH   5   7
ENDBRANCH   3   5
ENDBRANCH   2   3
BRANCH   1  14
HETATM   14  C6  UNL     1      -3.832   0.983  30.026  1.00  0.00    -0.023 A 
HETATM   15  C4  UNL     1      -4.950   1.297  29.276  1.00  0.00    -0.051 A 
HETATM   16  C3  UNL     1      -5.130   0.751  28.020  1.00  0.00     0.014 A 
HETATM   17  C5  UNL     1      -5.888   2.222  29.900  1.00  0.00     0.049 C 
HETATM   18  C2  UNL     1      -4.222  -0.119  27.463  1.00  0.00    -0.061 A 
HETATM   19  C1  UNL     1      -4.492  -0.659  26.112  1.00  0.00     0.048 C 
HETATM   20  C12 UNL     1      -3.106  -0.446  28.185  1.00  0.00     0.014 A 
HETATM   21  C10 UNL     1      -2.928   0.111  29.457  1.00  0.00    -0.051 A 
HETATM   22  C11 UNL     1      -1.661  -0.267  30.167  1.00  0.00     0.049 C 
ENDBRANCH   1  14
TORSDOF 4
ENDMDL
MODEL 5
REMARK VINA RESULT: -8.539152865      0.078      1.980
REMARK  4 active torsions:
REMARK  status: ('A' for Active; 'I' for Inactive)
REMARK    1  A    between atoms: C6_6  and  C7_7 
REMARK    2  A    between atoms: C8_8  and  N1_9 
REMARK    3  A    between atoms: N1_9  and  N2_11 
REMARK    4  A    between atoms: N2_11  and  C9_13 
ROOT
HETATM    1  C7  UNL     1      -3.630   1.518  31.553  1.00  0.00     0.031 C 
HETATM    2  C8  UNL     1      -4.410   1.204  32.714  1.00  0.00     0.108 C 
ENDROOT
BRANCH   2   3
HETATM    3  N1  UNL     1      -4.369  -0.176  33.140  1.00  0.00    -0.298 N 
ATOM      4  H1  UNL     1      -5.167  -0.782  32.949  1.00  0.00     0.186 HD
BRANCH   3   5
HETATM    5  N2  UNL     1      -3.238  -0.706  33.822  1.00  0.00    -0.130 N 
ATOM      6  H2  UNL     1      -2.371  -0.884  33.315  1.00  0.00     0.205 HD
BRANCH   5   7
HETATM    7  C9  UNL     1      -3.315  -0.961  35.094  1.00  0.00     0.722 A 
HETATM    8  N3  UNL     1      -4.166  -1.817  35.699  1.00  0.00    -0.115 N 
HETATM    9  N4  UNL     1      -3.924  -1.791  37.000  1.00  0.00     0.006 NA
ATOM     10  H3  UNL     1      -4.875  -2.385  35.234  1.00  0.00     0.202 HD
HETATM   11  N5  UNL     1      -2.936  -0.940  37.262  1.00  0.00     0.006 NA
HETATM   12  N6  UNL     1      -2.574  -0.442  36.090  1.00  0.00    -0.115 N 
ATOM     13  H6  UNL     1      -1.832   0.245  35.959  1.00  0.00     0.202 HD
ENDBRANCH   5   7
ENDBRANCH   3   5
ENDBRANCH   2   3
BRANCH   1  14
HETATM   14  C6  UNL     1      -3.740   0.965  30.257  1.00  0.00    -0.023 A 
HETATM   15  C4  UNL     1      -2.795   0.110  29.722  1.00  0.00    -0.051 A 
HETATM   16  C3  UNL     1      -2.961  -0.419  28.457  1.00  0.00     0.014 A 
HETATM   17  C5  UNL     1      -1.650  -0.180  30.577  1.00  0.00     0.049 C 
HETATM   18  C2  UNL     1      -4.056  -0.124  27.678  1.00  0.00    -0.061 A 
HETATM   19  C1  UNL     1      -4.157  -0.732  26.333  1.00  0.00     0.048 C 
HETATM   20  C12 UNL     1      -5.007   0.721  28.185  1.00  0.00     0.014 A 
HETATM   21  C10 UNL     1      -4.833   1.253  29.468  1.00  0.00    -0.051 A 
HETATM   22  C11 UNL     1      -5.938   2.139  29.966  1.00  0.00     0.049 C 
ENDBRANCH   1  14
TORSDOF 4
ENDMDL
