MODEL 1
REMARK VINA RESULT: -9.248515858      0.000      0.000
REMARK  14 active torsions:
REMARK  status: ('A' for Active; 'I' for Inactive)
REMARK    1  A    between atoms: C2_2  and  C3_3 
REMARK    2  A    between atoms: C3_3  and  N1_4 
REMARK    3  A    between atoms: C3_3  and  C26_38 
REMARK       I    between atoms: N1_4  and  C4_6 
REMARK    4  A    between atoms: C4_6  and  C5_8 
REMARK       I    between atoms: N2_12  and  C9_13 
REMARK    5  A    between atoms: C9_13  and  C10_15 
REMARK    6  A    between atoms: C10_15  and  N3_16 
REMARK    7  A    between atoms: C10_15  and  C22_34 
REMARK       I    between atoms: N3_16  and  C11_18 
REMARK    8  A    between atoms: C11_18  and  C12_20 
REMARK    9  A    between atoms: C12_20  and  N4_21 
REMARK   10  A    between atoms: C12_20  and  C18_30 
REMARK       I    between atoms: N4_21  and  C13_23 
REMARK   11  A    between atoms: C13_23  and  O5_25 
REMARK   12  A    between atoms: O5_25  and  C14_26 
REMARK   13  A    between atoms: C18_30  and  C20_32 
REMARK   14  A    between atoms: C26_38  and  C27_40 
REMARK       I    between atoms: C27_40  and  N5_42 
ROOT
HETATM    1  C5  UNL     1     -14.292 -20.756  18.061  1.00  0.00     0.179 C 
HETATM    2  C6  UNL     1     -14.229 -21.920  19.013  1.00  0.00     0.037 C 
HETATM    3  C7  UNL     1     -13.191 -22.814  18.382  1.00  0.00     0.022 C 
HETATM    4  C8  UNL     1     -12.391 -21.882  17.458  1.00  0.00     0.127 C 
HETATM    5  N2  UNL     1     -12.908 -20.562  17.715  1.00  0.00    -0.337 N 
HETATM    6  C9  UNL     1     -12.226 -19.336  17.685  1.00  0.00     0.244 C 
HETATM    7  O2  UNL     1     -12.917 -18.290  17.999  1.00  0.00    -0.271 OA
ENDROOT
BRANCH   6   8
HETATM    8  C10 UNL     1     -10.817 -19.099  17.346  1.00  0.00     0.184 C 
BRANCH   8   9
HETATM    9  N3  UNL     1     -10.270 -18.061  18.241  1.00  0.00    -0.345 N 
HETATM   10  C11 UNL     1      -9.048 -18.219  18.911  1.00  0.00     0.241 C 
HETATM   11  O3  UNL     1      -8.453 -19.337  18.681  1.00  0.00    -0.271 OA
ATOM     12  H3  UNL     1     -10.798 -17.199  18.377  1.00  0.00     0.163 HD
BRANCH  10  13
HETATM   13  C12 UNL     1      -8.364 -17.320  19.816  1.00  0.00     0.182 C 
BRANCH  13  14
HETATM   14  N4  UNL     1      -7.202 -16.731  19.180  1.00  0.00    -0.323 N 
HETATM   15  C13 UNL     1      -7.321 -15.709  18.198  1.00  0.00     0.362 C 
HETATM   16  O4  UNL     1      -8.458 -15.295  17.858  1.00  0.00    -0.238 OA
ATOM     17  H4  UNL     1      -6.273 -17.058  19.445  1.00  0.00     0.165 HD
BRANCH  15  18
HETATM   18  O5  UNL     1      -6.223 -15.146  17.593  1.00  0.00    -0.294 OA
BRANCH  18  19
HETATM   19  C14 UNL     1      -5.885 -15.246  16.232  1.00  0.00     0.061 C 
HETATM   20  C15 UNL     1      -6.366 -16.550  15.627  1.00  0.00     0.046 C 
HETATM   21  C16 UNL     1      -6.460 -14.107  15.412  1.00  0.00     0.046 C 
HETATM   22  C17 UNL     1      -4.377 -15.217  16.098  1.00  0.00     0.046 C 
ENDBRANCH  18  19
ENDBRANCH  15  18
ENDBRANCH  13  14
BRANCH  13  23
HETATM   23  C18 UNL     1      -7.977 -17.826  21.164  1.00  0.00     0.013 C 
HETATM   24  C19 UNL     1      -7.433 -16.787  22.110  1.00  0.00     0.012 C 
BRANCH  23  25
HETATM   25  C20 UNL     1      -9.057 -18.634  21.841  1.00  0.00     0.002 C 
HETATM   26  C21 UNL     1      -8.535 -20.054  21.958  1.00  0.00     0.005 C 
ENDBRANCH  23  25
ENDBRANCH  13  23
ENDBRANCH  10  13
ENDBRANCH   8   9
BRANCH   8  27
HETATM   27  C22 UNL     1     -10.658 -18.627  15.950  1.00  0.00    -0.022 C 
HETATM   28  C23 UNL     1     -10.766 -17.080  15.884  1.00  0.00     0.017 C 
HETATM   29  C24 UNL     1     -11.663 -19.239  15.036  1.00  0.00     0.017 C 
HETATM   30  C25 UNL     1      -9.289 -18.897  15.369  1.00  0.00     0.017 C 
ENDBRANCH   8  27
ENDBRANCH   6   8
BRANCH   1  31
HETATM   31  C4  UNL     1     -15.162 -21.083  16.875  1.00  0.00     0.241 C 
HETATM   32  N1  UNL     1     -15.989 -22.197  16.933  1.00  0.00    -0.347 N 
ATOM     33  H1  UNL     1     -15.927 -22.683  17.828  1.00  0.00     0.163 HD
HETATM   34  O1  UNL     1     -15.064 -20.304  15.909  1.00  0.00    -0.271 OA
BRANCH  32  35
HETATM   35  C3  UNL     1     -16.896 -22.814  16.044  1.00  0.00     0.164 C 
BRANCH  35  36
HETATM   36  C2  UNL     1     -17.123 -22.056  14.761  1.00  0.00     0.029 C 
HETATM   37  C1  UNL     1     -16.774 -22.787  13.509  1.00  0.00     0.007 C 
ENDBRANCH  35  36
BRANCH  35  38
HETATM   38  C26 UNL     1     -18.171 -23.213  16.643  1.00  0.00     0.239 C 
HETATM   39  O6  UNL     1     -19.217 -22.590  16.274  1.00  0.00    -0.285 OA
BRANCH  38  40
HETATM   40  C27 UNL     1     -18.236 -24.278  17.625  1.00  0.00     0.291 C 
HETATM   41  O7  UNL     1     -18.140 -24.112  18.848  1.00  0.00    -0.264 OA
HETATM   42  N5  UNL     1     -18.426 -25.651  17.189  1.00  0.00    -0.345 N 
HETATM   43  C28 UNL     1     -18.535 -26.781  18.068  1.00  0.00     0.126 C 
HETATM   44  C31 UNL     1     -18.519 -26.045  15.830  1.00  0.00     0.126 C 
HETATM   45  C29 UNL     1     -18.173 -27.955  17.216  1.00  0.00     0.021 C 
HETATM   46  C30 UNL     1     -18.643 -27.541  15.823  1.00  0.00     0.021 C 
ENDBRANCH  38  40
ENDBRANCH  35  38
ENDBRANCH  32  35
ENDBRANCH   1  31
TORSDOF 14
ENDMDL
MODEL 2
REMARK VINA RESULT: -9.215019152      1.990      4.207
REMARK  14 active torsions:
REMARK  status: ('A' for Active; 'I' for Inactive)
REMARK    1  A    between atoms: C2_2  and  C3_3 
REMARK    2  A    between atoms: C3_3  and  N1_4 
REMARK    3  A    between atoms: C3_3  and  C26_38 
REMARK       I    between atoms: N1_4  and  C4_6 
REMARK    4  A    between atoms: C4_6  and  C5_8 
REMARK       I    between atoms: N2_12  and  C9_13 
REMARK    5  A    between atoms: C9_13  and  C10_15 
REMARK    6  A    between atoms: C10_15  and  N3_16 
REMARK    7  A    between atoms: C10_15  and  C22_34 
REMARK       I    between atoms: N3_16  and  C11_18 
REMARK    8  A    between atoms: C11_18  and  C12_20 
REMARK    9  A    between atoms: C12_20  and  N4_21 
REMARK   10  A    between atoms: C12_20  and  C18_30 
REMARK       I    between atoms: N4_21  and  C13_23 
REMARK   11  A    between atoms: C13_23  and  O5_25 
REMARK   12  A    between atoms: O5_25  and  C14_26 
REMARK   13  A    between atoms: C18_30  and  C20_32 
REMARK   14  A    between atoms: C26_38  and  C27_40 
REMARK       I    between atoms: C27_40  and  N5_42 
ROOT
HETATM    1  C5  UNL     1     -14.063 -21.521  15.043  1.00  0.00     0.179 C 
HETATM    2  C6  UNL     1     -14.786 -20.524  14.179  1.00  0.00     0.037 C 
HETATM    3  C7  UNL     1     -15.558 -19.706  15.184  1.00  0.00     0.022 C 
HETATM    4  C8  UNL     1     -14.826 -19.941  16.515  1.00  0.00     0.127 C 
HETATM    5  N2  UNL     1     -13.666 -20.723  16.173  1.00  0.00    -0.337 N 
HETATM    6  C9  UNL     1     -12.394 -20.703  16.766  1.00  0.00     0.244 C 
HETATM    7  O2  UNL     1     -11.505 -21.480  16.240  1.00  0.00    -0.271 OA
ENDROOT
BRANCH   6   8
HETATM    8  C10 UNL     1     -11.949 -19.899  17.912  1.00  0.00     0.184 C 
BRANCH   8   9
HETATM    9  N3  UNL     1     -10.637 -19.298  17.603  1.00  0.00    -0.345 N 
HETATM   10  C11 UNL     1     -10.503 -17.963  17.194  1.00  0.00     0.241 C 
HETATM   11  O3  UNL     1     -11.612 -17.316  17.110  1.00  0.00    -0.271 OA
ATOM     12  H3  UNL     1      -9.798 -19.872  17.691  1.00  0.00     0.163 HD
BRANCH  10  13
HETATM   13  C12 UNL     1      -9.313 -17.213  16.853  1.00  0.00     0.182 C 
BRANCH  13  14
HETATM   14  N4  UNL     1      -8.776 -16.537  18.018  1.00  0.00    -0.323 N 
HETATM   15  C13 UNL     1      -7.952 -17.209  18.962  1.00  0.00     0.362 C 
HETATM   16  O4  UNL     1      -7.674 -18.425  18.799  1.00  0.00    -0.238 OA
ATOM     17  H4  UNL     1      -8.995 -15.552  18.164  1.00  0.00     0.165 HD
BRANCH  15  18
HETATM   18  O5  UNL     1      -7.439 -16.574  20.067  1.00  0.00    -0.294 OA
BRANCH  18  19
HETATM   19  C14 UNL     1      -7.337 -17.114  21.361  1.00  0.00     0.061 C 
HETATM   20  C15 UNL     1      -7.388 -16.036  22.426  1.00  0.00     0.046 C 
HETATM   21  C16 UNL     1      -8.437 -18.116  21.655  1.00  0.00     0.046 C 
HETATM   22  C17 UNL     1      -6.003 -17.816  21.496  1.00  0.00     0.046 C 
ENDBRANCH  18  19
ENDBRANCH  15  18
ENDBRANCH  13  14
BRANCH  13  23
HETATM   23  C18 UNL     1      -9.381 -16.247  15.719  1.00  0.00     0.013 C 
HETATM   24  C19 UNL     1      -8.481 -15.045  15.842  1.00  0.00     0.012 C 
BRANCH  23  25
HETATM   25  C20 UNL     1      -9.210 -16.891  14.365  1.00  0.00     0.002 C 
HETATM   26  C21 UNL     1      -7.929 -17.704  14.424  1.00  0.00     0.005 C 
ENDBRANCH  23  25
ENDBRANCH  13  23
ENDBRANCH  10  13
ENDBRANCH   8   9
BRANCH   8  27
HETATM   27  C22 UNL     1     -11.796 -20.721  19.136  1.00  0.00    -0.022 C 
HETATM   28  C23 UNL     1     -10.446 -21.485  19.112  1.00  0.00     0.017 C 
HETATM   29  C24 UNL     1     -12.917 -21.688  19.302  1.00  0.00     0.017 C 
HETATM   30  C25 UNL     1     -11.704 -19.907  20.406  1.00  0.00     0.017 C 
ENDBRANCH   8  27
ENDBRANCH   6   8
BRANCH   1  31
HETATM   31  C4  UNL     1     -14.971 -22.665  15.413  1.00  0.00     0.241 C 
HETATM   32  N1  UNL     1     -16.114 -22.889  14.655  1.00  0.00    -0.347 N 
ATOM     33  H1  UNL     1     -16.204 -22.232  13.881  1.00  0.00     0.163 HD
HETATM   34  O1  UNL     1     -14.613 -23.336  16.397  1.00  0.00    -0.271 OA
BRANCH  32  35
HETATM   35  C3  UNL     1     -17.180 -23.814  14.708  1.00  0.00     0.164 C 
BRANCH  35  36
HETATM   36  C2  UNL     1     -18.011 -23.878  13.453  1.00  0.00     0.029 C 
HETATM   37  C1  UNL     1     -17.299 -23.533  12.189  1.00  0.00     0.007 C 
ENDBRANCH  35  36
BRANCH  35  38
HETATM   38  C26 UNL     1     -18.034 -23.702  15.891  1.00  0.00     0.239 C 
HETATM   39  O6  UNL     1     -18.728 -22.644  16.019  1.00  0.00    -0.285 OA
BRANCH  38  40
HETATM   40  C27 UNL     1     -18.083 -24.759  16.884  1.00  0.00     0.291 C 
HETATM   41  O7  UNL     1     -18.701 -25.823  16.745  1.00  0.00    -0.264 OA
HETATM   42  N5  UNL     1     -17.375 -24.601  18.142  1.00  0.00    -0.345 N 
HETATM   43  C28 UNL     1     -17.328 -25.588  19.184  1.00  0.00     0.126 C 
HETATM   44  C31 UNL     1     -16.645 -23.439  18.500  1.00  0.00     0.126 C 
HETATM   45  C29 UNL     1     -16.990 -24.815  20.418  1.00  0.00     0.021 C 
HETATM   46  C30 UNL     1     -16.132 -23.665  19.893  1.00  0.00     0.021 C 
ENDBRANCH  38  40
ENDBRANCH  35  38
ENDBRANCH  32  35
ENDBRANCH   1  31
TORSDOF 14
ENDMDL
MODEL 3
REMARK VINA RESULT: -8.869371494      1.430      1.714
REMARK  14 active torsions:
REMARK  status: ('A' for Active; 'I' for Inactive)
REMARK    1  A    between atoms: C2_2  and  C3_3 
REMARK    2  A    between atoms: C3_3  and  N1_4 
REMARK    3  A    between atoms: C3_3  and  C26_38 
REMARK       I    between atoms: N1_4  and  C4_6 
REMARK    4  A    between atoms: C4_6  and  C5_8 
REMARK       I    between atoms: N2_12  and  C9_13 
REMARK    5  A    between atoms: C9_13  and  C10_15 
REMARK    6  A    between atoms: C10_15  and  N3_16 
REMARK    7  A    between atoms: C10_15  and  C22_34 
REMARK       I    between atoms: N3_16  and  C11_18 
REMARK    8  A    between atoms: C11_18  and  C12_20 
REMARK    9  A    between atoms: C12_20  and  N4_21 
REMARK   10  A    between atoms: C12_20  and  C18_30 
REMARK       I    between atoms: N4_21  and  C13_23 
REMARK   11  A    between atoms: C13_23  and  O5_25 
REMARK   12  A    between atoms: O5_25  and  C14_26 
REMARK   13  A    between atoms: C18_30  and  C20_32 
REMARK   14  A    between atoms: C26_38  and  C27_40 
REMARK       I    between atoms: C27_40  and  N5_42 
ROOT
HETATM    1  C5  UNL     1     -14.110 -20.097  17.699  1.00  0.00     0.179 C 
HETATM    2  C6  UNL     1     -14.187 -21.182  18.737  1.00  0.00     0.037 C 
HETATM    3  C7  UNL     1     -13.165 -22.181  18.254  1.00  0.00     0.022 C 
HETATM    4  C8  UNL     1     -12.245 -21.373  17.325  1.00  0.00     0.127 C 
HETATM    5  N2  UNL     1     -12.695 -20.010  17.444  1.00  0.00    -0.337 N 
HETATM    6  C9  UNL     1     -11.937 -18.830  17.374  1.00  0.00     0.244 C 
HETATM    7  O2  UNL     1     -12.582 -17.725  17.556  1.00  0.00    -0.271 OA
ENDROOT
BRANCH   6   8
HETATM    8  C10 UNL     1     -10.496 -18.702  17.124  1.00  0.00     0.184 C 
BRANCH   8   9
HETATM    9  N3  UNL     1      -9.925 -17.720  18.066  1.00  0.00    -0.345 N 
HETATM   10  C11 UNL     1      -8.823 -18.018  18.880  1.00  0.00     0.241 C 
HETATM   11  O3  UNL     1      -8.359 -19.210  18.737  1.00  0.00    -0.271 OA
ATOM     12  H3  UNL     1     -10.346 -16.793  18.128  1.00  0.00     0.163 HD
BRANCH  10  13
HETATM   13  C12 UNL     1      -8.137 -17.191  19.851  1.00  0.00     0.182 C 
BRANCH  13  14
HETATM   14  N4  UNL     1      -6.878 -16.706  19.321  1.00  0.00    -0.323 N 
HETATM   15  C13 UNL     1      -6.823 -15.678  18.341  1.00  0.00     0.362 C 
HETATM   16  O4  UNL     1      -7.887 -15.165  17.908  1.00  0.00    -0.238 OA
ATOM     17  H4  UNL     1      -6.007 -17.114  19.661  1.00  0.00     0.165 HD
BRANCH  15  18
HETATM   18  O5  UNL     1      -5.633 -15.213  17.835  1.00  0.00    -0.294 OA
BRANCH  18  19
HETATM   19  C14 UNL     1      -5.204 -15.313  16.500  1.00  0.00     0.061 C 
HETATM   20  C15 UNL     1      -5.946 -16.403  15.751  1.00  0.00     0.046 C 
HETATM   21  C16 UNL     1      -5.386 -14.014  15.739  1.00  0.00     0.046 C 
HETATM   22  C17 UNL     1      -3.735 -15.675  16.482  1.00  0.00     0.046 C 
ENDBRANCH  18  19
ENDBRANCH  15  18
ENDBRANCH  13  14
BRANCH  13  23
HETATM   23  C18 UNL     1      -7.910 -17.740  21.219  1.00  0.00     0.013 C 
HETATM   24  C19 UNL     1      -7.430 -16.742  22.242  1.00  0.00     0.012 C 
BRANCH  23  25
HETATM   25  C20 UNL     1      -9.083 -18.519  21.761  1.00  0.00     0.002 C 
HETATM   26  C21 UNL     1      -8.603 -19.943  21.976  1.00  0.00     0.005 C 
ENDBRANCH  23  25
ENDBRANCH  13  23
ENDBRANCH  10  13
ENDBRANCH   8   9
BRANCH   8  27
HETATM   27  C22 UNL     1     -10.215 -18.229  15.748  1.00  0.00    -0.022 C 
HETATM   28  C23 UNL     1     -10.100 -16.681  15.718  1.00  0.00     0.017 C 
HETATM   29  C24 UNL     1     -11.258 -18.672  14.781  1.00  0.00     0.017 C 
HETATM   30  C25 UNL     1      -8.876 -18.679  15.212  1.00  0.00     0.017 C 
ENDBRANCH   8  27
ENDBRANCH   6   8
BRANCH   1  31
HETATM   31  C4  UNL     1     -14.912 -20.465  16.478  1.00  0.00     0.241 C 
HETATM   32  N1  UNL     1     -15.732 -21.586  16.525  1.00  0.00    -0.347 N 
ATOM     33  H1  UNL     1     -15.712 -22.046  17.436  1.00  0.00     0.163 HD
HETATM   34  O1  UNL     1     -14.771 -19.714  15.497  1.00  0.00    -0.271 OA
BRANCH  32  35
HETATM   35  C3  UNL     1     -16.585 -22.237  15.608  1.00  0.00     0.164 C 
BRANCH  35  36
HETATM   36  C2  UNL     1     -17.576 -21.329  14.927  1.00  0.00     0.029 C 
HETATM   37  C1  UNL     1     -18.306 -21.923  13.769  1.00  0.00     0.007 C 
ENDBRANCH  35  36
BRANCH  35  38
HETATM   38  C26 UNL     1     -17.249 -23.434  16.127  1.00  0.00     0.239 C 
HETATM   39  O6  UNL     1     -17.370 -24.429  15.344  1.00  0.00    -0.285 OA
BRANCH  38  40
HETATM   40  C27 UNL     1     -17.755 -23.480  17.486  1.00  0.00     0.291 C 
HETATM   41  O7  UNL     1     -18.857 -23.043  17.840  1.00  0.00    -0.264 OA
HETATM   42  N5  UNL     1     -16.944 -24.071  18.538  1.00  0.00    -0.345 N 
HETATM   43  C28 UNL     1     -17.350 -24.199  19.909  1.00  0.00     0.126 C 
HETATM   44  C31 UNL     1     -15.640 -24.590  18.336  1.00  0.00     0.126 C 
HETATM   45  C29 UNL     1     -16.069 -24.332  20.668  1.00  0.00     0.021 C 
HETATM   46  C30 UNL     1     -15.142 -25.037  19.680  1.00  0.00     0.021 C 
ENDBRANCH  38  40
ENDBRANCH  35  38
ENDBRANCH  32  35
ENDBRANCH   1  31
TORSDOF 14
ENDMDL
MODEL 4
REMARK VINA RESULT: -8.847636746      2.283     11.360
REMARK  14 active torsions:
REMARK  status: ('A' for Active; 'I' for Inactive)
REMARK    1  A    between atoms: C2_2  and  C3_3 
REMARK    2  A    between atoms: C3_3  and  N1_4 
REMARK    3  A    between atoms: C3_3  and  C26_38 
REMARK       I    between atoms: N1_4  and  C4_6 
REMARK    4  A    between atoms: C4_6  and  C5_8 
REMARK       I    between atoms: N2_12  and  C9_13 
REMARK    5  A    between atoms: C9_13  and  C10_15 
REMARK    6  A    between atoms: C10_15  and  N3_16 
REMARK    7  A    between atoms: C10_15  and  C22_34 
REMARK       I    between atoms: N3_16  and  C11_18 
REMARK    8  A    between atoms: C11_18  and  C12_20 
REMARK    9  A    between atoms: C12_20  and  N4_21 
REMARK   10  A    between atoms: C12_20  and  C18_30 
REMARK       I    between atoms: N4_21  and  C13_23 
REMARK   11  A    between atoms: C13_23  and  O5_25 
REMARK   12  A    between atoms: O5_25  and  C14_26 
REMARK   13  A    between atoms: C18_30  and  C20_32 
REMARK   14  A    between atoms: C26_38  and  C27_40 
REMARK       I    between atoms: C27_40  and  N5_42 
ROOT
HETATM    1  C5  UNL     1      -9.442 -16.430  16.012  1.00  0.00     0.179 C 
HETATM    2  C6  UNL     1      -9.066 -16.553  14.561  1.00  0.00     0.037 C 
HETATM    3  C7  UNL     1      -8.220 -17.801  14.538  1.00  0.00     0.022 C 
HETATM    4  C8  UNL     1      -8.611 -18.556  15.819  1.00  0.00     0.127 C 
HETATM    5  N2  UNL     1      -9.698 -17.797  16.385  1.00  0.00    -0.337 N 
HETATM    6  C9  UNL     1     -10.804 -18.265  17.111  1.00  0.00     0.244 C 
HETATM    7  O2  UNL     1     -11.667 -17.374  17.474  1.00  0.00    -0.271 OA
ENDROOT
BRANCH   6   8
HETATM    8  C10 UNL     1     -11.103 -19.648  17.502  1.00  0.00     0.184 C 
BRANCH   8   9
HETATM    9  N3  UNL     1     -12.561 -19.869  17.431  1.00  0.00    -0.345 N 
HETATM   10  C11 UNL     1     -13.145 -20.701  16.465  1.00  0.00     0.241 C 
HETATM   11  O3  UNL     1     -12.309 -21.249  15.654  1.00  0.00    -0.271 OA
ATOM     12  H3  UNL     1     -13.164 -19.401  18.107  1.00  0.00     0.163 HD
BRANCH  10  13
HETATM   13  C12 UNL     1     -14.537 -21.032  16.247  1.00  0.00     0.182 C 
BRANCH  13  14
HETATM   14  N4  UNL     1     -14.908 -22.225  16.982  1.00  0.00    -0.323 N 
HETATM   15  C13 UNL     1     -15.160 -22.196  18.381  1.00  0.00     0.362 C 
HETATM   16  O4  UNL     1     -15.062 -21.114  19.015  1.00  0.00    -0.238 OA
ATOM     17  H4  UNL     1     -14.990 -23.110  16.482  1.00  0.00     0.165 HD
BRANCH  15  18
HETATM   18  O5  UNL     1     -15.513 -23.323  19.084  1.00  0.00    -0.294 OA
BRANCH  18  19
HETATM   19  C14 UNL     1     -16.644 -24.125  18.852  1.00  0.00     0.061 C 
HETATM   20  C15 UNL     1     -17.281 -24.586  20.148  1.00  0.00     0.046 C 
HETATM   21  C16 UNL     1     -17.702 -23.404  18.039  1.00  0.00     0.046 C 
HETATM   22  C17 UNL     1     -16.220 -25.363  18.093  1.00  0.00     0.046 C 
ENDBRANCH  18  19
ENDBRANCH  15  18
ENDBRANCH  13  14
BRANCH  13  23
HETATM   23  C18 UNL     1     -15.027 -21.154  14.844  1.00  0.00     0.013 C 
HETATM   24  C19 UNL     1     -15.129 -22.563  14.317  1.00  0.00     0.012 C 
BRANCH  23  25
HETATM   25  C20 UNL     1     -16.312 -20.406  14.584  1.00  0.00     0.002 C 
HETATM   26  C21 UNL     1     -17.427 -21.437  14.579  1.00  0.00     0.005 C 
ENDBRANCH  23  25
ENDBRANCH  13  23
ENDBRANCH  10  13
ENDBRANCH   8   9
BRANCH   8  27
HETATM   27  C22 UNL     1     -10.666 -19.935  18.888  1.00  0.00    -0.022 C 
HETATM   28  C23 UNL     1     -11.022 -21.395  19.279  1.00  0.00     0.017 C 
HETATM   29  C24 UNL     1     -11.270 -18.993  19.871  1.00  0.00     0.017 C 
HETATM   30  C25 UNL     1      -9.167 -19.890  19.075  1.00  0.00     0.017 C 
ENDBRANCH   8  27
ENDBRANCH   6   8
BRANCH   1  31
HETATM   31  C4  UNL     1      -8.326 -15.797  16.802  1.00  0.00     0.241 C 
HETATM   32  N1  UNL     1      -7.117 -15.538  16.169  1.00  0.00    -0.347 N 
ATOM     33  H1  UNL     1      -7.128 -15.800  15.183  1.00  0.00     0.163 HD
HETATM   34  O1  UNL     1      -8.585 -15.552  17.994  1.00  0.00    -0.271 OA
BRANCH  32  35
HETATM   35  C3  UNL     1      -5.877 -14.996  16.571  1.00  0.00     0.164 C 
BRANCH  35  36
HETATM   36  C2  UNL     1      -5.226 -14.103  15.547  1.00  0.00     0.029 C 
HETATM   37  C1  UNL     1      -4.232 -13.127  16.080  1.00  0.00     0.007 C 
ENDBRANCH  35  36
BRANCH  35  38
HETATM   38  C26 UNL     1      -4.918 -15.973  17.092  1.00  0.00     0.239 C 
HETATM   39  O6  UNL     1      -4.536 -16.899  16.308  1.00  0.00    -0.285 OA
BRANCH  38  40
HETATM   40  C27 UNL     1      -4.426 -15.888  18.454  1.00  0.00     0.291 C 
HETATM   41  O7  UNL     1      -3.518 -15.134  18.826  1.00  0.00    -0.264 OA
HETATM   42  N5  UNL     1      -5.010 -16.729  19.485  1.00  0.00    -0.345 N 
HETATM   43  C28 UNL     1      -4.625 -16.711  20.869  1.00  0.00     0.126 C 
HETATM   44  C31 UNL     1      -6.032 -17.682  19.247  1.00  0.00     0.126 C 
HETATM   45  C29 UNL     1      -5.061 -18.041  21.396  1.00  0.00     0.021 C 
HETATM   46  C30 UNL     1      -6.293 -18.369  20.556  1.00  0.00     0.021 C 
ENDBRANCH  38  40
ENDBRANCH  35  38
ENDBRANCH  32  35
ENDBRANCH   1  31
TORSDOF 14
ENDMDL
MODEL 5
REMARK VINA RESULT: -8.773217616      1.494      2.650
REMARK  14 active torsions:
REMARK  status: ('A' for Active; 'I' for Inactive)
REMARK    1  A    between atoms: C2_2  and  C3_3 
REMARK    2  A    between atoms: C3_3  and  N1_4 
REMARK    3  A    between atoms: C3_3  and  C26_38 
REMARK       I    between atoms: N1_4  and  C4_6 
REMARK    4  A    between atoms: C4_6  and  C5_8 
REMARK       I    between atoms: N2_12  and  C9_13 
REMARK    5  A    between atoms: C9_13  and  C10_15 
REMARK    6  A    between atoms: C10_15  and  N3_16 
REMARK    7  A    between atoms: C10_15  and  C22_34 
REMARK       I    between atoms: N3_16  and  C11_18 
REMARK    8  A    between atoms: C11_18  and  C12_20 
REMARK    9  A    between atoms: C12_20  and  N4_21 
REMARK   10  A    between atoms: C12_20  and  C18_30 
REMARK       I    between atoms: N4_21  and  C13_23 
REMARK   11  A    between atoms: C13_23  and  O5_25 
REMARK   12  A    between atoms: O5_25  and  C14_26 
REMARK   13  A    between atoms: C18_30  and  C20_32 
REMARK   14  A    between atoms: C26_38  and  C27_40 
REMARK       I    between atoms: C27_40  and  N5_42 
ROOT
HETATM    1  C5  UNL     1     -14.458 -20.960  18.132  1.00  0.00     0.179 C 
HETATM    2  C6  UNL     1     -14.313 -22.209  18.958  1.00  0.00     0.037 C 
HETATM    3  C7  UNL     1     -13.334 -23.030  18.156  1.00  0.00     0.022 C 
HETATM    4  C8  UNL     1     -12.617 -22.007  17.259  1.00  0.00     0.127 C 
HETATM    5  N2  UNL     1     -13.110 -20.722  17.687  1.00  0.00    -0.337 N 
HETATM    6  C9  UNL     1     -12.432 -19.493  17.716  1.00  0.00     0.244 C 
HETATM    7  O2  UNL     1     -13.093 -18.488  18.189  1.00  0.00    -0.271 OA
ENDROOT
BRANCH   6   8
HETATM    8  C10 UNL     1     -11.059 -19.213  17.280  1.00  0.00     0.184 C 
BRANCH   8   9
HETATM    9  N3  UNL     1     -10.464 -18.196  18.168  1.00  0.00    -0.345 N 
HETATM   10  C11 UNL     1      -9.217 -18.377  18.784  1.00  0.00     0.241 C 
HETATM   11  O3  UNL     1      -8.643 -19.496  18.511  1.00  0.00    -0.271 OA
ATOM     12  H3  UNL     1     -10.977 -17.331  18.340  1.00  0.00     0.163 HD
BRANCH  10  13
HETATM   13  C12 UNL     1      -8.487 -17.499  19.674  1.00  0.00     0.182 C 
BRANCH  13  14
HETATM   14  N4  UNL     1      -7.278 -17.010  19.042  1.00  0.00    -0.323 N 
HETATM   15  C13 UNL     1      -7.271 -15.830  18.248  1.00  0.00     0.362 C 
HETATM   16  O4  UNL     1      -8.335 -15.183  18.077  1.00  0.00    -0.238 OA
ATOM     17  H4  UNL     1      -6.408 -17.526  19.171  1.00  0.00     0.165 HD
BRANCH  15  18
HETATM   18  O5  UNL     1      -6.128 -15.360  17.647  1.00  0.00    -0.294 OA
BRANCH  18  19
HETATM   19  C14 UNL     1      -5.802 -15.472  16.284  1.00  0.00     0.061 C 
HETATM   20  C15 UNL     1      -4.347 -15.850  16.084  1.00  0.00     0.046 C 
HETATM   21  C16 UNL     1      -6.657 -16.502  15.571  1.00  0.00     0.046 C 
HETATM   22  C17 UNL     1      -6.015 -14.130  15.618  1.00  0.00     0.046 C 
ENDBRANCH  18  19
ENDBRANCH  15  18
ENDBRANCH  13  14
BRANCH  13  23
HETATM   23  C18 UNL     1      -8.156 -17.990  21.043  1.00  0.00     0.013 C 
HETATM   24  C19 UNL     1      -7.620 -16.947  21.989  1.00  0.00     0.012 C 
BRANCH  23  25
HETATM   25  C20 UNL     1      -9.276 -18.762  21.697  1.00  0.00     0.002 C 
HETATM   26  C21 UNL     1      -8.758 -20.167  21.941  1.00  0.00     0.005 C 
ENDBRANCH  23  25
ENDBRANCH  13  23
ENDBRANCH  10  13
ENDBRANCH   8   9
BRANCH   8  27
HETATM   27  C22 UNL     1     -11.016 -18.689  15.895  1.00  0.00    -0.022 C 
HETATM   28  C23 UNL     1     -12.000 -19.474  14.986  1.00  0.00     0.017 C 
HETATM   29  C24 UNL     1      -9.645 -18.749  15.317  1.00  0.00     0.017 C 
HETATM   30  C25 UNL     1     -11.502 -17.263  15.769  1.00  0.00     0.017 C 
ENDBRANCH   8  27
ENDBRANCH   6   8
BRANCH   1  31
HETATM   31  C4  UNL     1     -15.429 -21.178  17.000  1.00  0.00     0.241 C 
HETATM   32  N1  UNL     1     -16.226 -22.315  17.007  1.00  0.00    -0.347 N 
ATOM     33  H1  UNL     1     -16.071 -22.896  17.831  1.00  0.00     0.163 HD
HETATM   34  O1  UNL     1     -15.436 -20.294  16.125  1.00  0.00    -0.271 OA
BRANCH  32  35
HETATM   35  C3  UNL     1     -17.200 -22.855  16.139  1.00  0.00     0.164 C 
BRANCH  35  36
HETATM   36  C2  UNL     1     -17.749 -24.190  16.572  1.00  0.00     0.029 C 
HETATM   37  C1  UNL     1     -16.986 -24.881  17.652  1.00  0.00     0.007 C 
ENDBRANCH  35  36
BRANCH  35  38
HETATM   38  C26 UNL     1     -16.817 -22.886  14.726  1.00  0.00     0.239 C 
HETATM   39  O6  UNL     1     -15.587 -23.064  14.453  1.00  0.00    -0.285 OA
BRANCH  38  40
HETATM   40  C27 UNL     1     -17.804 -22.715  13.677  1.00  0.00     0.291 C 
HETATM   41  O7  UNL     1     -18.572 -21.748  13.588  1.00  0.00    -0.264 OA
HETATM   42  N5  UNL     1     -17.937 -23.724  12.641  1.00  0.00    -0.345 N 
HETATM   43  C28 UNL     1     -18.856 -23.649  11.540  1.00  0.00     0.126 C 
HETATM   44  C31 UNL     1     -17.175 -24.919  12.595  1.00  0.00     0.126 C 
HETATM   45  C29 UNL     1     -19.023 -25.067  11.094  1.00  0.00     0.021 C 
HETATM   46  C30 UNL     1     -17.670 -25.700  11.412  1.00  0.00     0.021 C 
ENDBRANCH  38  40
ENDBRANCH  35  38
ENDBRANCH  32  35
ENDBRANCH   1  31
TORSDOF 14
ENDMDL
