MODEL 1
REMARK VINA RESULT: -9.324102120      0.000      0.000
REMARK  13 active torsions:
REMARK  status: ('A' for Active; 'I' for Inactive)
REMARK    1  A    between atoms: C2_2  and  C3_3 
REMARK    2  A    between atoms: C3_3  and  O1_4 
REMARK    3  A    between atoms: O1_4  and  C4_5 
REMARK    4  A    between atoms: C6_7  and  N1_8 
REMARK       I    between atoms: N1_8  and  C7_10 
REMARK    5  A    between atoms: C7_10  and  C8_12 
REMARK    6  A    between atoms: C8_12  and  N2_14 
REMARK    7  A    between atoms: C8_12  and  C15_24 
REMARK    8  A    between atoms: N2_14  and  S1_16 
REMARK    9  A    between atoms: S1_16  and  C10_19 
REMARK   10  A    between atoms: C10_19  and  C12_21 
REMARK   11  A    between atoms: C18_29  and  C19_30 
REMARK       I    between atoms: C19_30  and  N4_32 
REMARK   12  A    between atoms: N4_32  and  S2_34 
REMARK   13  A    between atoms: S2_34  and  C20_37 
ROOT
HETATM    1  C4  UNL     1      10.487  20.496  19.854  1.00  0.00     0.147 A 
HETATM    2  C5  UNL     1      11.406  21.534  19.674  1.00  0.00     0.104 A 
HETATM    3  C6  UNL     1      11.899  21.889  18.436  1.00  0.00     0.113 A 
HETATM    4  N3  UNL     1      11.442  21.169  17.385  1.00  0.00    -0.324 N 
ATOM      5  H3  UNL     1      11.777  21.393  16.448  1.00  0.00     0.169 HD
HETATM    6  C18 UNL     1      10.559  20.169  17.541  1.00  0.00     0.179 A 
HETATM    7  N5  UNL     1      10.086  19.828  18.730  1.00  0.00    -0.318 N 
ATOM      8  H5  UNL     1       9.416  19.062  18.809  1.00  0.00     0.169 HD
ENDROOT
BRANCH   3   9
HETATM    9  N1  UNL     1      12.726  22.844  18.258  1.00  0.00    -0.311 N 
HETATM   10  C7  UNL     1      14.048  22.987  18.605  1.00  0.00     0.252 C 
HETATM   11  O2  UNL     1      14.378  22.708  19.814  1.00  0.00    -0.270 OA
ATOM     12  H1  UNL     1      12.335  23.648  17.767  1.00  0.00     0.170 HD
BRANCH  10  13
HETATM   13  C8  UNL     1      15.186  23.437  17.753  1.00  0.00     0.120 C 
HETATM   14  C9  UNL     1      16.438  22.830  18.243  1.00  0.00     0.050 C 
BRANCH  13  15
HETATM   15  N2  UNL     1      14.798  23.291  16.410  1.00  0.00    -0.300 N 
ATOM     16  H2  UNL     1      14.709  24.125  15.830  1.00  0.00     0.173 HD
BRANCH  15  17
HETATM   17  S1  UNL     1      14.480  21.812  15.737  1.00  0.00     0.231 S 
HETATM   18  O3  UNL     1      14.462  20.641  16.664  1.00  0.00    -0.206 OA
HETATM   19  O4  UNL     1      13.104  21.845  15.087  1.00  0.00    -0.206 OA
BRANCH  17  20
HETATM   20  C10 UNL     1      15.648  21.441  14.456  1.00  0.00     0.128 C 
HETATM   21  C11 UNL     1      16.143  20.041  14.645  1.00  0.00     0.028 C 
BRANCH  20  22
HETATM   22  C12 UNL     1      16.845  22.389  14.510  1.00  0.00    -0.003 C 
HETATM   23  C13 UNL     1      17.000  23.227  13.287  1.00  0.00     0.011 C 
HETATM   24  C14 UNL     1      18.102  21.652  14.826  1.00  0.00     0.011 C 
ENDBRANCH  20  22
ENDBRANCH  17  20
ENDBRANCH  15  17
ENDBRANCH  13  15
BRANCH  13  25
HETATM   25  C15 UNL     1      15.293  24.965  17.942  1.00  0.00     0.015 C 
HETATM   26  C16 UNL     1      14.078  25.611  18.472  1.00  0.00     0.012 C 
HETATM   27  C17 UNL     1      16.439  25.269  18.892  1.00  0.00     0.012 C 
ENDBRANCH  13  25
ENDBRANCH  10  13
ENDBRANCH   3   9
BRANCH   1  28
HETATM   28  O1  UNL     1       9.960  20.087  21.015  1.00  0.00    -0.336 OA
BRANCH  28  29
HETATM   29  C3  UNL     1       8.716  19.854  21.504  1.00  0.00     0.177 C 
BRANCH  29  30
HETATM   30  C2  UNL     1       8.251  18.427  21.340  1.00  0.00     0.022 C 
HETATM   31  C1  UNL     1       7.104  18.397  20.307  1.00  0.00     0.007 C 
ENDBRANCH  29  30
ENDBRANCH  28  29
ENDBRANCH   1  28
BRANCH   6  32
HETATM   32  C19 UNL     1      10.097  19.435  16.335  1.00  0.00     0.299 C 
HETATM   33  O5  UNL     1      10.819  19.428  15.342  1.00  0.00    -0.263 OA
HETATM   34  N4  UNL     1       8.863  18.788  16.385  1.00  0.00    -0.247 N 
ATOM     35  H4  UNL     1       8.322  18.845  17.248  1.00  0.00     0.182 HD
BRANCH  34  36
HETATM   36  S2  UNL     1       8.208  17.902  15.073  1.00  0.00     0.238 S 
HETATM   37  O6  UNL     1       9.343  17.159  14.438  1.00  0.00    -0.205 OA
HETATM   38  O7  UNL     1       7.740  18.902  14.018  1.00  0.00    -0.205 OA
BRANCH  36  39
HETATM   39  C20 UNL     1       6.898  16.880  15.586  1.00  0.00     0.146 A 
HETATM   40  C21 UNL     1       7.121  15.965  16.770  1.00  0.00    -0.020 A 
HETATM   41  C22 UNL     1       5.976  15.878  17.779  1.00  0.00     0.017 C 
HETATM   42  C23 UNL     1       8.485  15.957  17.414  1.00  0.00     0.017 C 
HETATM   43  C24 UNL     1       6.910  15.408  15.424  1.00  0.00    -0.020 A 
HETATM   44  C25 UNL     1       5.524  14.776  15.213  1.00  0.00     0.017 C 
HETATM   45  C26 UNL     1       7.966  14.713  14.625  1.00  0.00     0.017 C 
ENDBRANCH  36  39
ENDBRANCH  34  36
ENDBRANCH   6  32
TORSDOF 13
ENDMDL
MODEL 2
REMARK VINA RESULT: -9.004636040      2.302      5.279
REMARK  13 active torsions:
REMARK  status: ('A' for Active; 'I' for Inactive)
REMARK    1  A    between atoms: C2_2  and  C3_3 
REMARK    2  A    between atoms: C3_3  and  O1_4 
REMARK    3  A    between atoms: O1_4  and  C4_5 
REMARK    4  A    between atoms: C6_7  and  N1_8 
REMARK       I    between atoms: N1_8  and  C7_10 
REMARK    5  A    between atoms: C7_10  and  C8_12 
REMARK    6  A    between atoms: C8_12  and  N2_14 
REMARK    7  A    between atoms: C8_12  and  C15_24 
REMARK    8  A    between atoms: N2_14  and  S1_16 
REMARK    9  A    between atoms: S1_16  and  C10_19 
REMARK   10  A    between atoms: C10_19  and  C12_21 
REMARK   11  A    between atoms: C18_29  and  C19_30 
REMARK       I    between atoms: C19_30  and  N4_32 
REMARK   12  A    between atoms: N4_32  and  S2_34 
REMARK   13  A    between atoms: S2_34  and  C20_37 
ROOT
HETATM    1  C4  UNL     1      11.561  17.721  15.936  1.00  0.00     0.147 A 
HETATM    2  C5  UNL     1      12.749  18.457  15.907  1.00  0.00     0.104 A 
HETATM    3  C6  UNL     1      13.178  19.226  16.968  1.00  0.00     0.113 A 
HETATM    4  N3  UNL     1      12.377  19.233  18.059  1.00  0.00    -0.324 N 
ATOM      5  H3  UNL     1      12.650  19.788  18.871  1.00  0.00     0.169 HD
HETATM    6  C18 UNL     1      11.232  18.531  18.103  1.00  0.00     0.179 A 
HETATM    7  N5  UNL     1      10.821  17.792  17.083  1.00  0.00    -0.318 N 
ATOM      8  H5  UNL     1       9.945  17.273  17.154  1.00  0.00     0.169 HD
ENDROOT
BRANCH   3   9
HETATM    9  N1  UNL     1      14.267  19.891  16.959  1.00  0.00    -0.311 N 
HETATM   10  C7  UNL     1      14.942  20.527  15.944  1.00  0.00     0.252 C 
HETATM   11  O2  UNL     1      15.141  19.870  14.859  1.00  0.00    -0.270 OA
ATOM     12  H1  UNL     1      14.719  19.963  17.870  1.00  0.00     0.170 HD
BRANCH  10  13
HETATM   13  C8  UNL     1      15.496  21.911  15.927  1.00  0.00     0.120 C 
HETATM   14  C9  UNL     1      14.679  22.757  15.037  1.00  0.00     0.050 C 
BRANCH  13  15
HETATM   15  N2  UNL     1      15.732  22.294  17.259  1.00  0.00    -0.300 N 
ATOM     16  H2  UNL     1      16.694  22.339  17.595  1.00  0.00     0.173 HD
BRANCH  15  17
HETATM   17  S1  UNL     1      14.503  22.672  18.302  1.00  0.00     0.231 S 
HETATM   18  O3  UNL     1      13.139  22.812  17.711  1.00  0.00    -0.206 OA
HETATM   19  O4  UNL     1      14.387  21.578  19.354  1.00  0.00    -0.206 OA
BRANCH  17  20
HETATM   20  C10 UNL     1      14.853  24.182  19.163  1.00  0.00     0.128 C 
HETATM   21  C11 UNL     1      14.299  25.326  18.375  1.00  0.00     0.028 C 
BRANCH  20  22
HETATM   22  C12 UNL     1      16.358  24.388  19.324  1.00  0.00    -0.003 C 
HETATM   23  C13 UNL     1      16.797  24.513  20.743  1.00  0.00     0.011 C 
HETATM   24  C14 UNL     1      16.835  25.540  18.505  1.00  0.00     0.011 C 
ENDBRANCH  20  22
ENDBRANCH  17  20
ENDBRANCH  15  17
ENDBRANCH  13  15
BRANCH  13  25
HETATM   25  C15 UNL     1      16.910  21.806  15.317  1.00  0.00     0.015 C 
HETATM   26  C16 UNL     1      17.040  22.356  13.955  1.00  0.00     0.012 C 
HETATM   27  C17 UNL     1      17.894  22.536  16.215  1.00  0.00     0.012 C 
ENDBRANCH  13  25
ENDBRANCH  10  13
ENDBRANCH   3   9
BRANCH   1  28
HETATM   28  O1  UNL     1      11.073  16.951  14.954  1.00  0.00    -0.336 OA
BRANCH  28  29
HETATM   29  C3  UNL     1       9.850  16.670  14.440  1.00  0.00     0.177 C 
BRANCH  29  30
HETATM   30  C2  UNL     1       9.339  15.294  14.792  1.00  0.00     0.022 C 
HETATM   31  C1  UNL     1       7.924  15.126  14.196  1.00  0.00     0.007 C 
ENDBRANCH  29  30
ENDBRANCH  28  29
ENDBRANCH   1  28
BRANCH   6  32
HETATM   32  C19 UNL     1      10.415  18.582  19.343  1.00  0.00     0.299 C 
HETATM   33  O5  UNL     1      10.994  18.641  20.423  1.00  0.00    -0.263 OA
HETATM   34  N4  UNL     1       9.026  18.560  19.221  1.00  0.00    -0.247 N 
ATOM     35  H4  UNL     1       8.623  18.507  18.286  1.00  0.00     0.182 HD
BRANCH  34  36
HETATM   36  S2  UNL     1       7.961  18.618  20.562  1.00  0.00     0.238 S 
HETATM   37  O6  UNL     1       6.586  18.860  20.018  1.00  0.00    -0.205 OA
HETATM   38  O7  UNL     1       8.298  19.865  21.376  1.00  0.00    -0.205 OA
BRANCH  36  39
HETATM   39  C20 UNL     1       8.088  17.185  21.538  1.00  0.00     0.146 A 
HETATM   40  C21 UNL     1       7.506  15.895  21.001  1.00  0.00    -0.020 A 
HETATM   41  C22 UNL     1       8.353  14.638  21.203  1.00  0.00     0.017 C 
HETATM   42  C23 UNL     1       6.805  15.934  19.666  1.00  0.00     0.017 C 
HETATM   43  C24 UNL     1       6.923  16.543  22.188  1.00  0.00    -0.020 A 
HETATM   44  C25 UNL     1       7.240  15.832  23.515  1.00  0.00     0.017 C 
HETATM   45  C26 UNL     1       5.579  17.196  22.215  1.00  0.00     0.017 C 
ENDBRANCH  36  39
ENDBRANCH  34  36
ENDBRANCH   6  32
TORSDOF 13
ENDMDL
MODEL 3
REMARK VINA RESULT: -8.876552670      3.338     10.173
REMARK  13 active torsions:
REMARK  status: ('A' for Active; 'I' for Inactive)
REMARK    1  A    between atoms: C2_2  and  C3_3 
REMARK    2  A    between atoms: C3_3  and  O1_4 
REMARK    3  A    between atoms: O1_4  and  C4_5 
REMARK    4  A    between atoms: C6_7  and  N1_8 
REMARK       I    between atoms: N1_8  and  C7_10 
REMARK    5  A    between atoms: C7_10  and  C8_12 
REMARK    6  A    between atoms: C8_12  and  N2_14 
REMARK    7  A    between atoms: C8_12  and  C15_24 
REMARK    8  A    between atoms: N2_14  and  S1_16 
REMARK    9  A    between atoms: S1_16  and  C10_19 
REMARK   10  A    between atoms: C10_19  and  C12_21 
REMARK   11  A    between atoms: C18_29  and  C19_30 
REMARK       I    between atoms: C19_30  and  N4_32 
REMARK   12  A    between atoms: N4_32  and  S2_34 
REMARK   13  A    between atoms: S2_34  and  C20_37 
ROOT
HETATM    1  C4  UNL     1      15.098  23.512  17.533  1.00  0.00     0.147 A 
HETATM    2  C5  UNL     1      14.053  22.643  17.206  1.00  0.00     0.104 A 
HETATM    3  C6  UNL     1      13.992  21.966  16.006  1.00  0.00     0.113 A 
HETATM    4  N3  UNL     1      15.013  22.190  15.145  1.00  0.00    -0.324 N 
ATOM      5  H3  UNL     1      15.013  21.712  14.243  1.00  0.00     0.169 HD
HETATM    6  C18 UNL     1      16.024  23.021  15.444  1.00  0.00     0.179 A 
HETATM    7  N5  UNL     1      16.082  23.672  16.597  1.00  0.00    -0.318 N 
ATOM      8  H5  UNL     1      16.867  24.296  16.788  1.00  0.00     0.169 HD
ENDROOT
BRANCH   3   9
HETATM    9  N1  UNL     1      13.052  21.159  15.702  1.00  0.00    -0.311 N 
HETATM   10  C7  UNL     1      12.867  19.825  15.978  1.00  0.00     0.252 C 
HETATM   11  O2  UNL     1      13.848  19.029  15.747  1.00  0.00    -0.270 OA
ATOM     12  H1  UNL     1      12.300  21.580  15.157  1.00  0.00     0.170 HD
BRANCH  10  13
HETATM   13  C8  UNL     1      11.651  19.151  16.518  1.00  0.00     0.120 C 
HETATM   14  C9  UNL     1      12.054  17.993  17.336  1.00  0.00     0.050 C 
BRANCH  13  15
HETATM   15  N2  UNL     1      10.812  20.146  17.050  1.00  0.00    -0.300 N 
ATOM     16  H2  UNL     1      10.057  20.514  16.471  1.00  0.00     0.173 HD
BRANCH  15  17
HETATM   17  S1  UNL     1      11.007  20.741  18.581  1.00  0.00     0.231 S 
HETATM   18  O3  UNL     1      12.227  20.304  19.323  1.00  0.00    -0.206 OA
HETATM   19  O4  UNL     1      11.084  22.261  18.521  1.00  0.00    -0.206 OA
BRANCH  17  20
HETATM   20  C10 UNL     1       9.610  20.335  19.596  1.00  0.00     0.128 C 
HETATM   21  C11 UNL     1       9.715  21.089  20.884  1.00  0.00     0.028 C 
BRANCH  20  22
HETATM   22  C12 UNL     1       9.575  18.841  19.910  1.00  0.00    -0.003 C 
HETATM   23  C13 UNL     1       8.653  18.066  19.031  1.00  0.00     0.011 C 
HETATM   24  C14 UNL     1       9.279  18.600  21.352  1.00  0.00     0.011 C 
ENDBRANCH  20  22
ENDBRANCH  17  20
ENDBRANCH  15  17
ENDBRANCH  13  15
BRANCH  13  25
HETATM   25  C15 UNL     1      10.869  18.622  15.297  1.00  0.00     0.015 C 
HETATM   26  C16 UNL     1      11.010  17.175  15.050  1.00  0.00     0.012 C 
HETATM   27  C17 UNL     1       9.392  18.927  15.483  1.00  0.00     0.012 C 
ENDBRANCH  13  25
ENDBRANCH  10  13
ENDBRANCH   3   9
BRANCH   1  28
HETATM   28  O1  UNL     1      15.234  24.206  18.670  1.00  0.00    -0.336 OA
BRANCH  28  29
HETATM   29  C3  UNL     1      15.225  23.931  19.999  1.00  0.00     0.177 C 
BRANCH  29  30
HETATM   30  C2  UNL     1      16.364  24.561  20.763  1.00  0.00     0.022 C 
HETATM   31  C1  UNL     1      17.475  24.948  19.764  1.00  0.00     0.007 C 
ENDBRANCH  29  30
ENDBRANCH  28  29
ENDBRANCH   1  28
BRANCH   6  32
HETATM   32  C19 UNL     1      17.112  23.203  14.449  1.00  0.00     0.299 C 
HETATM   33  O5  UNL     1      18.139  22.544  14.578  1.00  0.00    -0.263 OA
HETATM   34  N4  UNL     1      16.916  24.117  13.413  1.00  0.00    -0.247 N 
ATOM     35  H4  UNL     1      16.035  24.628  13.380  1.00  0.00     0.182 HD
BRANCH  34  36
HETATM   36  S2  UNL     1      18.081  24.425  12.195  1.00  0.00     0.238 S 
HETATM   37  O6  UNL     1      18.581  23.094  11.722  1.00  0.00    -0.205 OA
HETATM   38  O7  UNL     1      19.284  25.096  12.854  1.00  0.00    -0.205 OA
BRANCH  36  39
HETATM   39  C20 UNL     1      17.429  25.421  10.928  1.00  0.00     0.146 A 
HETATM   40  C21 UNL     1      18.394  26.165  10.031  1.00  0.00    -0.020 A 
HETATM   41  C22 UNL     1      18.062  26.163   8.538  1.00  0.00     0.017 C 
HETATM   42  C23 UNL     1      19.870  26.037  10.313  1.00  0.00     0.017 C 
HETATM   43  C24 UNL     1      17.503  26.900  10.944  1.00  0.00    -0.020 A 
HETATM   44  C25 UNL     1      16.329  27.607  10.246  1.00  0.00     0.017 C 
HETATM   45  C26 UNL     1      17.968  27.652  12.149  1.00  0.00     0.017 C 
ENDBRANCH  36  39
ENDBRANCH  34  36
ENDBRANCH   6  32
TORSDOF 13
ENDMDL
MODEL 4
REMARK VINA RESULT: -8.832107297      2.350      4.727
REMARK  13 active torsions:
REMARK  status: ('A' for Active; 'I' for Inactive)
REMARK    1  A    between atoms: C2_2  and  C3_3 
REMARK    2  A    between atoms: C3_3  and  O1_4 
REMARK    3  A    between atoms: O1_4  and  C4_5 
REMARK    4  A    between atoms: C6_7  and  N1_8 
REMARK       I    between atoms: N1_8  and  C7_10 
REMARK    5  A    between atoms: C7_10  and  C8_12 
REMARK    6  A    between atoms: C8_12  and  N2_14 
REMARK    7  A    between atoms: C8_12  and  C15_24 
REMARK    8  A    between atoms: N2_14  and  S1_16 
REMARK    9  A    between atoms: S1_16  and  C10_19 
REMARK   10  A    between atoms: C10_19  and  C12_21 
REMARK   11  A    between atoms: C18_29  and  C19_30 
REMARK       I    between atoms: C19_30  and  N4_32 
REMARK   12  A    between atoms: N4_32  and  S2_34 
REMARK   13  A    between atoms: S2_34  and  C20_37 
ROOT
HETATM    1  C4  UNL     1      10.590  17.591  15.811  1.00  0.00     0.147 A 
HETATM    2  C5  UNL     1      11.503  18.603  15.502  1.00  0.00     0.104 A 
HETATM    3  C6  UNL     1      11.872  19.577  16.405  1.00  0.00     0.113 A 
HETATM    4  N3  UNL     1      11.295  19.504  17.628  1.00  0.00    -0.324 N 
ATOM      5  H3  UNL     1      11.534  20.202  18.332  1.00  0.00     0.169 HD
HETATM    6  C18 UNL     1      10.415  18.538  17.940  1.00  0.00     0.179 A 
HETATM    7  N5  UNL     1      10.061  17.602  17.071  1.00  0.00    -0.318 N 
ATOM      8  H5  UNL     1       9.390  16.884  17.346  1.00  0.00     0.169 HD
ENDROOT
BRANCH   3   9
HETATM    9  N1  UNL     1      12.716  20.497  16.141  1.00  0.00    -0.311 N 
HETATM   10  C7  UNL     1      12.933  21.730  16.707  1.00  0.00     0.252 C 
HETATM   11  O2  UNL     1      11.913  22.490  16.885  1.00  0.00    -0.270 OA
ATOM     12  H1  UNL     1      13.345  20.277  15.369  1.00  0.00     0.170 HD
BRANCH  10  13
HETATM   13  C8  UNL     1      14.223  22.331  17.152  1.00  0.00     0.120 C 
HETATM   14  C9  UNL     1      15.087  21.277  17.716  1.00  0.00     0.050 C 
BRANCH  13  15
HETATM   15  N2  UNL     1      14.687  23.160  16.117  1.00  0.00    -0.300 N 
ATOM     16  H2  UNL     1      14.507  24.163  16.171  1.00  0.00     0.173 HD
BRANCH  15  17
HETATM   17  S1  UNL     1      15.516  22.566  14.812  1.00  0.00     0.231 S 
HETATM   18  O3  UNL     1      15.410  21.099  14.560  1.00  0.00    -0.206 OA
HETATM   19  O4  UNL     1      15.005  23.241  13.547  1.00  0.00    -0.206 OA
BRANCH  17  20
HETATM   20  C10 UNL     1      17.243  22.948  14.939  1.00  0.00     0.128 C 
HETATM   21  C11 UNL     1      18.028  21.682  14.798  1.00  0.00     0.028 C 
BRANCH  20  22
HETATM   22  C12 UNL     1      17.571  23.573  16.294  1.00  0.00    -0.003 C 
HETATM   23  C13 UNL     1      17.944  25.014  16.213  1.00  0.00     0.011 C 
HETATM   24  C14 UNL     1      18.611  22.783  17.015  1.00  0.00     0.011 C 
ENDBRANCH  20  22
ENDBRANCH  17  20
ENDBRANCH  15  17
ENDBRANCH  13  15
BRANCH  13  25
HETATM   25  C15 UNL     1      13.874  23.317  18.287  1.00  0.00     0.015 C 
HETATM   26  C16 UNL     1      14.302  22.891  19.632  1.00  0.00     0.012 C 
HETATM   27  C17 UNL     1      14.518  24.661  17.992  1.00  0.00     0.012 C 
ENDBRANCH  13  25
ENDBRANCH  10  13
ENDBRANCH   3   9
BRANCH   1  28
HETATM   28  O1  UNL     1      10.179  16.610  14.997  1.00  0.00    -0.336 OA
BRANCH  28  29
HETATM   29  C3  UNL     1       9.057  16.323  14.290  1.00  0.00     0.177 C 
BRANCH  29  30
HETATM   30  C2  UNL     1       8.583  14.898  14.445  1.00  0.00     0.022 C 
HETATM   31  C1  UNL     1       7.039  14.883  14.393  1.00  0.00     0.007 C 
ENDBRANCH  29  30
ENDBRANCH  28  29
ENDBRANCH   1  28
BRANCH   6  32
HETATM   32  C19 UNL     1       9.835  18.521  19.307  1.00  0.00     0.299 C 
HETATM   33  O5  UNL     1      10.598  18.565  20.267  1.00  0.00    -0.263 OA
HETATM   34  N4  UNL     1       8.448  18.452  19.437  1.00  0.00    -0.247 N 
ATOM     35  H4  UNL     1       7.884  18.414  18.588  1.00  0.00     0.182 HD
BRANCH  34  36
HETATM   36  S2  UNL     1       7.643  18.429  20.949  1.00  0.00     0.238 S 
HETATM   37  O6  UNL     1       6.180  18.594  20.668  1.00  0.00    -0.205 OA
HETATM   38  O7  UNL     1       8.049  19.684  21.718  1.00  0.00    -0.205 OA
BRANCH  36  39
HETATM   39  C20 UNL     1       8.027  16.994  21.853  1.00  0.00     0.146 A 
HETATM   40  C21 UNL     1       7.533  15.663  21.332  1.00  0.00    -0.020 A 
HETATM   41  C22 UNL     1       8.527  14.502  21.399  1.00  0.00     0.017 C 
HETATM   42  C23 UNL     1       6.694  15.657  20.079  1.00  0.00     0.017 C 
HETATM   43  C24 UNL     1       7.013  16.211  22.596  1.00  0.00    -0.020 A 
HETATM   44  C25 UNL     1       7.545  15.506  23.855  1.00  0.00     0.017 C 
HETATM   45  C26 UNL     1       5.617  16.710  22.786  1.00  0.00     0.017 C 
ENDBRANCH  36  39
ENDBRANCH  34  36
ENDBRANCH   6  32
TORSDOF 13
ENDMDL
MODEL 5
REMARK VINA RESULT: -8.797040653      1.741      3.784
REMARK  13 active torsions:
REMARK  status: ('A' for Active; 'I' for Inactive)
REMARK    1  A    between atoms: C2_2  and  C3_3 
REMARK    2  A    between atoms: C3_3  and  O1_4 
REMARK    3  A    between atoms: O1_4  and  C4_5 
REMARK    4  A    between atoms: C6_7  and  N1_8 
REMARK       I    between atoms: N1_8  and  C7_10 
REMARK    5  A    between atoms: C7_10  and  C8_12 
REMARK    6  A    between atoms: C8_12  and  N2_14 
REMARK    7  A    between atoms: C8_12  and  C15_24 
REMARK    8  A    between atoms: N2_14  and  S1_16 
REMARK    9  A    between atoms: S1_16  and  C10_19 
REMARK   10  A    between atoms: C10_19  and  C12_21 
REMARK   11  A    between atoms: C18_29  and  C19_30 
REMARK       I    between atoms: C19_30  and  N4_32 
REMARK   12  A    between atoms: N4_32  and  S2_34 
REMARK   13  A    between atoms: S2_34  and  C20_37 
ROOT
HETATM    1  C4  UNL     1       9.910  19.864  18.153  1.00  0.00     0.147 A 
HETATM    2  C5  UNL     1      11.212  20.021  17.670  1.00  0.00     0.104 A 
HETATM    3  C6  UNL     1      11.650  19.438  16.500  1.00  0.00     0.113 A 
HETATM    4  N3  UNL     1      10.740  18.692  15.830  1.00  0.00    -0.324 N 
ATOM      5  H3  UNL     1      11.015  18.238  14.959  1.00  0.00     0.169 HD
HETATM    6  C18 UNL     1       9.485  18.531  16.282  1.00  0.00     0.179 A 
HETATM    7  N5  UNL     1       9.064  19.092  17.406  1.00  0.00    -0.318 N 
ATOM      8  H5  UNL     1       8.103  18.946  17.716  1.00  0.00     0.169 HD
ENDROOT
BRANCH   3   9
HETATM    9  N1  UNL     1      12.831  19.586  16.040  1.00  0.00    -0.311 N 
HETATM   10  C7  UNL     1      13.382  20.546  15.225  1.00  0.00     0.252 C 
HETATM   11  O2  UNL     1      12.748  20.846  14.150  1.00  0.00    -0.270 OA
ATOM     12  H1  UNL     1      13.486  18.860  16.332  1.00  0.00     0.170 HD
BRANCH  10  13
HETATM   13  C8  UNL     1      14.650  21.306  15.416  1.00  0.00     0.120 C 
HETATM   14  C9  UNL     1      14.528  22.633  14.786  1.00  0.00     0.050 C 
BRANCH  13  15
HETATM   15  N2  UNL     1      15.020  21.187  16.767  1.00  0.00    -0.300 N 
ATOM     16  H2  UNL     1      15.620  20.411  17.047  1.00  0.00     0.173 HD
BRANCH  15  17
HETATM   17  S1  UNL     1      14.514  22.261  17.921  1.00  0.00     0.231 S 
HETATM   18  O3  UNL     1      13.103  22.737  17.824  1.00  0.00    -0.206 OA
HETATM   19  O4  UNL     1      14.639  21.615  19.294  1.00  0.00    -0.206 OA
BRANCH  17  20
HETATM   20  C10 UNL     1      15.548  23.702  17.933  1.00  0.00     0.128 C 
HETATM   21  C11 UNL     1      16.948  23.287  18.257  1.00  0.00     0.028 C 
BRANCH  20  22
HETATM   22  C12 UNL     1      15.083  24.704  18.988  1.00  0.00    -0.003 C 
HETATM   23  C13 UNL     1      14.385  25.892  18.419  1.00  0.00     0.011 C 
HETATM   24  C14 UNL     1      16.208  25.111  19.878  1.00  0.00     0.011 C 
ENDBRANCH  20  22
ENDBRANCH  17  20
ENDBRANCH  15  17
ENDBRANCH  13  15
BRANCH  13  25
HETATM   25  C15 UNL     1      15.745  20.521  14.663  1.00  0.00     0.015 C 
HETATM   26  C16 UNL     1      17.083  21.139  14.694  1.00  0.00     0.012 C 
HETATM   27  C17 UNL     1      15.856  19.127  15.258  1.00  0.00     0.012 C 
ENDBRANCH  13  25
ENDBRANCH  10  13
ENDBRANCH   3   9
BRANCH   1  28
HETATM   28  O1  UNL     1       9.404  20.393  19.275  1.00  0.00    -0.336 OA
BRANCH  28  29
HETATM   29  C3  UNL     1       9.897  20.956  20.407  1.00  0.00     0.177 C 
BRANCH  29  30
HETATM   30  C2  UNL     1       9.246  20.456  21.674  1.00  0.00     0.022 C 
HETATM   31  C1  UNL     1       8.915  18.958  21.500  1.00  0.00     0.007 C 
ENDBRANCH  29  30
ENDBRANCH  28  29
ENDBRANCH   1  28
BRANCH   6  32
HETATM   32  C19 UNL     1       8.543  17.706  15.482  1.00  0.00     0.299 C 
HETATM   33  O5  UNL     1       8.066  18.188  14.459  1.00  0.00    -0.263 OA
HETATM   34  N4  UNL     1       8.242  16.420  15.932  1.00  0.00    -0.247 N 
ATOM     35  H4  UNL     1       8.679  16.096  16.795  1.00  0.00     0.182 HD
BRANCH  34  36
HETATM   36  S2  UNL     1       7.178  15.358  15.110  1.00  0.00     0.238 S 
HETATM   37  O6  UNL     1       7.438  13.982  15.641  1.00  0.00    -0.205 OA
HETATM   38  O7  UNL     1       7.601  15.311  13.644  1.00  0.00    -0.205 OA
BRANCH  36  39
HETATM   39  C20 UNL     1       5.524  15.870  15.264  1.00  0.00     0.146 A 
HETATM   40  C21 UNL     1       4.911  15.917  16.646  1.00  0.00    -0.020 A 
HETATM   41  C22 UNL     1       4.045  17.137  16.959  1.00  0.00     0.017 C 
HETATM   42  C23 UNL     1       5.757  15.472  17.814  1.00  0.00     0.017 C 
HETATM   43  C24 UNL     1       4.426  14.953  15.645  1.00  0.00    -0.020 A 
HETATM   44  C25 UNL     1       3.057  15.306  15.041  1.00  0.00     0.017 C 
HETATM   45  C26 UNL     1       4.630  13.475  15.732  1.00  0.00     0.017 C 
ENDBRANCH  36  39
ENDBRANCH  34  36
ENDBRANCH   6  32
TORSDOF 13
ENDMDL
