MODEL 1
REMARK VINA RESULT: -8.656319643      0.000      0.000
REMARK  16 active torsions:
REMARK  status: ('A' for Active; 'I' for Inactive)
REMARK    1  A    between atoms: C2_2  and  C3_4 
REMARK    2  A    between atoms: C3_4  and  C4_5 
REMARK       I    between atoms: N1_8  and  C7_9 
REMARK    3  A    between atoms: C7_9  and  C8_11 
REMARK    4  A    between atoms: C8_11  and  C9_12 
REMARK    5  A    between atoms: C9_12  and  C10_13 
REMARK    6  A    between atoms: C10_13  and  N2_14 
REMARK    7  A    between atoms: C10_13  and  C16_26 
REMARK    8  A    between atoms: N2_14  and  C11_16 
REMARK    9  A    between atoms: C11_16  and  C12_18 
REMARK   10  A    between atoms: C12_18  and  N3_19 
REMARK   11  A    between atoms: C12_18  and  C13_23 
REMARK   12  A    between atoms: C16_26  and  C19_29 
REMARK   13  A    between atoms: C19_29  and  O3_30 
REMARK   14  A    between atoms: C19_29  and  N4_32 
REMARK   15  A    between atoms: C24_38  and  C25_39 
REMARK       I    between atoms: C25_39  and  N5_41 
REMARK   16  A    between atoms: N5_41  and  C26_43 
ROOT
HETATM    1  C26 UNL     1      11.411  19.287  16.023  1.00  0.00     0.247 C 
HETATM    2  C27 UNL     1      10.280  20.157  15.699  1.00  0.00     0.078 C 
HETATM    3  N6  UNL     1       9.386  20.848  15.453  1.00  0.00    -0.196 NA
ENDROOT
BRANCH   1   4
HETATM    4  N5  UNL     1      12.643  19.853  15.542  1.00  0.00    -0.347 N 
HETATM    5  C25 UNL     1      13.464  20.614  16.386  1.00  0.00     0.242 C 
HETATM    6  O4  UNL     1      13.068  20.776  17.592  1.00  0.00    -0.271 OA
ATOM      7  H5  UNL     1      12.923  19.698  14.573  1.00  0.00     0.163 HD
BRANCH   5   8
HETATM    8  C24 UNL     1      14.761  21.251  16.002  1.00  0.00     0.196 C 
HETATM    9  N4  UNL     1      15.065  22.376  16.812  1.00  0.00    -0.341 N 
HETATM   10  C20 UNL     1      14.121  23.489  16.536  1.00  0.00     0.200 C 
HETATM   11  S2  UNL     1      13.467  23.105  14.880  1.00  0.00    -0.137 SA
HETATM   12  C21 UNL     1      14.665  21.732  14.570  1.00  0.00     0.032 C 
HETATM   13  C22 UNL     1      14.154  20.725  13.627  1.00  0.00     0.029 C 
HETATM   14  C23 UNL     1      15.895  22.375  14.037  1.00  0.00     0.029 C 
BRANCH   9  15
HETATM   15  C19 UNL     1      16.066  22.518  17.763  1.00  0.00     0.125 C 
BRANCH  15  16
HETATM   16  C16 UNL     1      17.507  22.251  17.745  1.00  0.00     0.041 C 
HETATM   17  C17 UNL     1      17.818  21.569  19.062  1.00  0.00     0.026 C 
HETATM   18  C18 UNL     1      17.992  21.354  16.645  1.00  0.00     0.026 C 
BRANCH  16  19
HETATM   19  C10 UNL     1      18.344  23.556  17.570  1.00  0.00     0.121 C 
BRANCH  19  20
HETATM   20  C9  UNL     1      17.904  24.233  16.353  1.00  0.00     0.005 C 
BRANCH  20  21
HETATM   21  C8  UNL     1      18.770  24.591  15.229  1.00  0.00     0.072 C 
BRANCH  21  22
HETATM   22  C7  UNL     1      18.987  25.937  14.772  1.00  0.00     0.243 C 
HETATM   23  N1  UNL     1      20.264  26.477  14.410  1.00  0.00    -0.349 N 
HETATM   24  C6  UNL     1      21.509  25.757  14.412  1.00  0.00     0.126 C 
HETATM   25  C28 UNL     1      20.389  27.868  14.000  1.00  0.00     0.126 C 
HETATM   26  C5  UNL     1      22.527  26.386  15.322  1.00  0.00     0.025 C 
HETATM   27  C4  UNL     1      22.306  27.800  15.666  1.00  0.00    -0.005 C 
HETATM   28  C29 UNL     1      21.383  28.593  14.823  1.00  0.00     0.025 C 
HETATM   29  O2  UNL     1      18.029  26.732  14.674  1.00  0.00    -0.268 OA
BRANCH  27  30
HETATM   30  C3  UNL     1      23.655  28.514  15.632  1.00  0.00     0.082 C 
BRANCH  30  31
HETATM   31  C2  UNL     1      24.709  27.809  16.372  1.00  0.00     0.123 C 
HETATM   32  C1  UNL     1      25.933  27.311  15.638  1.00  0.00     0.091 C 
HETATM   33  O1  UNL     1      24.718  27.563  17.566  1.00  0.00    -0.298 OA
ENDBRANCH  30  31
ENDBRANCH  27  30
ENDBRANCH  21  22
ENDBRANCH  20  21
ENDBRANCH  19  20
BRANCH  19  34
HETATM   34  N2  UNL     1      18.435  24.322  18.750  1.00  0.00    -0.374 N 
ATOM     35  H2  UNL     1      17.569  24.458  19.272  1.00  0.00     0.161 HD
BRANCH  34  36
HETATM   36  C11 UNL     1      19.612  24.933  19.299  1.00  0.00     0.105 C 
HETATM   37  S1  UNL     1      20.620  25.872  18.388  1.00  0.00    -0.063 SA
BRANCH  36  38
HETATM   38  C12 UNL     1      19.942  24.802  20.731  1.00  0.00     0.247 C 
BRANCH  38  39
HETATM   39  N3  UNL     1      20.628  25.991  21.178  1.00  0.00    -0.069 N 
ATOM     40  H33 UNL     1      21.504  26.142  20.677  1.00  0.00     0.275 HD
ATOM     41  H32 UNL     1      20.147  26.843  20.892  1.00  0.00     0.275 HD
ATOM     42  H31 UNL     1      20.766  25.945  22.188  1.00  0.00     0.275 HD
ENDBRANCH  38  39
BRANCH  38  43
HETATM   43  C13 UNL     1      20.797  23.568  20.932  1.00  0.00     0.015 C 
HETATM   44  C14 UNL     1      22.158  23.843  21.472  1.00  0.00     0.012 C 
HETATM   45  C15 UNL     1      20.092  22.585  21.818  1.00  0.00     0.012 C 
ENDBRANCH  38  43
ENDBRANCH  36  38
ENDBRANCH  34  36
ENDBRANCH  19  34
ENDBRANCH  16  19
ENDBRANCH  15  16
BRANCH  15  46
HETATM   46  O3  UNL     1      15.624  22.979  18.899  1.00  0.00    -0.349 OA
ATOM     47  H3  UNL     1      16.034  23.791  19.175  1.00  0.00     0.219 HD
ENDBRANCH  15  46
ENDBRANCH   9  15
ENDBRANCH   5   8
ENDBRANCH   1   4
TORSDOF 16
ENDMDL
MODEL 2
REMARK VINA RESULT: -8.636813266      2.103      3.017
REMARK  16 active torsions:
REMARK  status: ('A' for Active; 'I' for Inactive)
REMARK    1  A    between atoms: C2_2  and  C3_4 
REMARK    2  A    between atoms: C3_4  and  C4_5 
REMARK       I    between atoms: N1_8  and  C7_9 
REMARK    3  A    between atoms: C7_9  and  C8_11 
REMARK    4  A    between atoms: C8_11  and  C9_12 
REMARK    5  A    between atoms: C9_12  and  C10_13 
REMARK    6  A    between atoms: C10_13  and  N2_14 
REMARK    7  A    between atoms: C10_13  and  C16_26 
REMARK    8  A    between atoms: N2_14  and  C11_16 
REMARK    9  A    between atoms: C11_16  and  C12_18 
REMARK   10  A    between atoms: C12_18  and  N3_19 
REMARK   11  A    between atoms: C12_18  and  C13_23 
REMARK   12  A    between atoms: C16_26  and  C19_29 
REMARK   13  A    between atoms: C19_29  and  O3_30 
REMARK   14  A    between atoms: C19_29  and  N4_32 
REMARK   15  A    between atoms: C24_38  and  C25_39 
REMARK       I    between atoms: C25_39  and  N5_41 
REMARK   16  A    between atoms: N5_41  and  C26_43 
ROOT
HETATM    1  C26 UNL     1      11.383  19.413  14.865  1.00  0.00     0.247 C 
HETATM    2  C27 UNL     1      11.895  19.915  13.591  1.00  0.00     0.078 C 
HETATM    3  N6  UNL     1      12.295  20.321  12.584  1.00  0.00    -0.196 NA
ENDROOT
BRANCH   1   4
HETATM    4  N5  UNL     1      12.353  19.594  15.911  1.00  0.00    -0.347 N 
HETATM    5  C25 UNL     1      11.957  19.963  17.204  1.00  0.00     0.242 C 
HETATM    6  O4  UNL     1      10.703  20.125  17.405  1.00  0.00    -0.271 OA
ATOM      7  H5  UNL     1      13.343  19.454  15.710  1.00  0.00     0.163 HD
BRANCH   5   8
HETATM    8  C24 UNL     1      12.868  20.181  18.370  1.00  0.00     0.196 C 
HETATM    9  N4  UNL     1      14.226  20.294  17.972  1.00  0.00    -0.341 N 
HETATM   10  C20 UNL     1      14.733  18.992  17.469  1.00  0.00     0.200 C 
HETATM   11  S2  UNL     1      13.594  17.770  18.197  1.00  0.00    -0.137 SA
HETATM   12  C21 UNL     1      12.762  18.995  19.304  1.00  0.00     0.032 C 
HETATM   13  C22 UNL     1      11.382  18.616  19.645  1.00  0.00     0.029 C 
HETATM   14  C23 UNL     1      13.603  19.078  20.526  1.00  0.00     0.029 C 
BRANCH   9  15
HETATM   15  C19 UNL     1      15.051  21.411  17.997  1.00  0.00     0.125 C 
BRANCH  15  16
HETATM   16  C16 UNL     1      15.098  22.636  17.195  1.00  0.00     0.041 C 
HETATM   17  C17 UNL     1      14.412  22.301  15.886  1.00  0.00     0.026 C 
HETATM   18  C18 UNL     1      14.399  23.829  17.780  1.00  0.00     0.026 C 
BRANCH  16  19
HETATM   19  C10 UNL     1      16.560  23.128  16.960  1.00  0.00     0.121 C 
BRANCH  19  20
HETATM   20  C9  UNL     1      16.741  23.388  15.535  1.00  0.00     0.005 C 
BRANCH  20  21
HETATM   21  C8  UNL     1      17.901  24.055  14.942  1.00  0.00     0.072 C 
BRANCH  21  22
HETATM   22  C7  UNL     1      18.080  25.481  14.901  1.00  0.00     0.243 C 
HETATM   23  N1  UNL     1      19.283  26.138  14.483  1.00  0.00    -0.349 N 
HETATM   24  C6  UNL     1      20.474  25.485  14.010  1.00  0.00     0.126 C 
HETATM   25  C28 UNL     1      19.383  27.590  14.519  1.00  0.00     0.126 C 
HETATM   26  C5  UNL     1      21.675  25.815  14.852  1.00  0.00     0.025 C 
HETATM   27  C4  UNL     1      21.584  27.041  15.662  1.00  0.00    -0.005 C 
HETATM   28  C29 UNL     1      20.548  28.039  15.314  1.00  0.00     0.025 C 
HETATM   29  O2  UNL     1      17.155  26.244  15.252  1.00  0.00    -0.268 OA
BRANCH  27  30
HETATM   30  C3  UNL     1      22.928  27.760  15.589  1.00  0.00     0.082 C 
BRANCH  30  31
HETATM   31  C2  UNL     1      24.016  27.035  16.257  1.00  0.00     0.123 C 
HETATM   32  C1  UNL     1      24.039  26.943  17.766  1.00  0.00     0.091 C 
HETATM   33  O1  UNL     1      24.951  26.470  15.717  1.00  0.00    -0.298 OA
ENDBRANCH  30  31
ENDBRANCH  27  30
ENDBRANCH  21  22
ENDBRANCH  20  21
ENDBRANCH  19  20
BRANCH  19  34
HETATM   34  N2  UNL     1      16.962  24.132  17.866  1.00  0.00    -0.374 N 
ATOM     35  H2  UNL     1      16.354  24.947  17.941  1.00  0.00     0.161 HD
BRANCH  34  36
HETATM   36  C11 UNL     1      18.134  24.132  18.695  1.00  0.00     0.105 C 
HETATM   37  S1  UNL     1      19.601  24.652  18.142  1.00  0.00    -0.063 SA
BRANCH  36  38
HETATM   38  C12 UNL     1      18.065  23.726  20.112  1.00  0.00     0.247 C 
BRANCH  38  39
HETATM   39  N3  UNL     1      17.694  24.862  20.921  1.00  0.00    -0.069 N 
ATOM     40  H33 UNL     1      18.468  25.194  21.498  1.00  0.00     0.275 HD
ATOM     41  H32 UNL     1      17.557  25.704  20.363  1.00  0.00     0.275 HD
ATOM     42  H31 UNL     1      16.872  24.629  21.478  1.00  0.00     0.275 HD
ENDBRANCH  38  39
BRANCH  38  43
HETATM   43  C13 UNL     1      19.409  23.168  20.534  1.00  0.00     0.015 C 
HETATM   44  C14 UNL     1      19.934  23.728  21.811  1.00  0.00     0.012 C 
HETATM   45  C15 UNL     1      19.345  21.673  20.626  1.00  0.00     0.012 C 
ENDBRANCH  38  43
ENDBRANCH  36  38
ENDBRANCH  34  36
ENDBRANCH  19  34
ENDBRANCH  16  19
ENDBRANCH  15  16
BRANCH  15  46
HETATM   46  O3  UNL     1      15.968  21.343  18.920  1.00  0.00    -0.349 OA
ATOM     47  H3  UNL     1      15.627  21.325  19.806  1.00  0.00     0.219 HD
ENDBRANCH  15  46
ENDBRANCH   9  15
ENDBRANCH   5   8
ENDBRANCH   1   4
TORSDOF 16
ENDMDL
MODEL 3
REMARK VINA RESULT: -8.480876349      1.587      1.915
REMARK  16 active torsions:
REMARK  status: ('A' for Active; 'I' for Inactive)
REMARK    1  A    between atoms: C2_2  and  C3_4 
REMARK    2  A    between atoms: C3_4  and  C4_5 
REMARK       I    between atoms: N1_8  and  C7_9 
REMARK    3  A    between atoms: C7_9  and  C8_11 
REMARK    4  A    between atoms: C8_11  and  C9_12 
REMARK    5  A    between atoms: C9_12  and  C10_13 
REMARK    6  A    between atoms: C10_13  and  N2_14 
REMARK    7  A    between atoms: C10_13  and  C16_26 
REMARK    8  A    between atoms: N2_14  and  C11_16 
REMARK    9  A    between atoms: C11_16  and  C12_18 
REMARK   10  A    between atoms: C12_18  and  N3_19 
REMARK   11  A    between atoms: C12_18  and  C13_23 
REMARK   12  A    between atoms: C16_26  and  C19_29 
REMARK   13  A    between atoms: C19_29  and  O3_30 
REMARK   14  A    between atoms: C19_29  and  N4_32 
REMARK   15  A    between atoms: C24_38  and  C25_39 
REMARK       I    between atoms: C25_39  and  N5_41 
REMARK   16  A    between atoms: N5_41  and  C26_43 
ROOT
HETATM    1  C26 UNL     1      11.649  19.802  17.595  1.00  0.00     0.247 C 
HETATM    2  C27 UNL     1      11.549  19.275  18.956  1.00  0.00     0.078 C 
HETATM    3  N6  UNL     1      11.473  18.849  20.029  1.00  0.00    -0.196 NA
ENDROOT
BRANCH   1   4
HETATM    4  N5  UNL     1      12.878  20.529  17.419  1.00  0.00    -0.347 N 
HETATM    5  C25 UNL     1      13.494  20.606  16.163  1.00  0.00     0.242 C 
HETATM    6  O4  UNL     1      12.914  20.007  15.191  1.00  0.00    -0.271 OA
ATOM      7  H5  UNL     1      13.307  20.993  18.219  1.00  0.00     0.163 HD
BRANCH   5   8
HETATM    8  C24 UNL     1      14.768  21.327  15.856  1.00  0.00     0.196 C 
HETATM    9  N4  UNL     1      14.972  22.439  16.714  1.00  0.00    -0.341 N 
HETATM   10  C20 UNL     1      13.979  23.507  16.429  1.00  0.00     0.200 C 
HETATM   11  S2  UNL     1      13.419  23.141  14.734  1.00  0.00    -0.137 SA
HETATM   12  C21 UNL     1      14.707  21.848  14.437  1.00  0.00     0.032 C 
HETATM   13  C22 UNL     1      14.294  20.846  13.442  1.00  0.00     0.029 C 
HETATM   14  C23 UNL     1      15.919  22.577  13.979  1.00  0.00     0.029 C 
BRANCH   9  15
HETATM   15  C19 UNL     1      15.922  22.607  17.712  1.00  0.00     0.125 C 
BRANCH  15  16
HETATM   16  C16 UNL     1      17.267  22.062  17.913  1.00  0.00     0.041 C 
HETATM   17  C17 UNL     1      17.274  21.480  19.312  1.00  0.00     0.026 C 
HETATM   18  C18 UNL     1      17.680  20.973  16.967  1.00  0.00     0.026 C 
BRANCH  16  19
HETATM   19  C10 UNL     1      18.372  23.151  17.746  1.00  0.00     0.121 C 
BRANCH  19  20
HETATM   20  C9  UNL     1      18.227  23.765  16.429  1.00  0.00     0.005 C 
BRANCH  20  21
HETATM   21  C8  UNL     1      19.315  24.362  15.654  1.00  0.00     0.072 C 
BRANCH  21  22
HETATM   22  C7  UNL     1      19.343  25.733  15.222  1.00  0.00     0.243 C 
HETATM   23  N1  UNL     1      20.499  26.395  14.693  1.00  0.00    -0.349 N 
HETATM   24  C6  UNL     1      21.786  25.792  14.478  1.00  0.00     0.126 C 
HETATM   25  C28 UNL     1      20.440  27.803  14.323  1.00  0.00     0.126 C 
HETATM   26  C5  UNL     1      22.875  26.487  15.248  1.00  0.00     0.025 C 
HETATM   27  C4  UNL     1      22.590  27.865  15.675  1.00  0.00    -0.005 C 
HETATM   28  C29 UNL     1      21.483  28.593  15.013  1.00  0.00     0.025 C 
HETATM   29  O2  UNL     1      18.317  26.441  15.302  1.00  0.00    -0.268 OA
BRANCH  27  30
HETATM   30  C3  UNL     1      23.851  28.700  15.466  1.00  0.00     0.082 C 
BRANCH  30  31
HETATM   31  C2  UNL     1      25.072  28.044  15.949  1.00  0.00     0.123 C 
HETATM   32  C1  UNL     1      25.312  27.909  17.435  1.00  0.00     0.091 C 
HETATM   33  O1  UNL     1      25.962  27.571  15.263  1.00  0.00    -0.298 OA
ENDBRANCH  30  31
ENDBRANCH  27  30
ENDBRANCH  21  22
ENDBRANCH  20  21
ENDBRANCH  19  20
BRANCH  19  34
HETATM   34  N2  UNL     1      18.483  24.008  18.860  1.00  0.00    -0.374 N 
ATOM     35  H2  UNL     1      17.628  24.475  19.161  1.00  0.00     0.161 HD
BRANCH  34  36
HETATM   36  C11 UNL     1      19.667  24.296  19.619  1.00  0.00     0.105 C 
HETATM   37  S1  UNL     1      19.736  24.080  21.255  1.00  0.00    -0.063 SA
BRANCH  36  38
HETATM   38  C12 UNL     1      20.908  24.741  18.955  1.00  0.00     0.247 C 
BRANCH  38  39
HETATM   39  N3  UNL     1      21.987  23.848  19.306  1.00  0.00    -0.069 N 
ATOM     40  H33 UNL     1      22.226  23.902  20.296  1.00  0.00     0.275 HD
ATOM     41  H32 UNL     1      21.702  22.869  19.278  1.00  0.00     0.275 HD
ATOM     42  H31 UNL     1      22.791  24.034  18.705  1.00  0.00     0.275 HD
ENDBRANCH  38  39
BRANCH  38  43
HETATM   43  C13 UNL     1      21.214  26.162  19.377  1.00  0.00     0.015 C 
HETATM   44  C14 UNL     1      22.665  26.454  19.552  1.00  0.00     0.012 C 
HETATM   45  C15 UNL     1      20.618  27.133  18.402  1.00  0.00     0.012 C 
ENDBRANCH  38  43
ENDBRANCH  36  38
ENDBRANCH  34  36
ENDBRANCH  19  34
ENDBRANCH  16  19
ENDBRANCH  15  16
BRANCH  15  46
HETATM   46  O3  UNL     1      15.525  23.408  18.660  1.00  0.00    -0.349 OA
ATOM     47  H3  UNL     1      15.455  22.996  19.513  1.00  0.00     0.219 HD
ENDBRANCH  15  46
ENDBRANCH   9  15
ENDBRANCH   5   8
ENDBRANCH   1   4
TORSDOF 16
ENDMDL
MODEL 4
REMARK VINA RESULT: -8.432728832      2.388      9.296
REMARK  16 active torsions:
REMARK  status: ('A' for Active; 'I' for Inactive)
REMARK    1  A    between atoms: C2_2  and  C3_4 
REMARK    2  A    between atoms: C3_4  and  C4_5 
REMARK       I    between atoms: N1_8  and  C7_9 
REMARK    3  A    between atoms: C7_9  and  C8_11 
REMARK    4  A    between atoms: C8_11  and  C9_12 
REMARK    5  A    between atoms: C9_12  and  C10_13 
REMARK    6  A    between atoms: C10_13  and  N2_14 
REMARK    7  A    between atoms: C10_13  and  C16_26 
REMARK    8  A    between atoms: N2_14  and  C11_16 
REMARK    9  A    between atoms: C11_16  and  C12_18 
REMARK   10  A    between atoms: C12_18  and  N3_19 
REMARK   11  A    between atoms: C12_18  and  C13_23 
REMARK   12  A    between atoms: C16_26  and  C19_29 
REMARK   13  A    between atoms: C19_29  and  O3_30 
REMARK   14  A    between atoms: C19_29  and  N4_32 
REMARK   15  A    between atoms: C24_38  and  C25_39 
REMARK       I    between atoms: C25_39  and  N5_41 
REMARK   16  A    between atoms: N5_41  and  C26_43 
ROOT
HETATM    1  C26 UNL     1      23.290  26.039  18.565  1.00  0.00     0.247 C 
HETATM    2  C27 UNL     1      23.178  26.419  19.973  1.00  0.00     0.078 C 
HETATM    3  N6  UNL     1      23.092  26.730  21.084  1.00  0.00    -0.196 NA
ENDROOT
BRANCH   1   4
HETATM    4  N5  UNL     1      21.990  25.960  17.953  1.00  0.00    -0.347 N 
HETATM    5  C25 UNL     1      21.561  26.940  17.047  1.00  0.00     0.242 C 
HETATM    6  O4  UNL     1      22.375  27.895  16.793  1.00  0.00    -0.271 OA
ATOM      7  H5  UNL     1      21.373  25.182  18.182  1.00  0.00     0.163 HD
BRANCH   5   8
HETATM    8  C24 UNL     1      20.238  26.967  16.351  1.00  0.00     0.196 C 
HETATM    9  N4  UNL     1      19.552  25.729  16.458  1.00  0.00    -0.341 N 
HETATM   10  C20 UNL     1      20.250  24.676  15.677  1.00  0.00     0.200 C 
HETATM   11  S2  UNL     1      21.248  25.614  14.475  1.00  0.00    -0.137 SA
HETATM   12  C21 UNL     1      20.465  27.239  14.879  1.00  0.00     0.032 C 
HETATM   13  C22 UNL     1      21.346  28.384  14.604  1.00  0.00     0.029 C 
HETATM   14  C23 UNL     1      19.231  27.314  14.054  1.00  0.00     0.029 C 
BRANCH   9  15
HETATM   15  C19 UNL     1      18.397  25.432  17.169  1.00  0.00     0.125 C 
BRANCH  15  16
HETATM   16  C16 UNL     1      17.036  25.077  16.759  1.00  0.00     0.041 C 
HETATM   17  C17 UNL     1      16.119  25.667  17.812  1.00  0.00     0.026 C 
HETATM   18  C18 UNL     1      16.594  25.605  15.426  1.00  0.00     0.026 C 
BRANCH  16  19
HETATM   19  C10 UNL     1      16.843  23.533  16.640  1.00  0.00     0.121 C 
BRANCH  19  20
HETATM   20  C9  UNL     1      16.835  23.172  15.225  1.00  0.00     0.005 C 
BRANCH  20  21
HETATM   21  C8  UNL     1      16.101  22.045  14.648  1.00  0.00     0.072 C 
BRANCH  21  22
HETATM   22  C7  UNL     1      14.745  22.119  14.178  1.00  0.00     0.243 C 
HETATM   23  N1  UNL     1      13.586  22.019  15.016  1.00  0.00    -0.349 N 
HETATM   24  C6  UNL     1      13.597  21.866  16.445  1.00  0.00     0.126 C 
HETATM   25  C28 UNL     1      12.250  22.062  14.439  1.00  0.00     0.126 C 
HETATM   26  C5  UNL     1      12.894  20.612  16.887  1.00  0.00     0.025 C 
HETATM   27  C4  UNL     1      11.943  20.028  15.929  1.00  0.00    -0.005 C 
HETATM   28  C29 UNL     1      11.452  20.876  14.819  1.00  0.00     0.025 C 
HETATM   29  O2  UNL     1      14.506  22.274  12.961  1.00  0.00    -0.268 OA
BRANCH  27  30
HETATM   30  C3  UNL     1      10.713  19.561  16.703  1.00  0.00     0.082 C 
BRANCH  30  31
HETATM   31  C2  UNL     1      11.023  18.602  17.770  1.00  0.00     0.123 C 
HETATM   32  C1  UNL     1      11.584  17.245  17.417  1.00  0.00     0.091 C 
HETATM   33  O1  UNL     1      10.875  18.776  18.968  1.00  0.00    -0.298 OA
ENDBRANCH  30  31
ENDBRANCH  27  30
ENDBRANCH  21  22
ENDBRANCH  20  21
ENDBRANCH  19  20
BRANCH  19  34
HETATM   34  N2  UNL     1      17.686  22.798  17.500  1.00  0.00    -0.374 N 
ATOM     35  H2  UNL     1      18.689  22.884  17.335  1.00  0.00     0.161 HD
BRANCH  34  36
HETATM   36  C11 UNL     1      17.288  21.943  18.581  1.00  0.00     0.105 C 
HETATM   37  S1  UNL     1      16.402  20.571  18.336  1.00  0.00    -0.063 SA
BRANCH  36  38
HETATM   38  C12 UNL     1      17.712  22.219  19.968  1.00  0.00     0.247 C 
BRANCH  38  39
HETATM   39  N3  UNL     1      17.522  23.621  20.258  1.00  0.00    -0.069 N 
ATOM     40  H33 UNL     1      17.315  23.786  21.243  1.00  0.00     0.275 HD
ATOM     41  H32 UNL     1      18.393  24.147  20.202  1.00  0.00     0.275 HD
ATOM     42  H31 UNL     1      16.801  24.000  19.644  1.00  0.00     0.275 HD
ENDBRANCH  38  39
BRANCH  38  43
HETATM   43  C13 UNL     1      19.162  21.817  20.133  1.00  0.00     0.015 C 
HETATM   44  C14 UNL     1      20.141  22.842  19.674  1.00  0.00     0.012 C 
HETATM   45  C15 UNL     1      19.442  21.455  21.561  1.00  0.00     0.012 C 
ENDBRANCH  38  43
ENDBRANCH  36  38
ENDBRANCH  34  36
ENDBRANCH  19  34
ENDBRANCH  16  19
ENDBRANCH  15  16
BRANCH  15  46
HETATM   46  O3  UNL     1      18.568  25.489  18.459  1.00  0.00    -0.349 OA
ATOM     47  H3  UNL     1      17.841  25.878  18.930  1.00  0.00     0.219 HD
ENDBRANCH  15  46
ENDBRANCH   9  15
ENDBRANCH   5   8
ENDBRANCH   1   4
TORSDOF 16
ENDMDL
MODEL 5
REMARK VINA RESULT: -8.377767010      2.529     10.480
REMARK  16 active torsions:
REMARK  status: ('A' for Active; 'I' for Inactive)
REMARK    1  A    between atoms: C2_2  and  C3_4 
REMARK    2  A    between atoms: C3_4  and  C4_5 
REMARK       I    between atoms: N1_8  and  C7_9 
REMARK    3  A    between atoms: C7_9  and  C8_11 
REMARK    4  A    between atoms: C8_11  and  C9_12 
REMARK    5  A    between atoms: C9_12  and  C10_13 
REMARK    6  A    between atoms: C10_13  and  N2_14 
REMARK    7  A    between atoms: C10_13  and  C16_26 
REMARK    8  A    between atoms: N2_14  and  C11_16 
REMARK    9  A    between atoms: C11_16  and  C12_18 
REMARK   10  A    between atoms: C12_18  and  N3_19 
REMARK   11  A    between atoms: C12_18  and  C13_23 
REMARK   12  A    between atoms: C16_26  and  C19_29 
REMARK   13  A    between atoms: C19_29  and  O3_30 
REMARK   14  A    between atoms: C19_29  and  N4_32 
REMARK   15  A    between atoms: C24_38  and  C25_39 
REMARK       I    between atoms: C25_39  and  N5_41 
REMARK   16  A    between atoms: N5_41  and  C26_43 
ROOT
HETATM    1  C26 UNL     1      22.819  26.483  18.767  1.00  0.00     0.247 C 
HETATM    2  C27 UNL     1      22.664  26.747  20.197  1.00  0.00     0.078 C 
HETATM    3  N6  UNL     1      22.540  26.965  21.326  1.00  0.00    -0.196 NA
ENDROOT
BRANCH   1   4
HETATM    4  N5  UNL     1      21.562  26.103  18.179  1.00  0.00    -0.347 N 
HETATM    5  C25 UNL     1      20.876  26.974  17.322  1.00  0.00     0.242 C 
HETATM    6  O4  UNL     1      21.419  28.111  17.089  1.00  0.00    -0.271 OA
ATOM      7  H5  UNL     1      21.164  25.188  18.389  1.00  0.00     0.163 HD
BRANCH   5   8
HETATM    8  C24 UNL     1      19.568  26.694  16.654  1.00  0.00     0.196 C 
HETATM    9  N4  UNL     1      19.150  25.351  16.840  1.00  0.00    -0.341 N 
HETATM   10  C20 UNL     1      20.039  24.420  16.099  1.00  0.00     0.200 C 
HETATM   11  S2  UNL     1      20.812  25.473  14.829  1.00  0.00    -0.137 SA
HETATM   12  C21 UNL     1      19.718  26.925  15.166  1.00  0.00     0.032 C 
HETATM   13  C22 UNL     1      20.344  28.209  14.813  1.00  0.00     0.029 C 
HETATM   14  C23 UNL     1      18.486  26.702  14.365  1.00  0.00     0.029 C 
BRANCH   9  15
HETATM   15  C19 UNL     1      18.087  24.865  17.591  1.00  0.00     0.125 C 
BRANCH  15  16
HETATM   16  C16 UNL     1      17.875  23.619  18.331  1.00  0.00     0.041 C 
HETATM   17  C17 UNL     1      19.257  23.114  18.698  1.00  0.00     0.026 C 
HETATM   18  C18 UNL     1      17.085  23.738  19.601  1.00  0.00     0.026 C 
BRANCH  16  19
HETATM   19  C10 UNL     1      17.090  22.564  17.492  1.00  0.00     0.121 C 
BRANCH  19  20
HETATM   20  C9  UNL     1      16.961  21.342  18.282  1.00  0.00     0.005 C 
BRANCH  20  21
HETATM   21  C8  UNL     1      15.938  20.315  18.082  1.00  0.00     0.072 C 
BRANCH  21  22
HETATM   22  C7  UNL     1      14.554  20.471  18.442  1.00  0.00     0.243 C 
HETATM   23  N1  UNL     1      13.669  19.389  18.756  1.00  0.00    -0.349 N 
HETATM   24  C6  UNL     1      14.028  17.997  18.797  1.00  0.00     0.126 C 
HETATM   25  C28 UNL     1      12.269  19.645  19.067  1.00  0.00     0.126 C 
HETATM   26  C5  UNL     1      13.214  17.173  17.838  1.00  0.00     0.025 C 
HETATM   27  C4  UNL     1      11.938  17.759  17.398  1.00  0.00    -0.005 C 
HETATM   28  C29 UNL     1      11.364  18.870  18.189  1.00  0.00     0.025 C 
HETATM   29  O2  UNL     1      14.039  21.608  18.490  1.00  0.00    -0.268 OA
BRANCH  27  30
HETATM   30  C3  UNL     1      10.889  16.650  17.372  1.00  0.00     0.082 C 
BRANCH  30  31
HETATM   31  C2  UNL     1      10.269  16.463  16.055  1.00  0.00     0.123 C 
HETATM   32  C1  UNL     1      10.200  15.079  15.451  1.00  0.00     0.091 C 
HETATM   33  O1  UNL     1       9.777  17.329  15.353  1.00  0.00    -0.298 OA
ENDBRANCH  30  31
ENDBRANCH  27  30
ENDBRANCH  21  22
ENDBRANCH  20  21
ENDBRANCH  19  20
BRANCH  19  34
HETATM   34  N2  UNL     1      15.924  23.083  16.893  1.00  0.00    -0.374 N 
ATOM     35  H2  UNL     1      15.219  23.463  17.525  1.00  0.00     0.161 HD
BRANCH  34  36
HETATM   36  C11 UNL     1      15.620  23.137  15.491  1.00  0.00     0.105 C 
HETATM   37  S1  UNL     1      16.788  23.370  14.347  1.00  0.00    -0.063 SA
BRANCH  36  38
HETATM   38  C12 UNL     1      14.244  22.922  15.001  1.00  0.00     0.247 C 
BRANCH  38  39
HETATM   39  N3  UNL     1      13.311  23.585  15.880  1.00  0.00    -0.069 N 
ATOM     40  H33 UNL     1      13.043  24.506  15.534  1.00  0.00     0.275 HD
ATOM     41  H32 UNL     1      12.389  23.150  15.862  1.00  0.00     0.275 HD
ATOM     42  H31 UNL     1      13.701  23.626  16.821  1.00  0.00     0.275 HD
ENDBRANCH  38  39
BRANCH  38  43
HETATM   43  C13 UNL     1      13.970  21.434  14.932  1.00  0.00     0.015 C 
HETATM   44  C14 UNL     1      12.602  21.040  15.371  1.00  0.00     0.012 C 
HETATM   45  C15 UNL     1      14.222  20.923  13.545  1.00  0.00     0.012 C 
ENDBRANCH  38  43
ENDBRANCH  36  38
ENDBRANCH  34  36
ENDBRANCH  19  34
ENDBRANCH  16  19
ENDBRANCH  15  16
BRANCH  15  46
HETATM   46  O3  UNL     1      17.079  25.689  17.634  1.00  0.00    -0.349 OA
ATOM     47  H3  UNL     1      17.327  26.606  17.644  1.00  0.00     0.219 HD
ENDBRANCH  15  46
ENDBRANCH   9  15
ENDBRANCH   5   8
ENDBRANCH   1   4
TORSDOF 16
ENDMDL
