MODEL 1
REMARK VINA RESULT: -8.491695209      0.000      0.000
REMARK  14 active torsions:
REMARK  status: ('A' for Active; 'I' for Inactive)
REMARK       I    between atoms: N1_2  and  C2_4 
REMARK       I    between atoms: C2_4  and  N7_39 
REMARK    1  A    between atoms: N2_5  and  C3_7 
REMARK    2  A    between atoms: C3_7  and  C4_8 
REMARK    3  A    between atoms: C4_8  and  C5_9 
REMARK    4  A    between atoms: C5_9  and  C6_10 
REMARK    5  A    between atoms: C6_10  and  N3_11 
REMARK    6  A    between atoms: C6_10  and  C17_28 
REMARK       I    between atoms: N3_11  and  C7_13 
REMARK    7  A    between atoms: C7_13  and  C8_15 
REMARK    8  A    between atoms: C8_15  and  N4_16 
REMARK    9  A    between atoms: C8_15  and  C14_25 
REMARK       I    between atoms: N4_16  and  C9_18 
REMARK   10  A    between atoms: C9_18  and  O3_20 
REMARK   11  A    between atoms: O3_20  and  C10_21 
REMARK       I    between atoms: C17_28  and  N5_30 
REMARK   12  A    between atoms: N5_30  and  C19_32 
REMARK   13  A    between atoms: C19_32  and  C20_33 
REMARK   14  A    between atoms: N8_42  and  C25_43 
ROOT
HETATM    1  C6  UNL     1       9.873  17.874  17.073  1.00  0.00     0.176 C 
ENDROOT
BRANCH   1   2
HETATM    2  C5  UNL     1      11.370  17.530  16.922  1.00  0.00     0.036 C 
BRANCH   2   3
HETATM    3  C4  UNL     1      11.938  17.915  15.605  1.00  0.00     0.023 C 
BRANCH   3   4
HETATM    4  C3  UNL     1      11.584  19.358  15.242  1.00  0.00     0.138 C 
BRANCH   4   5
HETATM    5  N2  UNL     1      12.728  20.068  14.767  1.00  0.00    -0.226 N 
HETATM    6  C2  UNL     1      13.488  20.858  15.405  1.00  0.00     0.671 C 
HETATM    7  N1  UNL     1      14.577  21.439  14.669  1.00  0.00    -0.231 N 
HETATM    8  N7  UNL     1      13.389  21.236  16.761  1.00  0.00    -0.215 N 
HETATM    9  C1  UNL     1      14.331  22.110  13.413  1.00  0.00     0.165 C 
ATOM     10  H1  UNL     1      15.528  21.378  15.034  1.00  0.00     0.177 HD
HETATM   11  C23 UNL     1      12.654  22.433  17.110  1.00  0.00     0.171 C 
HETATM   12  C29 UNL     1      13.983  20.501  17.856  1.00  0.00     0.171 C 
HETATM   13  C24 UNL     1      13.090  22.928  18.458  1.00  0.00     0.293 C 
HETATM   14  N8  UNL     1      14.494  22.749  18.728  1.00  0.00     0.095 N 
HETATM   15  C28 UNL     1      14.946  21.397  18.624  1.00  0.00     0.293 C 
ATOM     16  H2  UNL     1      12.965  19.920  13.787  1.00  0.00     0.177 HD
BRANCH  14  17
HETATM   17  C25 UNL     1      15.335  23.618  17.965  1.00  0.00     0.215 C 
HETATM   18  C26 UNL     1      15.125  25.058  18.412  1.00  0.00     0.042 C 
HETATM   19  C27 UNL     1      16.781  23.229  18.206  1.00  0.00     0.042 C 
ENDBRANCH  14  17
ENDBRANCH   4   5
ENDBRANCH   3   4
ENDBRANCH   2   3
ENDBRANCH   1   2
BRANCH   1  20
HETATM   20  N3  UNL     1       9.499  18.322  18.361  1.00  0.00    -0.346 N 
HETATM   21  C7  UNL     1      10.176  18.676  19.509  1.00  0.00     0.241 C 
HETATM   22  O1  UNL     1      11.452  18.616  19.590  1.00  0.00    -0.271 OA
ATOM     23  H3  UNL     1       8.488  18.403  18.466  1.00  0.00     0.163 HD
BRANCH  21  24
HETATM   24  C8  UNL     1       9.569  19.166  20.764  1.00  0.00     0.182 C 
BRANCH  24  25
HETATM   25  N4  UNL     1       8.113  19.244  20.664  1.00  0.00    -0.323 N 
HETATM   26  C9  UNL     1       7.362  18.343  21.475  1.00  0.00     0.362 C 
HETATM   27  O2  UNL     1       7.922  17.513  22.246  1.00  0.00    -0.238 OA
ATOM     28  H4  UNL     1       7.656  19.912  20.043  1.00  0.00     0.165 HD
BRANCH  26  29
HETATM   29  O3  UNL     1       5.977  18.300  21.489  1.00  0.00    -0.294 OA
BRANCH  29  30
HETATM   30  C10 UNL     1       5.166  17.620  20.613  1.00  0.00     0.061 C 
HETATM   31  C11 UNL     1       4.009  16.957  21.369  1.00  0.00     0.046 C 
HETATM   32  C12 UNL     1       4.499  18.660  19.701  1.00  0.00     0.046 C 
HETATM   33  C13 UNL     1       5.781  16.586  19.752  1.00  0.00     0.046 C 
ENDBRANCH  29  30
ENDBRANCH  26  29
ENDBRANCH  24  25
BRANCH  24  34
HETATM   34  C14 UNL     1      10.108  20.530  21.110  1.00  0.00     0.009 C 
HETATM   35  C15 UNL     1       9.909  21.531  20.013  1.00  0.00     0.012 C 
HETATM   36  C16 UNL     1       9.493  21.043  22.416  1.00  0.00     0.012 C 
ENDBRANCH  24  34
ENDBRANCH  21  24
ENDBRANCH   1  20
BRANCH   1  37
HETATM   37  C17 UNL     1       9.088  16.874  16.408  1.00  0.00     0.242 C 
HETATM   38  O4  UNL     1       9.037  15.701  16.920  1.00  0.00    -0.271 OA
HETATM   39  N5  UNL     1       8.345  17.041  15.232  1.00  0.00    -0.349 N 
HETATM   40  C18 UNL     1       8.268  18.309  14.558  1.00  0.00     0.153 C 
BRANCH  39  41
HETATM   41  C19 UNL     1       7.609  15.945  14.638  1.00  0.00     0.190 C 
BRANCH  41  42
HETATM   42  C20 UNL     1       6.253  15.821  15.252  1.00  0.00     0.068 A 
HETATM   43  N6  UNL     1       5.564  16.778  15.844  1.00  0.00    -0.362 N 
HETATM   44  C21 UNL     1       4.396  16.522  16.333  1.00  0.00     0.096 A 
ATOM     45  H6  UNL     1       5.954  17.718  15.917  1.00  0.00     0.165 HD
HETATM   46  C22 UNL     1       3.913  15.245  16.212  1.00  0.00     0.068 A 
HETATM   47  S1  UNL     1       5.209  14.479  15.382  1.00  0.00    -0.086 SA
ENDBRANCH  41  42
ENDBRANCH  39  41
ENDBRANCH   1  37
TORSDOF 14
ENDMDL
MODEL 2
REMARK VINA RESULT: -8.423334389      1.524      2.050
REMARK  14 active torsions:
REMARK  status: ('A' for Active; 'I' for Inactive)
REMARK       I    between atoms: N1_2  and  C2_4 
REMARK       I    between atoms: C2_4  and  N7_39 
REMARK    1  A    between atoms: N2_5  and  C3_7 
REMARK    2  A    between atoms: C3_7  and  C4_8 
REMARK    3  A    between atoms: C4_8  and  C5_9 
REMARK    4  A    between atoms: C5_9  and  C6_10 
REMARK    5  A    between atoms: C6_10  and  N3_11 
REMARK    6  A    between atoms: C6_10  and  C17_28 
REMARK       I    between atoms: N3_11  and  C7_13 
REMARK    7  A    between atoms: C7_13  and  C8_15 
REMARK    8  A    between atoms: C8_15  and  N4_16 
REMARK    9  A    between atoms: C8_15  and  C14_25 
REMARK       I    between atoms: N4_16  and  C9_18 
REMARK   10  A    between atoms: C9_18  and  O3_20 
REMARK   11  A    between atoms: O3_20  and  C10_21 
REMARK       I    between atoms: C17_28  and  N5_30 
REMARK   12  A    between atoms: N5_30  and  C19_32 
REMARK   13  A    between atoms: C19_32  and  C20_33 
REMARK   14  A    between atoms: N8_42  and  C25_43 
ROOT
HETATM    1  C6  UNL     1       9.156  17.538  17.053  1.00  0.00     0.176 C 
ENDROOT
BRANCH   1   2
HETATM    2  C5  UNL     1      10.688  17.493  17.238  1.00  0.00     0.036 C 
BRANCH   2   3
HETATM    3  C4  UNL     1      11.444  17.647  15.969  1.00  0.00     0.023 C 
BRANCH   3   4
HETATM    4  C3  UNL     1      11.099  18.958  15.265  1.00  0.00     0.138 C 
BRANCH   4   5
HETATM    5  N2  UNL     1      12.274  19.624  14.804  1.00  0.00    -0.226 N 
HETATM    6  C2  UNL     1      13.016  20.442  15.429  1.00  0.00     0.671 C 
HETATM    7  N1  UNL     1      14.147  20.964  14.713  1.00  0.00    -0.231 N 
HETATM    8  N7  UNL     1      12.858  20.901  16.755  1.00  0.00    -0.215 N 
HETATM    9  C1  UNL     1      13.970  21.562  13.410  1.00  0.00     0.165 C 
ATOM     10  H1  UNL     1      15.078  20.913  15.127  1.00  0.00     0.177 HD
HETATM   11  C23 UNL     1      12.126  22.126  16.997  1.00  0.00     0.171 C 
HETATM   12  C29 UNL     1      13.389  20.226  17.918  1.00  0.00     0.171 C 
HETATM   13  C24 UNL     1      12.507  22.695  18.333  1.00  0.00     0.293 C 
HETATM   14  N8  UNL     1      13.893  22.515  18.679  1.00  0.00     0.095 N 
HETATM   15  C28 UNL     1      14.329  21.153  18.677  1.00  0.00     0.293 C 
ATOM     16  H2  UNL     1      12.554  19.415  13.847  1.00  0.00     0.177 HD
BRANCH  14  17
HETATM   17  C25 UNL     1      14.782  23.327  17.907  1.00  0.00     0.215 C 
HETATM   18  C26 UNL     1      14.736  24.762  18.411  1.00  0.00     0.042 C 
HETATM   19  C27 UNL     1      16.192  22.790  18.067  1.00  0.00     0.042 C 
ENDBRANCH  14  17
ENDBRANCH   4   5
ENDBRANCH   3   4
ENDBRANCH   2   3
ENDBRANCH   1   2
BRANCH   1  20
HETATM   20  N3  UNL     1       8.462  18.251  18.059  1.00  0.00    -0.346 N 
HETATM   21  C7  UNL     1       8.343  18.145  19.428  1.00  0.00     0.241 C 
HETATM   22  O1  UNL     1       8.924  17.215  20.090  1.00  0.00    -0.271 OA
ATOM     23  H3  UNL     1       7.921  19.029  17.681  1.00  0.00     0.163 HD
BRANCH  21  24
HETATM   24  C8  UNL     1       7.573  19.047  20.309  1.00  0.00     0.182 C 
BRANCH  24  25
HETATM   25  N4  UNL     1       6.364  19.539  19.653  1.00  0.00    -0.323 N 
HETATM   26  C9  UNL     1       5.220  18.686  19.687  1.00  0.00     0.362 C 
HETATM   27  O2  UNL     1       5.245  17.558  20.255  1.00  0.00    -0.238 OA
ATOM     28  H4  UNL     1       6.338  20.448  19.193  1.00  0.00     0.165 HD
BRANCH  26  29
HETATM   29  O3  UNL     1       4.004  19.016  19.110  1.00  0.00    -0.294 OA
BRANCH  29  30
HETATM   30  C10 UNL     1       3.042  19.845  19.634  1.00  0.00     0.061 C 
HETATM   31  C11 UNL     1       3.253  21.280  19.139  1.00  0.00     0.046 C 
HETATM   32  C12 UNL     1       1.692  19.415  19.042  1.00  0.00     0.046 C 
HETATM   33  C13 UNL     1       2.897  19.902  21.106  1.00  0.00     0.046 C 
ENDBRANCH  29  30
ENDBRANCH  26  29
ENDBRANCH  24  25
BRANCH  24  34
HETATM   34  C14 UNL     1       8.418  20.225  20.722  1.00  0.00     0.009 C 
HETATM   35  C15 UNL     1       8.905  20.126  22.136  1.00  0.00     0.012 C 
HETATM   36  C16 UNL     1       9.599  20.409  19.764  1.00  0.00     0.012 C 
ENDBRANCH  24  34
ENDBRANCH  21  24
ENDBRANCH   1  20
BRANCH   1  37
HETATM   37  C17 UNL     1       8.690  16.245  16.642  1.00  0.00     0.242 C 
HETATM   38  O4  UNL     1       8.654  15.307  17.514  1.00  0.00    -0.271 OA
HETATM   39  N5  UNL     1       8.255  15.883  15.361  1.00  0.00    -0.349 N 
HETATM   40  C18 UNL     1       8.198  16.833  14.283  1.00  0.00     0.153 C 
BRANCH  39  41
HETATM   41  C19 UNL     1       7.829  14.532  15.059  1.00  0.00     0.190 C 
BRANCH  41  42
HETATM   42  C20 UNL     1       6.350  14.395  15.206  1.00  0.00     0.068 A 
HETATM   43  N6  UNL     1       5.614  13.359  14.853  1.00  0.00    -0.362 N 
HETATM   44  C21 UNL     1       4.336  13.383  15.041  1.00  0.00     0.096 A 
ATOM     45  H6  UNL     1       6.052  12.539  14.432  1.00  0.00     0.165 HD
HETATM   46  C22 UNL     1       3.789  14.503  15.611  1.00  0.00     0.068 A 
HETATM   47  S1  UNL     1       5.191  15.473  15.840  1.00  0.00    -0.086 SA
ENDBRANCH  41  42
ENDBRANCH  39  41
ENDBRANCH   1  37
TORSDOF 14
ENDMDL
MODEL 3
REMARK VINA RESULT: -8.389874306      2.312      5.056
REMARK  14 active torsions:
REMARK  status: ('A' for Active; 'I' for Inactive)
REMARK       I    between atoms: N1_2  and  C2_4 
REMARK       I    between atoms: C2_4  and  N7_39 
REMARK    1  A    between atoms: N2_5  and  C3_7 
REMARK    2  A    between atoms: C3_7  and  C4_8 
REMARK    3  A    between atoms: C4_8  and  C5_9 
REMARK    4  A    between atoms: C5_9  and  C6_10 
REMARK    5  A    between atoms: C6_10  and  N3_11 
REMARK    6  A    between atoms: C6_10  and  C17_28 
REMARK       I    between atoms: N3_11  and  C7_13 
REMARK    7  A    between atoms: C7_13  and  C8_15 
REMARK    8  A    between atoms: C8_15  and  N4_16 
REMARK    9  A    between atoms: C8_15  and  C14_25 
REMARK       I    between atoms: N4_16  and  C9_18 
REMARK   10  A    between atoms: C9_18  and  O3_20 
REMARK   11  A    between atoms: O3_20  and  C10_21 
REMARK       I    between atoms: C17_28  and  N5_30 
REMARK   12  A    between atoms: N5_30  and  C19_32 
REMARK   13  A    between atoms: C19_32  and  C20_33 
REMARK   14  A    between atoms: N8_42  and  C25_43 
ROOT
HETATM    1  C6  UNL     1      10.640  18.470  16.042  1.00  0.00     0.176 C 
ENDROOT
BRANCH   1   2
HETATM    2  C5  UNL     1      11.351  18.949  14.759  1.00  0.00     0.036 C 
BRANCH   2   3
HETATM    3  C4  UNL     1      12.467  19.895  15.017  1.00  0.00     0.023 C 
BRANCH   3   4
HETATM    4  C3  UNL     1      13.700  19.173  15.562  1.00  0.00     0.138 C 
BRANCH   4   5
HETATM    5  N2  UNL     1      14.871  19.977  15.430  1.00  0.00    -0.226 N 
HETATM    6  C2  UNL     1      15.232  20.971  16.130  1.00  0.00     0.671 C 
HETATM    7  N1  UNL     1      16.472  21.599  15.769  1.00  0.00    -0.231 N 
HETATM    8  N7  UNL     1      14.552  21.535  17.231  1.00  0.00    -0.215 N 
HETATM    9  C1  UNL     1      16.707  22.015  14.405  1.00  0.00     0.165 C 
ATOM     10  H1  UNL     1      17.190  21.752  16.477  1.00  0.00     0.177 HD
HETATM   11  C23 UNL     1      13.638  22.636  17.010  1.00  0.00     0.171 C 
HETATM   12  C29 UNL     1      14.705  21.089  18.598  1.00  0.00     0.171 C 
HETATM   13  C24 UNL     1      13.439  23.401  18.286  1.00  0.00     0.293 C 
HETATM   14  N8  UNL     1      14.617  23.498  19.108  1.00  0.00     0.095 N 
HETATM   15  C28 UNL     1      15.187  22.238  19.473  1.00  0.00     0.293 C 
ATOM     16  H2  UNL     1      15.502  19.718  14.671  1.00  0.00     0.177 HD
BRANCH  14  17
HETATM   17  C25 UNL     1      15.620  24.362  18.566  1.00  0.00     0.215 C 
HETATM   18  C26 UNL     1      15.087  25.787  18.499  1.00  0.00     0.042 C 
HETATM   19  C27 UNL     1      16.833  24.328  19.475  1.00  0.00     0.042 C 
ENDBRANCH  14  17
ENDBRANCH   4   5
ENDBRANCH   3   4
ENDBRANCH   2   3
ENDBRANCH   1   2
BRANCH   1  20
HETATM   20  N3  UNL     1       9.545  17.602  15.819  1.00  0.00    -0.346 N 
HETATM   21  C7  UNL     1       8.393  17.654  15.063  1.00  0.00     0.241 C 
HETATM   22  O1  UNL     1       8.092  18.677  14.354  1.00  0.00    -0.271 OA
ATOM     23  H3  UNL     1       9.627  16.730  16.342  1.00  0.00     0.163 HD
BRANCH  21  24
HETATM   24  C8  UNL     1       7.378  16.587  14.945  1.00  0.00     0.182 C 
BRANCH  24  25
HETATM   25  N4  UNL     1       6.958  16.096  16.256  1.00  0.00    -0.323 N 
HETATM   26  C9  UNL     1       5.623  16.398  16.659  1.00  0.00     0.362 C 
HETATM   27  O2  UNL     1       4.836  17.058  15.923  1.00  0.00    -0.238 OA
ATOM     28  H4  UNL     1       7.589  15.563  16.854  1.00  0.00     0.165 HD
BRANCH  26  29
HETATM   29  O3  UNL     1       5.083  16.000  17.871  1.00  0.00    -0.294 OA
BRANCH  29  30
HETATM   30  C10 UNL     1       5.355  16.533  19.109  1.00  0.00     0.061 C 
HETATM   31  C11 UNL     1       5.520  18.053  19.006  1.00  0.00     0.046 C 
HETATM   32  C12 UNL     1       4.108  16.328  19.982  1.00  0.00     0.046 C 
HETATM   33  C13 UNL     1       6.523  16.010  19.852  1.00  0.00     0.046 C 
ENDBRANCH  29  30
ENDBRANCH  26  29
ENDBRANCH  24  25
BRANCH  24  34
HETATM   34  C14 UNL     1       7.921  15.431  14.143  1.00  0.00     0.009 C 
HETATM   35  C15 UNL     1       9.212  14.901  14.687  1.00  0.00     0.012 C 
HETATM   36  C16 UNL     1       6.885  14.308  14.039  1.00  0.00     0.012 C 
ENDBRANCH  24  34
ENDBRANCH  21  24
ENDBRANCH   1  20
BRANCH   1  37
HETATM   37  C17 UNL     1      10.504  19.573  16.949  1.00  0.00     0.242 C 
HETATM   38  O4  UNL     1       9.728  20.538  16.621  1.00  0.00    -0.271 OA
HETATM   39  N5  UNL     1      11.138  19.717  18.190  1.00  0.00    -0.349 N 
HETATM   40  C18 UNL     1      12.009  18.702  18.718  1.00  0.00     0.153 C 
BRANCH  39  41
HETATM   41  C19 UNL     1      10.942  20.895  19.010  1.00  0.00     0.190 C 
BRANCH  41  42
HETATM   42  C20 UNL     1      10.042  20.595  20.163  1.00  0.00     0.068 A 
HETATM   43  N6  UNL     1      10.086  21.143  21.362  1.00  0.00    -0.362 N 
HETATM   44  C21 UNL     1       9.237  20.782  22.267  1.00  0.00     0.096 A 
ATOM     45  H6  UNL     1      10.789  21.851  21.575  1.00  0.00     0.165 HD
HETATM   46  C22 UNL     1       8.310  19.829  21.936  1.00  0.00     0.068 A 
HETATM   47  S1  UNL     1       8.736  19.507  20.301  1.00  0.00    -0.086 SA
ENDBRANCH  41  42
ENDBRANCH  39  41
ENDBRANCH   1  37
TORSDOF 14
ENDMDL
MODEL 4
REMARK VINA RESULT: -8.383770472      2.412      8.505
REMARK  14 active torsions:
REMARK  status: ('A' for Active; 'I' for Inactive)
REMARK       I    between atoms: N1_2  and  C2_4 
REMARK       I    between atoms: C2_4  and  N7_39 
REMARK    1  A    between atoms: N2_5  and  C3_7 
REMARK    2  A    between atoms: C3_7  and  C4_8 
REMARK    3  A    between atoms: C4_8  and  C5_9 
REMARK    4  A    between atoms: C5_9  and  C6_10 
REMARK    5  A    between atoms: C6_10  and  N3_11 
REMARK    6  A    between atoms: C6_10  and  C17_28 
REMARK       I    between atoms: N3_11  and  C7_13 
REMARK    7  A    between atoms: C7_13  and  C8_15 
REMARK    8  A    between atoms: C8_15  and  N4_16 
REMARK    9  A    between atoms: C8_15  and  C14_25 
REMARK       I    between atoms: N4_16  and  C9_18 
REMARK   10  A    between atoms: C9_18  and  O3_20 
REMARK   11  A    between atoms: O3_20  and  C10_21 
REMARK       I    between atoms: C17_28  and  N5_30 
REMARK   12  A    between atoms: N5_30  and  C19_32 
REMARK   13  A    between atoms: C19_32  and  C20_33 
REMARK   14  A    between atoms: N8_42  and  C25_43 
ROOT
HETATM    1  C6  UNL     1      11.318  19.402  17.556  1.00  0.00     0.176 C 
ENDROOT
BRANCH   1   2
HETATM    2  C5  UNL     1      10.497  20.068  18.680  1.00  0.00     0.036 C 
BRANCH   2   3
HETATM    3  C4  UNL     1      10.963  19.716  20.045  1.00  0.00     0.023 C 
BRANCH   3   4
HETATM    4  C3  UNL     1      10.070  18.653  20.687  1.00  0.00     0.138 C 
BRANCH   4   5
HETATM    5  N2  UNL     1       9.431  17.848  19.697  1.00  0.00    -0.226 N 
HETATM    6  C2  UNL     1       8.197  17.583  19.570  1.00  0.00     0.671 C 
HETATM    7  N1  UNL     1       7.829  16.735  18.470  1.00  0.00    -0.231 N 
HETATM    8  N7  UNL     1       7.136  18.026  20.390  1.00  0.00    -0.215 N 
HETATM    9  C1  UNL     1       8.493  15.466  18.275  1.00  0.00     0.165 C 
ATOM     10  H1  UNL     1       7.097  17.029  17.824  1.00  0.00     0.177 HD
HETATM   11  C23 UNL     1       6.705  17.200  21.498  1.00  0.00     0.171 C 
HETATM   12  C29 UNL     1       6.427  19.271  20.199  1.00  0.00     0.171 C 
HETATM   13  C24 UNL     1       5.304  17.563  21.894  1.00  0.00     0.293 C 
HETATM   14  N8  UNL     1       4.451  17.921  20.789  1.00  0.00     0.095 N 
HETATM   15  C28 UNL     1       4.943  19.000  19.990  1.00  0.00     0.293 C 
ATOM     16  H2  UNL     1      10.047  17.431  19.001  1.00  0.00     0.177 HD
BRANCH  14  17
HETATM   17  C25 UNL     1       4.095  16.809  19.963  1.00  0.00     0.215 C 
HETATM   18  C26 UNL     1       2.750  16.250  20.407  1.00  0.00     0.042 C 
HETATM   19  C27 UNL     1       3.984  17.287  18.528  1.00  0.00     0.042 C 
ENDBRANCH  14  17
ENDBRANCH   4   5
ENDBRANCH   3   4
ENDBRANCH   2   3
ENDBRANCH   1   2
BRANCH   1  20
HETATM   20  N3  UNL     1      12.637  19.896  17.419  1.00  0.00    -0.346 N 
HETATM   21  C7  UNL     1      13.278  20.744  16.543  1.00  0.00     0.241 C 
HETATM   22  O1  UNL     1      12.672  21.277  15.548  1.00  0.00    -0.271 OA
ATOM     23  H3  UNL     1      13.262  19.539  18.142  1.00  0.00     0.163 HD
BRANCH  21  24
HETATM   24  C8  UNL     1      14.693  21.164  16.612  1.00  0.00     0.182 C 
BRANCH  24  25
HETATM   25  N4  UNL     1      14.839  22.461  17.268  1.00  0.00    -0.323 N 
HETATM   26  C9  UNL     1      14.912  22.457  18.693  1.00  0.00     0.362 C 
HETATM   27  O2  UNL     1      14.852  21.387  19.363  1.00  0.00    -0.238 OA
ATOM     28  H4  UNL     1      14.888  23.328  16.733  1.00  0.00     0.165 HD
BRANCH  26  29
HETATM   29  O3  UNL     1      15.051  23.606  19.454  1.00  0.00    -0.294 OA
BRANCH  29  30
HETATM   30  C10 UNL     1      16.048  24.547  19.351  1.00  0.00     0.061 C 
HETATM   31  C11 UNL     1      15.550  25.761  18.559  1.00  0.00     0.046 C 
HETATM   32  C12 UNL     1      16.325  25.081  20.763  1.00  0.00     0.046 C 
HETATM   33  C13 UNL     1      17.339  24.132  18.758  1.00  0.00     0.046 C 
ENDBRANCH  29  30
ENDBRANCH  26  29
ENDBRANCH  24  25
BRANCH  24  34
HETATM   34  C14 UNL     1      15.284  21.248  15.228  1.00  0.00     0.009 C 
HETATM   35  C15 UNL     1      16.107  22.484  15.021  1.00  0.00     0.012 C 
HETATM   36  C16 UNL     1      16.112  19.999  14.912  1.00  0.00     0.012 C 
ENDBRANCH  24  34
ENDBRANCH  21  24
ENDBRANCH   1  20
BRANCH   1  37
HETATM   37  C17 UNL     1      10.491  19.242  16.395  1.00  0.00     0.242 C 
HETATM   38  O4  UNL     1       9.485  20.023  16.253  1.00  0.00    -0.271 OA
HETATM   39  N5  UNL     1      10.665  18.305  15.368  1.00  0.00    -0.349 N 
HETATM   40  C18 UNL     1      11.770  17.385  15.362  1.00  0.00     0.153 C 
BRANCH  39  41
HETATM   41  C19 UNL     1       9.745  18.222  14.253  1.00  0.00     0.190 C 
BRANCH  41  42
HETATM   42  C20 UNL     1       8.603  17.315  14.574  1.00  0.00     0.068 A 
HETATM   43  N6  UNL     1       7.442  17.662  15.096  1.00  0.00    -0.362 N 
HETATM   44  C21 UNL     1       6.542  16.762  15.320  1.00  0.00     0.096 A 
ATOM     45  H6  UNL     1       7.254  18.639  15.322  1.00  0.00     0.165 HD
HETATM   46  C22 UNL     1       6.837  15.463  15.001  1.00  0.00     0.068 A 
HETATM   47  S1  UNL     1       8.433  15.629  14.383  1.00  0.00    -0.086 SA
ENDBRANCH  41  42
ENDBRANCH  39  41
ENDBRANCH   1  37
TORSDOF 14
ENDMDL
MODEL 5
REMARK VINA RESULT: -8.362417847      3.129      8.884
REMARK  14 active torsions:
REMARK  status: ('A' for Active; 'I' for Inactive)
REMARK       I    between atoms: N1_2  and  C2_4 
REMARK       I    between atoms: C2_4  and  N7_39 
REMARK    1  A    between atoms: N2_5  and  C3_7 
REMARK    2  A    between atoms: C3_7  and  C4_8 
REMARK    3  A    between atoms: C4_8  and  C5_9 
REMARK    4  A    between atoms: C5_9  and  C6_10 
REMARK    5  A    between atoms: C6_10  and  N3_11 
REMARK    6  A    between atoms: C6_10  and  C17_28 
REMARK       I    between atoms: N3_11  and  C7_13 
REMARK    7  A    between atoms: C7_13  and  C8_15 
REMARK    8  A    between atoms: C8_15  and  N4_16 
REMARK    9  A    between atoms: C8_15  and  C14_25 
REMARK       I    between atoms: N4_16  and  C9_18 
REMARK   10  A    between atoms: C9_18  and  O3_20 
REMARK   11  A    between atoms: O3_20  and  C10_21 
REMARK       I    between atoms: C17_28  and  N5_30 
REMARK   12  A    between atoms: N5_30  and  C19_32 
REMARK   13  A    between atoms: C19_32  and  C20_33 
REMARK   14  A    between atoms: N8_42  and  C25_43 
ROOT
HETATM    1  C6  UNL     1      12.927  20.819  16.499  1.00  0.00     0.176 C 
ENDROOT
BRANCH   1   2
HETATM    2  C5  UNL     1      11.691  21.678  16.841  1.00  0.00     0.036 C 
BRANCH   2   3
HETATM    3  C4  UNL     1      11.299  21.611  18.272  1.00  0.00     0.023 C 
BRANCH   3   4
HETATM    4  C3  UNL     1      10.368  20.429  18.544  1.00  0.00     0.138 C 
BRANCH   4   5
HETATM    5  N2  UNL     1      10.181  20.229  19.945  1.00  0.00    -0.226 N 
HETATM    6  C2  UNL     1       9.318  19.508  20.532  1.00  0.00     0.671 C 
HETATM    7  N1  UNL     1       9.360  19.493  21.969  1.00  0.00    -0.231 N 
HETATM    8  N7  UNL     1       8.316  18.712  19.935  1.00  0.00    -0.215 N 
HETATM    9  C1  UNL     1       9.357  20.734  22.709  1.00  0.00     0.165 C 
ATOM     10  H1  UNL     1       9.391  18.604  22.467  1.00  0.00     0.177 HD
HETATM   11  C23 UNL     1       6.998  19.273  19.728  1.00  0.00     0.171 C 
HETATM   12  C29 UNL     1       8.510  17.344  19.509  1.00  0.00     0.171 C 
HETATM   13  C24 UNL     1       5.989  18.171  19.587  1.00  0.00     0.293 C 
HETATM   14  N8  UNL     1       6.243  17.025  20.421  1.00  0.00     0.095 N 
HETATM   15  C28 UNL     1       7.528  16.429  20.227  1.00  0.00     0.293 C 
ATOM     16  H2  UNL     1      10.825  20.733  20.554  1.00  0.00     0.177 HD
BRANCH  14  17
HETATM   17  C25 UNL     1       6.010  17.271  21.811  1.00  0.00     0.215 C 
HETATM   18  C26 UNL     1       4.550  16.998  22.142  1.00  0.00     0.042 C 
HETATM   19  C27 UNL     1       6.886  16.335  22.622  1.00  0.00     0.042 C 
ENDBRANCH  14  17
ENDBRANCH   4   5
ENDBRANCH   3   4
ENDBRANCH   2   3
ENDBRANCH   1   2
BRANCH   1  20
HETATM   20  N3  UNL     1      14.100  21.560  16.222  1.00  0.00    -0.346 N 
HETATM   21  C7  UNL     1      15.334  21.273  15.679  1.00  0.00     0.241 C 
HETATM   22  O1  UNL     1      15.653  20.089  15.307  1.00  0.00    -0.271 OA
ATOM     23  H3  UNL     1      14.012  22.541  16.488  1.00  0.00     0.163 HD
BRANCH  21  24
HETATM   24  C8  UNL     1      16.428  22.236  15.441  1.00  0.00     0.182 C 
BRANCH  24  25
HETATM   25  N4  UNL     1      16.219  23.482  16.174  1.00  0.00    -0.323 N 
HETATM   26  C9  UNL     1      17.121  23.758  17.245  1.00  0.00     0.362 C 
HETATM   27  O2  UNL     1      18.058  22.967  17.550  1.00  0.00    -0.238 OA
ATOM     28  H4  UNL     1      15.464  24.124  15.933  1.00  0.00     0.165 HD
BRANCH  26  29
HETATM   29  O3  UNL     1      17.049  24.898  18.030  1.00  0.00    -0.294 OA
BRANCH  29  30
HETATM   30  C10 UNL     1      16.202  25.116  19.090  1.00  0.00     0.061 C 
HETATM   31  C11 UNL     1      16.879  26.012  20.132  1.00  0.00     0.046 C 
HETATM   32  C12 UNL     1      15.015  25.938  18.570  1.00  0.00     0.046 C 
HETATM   33  C13 UNL     1      15.662  23.937  19.804  1.00  0.00     0.046 C 
ENDBRANCH  29  30
ENDBRANCH  26  29
ENDBRANCH  24  25
BRANCH  24  34
HETATM   34  C14 UNL     1      16.541  22.550  13.970  1.00  0.00     0.009 C 
HETATM   35  C15 UNL     1      15.314  23.212  13.421  1.00  0.00     0.012 C 
HETATM   36  C16 UNL     1      17.779  23.407  13.690  1.00  0.00     0.012 C 
ENDBRANCH  24  34
ENDBRANCH  21  24
ENDBRANCH   1  20
BRANCH   1  37
HETATM   37  C17 UNL     1      12.535  19.750  15.628  1.00  0.00     0.242 C 
HETATM   38  O4  UNL     1      12.375  20.007  14.383  1.00  0.00    -0.271 OA
HETATM   39  N5  UNL     1      12.303  18.417  15.993  1.00  0.00    -0.349 N 
HETATM   40  C18 UNL     1      12.478  17.961  17.345  1.00  0.00     0.153 C 
BRANCH  39  41
HETATM   41  C19 UNL     1      11.883  17.427  15.023  1.00  0.00     0.190 C 
BRANCH  41  42
HETATM   42  C20 UNL     1      10.394  17.377  14.925  1.00  0.00     0.068 A 
HETATM   43  N6  UNL     1       9.596  18.351  14.531  1.00  0.00    -0.362 N 
HETATM   44  C21 UNL     1       8.318  18.162  14.498  1.00  0.00     0.096 A 
ATOM     45  H6  UNL     1       9.986  19.252  14.253  1.00  0.00     0.165 HD
HETATM   46  C22 UNL     1       7.838  16.936  14.879  1.00  0.00     0.068 A 
HETATM   47  S1  UNL     1       9.298  16.118  15.271  1.00  0.00    -0.086 SA
ENDBRANCH  41  42
ENDBRANCH  39  41
ENDBRANCH   1  37
TORSDOF 14
ENDMDL
