MODEL 1
REMARK VINA RESULT: -8.077940644      0.000      0.000
REMARK  1 active torsions:
REMARK  status: ('A' for Active; 'I' for Inactive)
REMARK    1  A    between atoms: C15_19  and  O5_20 
ROOT
HETATM    1  C1  UNL     1      15.189  -1.025  21.206  1.00  0.00     0.012 C 
HETATM    2  C2  UNL     1      13.783  -0.475  21.348  1.00  0.00     0.006 C 
HETATM    3  C3  UNL     1      13.211  -0.257  20.015  1.00  0.00     0.178 C 
HETATM    4  O1  UNL     1      12.417   0.852  19.861  1.00  0.00    -0.332 OA
HETATM    5  C4  UNL     1      13.219   1.868  19.292  1.00  0.00     0.283 C 
HETATM    6  C5  UNL     1      14.325   2.108  20.282  1.00  0.00     0.106 C 
HETATM    7  C6  UNL     1      13.889   2.027  21.709  1.00  0.00    -0.011 C 
HETATM    8  C7  UNL     1      12.600   2.828  21.946  1.00  0.00     0.010 C 
HETATM    9  C8  UNL     1      13.796   0.677  22.285  1.00  0.00     0.011 C 
HETATM   10  O2  UNL     1      13.733   1.460  18.060  1.00  0.00    -0.321 OA
HETATM   11  C9  UNL     1      12.916   2.045  17.090  1.00  0.00     0.197 C 
HETATM   12  C10 UNL     1      13.667   2.173  15.816  1.00  0.00     0.230 C 
HETATM   13  O3  UNL     1      13.540   0.993  15.056  1.00  0.00    -0.229 OA
HETATM   14  O4  UNL     1      13.046   1.616  14.022  1.00  0.00    -0.225 OA
HETATM   15  C11 UNL     1      12.969   2.846  14.712  1.00  0.00     0.135 C 
HETATM   16  C12 UNL     1      13.717   3.889  13.945  1.00  0.00     0.025 C 
HETATM   17  C13 UNL     1      14.835   3.235  13.124  1.00  0.00     0.013 C 
HETATM   18  C14 UNL     1      12.846   4.637  12.994  1.00  0.00     0.039 C 
HETATM   19  C15 UNL     1      11.678   3.840  12.525  1.00  0.00     0.127 C 
HETATM   20  C16 UNL     1      10.810   3.320  13.619  1.00  0.00    -0.015 C 
HETATM   21  C17 UNL     1      10.333   1.925  13.192  1.00  0.00     0.018 C 
HETATM   22  C18 UNL     1       9.569   4.171  13.731  1.00  0.00     0.018 C 
HETATM   23  C19 UNL     1      11.539   3.194  14.950  1.00  0.00     0.037 C 
HETATM   24  C20 UNL     1      11.349   4.383  15.833  1.00  0.00     0.011 C 
HETATM   25  C21 UNL     1      11.316   3.961  17.277  1.00  0.00     0.041 C 
HETATM   26  C22 UNL     1      12.596   3.367  17.750  1.00  0.00     0.092 C 
HETATM   27  C23 UNL     1      13.763   4.285  17.724  1.00  0.00     0.049 C 
HETATM   28  O6  UNL     1      12.407   2.954  19.080  1.00  0.00    -0.319 OA
ENDROOT
BRANCH  19  29
HETATM   29  O5  UNL     1      10.919   4.634  11.662  1.00  0.00    -0.395 OA
ATOM     30  H5  UNL     1      10.554   4.077  10.985  1.00  0.00     0.210 HD
ENDBRANCH  19  29
TORSDOF 1
ENDMDL
MODEL 2
REMARK VINA RESULT: -7.353765257      2.064      7.384
REMARK  1 active torsions:
REMARK  status: ('A' for Active; 'I' for Inactive)
REMARK    1  A    between atoms: C15_19  and  O5_20 
ROOT
HETATM    1  C1  UNL     1      10.737   4.094  12.070  1.00  0.00     0.012 C 
HETATM    2  C2  UNL     1       9.614   3.469  12.874  1.00  0.00     0.006 C 
HETATM    3  C3  UNL     1       9.979   3.469  14.295  1.00  0.00     0.178 C 
HETATM    4  O1  UNL     1       9.596   2.372  15.028  1.00  0.00    -0.332 OA
HETATM    5  C4  UNL     1      10.713   1.510  15.108  1.00  0.00     0.283 C 
HETATM    6  C5  UNL     1      11.040   1.143  13.686  1.00  0.00     0.106 C 
HETATM    7  C6  UNL     1       9.838   0.950  12.818  1.00  0.00    -0.011 C 
HETATM    8  C7  UNL     1       8.788   0.066  13.508  1.00  0.00     0.010 C 
HETATM    9  C8  UNL     1       9.234   2.170  12.264  1.00  0.00     0.011 C 
HETATM   10  O2  UNL     1      11.792   2.152  15.716  1.00  0.00    -0.321 OA
HETATM   11  C9  UNL     1      11.799   1.715  17.044  1.00  0.00     0.197 C 
HETATM   12  C10 UNL     1      13.167   1.848  17.606  1.00  0.00     0.230 C 
HETATM   13  O3  UNL     1      13.349   3.139  18.142  1.00  0.00    -0.229 OA
HETATM   14  O4  UNL     1      13.656   2.690  19.327  1.00  0.00    -0.225 OA
HETATM   15  C11 UNL     1      13.360   1.354  18.975  1.00  0.00     0.135 C 
HETATM   16  C12 UNL     1      14.555   0.497  19.247  1.00  0.00     0.025 C 
HETATM   17  C13 UNL     1      15.836   1.333  19.138  1.00  0.00     0.013 C 
HETATM   18  C14 UNL     1      14.532  -0.105  20.611  1.00  0.00     0.039 C 
HETATM   19  C15 UNL     1      13.768   0.714  21.595  1.00  0.00     0.127 C 
HETATM   20  C16 UNL     1      12.359   0.993  21.199  1.00  0.00    -0.015 C 
HETATM   21  C17 UNL     1      12.036   2.420  21.661  1.00  0.00     0.018 C 
HETATM   22  C18 UNL     1      11.428   0.085  21.964  1.00  0.00     0.018 C 
HETATM   23  C19 UNL     1      12.133   0.910  19.696  1.00  0.00     0.037 C 
HETATM   24  C20 UNL     1      11.628  -0.425  19.256  1.00  0.00     0.011 C 
HETATM   25  C21 UNL     1      10.689  -0.269  18.091  1.00  0.00     0.041 C 
HETATM   26  C22 UNL     1      11.341   0.285  16.874  1.00  0.00     0.092 C 
HETATM   27  C23 UNL     1      12.413  -0.565  16.293  1.00  0.00     0.049 C 
HETATM   28  O6  UNL     1      10.347   0.446  15.894  1.00  0.00    -0.319 OA
ENDROOT
BRANCH  19  29
HETATM   29  O5  UNL     1      13.788   0.055  22.826  1.00  0.00    -0.395 OA
ATOM     30  H5  UNL     1      14.178  -0.802  22.701  1.00  0.00     0.210 HD
ENDBRANCH  19  29
TORSDOF 1
ENDMDL
MODEL 3
REMARK VINA RESULT: -7.266320388      1.958      7.243
REMARK  1 active torsions:
REMARK  status: ('A' for Active; 'I' for Inactive)
REMARK    1  A    between atoms: C15_19  and  O5_20 
ROOT
HETATM    1  C1  UNL     1      11.220   4.707  11.991  1.00  0.00     0.012 C 
HETATM    2  C2  UNL     1      10.122   4.316  12.961  1.00  0.00     0.006 C 
HETATM    3  C3  UNL     1      10.686   4.207  14.311  1.00  0.00     0.178 C 
HETATM    4  O1  UNL     1      10.193   3.201  15.104  1.00  0.00    -0.332 OA
HETATM    5  C4  UNL     1      11.100   2.120  15.024  1.00  0.00     0.283 C 
HETATM    6  C5  UNL     1      11.126   1.724  13.574  1.00  0.00     0.106 C 
HETATM    7  C6  UNL     1       9.796   1.808  12.898  1.00  0.00    -0.011 C 
HETATM    8  C7  UNL     1       8.696   1.151  13.746  1.00  0.00     0.010 C 
HETATM    9  C8  UNL     1       9.388   3.140  12.428  1.00  0.00     0.011 C 
HETATM   10  O2  UNL     1      12.369   2.507  15.458  1.00  0.00    -0.321 OA
HETATM   11  C9  UNL     1      12.480   2.049  16.773  1.00  0.00     0.197 C 
HETATM   12  C10 UNL     1      13.913   1.877  17.122  1.00  0.00     0.230 C 
HETATM   13  O3  UNL     1      14.443   3.088  17.612  1.00  0.00    -0.229 OA
HETATM   14  O4  UNL     1      14.820   2.559  18.742  1.00  0.00    -0.225 OA
HETATM   15  C11 UNL     1      14.199   1.324  18.452  1.00  0.00     0.135 C 
HETATM   16  C12 UNL     1      15.212   0.228  18.551  1.00  0.00     0.025 C 
HETATM   17  C13 UNL     1      16.610   0.777  18.243  1.00  0.00     0.013 C 
HETATM   18  C14 UNL     1      15.264  -0.385  19.909  1.00  0.00     0.039 C 
HETATM   19  C15 UNL     1      14.847   0.555  20.987  1.00  0.00     0.127 C 
HETATM   20  C16 UNL     1      13.487   1.134  20.805  1.00  0.00    -0.015 C 
HETATM   21  C17 UNL     1      13.546   2.587  21.296  1.00  0.00     0.018 C 
HETATM   22  C18 UNL     1      12.508   0.427  21.710  1.00  0.00     0.018 C 
HETATM   23  C19 UNL     1      13.027   1.133  19.354  1.00  0.00     0.037 C 
HETATM   24  C20 UNL     1      12.190  -0.054  19.008  1.00  0.00     0.011 C 
HETATM   25  C21 UNL     1      11.143   0.322  17.995  1.00  0.00     0.041 C 
HETATM   26  C22 UNL     1      11.710   0.752  16.688  1.00  0.00     0.092 C 
HETATM   27  C23 UNL     1      12.478  -0.292  15.962  1.00  0.00     0.049 C 
HETATM   28  O6  UNL     1      10.638   1.141  15.867  1.00  0.00    -0.319 OA
ENDROOT
BRANCH  19  29
HETATM   29  O5  UNL     1      14.910  -0.120  22.209  1.00  0.00    -0.395 OA
ATOM     30  H5  UNL     1      15.496  -0.861  22.112  1.00  0.00     0.210 HD
ENDBRANCH  19  29
TORSDOF 1
ENDMDL
MODEL 4
REMARK VINA RESULT: -7.233393112      1.960      7.147
REMARK  1 active torsions:
REMARK  status: ('A' for Active; 'I' for Inactive)
REMARK    1  A    between atoms: C15_19  and  O5_20 
ROOT
HETATM    1  C1  UNL     1       7.876   0.485  12.768  1.00  0.00     0.012 C 
HETATM    2  C2  UNL     1       9.172   1.125  12.311  1.00  0.00     0.006 C 
HETATM    3  C3  UNL     1      10.259   0.710  13.206  1.00  0.00     0.178 C 
HETATM    4  O1  UNL     1      11.209   1.657  13.498  1.00  0.00    -0.332 OA
HETATM    5  C4  UNL     1      10.872   2.219  14.750  1.00  0.00     0.283 C 
HETATM    6  C5  UNL     1       9.513   2.835  14.561  1.00  0.00     0.106 C 
HETATM    7  C6  UNL     1       9.320   3.479  13.226  1.00  0.00    -0.011 C 
HETATM    8  C7  UNL     1      10.512   4.376  12.861  1.00  0.00     0.010 C 
HETATM    9  C8  UNL     1       8.963   2.582  12.117  1.00  0.00     0.011 C 
HETATM   10  O2  UNL     1      10.839   1.236  15.740  1.00  0.00    -0.321 OA
HETATM   11  C9  UNL     1      12.058   1.333  16.417  1.00  0.00     0.197 C 
HETATM   12  C10 UNL     1      11.913   0.784  17.789  1.00  0.00     0.230 C 
HETATM   13  O3  UNL     1      12.149  -0.606  17.784  1.00  0.00    -0.229 OA
HETATM   14  O4  UNL     1      13.107  -0.527  18.665  1.00  0.00    -0.225 OA
HETATM   15  C11 UNL     1      13.090   0.885  18.660  1.00  0.00     0.135 C 
HETATM   16  C12 UNL     1      12.886   1.380  20.057  1.00  0.00     0.025 C 
HETATM   17  C13 UNL     1      12.105   0.341  20.872  1.00  0.00     0.013 C 
HETATM   18  C14 UNL     1      14.170   1.631  20.771  1.00  0.00     0.039 C 
HETATM   19  C15 UNL     1      15.289   0.784  20.271  1.00  0.00     0.127 C 
HETATM   20  C16 UNL     1      15.551   0.912  18.810  1.00  0.00    -0.015 C 
HETATM   21  C17 UNL     1      15.937  -0.482  18.297  1.00  0.00     0.018 C 
HETATM   22  C18 UNL     1      16.758   1.789  18.586  1.00  0.00     0.018 C 
HETATM   23  C19 UNL     1      14.339   1.396  18.026  1.00  0.00     0.037 C 
HETATM   24  C20 UNL     1      14.340   2.873  17.804  1.00  0.00     0.011 C 
HETATM   25  C21 UNL     1      13.724   3.201  16.472  1.00  0.00     0.041 C 
HETATM   26  C22 UNL     1      12.287   2.827  16.375  1.00  0.00     0.092 C 
HETATM   27  C23 UNL     1      11.386   3.543  17.315  1.00  0.00     0.049 C 
HETATM   28  O6  UNL     1      11.858   3.118  15.069  1.00  0.00    -0.319 OA
ENDROOT
BRANCH  19  29
HETATM   29  O5  UNL     1      16.444   1.112  20.985  1.00  0.00    -0.395 OA
ATOM     30  H5  UNL     1      17.183   1.080  20.391  1.00  0.00     0.210 HD
ENDBRANCH  19  29
TORSDOF 1
ENDMDL
MODEL 5
REMARK VINA RESULT: -6.975624438      1.362      1.631
REMARK  1 active torsions:
REMARK  status: ('A' for Active; 'I' for Inactive)
REMARK    1  A    between atoms: C15_19  and  O5_20 
ROOT
HETATM    1  C1  UNL     1      17.846  -0.413  19.205  1.00  0.00     0.012 C 
HETATM    2  C2  UNL     1      16.407  -0.512  19.673  1.00  0.00     0.006 C 
HETATM    3  C3  UNL     1      15.511  -0.300  18.531  1.00  0.00     0.178 C 
HETATM    4  O1  UNL     1      14.358   0.404  18.777  1.00  0.00    -0.332 OA
HETATM    5  C4  UNL     1      14.590   1.742  18.388  1.00  0.00     0.283 C 
HETATM    6  C5  UNL     1      15.728   2.219  19.248  1.00  0.00     0.106 C 
HETATM    7  C6  UNL     1      15.683   1.705  20.651  1.00  0.00    -0.011 C 
HETATM    8  C7  UNL     1      14.281   1.861  21.259  1.00  0.00     0.010 C 
HETATM    9  C8  UNL     1      16.215   0.352  20.865  1.00  0.00     0.011 C 
HETATM   10  O2  UNL     1      14.926   1.812  17.035  1.00  0.00    -0.321 OA
HETATM   11  C9  UNL     1      13.757   2.188  16.369  1.00  0.00     0.197 C 
HETATM   12  C10 UNL     1      14.105   2.842  15.082  1.00  0.00     0.230 C 
HETATM   13  O3  UNL     1      14.244   1.875  14.066  1.00  0.00    -0.229 OA
HETATM   14  O4  UNL     1      13.340   2.426  13.306  1.00  0.00    -0.225 OA
HETATM   15  C11 UNL     1      12.983   3.369  14.294  1.00  0.00     0.135 C 
HETATM   16  C12 UNL     1      13.112   4.748  13.729  1.00  0.00     0.025 C 
HETATM   17  C13 UNL     1      14.175   4.764  12.624  1.00  0.00     0.013 C 
HETATM   18  C14 UNL     1      11.840   5.244  13.130  1.00  0.00     0.039 C 
HETATM   19  C15 UNL     1      10.964   4.146  12.633  1.00  0.00     0.127 C 
HETATM   20  C16 UNL     1      10.612   3.128  13.662  1.00  0.00    -0.015 C 
HETATM   21  C17 UNL     1      10.586   1.765  12.957  1.00  0.00     0.018 C 
HETATM   22  C18 UNL     1       9.207   3.370  14.155  1.00  0.00     0.018 C 
HETATM   23  C19 UNL     1      11.616   3.061  14.804  1.00  0.00     0.037 C 
HETATM   24  C20 UNL     1      11.214   3.887  15.982  1.00  0.00     0.011 C 
HETATM   25  C21 UNL     1      11.661   3.227  17.258  1.00  0.00     0.041 C 
HETATM   26  C22 UNL     1      13.140   3.121  17.385  1.00  0.00     0.092 C 
HETATM   27  C23 UNL     1      13.860   4.419  17.441  1.00  0.00     0.049 C 
HETATM   28  O6  UNL     1      13.417   2.428  18.575  1.00  0.00    -0.319 OA
ENDROOT
BRANCH  19  29
HETATM   29  O5  UNL     1       9.797   4.713  12.115  1.00  0.00    -0.395 OA
ATOM     30  H5  UNL     1       9.597   4.287  11.291  1.00  0.00     0.210 HD
ENDBRANCH  19  29
TORSDOF 1
ENDMDL
