MODEL 1
REMARK VINA RESULT: -8.053802552      0.000      0.000
REMARK  3 active torsions:
REMARK  status: ('A' for Active; 'I' for Inactive)
REMARK    1  A    between atoms: C13_15  and  O3_16 
REMARK    2  A    between atoms: C14_18  and  O4_19 
REMARK    3  A    between atoms: C16_23  and  O6_24 
ROOT
HETATM    1  C1  UNL     1     -13.378  -4.587  -8.060  1.00  0.00     0.018 C 
HETATM    2  C2  UNL     1     -12.524  -4.282  -9.263  1.00  0.00    -0.015 C 
HETATM    3  C3  UNL     1     -12.926  -5.303 -10.336  1.00  0.00     0.018 C 
HETATM    4  C4  UNL     1     -12.687  -2.909  -9.799  1.00  0.00     0.029 C 
HETATM    5  C5  UNL     1     -13.653  -2.049  -9.032  1.00  0.00     0.049 C 
HETATM    6  C6  UNL     1     -12.940  -0.748  -8.923  1.00  0.00     0.094 C 
HETATM    7  O1  UNL     1     -11.601  -1.003  -9.003  1.00  0.00    -0.370 OA
HETATM    8  C7  UNL     1     -11.384  -2.191  -9.628  1.00  0.00     0.138 C 
HETATM    9  C8  UNL     1     -10.426  -3.113  -8.979  1.00  0.00     0.012 C 
HETATM   10  C9  UNL     1      -9.078  -3.092  -9.687  1.00  0.00     0.020 C 
HETATM   11  C10 UNL     1     -10.260  -2.898  -7.492  1.00  0.00     0.057 C 
HETATM   12  C11 UNL     1     -10.029  -4.323  -7.035  1.00  0.00     0.114 C 
HETATM   13  C12 UNL     1      -8.580  -4.705  -7.056  1.00  0.00     0.211 C 
HETATM   14  O2  UNL     1      -8.343  -5.594  -6.042  1.00  0.00    -0.356 OA
HETATM   15  C13 UNL     1      -9.425  -5.648  -5.212  1.00  0.00     0.288 C 
HETATM   16  C14 UNL     1     -10.360  -4.518  -5.575  1.00  0.00     0.209 C 
HETATM   17  O5  UNL     1     -10.815  -5.111  -7.834  1.00  0.00    -0.368 OA
HETATM   18  C15 UNL     1     -11.057  -4.473  -9.018  1.00  0.00     0.141 C 
HETATM   19  C16 UNL     1     -13.189  -0.068  -7.569  1.00  0.00     0.153 C 
HETATM   20  C17 UNL     1     -12.904   1.393  -7.826  1.00  0.00     0.035 C 
HETATM   21  C18 UNL     1     -12.689   1.553  -9.303  1.00  0.00     0.014 C 
HETATM   22  C19 UNL     1     -13.368   0.301  -9.878  1.00  0.00    -0.014 C 
HETATM   23  C20 UNL     1     -14.822   0.581  -9.910  1.00  0.00     0.018 C 
HETATM   24  C21 UNL     1     -12.837   0.133 -11.273  1.00  0.00     0.018 C 
ENDROOT
BRANCH  19  25
HETATM   25  O6  UNL     1     -14.519  -0.307  -7.247  1.00  0.00    -0.393 OA
ATOM     26  H6  UNL     1     -14.714  -1.187  -7.549  1.00  0.00     0.210 HD
ENDBRANCH  19  25
BRANCH  16  27
HETATM   27  O4  UNL     1     -10.065  -3.434  -4.790  1.00  0.00    -0.388 OA
ATOM     28  H4  UNL     1     -10.484  -2.630  -5.073  1.00  0.00     0.210 HD
ENDBRANCH  16  27
BRANCH  15  29
HETATM   29  O3  UNL     1     -10.152  -6.837  -5.339  1.00  0.00    -0.369 OA
ATOM     30  H3  UNL     1      -9.616  -7.571  -5.615  1.00  0.00     0.212 HD
ENDBRANCH  15  29
TORSDOF 3
ENDMDL
MODEL 2
REMARK VINA RESULT: -7.694453355      2.634      5.357
REMARK  3 active torsions:
REMARK  status: ('A' for Active; 'I' for Inactive)
REMARK    1  A    between atoms: C13_15  and  O3_16 
REMARK    2  A    between atoms: C14_18  and  O4_19 
REMARK    3  A    between atoms: C16_23  and  O6_24 
ROOT
HETATM    1  C1  UNL     1     -14.473  -4.299  -7.152  1.00  0.00     0.018 C 
HETATM    2  C2  UNL     1     -14.530  -2.892  -7.687  1.00  0.00    -0.015 C 
HETATM    3  C3  UNL     1     -15.806  -2.269  -7.104  1.00  0.00     0.018 C 
HETATM    4  C4  UNL     1     -13.361  -2.053  -7.328  1.00  0.00     0.029 C 
HETATM    5  C5  UNL     1     -12.308  -2.760  -6.520  1.00  0.00     0.049 C 
HETATM    6  C6  UNL     1     -11.037  -2.333  -7.165  1.00  0.00     0.094 C 
HETATM    7  O1  UNL     1     -11.321  -2.010  -8.461  1.00  0.00    -0.370 OA
HETATM    8  C7  UNL     1     -12.639  -1.705  -8.593  1.00  0.00     0.138 C 
HETATM    9  C8  UNL     1     -13.353  -2.336  -9.725  1.00  0.00     0.012 C 
HETATM   10  C9  UNL     1     -13.548  -1.351 -10.870  1.00  0.00     0.020 C 
HETATM   11  C10 UNL     1     -12.731  -3.622 -10.218  1.00  0.00     0.057 C 
HETATM   12  C11 UNL     1     -13.972  -4.386 -10.627  1.00  0.00     0.114 C 
HETATM   13  C12 UNL     1     -14.362  -4.127 -12.051  1.00  0.00     0.211 C 
HETATM   14  O2  UNL     1     -14.933  -5.261 -12.565  1.00  0.00    -0.356 OA
HETATM   15  C13 UNL     1     -14.739  -6.306 -11.709  1.00  0.00     0.288 C 
HETATM   16  C14 UNL     1     -13.745  -5.878 -10.654  1.00  0.00     0.209 C 
HETATM   17  O5  UNL     1     -14.943  -4.045  -9.723  1.00  0.00    -0.368 OA
HETATM   18  C15 UNL     1     -14.662  -2.825  -9.178  1.00  0.00     0.141 C 
HETATM   19  C16 UNL     1     -10.001  -3.466  -7.198  1.00  0.00     0.153 C 
HETATM   20  C17 UNL     1      -8.675  -2.755  -7.335  1.00  0.00     0.035 C 
HETATM   21  C18 UNL     1      -8.939  -1.285  -7.193  1.00  0.00     0.014 C 
HETATM   22  C19 UNL     1     -10.294  -1.256  -6.470  1.00  0.00    -0.014 C 
HETATM   23  C20 UNL     1     -10.016  -1.494  -5.035  1.00  0.00     0.018 C 
HETATM   24  C21 UNL     1     -10.853   0.123  -6.672  1.00  0.00     0.018 C 
ENDROOT
BRANCH  19  25
HETATM   25  O6  UNL     1     -10.124  -4.147  -5.995  1.00  0.00    -0.393 OA
ATOM     26  H6  UNL     1      -9.812  -5.030  -6.152  1.00  0.00     0.210 HD
ENDBRANCH  19  25
BRANCH  16  27
HETATM   27  O4  UNL     1     -12.488  -6.241 -11.062  1.00  0.00    -0.388 OA
ATOM     28  H4  UNL     1     -12.428  -6.444 -11.988  1.00  0.00     0.210 HD
ENDBRANCH  16  27
BRANCH  15  29
HETATM   29  O3  UNL     1     -15.907  -6.688 -11.039  1.00  0.00    -0.369 OA
ATOM     30  H3  UNL     1     -16.104  -7.612 -11.135  1.00  0.00     0.212 HD
ENDBRANCH  15  29
TORSDOF 3
ENDMDL
MODEL 3
REMARK VINA RESULT: -7.431925065      1.774      2.574
REMARK  3 active torsions:
REMARK  status: ('A' for Active; 'I' for Inactive)
REMARK    1  A    between atoms: C13_15  and  O3_16 
REMARK    2  A    between atoms: C14_18  and  O4_19 
REMARK    3  A    between atoms: C16_23  and  O6_24 
ROOT
HETATM    1  C1  UNL     1     -12.984  -2.456  -6.932  1.00  0.00     0.018 C 
HETATM    2  C2  UNL     1     -13.377  -3.293  -8.121  1.00  0.00    -0.015 C 
HETATM    3  C3  UNL     1     -14.311  -4.384  -7.578  1.00  0.00     0.018 C 
HETATM    4  C4  UNL     1     -14.065  -2.543  -9.198  1.00  0.00     0.029 C 
HETATM    5  C5  UNL     1     -14.224  -1.071  -8.933  1.00  0.00     0.049 C 
HETATM    6  C6  UNL     1     -13.853  -0.447 -10.231  1.00  0.00     0.094 C 
HETATM    7  O1  UNL     1     -13.015  -1.310 -10.878  1.00  0.00    -0.370 OA
HETATM    8  C7  UNL     1     -13.190  -2.575 -10.413  1.00  0.00     0.138 C 
HETATM    9  C8  UNL     1     -11.962  -3.331 -10.081  1.00  0.00     0.012 C 
HETATM   10  C9  UNL     1     -11.627  -4.340 -11.172  1.00  0.00     0.020 C 
HETATM   11  C10 UNL     1     -10.765  -2.469  -9.755  1.00  0.00     0.057 C 
HETATM   12  C11 UNL     1     -10.085  -3.331  -8.712  1.00  0.00     0.114 C 
HETATM   13  C12 UNL     1      -9.115  -4.303  -9.313  1.00  0.00     0.211 C 
HETATM   14  O2  UNL     1      -8.083  -4.496  -8.434  1.00  0.00    -0.356 OA
HETATM   15  C13 UNL     1      -8.150  -3.573  -7.431  1.00  0.00     0.288 C 
HETATM   16  C14 UNL     1      -9.175  -2.531  -7.812  1.00  0.00     0.209 C 
HETATM   17  O5  UNL     1     -11.090  -3.929  -8.000  1.00  0.00    -0.368 OA
HETATM   18  C15 UNL     1     -12.221  -3.999  -8.763  1.00  0.00     0.141 C 
HETATM   19  C16 UNL     1     -13.083   0.868 -10.037  1.00  0.00     0.153 C 
HETATM   20  C17 UNL     1     -13.284   1.613 -11.335  1.00  0.00     0.035 C 
HETATM   21  C18 UNL     1     -14.278   0.836 -12.148  1.00  0.00     0.014 C 
HETATM   22  C19 UNL     1     -14.985  -0.019 -11.085  1.00  0.00    -0.014 C 
HETATM   23  C20 UNL     1     -15.984   0.857 -10.430  1.00  0.00     0.018 C 
HETATM   24  C21 UNL     1     -15.670  -1.133 -11.823  1.00  0.00     0.018 C 
ENDROOT
BRANCH  19  25
HETATM   25  O6  UNL     1     -13.668   1.510  -8.953  1.00  0.00    -0.393 OA
ATOM     26  H6  UNL     1     -13.549   0.937  -8.205  1.00  0.00     0.210 HD
ENDBRANCH  19  25
BRANCH  16  27
HETATM   27  O4  UNL     1      -8.535  -1.497  -8.446  1.00  0.00    -0.388 OA
ATOM     28  H4  UNL     1      -9.107  -0.965  -8.986  1.00  0.00     0.210 HD
ENDBRANCH  16  27
BRANCH  15  29
HETATM   29  O3  UNL     1      -8.559  -4.123  -6.211  1.00  0.00    -0.369 OA
ATOM     30  H3  UNL     1      -8.385  -5.054  -6.146  1.00  0.00     0.212 HD
ENDBRANCH  15  29
TORSDOF 3
ENDMDL
MODEL 4
REMARK VINA RESULT: -7.401726451      2.148      5.452
REMARK  3 active torsions:
REMARK  status: ('A' for Active; 'I' for Inactive)
REMARK    1  A    between atoms: C13_15  and  O3_16 
REMARK    2  A    between atoms: C14_18  and  O4_19 
REMARK    3  A    between atoms: C16_23  and  O6_24 
ROOT
HETATM    1  C1  UNL     1     -11.165  -2.088 -10.273  1.00  0.00     0.018 C 
HETATM    2  C2  UNL     1     -12.605  -2.444 -10.017  1.00  0.00    -0.015 C 
HETATM    3  C3  UNL     1     -13.438  -1.320 -10.649  1.00  0.00     0.018 C 
HETATM    4  C4  UNL     1     -13.024  -3.749 -10.585  1.00  0.00     0.029 C 
HETATM    5  C5  UNL     1     -11.931  -4.503 -11.290  1.00  0.00     0.049 C 
HETATM    6  C6  UNL     1     -12.105  -5.897 -10.799  1.00  0.00     0.094 C 
HETATM    7  O1  UNL     1     -12.712  -5.831  -9.578  1.00  0.00    -0.370 OA
HETATM    8  C7  UNL     1     -13.379  -4.653  -9.446  1.00  0.00     0.138 C 
HETATM    9  C8  UNL     1     -13.169  -3.914  -8.182  1.00  0.00     0.012 C 
HETATM   10  C9  UNL     1     -14.354  -4.088  -7.240  1.00  0.00     0.020 C 
HETATM   11  C10 UNL     1     -11.869  -4.231  -7.479  1.00  0.00     0.057 C 
HETATM   12  C11 UNL     1     -11.551  -2.881  -6.873  1.00  0.00     0.114 C 
HETATM   13  C12 UNL     1     -12.147  -2.708  -5.509  1.00  0.00     0.211 C 
HETATM   14  O2  UNL     1     -11.316  -1.919  -4.760  1.00  0.00    -0.356 OA
HETATM   15  C13 UNL     1     -10.125  -1.757  -5.407  1.00  0.00     0.288 C 
HETATM   16  C14 UNL     1     -10.080  -2.720  -6.570  1.00  0.00     0.209 C 
HETATM   17  O5  UNL     1     -11.978  -1.947  -7.780  1.00  0.00    -0.368 OA
HETATM   18  C15 UNL     1     -12.963  -2.477  -8.562  1.00  0.00     0.141 C 
HETATM   19  C16 UNL     1     -10.759  -6.607 -10.596  1.00  0.00     0.153 C 
HETATM   20  C17 UNL     1     -11.100  -8.078 -10.661  1.00  0.00     0.035 C 
HETATM   21  C18 UNL     1     -12.539  -8.186 -11.071  1.00  0.00     0.014 C 
HETATM   22  C19 UNL     1     -12.806  -6.820 -11.723  1.00  0.00    -0.014 C 
HETATM   23  C20 UNL     1     -12.256  -6.889 -13.096  1.00  0.00     0.018 C 
HETATM   24  C21 UNL     1     -14.297  -6.654 -11.764  1.00  0.00     0.018 C 
ENDROOT
BRANCH  19  25
HETATM   25  O6  UNL     1      -9.938  -6.199 -11.639  1.00  0.00    -0.393 OA
ATOM     26  H6  UNL     1     -10.337  -6.524 -12.438  1.00  0.00     0.210 HD
ENDBRANCH  19  25
BRANCH  16  27
HETATM   27  O4  UNL     1      -9.470  -3.876  -6.159  1.00  0.00    -0.388 OA
ATOM     28  H4  UNL     1      -9.188  -3.861  -5.252  1.00  0.00     0.210 HD
ENDBRANCH  16  27
BRANCH  15  29
HETATM   29  O3  UNL     1      -9.962  -0.471  -5.935  1.00  0.00    -0.369 OA
ATOM     30  H3  UNL     1     -10.707   0.094  -5.773  1.00  0.00     0.212 HD
ENDBRANCH  15  29
TORSDOF 3
ENDMDL
MODEL 5
REMARK VINA RESULT: -7.085056522      2.298      3.477
REMARK  3 active torsions:
REMARK  status: ('A' for Active; 'I' for Inactive)
REMARK    1  A    between atoms: C13_15  and  O3_16 
REMARK    2  A    between atoms: C14_18  and  O4_19 
REMARK    3  A    between atoms: C16_23  and  O6_24 
ROOT
HETATM    1  C1  UNL     1     -10.953  -1.668  -5.324  1.00  0.00     0.018 C 
HETATM    2  C2  UNL     1     -11.129  -3.006  -5.992  1.00  0.00    -0.015 C 
HETATM    3  C3  UNL     1     -11.577  -3.973  -4.887  1.00  0.00     0.018 C 
HETATM    4  C4  UNL     1     -12.124  -3.016  -7.092  1.00  0.00     0.029 C 
HETATM    5  C5  UNL     1     -12.760  -1.683  -7.371  1.00  0.00     0.049 C 
HETATM    6  C6  UNL     1     -12.740  -1.598  -8.857  1.00  0.00     0.094 C 
HETATM    7  O1  UNL     1     -11.712  -2.382  -9.300  1.00  0.00    -0.370 OA
HETATM    8  C7  UNL     1     -11.397  -3.318  -8.366  1.00  0.00     0.138 C 
HETATM    9  C8  UNL     1      -9.960  -3.482  -8.054  1.00  0.00     0.012 C 
HETATM   10  C9  UNL     1      -9.389  -4.721  -8.730  1.00  0.00     0.020 C 
HETATM   11  C10 UNL     1      -9.113  -2.265  -8.350  1.00  0.00     0.057 C 
HETATM   12  C11 UNL     1      -8.091  -2.368  -7.237  1.00  0.00     0.114 C 
HETATM   13  C12 UNL     1      -6.899  -3.189  -7.627  1.00  0.00     0.211 C 
HETATM   14  O2  UNL     1      -5.793  -2.689  -6.991  1.00  0.00    -0.356 OA
HETATM   15  C13 UNL     1      -6.092  -1.485  -6.421  1.00  0.00     0.288 C 
HETATM   16  C14 UNL     1      -7.443  -1.040  -6.930  1.00  0.00     0.209 C 
HETATM   17  O5  UNL     1      -8.763  -2.860  -6.149  1.00  0.00    -0.368 OA
HETATM   18  C15 UNL     1      -9.859  -3.563  -6.560  1.00  0.00     0.141 C 
HETATM   19  C16 UNL     1     -12.461  -0.170  -9.347  1.00  0.00     0.153 C 
HETATM   20  C17 UNL     1     -13.017  -0.142 -10.751  1.00  0.00     0.035 C 
HETATM   21  C18 UNL     1     -13.743  -1.437 -10.970  1.00  0.00     0.014 C 
HETATM   22  C19 UNL     1     -14.018  -1.914  -9.536  1.00  0.00    -0.014 C 
HETATM   23  C20 UNL     1     -15.200  -1.162  -9.055  1.00  0.00     0.018 C 
HETATM   24  C21 UNL     1     -14.333  -3.380  -9.629  1.00  0.00     0.018 C 
ENDROOT
BRANCH  19  25
HETATM   25  O6  UNL     1     -13.139   0.681  -8.484  1.00  0.00    -0.393 OA
ATOM     26  H6  UNL     1     -13.502   1.375  -9.021  1.00  0.00     0.210 HD
ENDBRANCH  19  25
BRANCH  16  27
HETATM   27  O4  UNL     1      -7.258  -0.245  -8.030  1.00  0.00    -0.388 OA
ATOM     28  H4  UNL     1      -7.479   0.668  -7.887  1.00  0.00     0.210 HD
ENDBRANCH  16  27
BRANCH  15  29
HETATM   29  O3  UNL     1      -6.181  -1.549  -5.026  1.00  0.00    -0.369 OA
ATOM     30  H3  UNL     1      -5.758  -0.817  -4.593  1.00  0.00     0.212 HD
ENDBRANCH  15  29
TORSDOF 3
ENDMDL
