MODEL 1
REMARK VINA RESULT: -7.785580047      0.000      0.000
REMARK  4 active torsions:
REMARK  status: ('A' for Active; 'I' for Inactive)
REMARK    1  A    between atoms: O1_2  and  C2_3 
REMARK    2  A    between atoms: C2_3  and  C3_5 
REMARK    3  A    between atoms: C6_9  and  O4_10 
REMARK    4  A    between atoms: C12_17  and  O5_18 
ROOT
HETATM    1  C3  UNL     1     -14.813  -4.543 -11.360  1.00  0.00     0.043 C 
HETATM    2  C4  UNL     1     -15.835  -3.498 -11.439  1.00  0.00     0.057 C 
HETATM    3  C5  UNL     1     -13.546  -4.361 -11.114  1.00  0.00     0.066 C 
HETATM    4  O3  UNL     1     -12.637  -5.469 -11.076  1.00  0.00    -0.323 OA
HETATM    5  C6  UNL     1     -11.539  -5.173 -10.288  1.00  0.00     0.270 C 
HETATM    6  C7  UNL     1     -11.656  -3.715  -9.875  1.00  0.00     0.089 C 
HETATM    7  C8  UNL     1     -12.655  -3.233 -10.829  1.00  0.00     0.055 C 
HETATM    8  C9  UNL     1     -13.346  -1.974 -10.580  1.00  0.00     0.018 C 
HETATM    9  C10 UNL     1     -12.333  -0.793 -10.493  1.00  0.00     0.011 C 
HETATM   10  C11 UNL     1     -12.918   0.423 -11.174  1.00  0.00     0.012 C 
HETATM   11  C12 UNL     1     -12.169  -0.424  -9.033  1.00  0.00     0.124 C 
HETATM   12  C13 UNL     1     -11.117  -1.280  -8.399  1.00  0.00     0.073 C 
HETATM   13  C14 UNL     1     -11.636  -2.462  -7.667  1.00  0.00     0.094 C 
HETATM   14  C15 UNL     1     -12.815  -1.988  -6.811  1.00  0.00     0.049 C 
HETATM   15  O6  UNL     1     -10.665  -2.781  -6.682  1.00  0.00    -0.342 OA
HETATM   16  C16 UNL     1     -10.172  -4.004  -6.991  1.00  0.00     0.159 C 
HETATM   17  C17 UNL     1     -10.192  -4.908  -5.751  1.00  0.00     0.078 C 
HETATM   18  C18 UNL     1      -8.709  -3.821  -7.418  1.00  0.00     0.078 C 
HETATM   19  O7  UNL     1     -10.902  -4.600  -7.951  1.00  0.00    -0.342 OA
HETATM   20  C19 UNL     1     -11.892  -3.690  -8.423  1.00  0.00     0.101 C 
HETATM   21  C20 UNL     1     -13.199  -4.388  -8.021  1.00  0.00     0.050 C 
ENDROOT
BRANCH   1  22
HETATM   22  C2  UNL     1     -15.297  -5.939 -11.602  1.00  0.00     0.291 C 
HETATM   23  O2  UNL     1     -16.125  -6.167 -12.524  1.00  0.00    -0.260 OA
BRANCH  22  24
HETATM   24  O1  UNL     1     -14.858  -6.997 -10.834  1.00  0.00    -0.323 OA
HETATM   25  C1  UNL     1     -14.793  -8.283 -11.418  1.00  0.00     0.213 C 
ENDBRANCH  22  24
ENDBRANCH   1  22
BRANCH   5  26
HETATM   26  O4  UNL     1     -10.384  -5.416 -11.020  1.00  0.00    -0.370 OA
ATOM     27  H4  UNL     1      -9.657  -5.528 -10.418  1.00  0.00     0.212 HD
ENDBRANCH   5  26
BRANCH  11  28
HETATM   28  O5  UNL     1     -11.817   0.931  -8.961  1.00  0.00    -0.395 OA
ATOM     29  H5  UNL     1     -12.194   1.293  -8.168  1.00  0.00     0.210 HD
ENDBRANCH  11  28
TORSDOF 4
ENDMDL
MODEL 2
REMARK VINA RESULT: -7.522032457      1.981      6.391
REMARK  4 active torsions:
REMARK  status: ('A' for Active; 'I' for Inactive)
REMARK    1  A    between atoms: O1_2  and  C2_3 
REMARK    2  A    between atoms: C2_3  and  C3_5 
REMARK    3  A    between atoms: C6_9  and  O4_10 
REMARK    4  A    between atoms: C12_17  and  O5_18 
ROOT
HETATM    1  C3  UNL     1      -9.518  -3.112  -8.089  1.00  0.00     0.043 C 
HETATM    2  C4  UNL     1      -8.983  -4.459  -7.880  1.00  0.00     0.057 C 
HETATM    3  C5  UNL     1     -10.271  -2.729  -9.082  1.00  0.00     0.066 C 
HETATM    4  O3  UNL     1     -10.722  -1.373  -9.183  1.00  0.00    -0.323 OA
HETATM    5  C6  UNL     1     -11.890  -1.301  -9.921  1.00  0.00     0.270 C 
HETATM    6  C7  UNL     1     -12.171  -2.693 -10.463  1.00  0.00     0.089 C 
HETATM    7  C8  UNL     1     -10.870  -3.335 -10.274  1.00  0.00     0.055 C 
HETATM    8  C9  UNL     1     -10.766  -4.788 -10.323  1.00  0.00     0.018 C 
HETATM    9  C10 UNL     1     -11.238  -5.331 -11.705  1.00  0.00     0.011 C 
HETATM   10  C11 UNL     1     -10.336  -6.468 -12.133  1.00  0.00     0.012 C 
HETATM   11  C12 UNL     1     -12.619  -5.928 -11.527  1.00  0.00     0.124 C 
HETATM   12  C13 UNL     1     -13.663  -4.865 -11.669  1.00  0.00     0.073 C 
HETATM   13  C14 UNL     1     -14.142  -4.290 -10.387  1.00  0.00     0.094 C 
HETATM   14  C15 UNL     1     -14.406  -5.461  -9.433  1.00  0.00     0.049 C 
HETATM   15  O6  UNL     1     -15.455  -3.808 -10.631  1.00  0.00    -0.342 OA
HETATM   16  C16 UNL     1     -15.419  -2.463 -10.468  1.00  0.00     0.159 C 
HETATM   17  C17 UNL     1     -16.562  -2.015  -9.547  1.00  0.00     0.078 C 
HETATM   18  C18 UNL     1     -15.645  -1.823 -11.845  1.00  0.00     0.078 C 
HETATM   19  O7  UNL     1     -14.260  -2.065  -9.916  1.00  0.00    -0.342 OA
HETATM   20  C19 UNL     1     -13.387  -3.185  -9.796  1.00  0.00     0.101 C 
HETATM   21  C20 UNL     1     -13.220  -3.310  -8.274  1.00  0.00     0.050 C 
ENDROOT
BRANCH   1  22
HETATM   22  C2  UNL     1      -9.136  -2.098  -7.054  1.00  0.00     0.291 C 
HETATM   23  O2  UNL     1      -9.768  -2.042  -5.966  1.00  0.00    -0.260 OA
BRANCH  22  24
HETATM   24  O1  UNL     1      -8.101  -1.211  -7.263  1.00  0.00    -0.323 OA
HETATM   25  C1  UNL     1      -6.793  -1.589  -6.880  1.00  0.00     0.213 C 
ENDBRANCH  22  24
ENDBRANCH   1  22
BRANCH   5  26
HETATM   26  O4  UNL     1     -11.723  -0.369 -10.937  1.00  0.00    -0.370 OA
ATOM     27  H4  UNL     1     -12.143  -0.695 -11.724  1.00  0.00     0.212 HD
ENDBRANCH   5  26
BRANCH  11  28
HETATM   28  O5  UNL     1     -12.791  -6.927 -12.495  1.00  0.00    -0.395 OA
ATOM     29  H5  UNL     1     -13.153  -6.525 -13.276  1.00  0.00     0.210 HD
ENDBRANCH  11  28
TORSDOF 4
ENDMDL
MODEL 3
REMARK VINA RESULT: -7.455655506      1.967      3.966
REMARK  4 active torsions:
REMARK  status: ('A' for Active; 'I' for Inactive)
REMARK    1  A    between atoms: O1_2  and  C2_3 
REMARK    2  A    between atoms: C2_3  and  C3_5 
REMARK    3  A    between atoms: C6_9  and  O4_10 
REMARK    4  A    between atoms: C12_17  and  O5_18 
ROOT
HETATM    1  C3  UNL     1     -13.652  -6.358 -11.173  1.00  0.00     0.043 C 
HETATM    2  C4  UNL     1     -12.514  -6.767 -11.998  1.00  0.00     0.057 C 
HETATM    3  C5  UNL     1     -13.601  -5.593 -10.119  1.00  0.00     0.066 C 
HETATM    4  O3  UNL     1     -14.789  -5.274  -9.383  1.00  0.00    -0.323 OA
HETATM    5  C6  UNL     1     -14.636  -4.079  -8.703  1.00  0.00     0.270 C 
HETATM    6  C7  UNL     1     -13.196  -3.631  -8.891  1.00  0.00     0.089 C 
HETATM    7  C8  UNL     1     -12.576  -4.869  -9.362  1.00  0.00     0.055 C 
HETATM    8  C9  UNL     1     -11.273  -4.825 -10.013  1.00  0.00     0.018 C 
HETATM    9  C10 UNL     1     -10.197  -4.224  -9.059  1.00  0.00     0.011 C 
HETATM   10  C11 UNL     1      -8.899  -4.982  -9.224  1.00  0.00     0.012 C 
HETATM   11  C12 UNL     1      -9.919  -2.802  -9.502  1.00  0.00     0.124 C 
HETATM   12  C13 UNL     1     -10.900  -1.864  -8.872  1.00  0.00     0.073 C 
HETATM   13  C14 UNL     1     -12.064  -1.517  -9.725  1.00  0.00     0.094 C 
HETATM   14  C15 UNL     1     -11.525  -1.192 -11.123  1.00  0.00     0.049 C 
HETATM   15  O6  UNL     1     -12.520  -0.248  -9.283  1.00  0.00    -0.342 OA
HETATM   16  C16 UNL     1     -13.767  -0.427  -8.784  1.00  0.00     0.159 C 
HETATM   17  C17 UNL     1     -14.726   0.612  -9.381  1.00  0.00     0.078 C 
HETATM   18  C18 UNL     1     -13.699  -0.189  -7.269  1.00  0.00     0.078 C 
HETATM   19  O7  UNL     1     -14.243  -1.649  -9.077  1.00  0.00    -0.342 OA
HETATM   20  C19 UNL     1     -13.223  -2.412  -9.715  1.00  0.00     0.101 C 
HETATM   21  C20 UNL     1     -13.816  -2.651 -11.111  1.00  0.00     0.050 C 
ENDROOT
BRANCH   1  22
HETATM   22  C2  UNL     1     -14.984  -6.897 -11.597  1.00  0.00     0.291 C 
HETATM   23  O2  UNL     1     -15.711  -6.231 -12.381  1.00  0.00    -0.260 OA
BRANCH  22  24
HETATM   24  O1  UNL     1     -15.444  -8.117 -11.146  1.00  0.00    -0.323 OA
HETATM   25  C1  UNL     1     -14.591  -9.241 -11.232  1.00  0.00     0.213 C 
ENDBRANCH  22  24
ENDBRANCH   1  22
BRANCH   5  26
HETATM   26  O4  UNL     1     -14.949  -4.282  -7.365  1.00  0.00    -0.370 OA
ATOM     27  H4  UNL     1     -15.441  -3.533  -7.048  1.00  0.00     0.212 HD
ENDBRANCH   5  26
BRANCH  11  28
HETATM   28  O5  UNL     1      -8.608  -2.477  -9.129  1.00  0.00    -0.395 OA
ATOM     29  H5  UNL     1      -8.163  -2.122  -9.890  1.00  0.00     0.210 HD
ENDBRANCH  11  28
TORSDOF 4
ENDMDL
MODEL 4
REMARK VINA RESULT: -7.399458736      2.254      6.127
REMARK  4 active torsions:
REMARK  status: ('A' for Active; 'I' for Inactive)
REMARK    1  A    between atoms: O1_2  and  C2_3 
REMARK    2  A    between atoms: C2_3  and  C3_5 
REMARK    3  A    between atoms: C6_9  and  O4_10 
REMARK    4  A    between atoms: C12_17  and  O5_18 
ROOT
HETATM    1  C3  UNL     1     -10.117  -1.384  -6.586  1.00  0.00     0.043 C 
HETATM    2  C4  UNL     1     -11.067  -0.278  -6.456  1.00  0.00     0.057 C 
HETATM    3  C5  UNL     1     -10.418  -2.632  -6.813  1.00  0.00     0.066 C 
HETATM    4  O3  UNL     1      -9.394  -3.631  -6.906  1.00  0.00    -0.323 OA
HETATM    5  C6  UNL     1      -9.825  -4.702  -7.669  1.00  0.00     0.270 C 
HETATM    6  C7  UNL     1     -11.289  -4.463  -8.000  1.00  0.00     0.089 C 
HETATM    7  C8  UNL     1     -11.631  -3.425  -7.028  1.00  0.00     0.055 C 
HETATM    8  C9  UNL     1     -12.840  -2.632  -7.212  1.00  0.00     0.018 C 
HETATM    9  C10 UNL     1     -14.104  -3.542  -7.226  1.00  0.00     0.011 C 
HETATM   10  C11 UNL     1     -15.227  -2.855  -6.482  1.00  0.00     0.012 C 
HETATM   11  C12 UNL     1     -14.567  -3.678  -8.662  1.00  0.00     0.124 C 
HETATM   12  C13 UNL     1     -13.838  -4.800  -9.335  1.00  0.00     0.073 C 
HETATM   13  C14 UNL     1     -12.660  -4.384 -10.135  1.00  0.00     0.094 C 
HETATM   14  C15 UNL     1     -13.082  -3.171 -10.972  1.00  0.00     0.049 C 
HETATM   15  O6  UNL     1     -12.480  -5.380 -11.130  1.00  0.00    -0.342 OA
HETATM   16  C16 UNL     1     -11.286  -5.973 -10.886  1.00  0.00     0.159 C 
HETATM   17  C17 UNL     1     -10.455  -6.032 -12.175  1.00  0.00     0.078 C 
HETATM   18  C18 UNL     1     -11.567  -7.414 -10.440  1.00  0.00     0.078 C 
HETATM   19  O7  UNL     1     -10.579  -5.293  -9.966  1.00  0.00    -0.342 OA
HETATM   20  C19 UNL     1     -11.375  -4.230  -9.451  1.00  0.00     0.101 C 
HETATM   21  C20 UNL     1     -10.593  -2.987  -9.900  1.00  0.00     0.050 C 
ENDROOT
BRANCH   1  22
HETATM   22  C2  UNL     1      -8.673  -1.019  -6.426  1.00  0.00     0.291 C 
HETATM   23  O2  UNL     1      -8.248  -0.614  -5.311  1.00  0.00    -0.260 OA
BRANCH  22  24
HETATM   24  O1  UNL     1      -7.785  -1.112  -7.477  1.00  0.00    -0.323 OA
HETATM   25  C1  UNL     1      -6.429  -1.398  -7.200  1.00  0.00     0.213 C 
ENDBRANCH  22  24
ENDBRANCH   1  22
BRANCH   5  26
HETATM   26  O4  UNL     1      -9.638  -5.872  -6.943  1.00  0.00    -0.370 OA
ATOM     27  H4  UNL     1      -8.729  -5.922  -6.672  1.00  0.00     0.212 HD
ENDBRANCH   5  26
BRANCH  11  28
HETATM   28  O5  UNL     1     -15.948  -3.915  -8.655  1.00  0.00    -0.395 OA
ATOM     29  H5  UNL     1     -16.217  -4.125  -9.542  1.00  0.00     0.210 HD
ENDBRANCH  11  28
TORSDOF 4
ENDMDL
MODEL 5
REMARK VINA RESULT: -7.363764732      1.607      1.969
REMARK  4 active torsions:
REMARK  status: ('A' for Active; 'I' for Inactive)
REMARK    1  A    between atoms: O1_2  and  C2_3 
REMARK    2  A    between atoms: C2_3  and  C3_5 
REMARK    3  A    between atoms: C6_9  and  O4_10 
REMARK    4  A    between atoms: C12_17  and  O5_18 
ROOT
HETATM    1  C3  UNL     1     -13.851  -5.045 -11.424  1.00  0.00     0.043 C 
HETATM    2  C4  UNL     1     -14.898  -4.360 -12.184  1.00  0.00     0.057 C 
HETATM    3  C5  UNL     1     -12.988  -4.481 -10.626  1.00  0.00     0.066 C 
HETATM    4  O3  UNL     1     -11.996  -5.261  -9.945  1.00  0.00    -0.323 OA
HETATM    5  C6  UNL     1     -11.582  -4.623  -8.790  1.00  0.00     0.270 C 
HETATM    6  C7  UNL     1     -12.246  -3.256  -8.763  1.00  0.00     0.089 C 
HETATM    7  C8  UNL     1     -12.681  -3.128 -10.154  1.00  0.00     0.055 C 
HETATM    8  C9  UNL     1     -13.681  -2.130 -10.511  1.00  0.00     0.018 C 
HETATM    9  C10 UNL     1     -13.184  -0.696 -10.157  1.00  0.00     0.011 C 
HETATM   10  C11 UNL     1     -13.601   0.265 -11.247  1.00  0.00     0.012 C 
HETATM   11  C12 UNL     1     -13.902  -0.249  -8.900  1.00  0.00     0.124 C 
HETATM   12  C13 UNL     1     -13.166  -0.728  -7.687  1.00  0.00     0.073 C 
HETATM   13  C14 UNL     1     -13.686  -1.988  -7.101  1.00  0.00     0.094 C 
HETATM   14  C15 UNL     1     -15.213  -1.865  -7.036  1.00  0.00     0.049 C 
HETATM   15  O6  UNL     1     -13.331  -1.967  -5.727  1.00  0.00    -0.342 OA
HETATM   16  C16 UNL     1     -12.470  -2.994  -5.525  1.00  0.00     0.159 C 
HETATM   17  C17 UNL     1     -12.915  -3.822  -4.312  1.00  0.00     0.078 C 
HETATM   18  C18 UNL     1     -11.095  -2.390  -5.205  1.00  0.00     0.078 C 
HETATM   19  O7  UNL     1     -12.421  -3.811  -6.591  1.00  0.00    -0.342 OA
HETATM   20  C19 UNL     1     -13.204  -3.258  -7.646  1.00  0.00     0.101 C 
HETATM   21  C20 UNL     1     -14.313  -4.306  -7.816  1.00  0.00     0.050 C 
ENDROOT
BRANCH   1  22
HETATM   22  C2  UNL     1     -13.782  -6.529 -11.611  1.00  0.00     0.291 C 
HETATM   23  O2  UNL     1     -12.854  -7.034 -12.297  1.00  0.00    -0.260 OA
BRANCH  22  24
HETATM   24  O1  UNL     1     -14.719  -7.371 -11.048  1.00  0.00    -0.323 OA
HETATM   25  C1  UNL     1     -14.665  -8.751 -11.352  1.00  0.00     0.213 C 
ENDBRANCH  22  24
ENDBRANCH   1  22
BRANCH   5  26
HETATM   26  O4  UNL     1     -10.196  -4.529  -8.803  1.00  0.00    -0.370 OA
ATOM     27  H4  UNL     1      -9.944  -3.789  -9.344  1.00  0.00     0.212 HD
ENDBRANCH   5  26
BRANCH  11  28
HETATM   28  O5  UNL     1     -13.980   1.150  -8.915  1.00  0.00    -0.395 OA
ATOM     29  H5  UNL     1     -14.440   1.430  -8.132  1.00  0.00     0.210 HD
ENDBRANCH  11  28
TORSDOF 4
ENDMDL
