MODEL 1
REMARK VINA RESULT: -8.755697085      0.000      0.000
REMARK  5 active torsions:
REMARK  status: ('A' for Active; 'I' for Inactive)
REMARK    1  A    between atoms: S1_2  and  N1_4 
REMARK    2  A    between atoms: S1_2  and  C9_14 
REMARK    3  A    between atoms: N1_4  and  C1_6 
REMARK    4  A    between atoms: C1_6  and  C2_7 
REMARK    5  A    between atoms: C2_7  and  C3_8 
ROOT
HETATM    1  O1  UNL     1       9.190  10.418   4.265  1.00  0.00    -0.201 OA
HETATM    2  S1  UNL     1       9.156  11.489   5.345  1.00  0.00     0.258 S 
HETATM    3  O2  UNL     1       9.678  12.765   4.493  1.00  0.00    -0.201 OA
ENDROOT
BRANCH   2   4
HETATM    4  N1  UNL     1       7.518  11.864   5.593  1.00  0.00    -0.315 N 
ATOM      5  H1  UNL     1       6.863  12.127   4.857  1.00  0.00     0.172 HD
BRANCH   4   6
HETATM    6  C1  UNL     1       7.195  11.761   6.955  1.00  0.00     0.137 C 
BRANCH   6   7
HETATM    7  C2  UNL     1       5.738  12.218   6.995  1.00  0.00     0.058 C 
BRANCH   7   8
HETATM    8  C3  UNL     1       4.819  11.121   7.429  1.00  0.00    -0.057 A 
HETATM    9  C4  UNL     1       3.940  11.467   8.440  1.00  0.00     0.007 A 
HETATM   10  C5  UNL     1       3.293  10.484   9.190  1.00  0.00     0.001 A 
HETATM   11  C6  UNL     1       3.490   9.162   8.903  1.00  0.00     0.000 A 
HETATM   12  C7  UNL     1       4.295   8.789   7.878  1.00  0.00     0.001 A 
HETATM   13  C8  UNL     1       4.961   9.777   7.175  1.00  0.00     0.007 A 
ENDBRANCH   7   8
ENDBRANCH   6   7
ENDBRANCH   4   6
ENDBRANCH   2   4
BRANCH   2  14
HETATM   14  C9  UNL     1      10.376  11.134   6.467  1.00  0.00     0.082 A 
HETATM   15  C10 UNL     1      11.527  11.787   6.369  1.00  0.00     0.042 A 
HETATM   16  C11 UNL     1      12.573  11.606   7.268  1.00  0.00     0.089 A 
HETATM   17  N2  UNL     1      12.319  10.661   8.202  1.00  0.00    -0.375 N 
HETATM   18  C12 UNL     1      11.193   9.941   8.280  1.00  0.00     0.089 A 
ATOM     19  H2  UNL     1      13.041  10.484   8.901  1.00  0.00     0.164 HD
HETATM   20  C13 UNL     1      10.160  10.172   7.373  1.00  0.00     0.042 A 
ENDBRANCH   2  14
TORSDOF 5
ENDMDL
MODEL 2
REMARK VINA RESULT: -8.719070612      0.725      1.340
REMARK  5 active torsions:
REMARK  status: ('A' for Active; 'I' for Inactive)
REMARK    1  A    between atoms: S1_2  and  N1_4 
REMARK    2  A    between atoms: S1_2  and  C9_14 
REMARK    3  A    between atoms: N1_4  and  C1_6 
REMARK    4  A    between atoms: C1_6  and  C2_7 
REMARK    5  A    between atoms: C2_7  and  C3_8 
ROOT
HETATM    1  O1  UNL     1       9.233  10.454   4.496  1.00  0.00    -0.201 OA
HETATM    2  S1  UNL     1       8.993  11.370   5.687  1.00  0.00     0.258 S 
HETATM    3  O2  UNL     1       9.764  12.702   5.179  1.00  0.00    -0.201 OA
ENDROOT
BRANCH   2   4
HETATM    4  N1  UNL     1       7.363  11.842   5.604  1.00  0.00    -0.315 N 
ATOM      5  H1  UNL     1       6.803  11.857   4.752  1.00  0.00     0.172 HD
BRANCH   4   6
HETATM    6  C1  UNL     1       6.896  12.207   6.876  1.00  0.00     0.137 C 
BRANCH   6   7
HETATM    7  C2  UNL     1       5.380  12.078   6.732  1.00  0.00     0.058 C 
BRANCH   7   8
HETATM    8  C3  UNL     1       4.815  11.059   7.667  1.00  0.00    -0.057 A 
HETATM    9  C4  UNL     1       5.051   9.744   7.304  1.00  0.00     0.007 A 
HETATM   10  C5  UNL     1       4.297   8.706   7.851  1.00  0.00     0.001 A 
HETATM   11  C6  UNL     1       3.340   8.974   8.790  1.00  0.00     0.000 A 
HETATM   12  C7  UNL     1       3.126  10.244   9.215  1.00  0.00     0.001 A 
HETATM   13  C8  UNL     1       3.854  11.263   8.629  1.00  0.00     0.007 A 
ENDBRANCH   7   8
ENDBRANCH   6   7
ENDBRANCH   4   6
ENDBRANCH   2   4
BRANCH   2  14
HETATM   14  C9  UNL     1       9.890  10.770   6.994  1.00  0.00     0.082 A 
HETATM   15  C10 UNL     1      11.161  11.135   7.102  1.00  0.00     0.042 A 
HETATM   16  C11 UNL     1      11.969  10.738   8.162  1.00  0.00     0.089 A 
HETATM   17  N2  UNL     1      11.348   9.902   9.026  1.00  0.00    -0.375 N 
HETATM   18  C12 UNL     1      10.089   9.466   8.901  1.00  0.00     0.089 A 
ATOM     19  H2  UNL     1      11.880   9.580   9.834  1.00  0.00     0.164 HD
HETATM   20  C13 UNL     1       9.306   9.908   7.836  1.00  0.00     0.042 A 
ENDBRANCH   2  14
TORSDOF 5
ENDMDL
MODEL 3
REMARK VINA RESULT: -8.699049675      0.148      1.123
REMARK  5 active torsions:
REMARK  status: ('A' for Active; 'I' for Inactive)
REMARK    1  A    between atoms: S1_2  and  N1_4 
REMARK    2  A    between atoms: S1_2  and  C9_14 
REMARK    3  A    between atoms: N1_4  and  C1_6 
REMARK    4  A    between atoms: C1_6  and  C2_7 
REMARK    5  A    between atoms: C2_7  and  C3_8 
ROOT
HETATM    1  O1  UNL     1       9.141  10.424   4.322  1.00  0.00    -0.201 OA
HETATM    2  S1  UNL     1       9.099  11.501   5.397  1.00  0.00     0.258 S 
HETATM    3  O2  UNL     1       9.642  12.770   4.547  1.00  0.00    -0.201 OA
ENDROOT
BRANCH   2   4
HETATM    4  N1  UNL     1       7.460  11.889   5.618  1.00  0.00    -0.315 N 
ATOM      5  H1  UNL     1       6.811  12.129   4.869  1.00  0.00     0.172 HD
BRANCH   4   6
HETATM    6  C1  UNL     1       7.126  11.833   6.980  1.00  0.00     0.137 C 
BRANCH   6   7
HETATM    7  C2  UNL     1       5.650  12.227   6.985  1.00  0.00     0.058 C 
BRANCH   7   8
HETATM    8  C3  UNL     1       4.771  11.099   7.422  1.00  0.00    -0.057 A 
HETATM    9  C4  UNL     1       3.902  11.408   8.454  1.00  0.00     0.007 A 
HETATM   10  C5  UNL     1       3.298  10.397   9.203  1.00  0.00     0.001 A 
HETATM   11  C6  UNL     1       3.526   9.085   8.897  1.00  0.00     0.000 A 
HETATM   12  C7  UNL     1       4.322   8.748   7.852  1.00  0.00     0.001 A 
HETATM   13  C8  UNL     1       4.945   9.763   7.149  1.00  0.00     0.007 A 
ENDBRANCH   7   8
ENDBRANCH   6   7
ENDBRANCH   4   6
ENDBRANCH   2   4
BRANCH   2  14
HETATM   14  C9  UNL     1      10.299  11.142   6.538  1.00  0.00     0.082 A 
HETATM   15  C10 UNL     1      10.010  10.277   7.502  1.00  0.00     0.042 A 
HETATM   16  C11 UNL     1      10.937   9.878   8.457  1.00  0.00     0.089 A 
HETATM   17  N2  UNL     1      12.131  10.505   8.340  1.00  0.00    -0.375 N 
HETATM   18  C12 UNL     1      12.425  11.431   7.419  1.00  0.00     0.089 A 
ATOM     19  H2  UNL     1      12.863  10.251   9.004  1.00  0.00     0.164 HD
HETATM   20  C13 UNL     1      11.472  11.784   6.465  1.00  0.00     0.042 A 
ENDBRANCH   2  14
TORSDOF 5
ENDMDL
MODEL 4
REMARK VINA RESULT: -8.603313480      0.225      1.582
REMARK  5 active torsions:
REMARK  status: ('A' for Active; 'I' for Inactive)
REMARK    1  A    between atoms: S1_2  and  N1_4 
REMARK    2  A    between atoms: S1_2  and  C9_14 
REMARK    3  A    between atoms: N1_4  and  C1_6 
REMARK    4  A    between atoms: C1_6  and  C2_7 
REMARK    5  A    between atoms: C2_7  and  C3_8 
ROOT
HETATM    1  O1  UNL     1       9.229  10.431   4.209  1.00  0.00    -0.201 OA
HETATM    2  S1  UNL     1       9.197  11.527   5.265  1.00  0.00     0.258 S 
HETATM    3  O2  UNL     1       9.673  12.793   4.372  1.00  0.00    -0.201 OA
ENDROOT
BRANCH   2   4
HETATM    4  N1  UNL     1       7.557  11.874   5.541  1.00  0.00    -0.315 N 
ATOM      5  H1  UNL     1       6.875  12.081   4.812  1.00  0.00     0.172 HD
BRANCH   4   6
HETATM    6  C1  UNL     1       7.275  11.836   6.915  1.00  0.00     0.137 C 
BRANCH   6   7
HETATM    7  C2  UNL     1       5.776  12.125   6.964  1.00  0.00     0.058 C 
BRANCH   7   8
HETATM    8  C3  UNL     1       5.034  11.099   7.759  1.00  0.00    -0.057 A 
HETATM    9  C4  UNL     1       5.326   9.787   7.429  1.00  0.00     0.007 A 
HETATM   10  C5  UNL     1       4.472   8.750   7.808  1.00  0.00     0.001 A 
HETATM   11  C6  UNL     1       3.356   9.017   8.550  1.00  0.00     0.000 A 
HETATM   12  C7  UNL     1       3.075  10.283   8.945  1.00  0.00     0.001 A 
HETATM   13  C8  UNL     1       3.910  11.302   8.523  1.00  0.00     0.007 A 
ENDBRANCH   7   8
ENDBRANCH   6   7
ENDBRANCH   4   6
ENDBRANCH   2   4
BRANCH   2  14
HETATM   14  C9  UNL     1      10.449  11.224   6.367  1.00  0.00     0.082 A 
HETATM   15  C10 UNL     1      10.248  10.308   7.306  1.00  0.00     0.042 A 
HETATM   16  C11 UNL     1      11.227   9.950   8.227  1.00  0.00     0.089 A 
HETATM   17  N2  UNL     1      12.367  10.669   8.105  1.00  0.00    -0.375 N 
HETATM   18  C12 UNL     1      12.567  11.644   7.211  1.00  0.00     0.089 A 
ATOM     19  H2  UNL     1      13.131  10.451   8.744  1.00  0.00     0.164 HD
HETATM   20  C13 UNL     1      11.568  11.954   6.290  1.00  0.00     0.042 A 
ENDBRANCH   2  14
TORSDOF 5
ENDMDL
MODEL 5
REMARK VINA RESULT: -8.588115975      4.251      7.574
REMARK  5 active torsions:
REMARK  status: ('A' for Active; 'I' for Inactive)
REMARK    1  A    between atoms: S1_2  and  N1_4 
REMARK    2  A    between atoms: S1_2  and  C9_14 
REMARK    3  A    between atoms: N1_4  and  C1_6 
REMARK    4  A    between atoms: C1_6  and  C2_7 
REMARK    5  A    between atoms: C2_7  and  C3_8 
ROOT
HETATM    1  O1  UNL     1       3.184  10.259   9.188  1.00  0.00    -0.201 OA
HETATM    2  S1  UNL     1       3.398   9.217   8.099  1.00  0.00     0.258 S 
HETATM    3  O2  UNL     1       2.406   9.795   6.956  1.00  0.00    -0.201 OA
ENDROOT
BRANCH   2   4
HETATM    4  N1  UNL     1       4.932   9.528   7.438  1.00  0.00    -0.315 N 
ATOM      5  H1  UNL     1       5.246   9.212   6.521  1.00  0.00     0.172 HD
BRANCH   4   6
HETATM    6  C1  UNL     1       5.705  10.281   8.334  1.00  0.00     0.137 C 
BRANCH   6   7
HETATM    7  C2  UNL     1       6.675  11.018   7.412  1.00  0.00     0.058 C 
BRANCH   7   8
HETATM    8  C3  UNL     1       8.005  10.340   7.342  1.00  0.00    -0.057 A 
HETATM    9  C4  UNL     1       8.355   9.631   8.478  1.00  0.00     0.007 A 
HETATM   10  C5  UNL     1       9.681   9.262   8.708  1.00  0.00     0.001 A 
HETATM   11  C6  UNL     1      10.646   9.562   7.788  1.00  0.00     0.000 A 
HETATM   12  C7  UNL     1      10.327  10.199   6.635  1.00  0.00     0.001 A 
HETATM   13  C8  UNL     1       9.015  10.594   6.445  1.00  0.00     0.007 A 
ENDBRANCH   7   8
ENDBRANCH   6   7
ENDBRANCH   4   6
ENDBRANCH   2   4
BRANCH   2  14
HETATM   14  C9  UNL     1       2.714   7.760   8.632  1.00  0.00     0.082 A 
HETATM   15  C10 UNL     1       3.531   6.784   9.005  1.00  0.00     0.042 A 
HETATM   16  C11 UNL     1       3.073   5.569   9.504  1.00  0.00     0.089 A 
HETATM   17  N2  UNL     1       1.724   5.467   9.508  1.00  0.00    -0.375 N 
HETATM   18  C12 UNL     1       0.880   6.411   9.072  1.00  0.00     0.089 A 
ATOM     19  H2  UNL     1       1.318   4.604   9.870  1.00  0.00     0.164 HD
HETATM   20  C13 UNL     1       1.383   7.624   8.603  1.00  0.00     0.042 A 
ENDBRANCH   2  14
TORSDOF 5
ENDMDL
