MODEL 1
REMARK VINA RESULT: -6.731866577      0.000      0.000
REMARK  6 active torsions:
REMARK  status: ('A' for Active; 'I' for Inactive)
REMARK    1  A    between atoms: C5_5  and  C6_6 
REMARK    2  A    between atoms: C6_6  and  C7_7 
REMARK    3  A    between atoms: C8_8  and  O1_9 
REMARK    4  A    between atoms: C11_12  and  O2_13 
REMARK    5  A    between atoms: C14_16  and  O3_17 
REMARK    6  A    between atoms: O3_17  and  C15_18 
ROOT
HETATM    1  C7  UNL     1       8.732  11.222   6.228  1.00  0.00     0.033 A 
HETATM    2  C8  UNL     1       9.555  11.863   5.295  1.00  0.00     0.084 A 
HETATM    3  C10 UNL     1      10.813  12.289   5.675  1.00  0.00     0.074 A 
HETATM    4  C11 UNL     1      11.243  12.077   6.972  1.00  0.00     0.073 A 
HETATM    5  C13 UNL     1      10.409  11.442   7.872  1.00  0.00     0.074 A 
HETATM    6  C14 UNL     1       9.137  11.000   7.525  1.00  0.00     0.084 A 
ENDROOT
BRANCH   1   7
HETATM    7  C6  UNL     1       7.399  10.761   5.861  1.00  0.00     0.046 C 
BRANCH   7   8
HETATM    8  C5  UNL     1       6.366  11.064   6.662  1.00  0.00     0.033 A 
HETATM    9  C4  UNL     1       5.795  12.305   6.853  1.00  0.00     0.031 A 
HETATM   10  C3  UNL     1       4.765  12.155   7.756  1.00  0.00     0.031 A 
HETATM   11  C2  UNL     1       4.702  10.813   8.122  1.00  0.00     0.023 A 
HETATM   12  C1  UNL     1       3.848  10.276   8.968  1.00  0.00     0.043 C 
HETATM   13  N1  UNL     1       5.689  10.203   7.433  1.00  0.00    -0.357 N 
ATOM     14  H1  UNL     1       5.895   9.206   7.493  1.00  0.00     0.166 HD
ENDBRANCH   7   8
ENDBRANCH   1   7
BRANCH   2  15
HETATM   15  O1  UNL     1       9.036  12.028   4.027  1.00  0.00    -0.355 OA
HETATM   16  C9  UNL     1       9.491  12.950   3.084  1.00  0.00     0.210 C 
ENDBRANCH   2  15
BRANCH   6  17
HETATM   17  O3  UNL     1       8.297  10.362   8.428  1.00  0.00    -0.350 OA
BRANCH  17  18
HETATM   18  C15 UNL     1       8.869   9.351   9.242  1.00  0.00     0.171 C 
HETATM   19  C16 UNL     1       9.738   8.416   8.446  1.00  0.00     0.034 C 
ENDBRANCH  17  18
ENDBRANCH   6  17
BRANCH   4  20
HETATM   20  O2  UNL     1      12.511  12.512   7.335  1.00  0.00    -0.356 OA
HETATM   21  C12 UNL     1      13.630  11.651   7.360  1.00  0.00     0.210 C 
ENDBRANCH   4  20
TORSDOF 6
ENDMDL
MODEL 2
REMARK VINA RESULT: -6.583357939      0.516      3.407
REMARK  6 active torsions:
REMARK  status: ('A' for Active; 'I' for Inactive)
REMARK    1  A    between atoms: C5_5  and  C6_6 
REMARK    2  A    between atoms: C6_6  and  C7_7 
REMARK    3  A    between atoms: C8_8  and  O1_9 
REMARK    4  A    between atoms: C11_12  and  O2_13 
REMARK    5  A    between atoms: C14_16  and  O3_17 
REMARK    6  A    between atoms: O3_17  and  C15_18 
ROOT
HETATM    1  C7  UNL     1       8.916  10.976   6.371  1.00  0.00     0.033 A 
HETATM    2  C8  UNL     1       9.562  10.467   7.504  1.00  0.00     0.084 A 
HETATM    3  C10 UNL     1      10.818  10.934   7.841  1.00  0.00     0.074 A 
HETATM    4  C11 UNL     1      11.421  11.899   7.054  1.00  0.00     0.073 A 
HETATM    5  C13 UNL     1      10.760  12.382   5.942  1.00  0.00     0.074 A 
HETATM    6  C14 UNL     1       9.496  11.936   5.573  1.00  0.00     0.084 A 
ENDROOT
BRANCH   1   7
HETATM    7  C6  UNL     1       7.592  10.505   5.988  1.00  0.00     0.046 C 
BRANCH   7   8
HETATM    8  C5  UNL     1       6.536  10.866   6.734  1.00  0.00     0.033 A 
HETATM    9  C4  UNL     1       5.920  12.099   6.765  1.00  0.00     0.031 A 
HETATM   10  C3  UNL     1       4.881  12.024   7.667  1.00  0.00     0.031 A 
HETATM   11  C2  UNL     1       4.858  10.735   8.194  1.00  0.00     0.023 A 
HETATM   12  C1  UNL     1       4.009  10.275   9.089  1.00  0.00     0.043 C 
HETATM   13  N1  UNL     1       5.876  10.081   7.596  1.00  0.00    -0.357 N 
ATOM     14  H1  UNL     1       6.115   9.107   7.780  1.00  0.00     0.166 HD
ENDBRANCH   7   8
ENDBRANCH   1   7
BRANCH   2  15
HETATM   15  O1  UNL     1       8.879   9.509   8.224  1.00  0.00    -0.355 OA
HETATM   16  C9  UNL     1       9.381   8.821   9.329  1.00  0.00     0.210 C 
ENDBRANCH   2  15
BRANCH   6  17
HETATM   17  O3  UNL     1       8.830  12.421   4.456  1.00  0.00    -0.350 OA
BRANCH  17  18
HETATM   18  C15 UNL     1       9.500  12.326   3.209  1.00  0.00     0.171 C 
HETATM   19  C16 UNL     1       9.620  13.666   2.534  1.00  0.00     0.034 C 
ENDBRANCH  17  18
ENDBRANCH   6  17
BRANCH   4  20
HETATM   20  O2  UNL     1      12.683  12.356   7.409  1.00  0.00    -0.356 OA
HETATM   21  C12 UNL     1      13.819  11.518   7.416  1.00  0.00     0.210 C 
ENDBRANCH   4  20
TORSDOF 6
ENDMDL
MODEL 3
REMARK VINA RESULT: -5.912607127      1.336      1.740
REMARK  6 active torsions:
REMARK  status: ('A' for Active; 'I' for Inactive)
REMARK    1  A    between atoms: C5_5  and  C6_6 
REMARK    2  A    between atoms: C6_6  and  C7_7 
REMARK    3  A    between atoms: C8_8  and  O1_9 
REMARK    4  A    between atoms: C11_12  and  O2_13 
REMARK    5  A    between atoms: C14_16  and  O3_17 
REMARK    6  A    between atoms: O3_17  and  C15_18 
ROOT
HETATM    1  C7  UNL     1       9.896  10.865   6.030  1.00  0.00     0.033 A 
HETATM    2  C8  UNL     1      10.294  12.073   5.444  1.00  0.00     0.084 A 
HETATM    3  C10 UNL     1      11.527  12.610   5.759  1.00  0.00     0.074 A 
HETATM    4  C11 UNL     1      12.353  11.947   6.649  1.00  0.00     0.073 A 
HETATM    5  C13 UNL     1      11.934  10.758   7.212  1.00  0.00     0.074 A 
HETATM    6  C14 UNL     1      10.700  10.188   6.918  1.00  0.00     0.084 A 
ENDROOT
BRANCH   1   7
HETATM    7  C6  UNL     1       8.602  10.272   5.720  1.00  0.00     0.046 C 
BRANCH   7   8
HETATM    8  C5  UNL     1       7.525  10.672   6.412  1.00  0.00     0.033 A 
HETATM    9  C4  UNL     1       6.914  10.014   7.458  1.00  0.00     0.031 A 
HETATM   10  C3  UNL     1       5.847  10.783   7.870  1.00  0.00     0.031 A 
HETATM   11  C2  UNL     1       5.802  11.923   7.071  1.00  0.00     0.023 A 
HETATM   12  C1  UNL     1       4.923  12.899   7.157  1.00  0.00     0.043 C 
HETATM   13  N1  UNL     1       6.835  11.803   6.211  1.00  0.00    -0.357 N 
ATOM     14  H1  UNL     1       7.064  12.492   5.494  1.00  0.00     0.166 HD
ENDBRANCH   7   8
ENDBRANCH   1   7
BRANCH   2  15
HETATM   15  O1  UNL     1       9.401  12.657   4.570  1.00  0.00    -0.355 OA
HETATM   16  C9  UNL     1       9.601  12.813   3.198  1.00  0.00     0.210 C 
ENDBRANCH   2  15
BRANCH   6  17
HETATM   17  O3  UNL     1      10.278   8.992   7.482  1.00  0.00    -0.350 OA
BRANCH  17  18
HETATM   18  C15 UNL     1       9.930   9.010   8.857  1.00  0.00     0.171 C 
HETATM   19  C16 UNL     1       9.865  10.412   9.400  1.00  0.00     0.034 C 
ENDBRANCH  17  18
ENDBRANCH   6  17
BRANCH   4  20
HETATM   20  O2  UNL     1      13.589  12.503   6.953  1.00  0.00    -0.356 OA
HETATM   21  C12 UNL     1      14.429  11.979   7.960  1.00  0.00     0.210 C 
ENDBRANCH   4  20
TORSDOF 6
ENDMDL
MODEL 4
REMARK VINA RESULT: -5.786838114      1.303      3.643
REMARK  6 active torsions:
REMARK  status: ('A' for Active; 'I' for Inactive)
REMARK    1  A    between atoms: C5_5  and  C6_6 
REMARK    2  A    between atoms: C6_6  and  C7_7 
REMARK    3  A    between atoms: C8_8  and  O1_9 
REMARK    4  A    between atoms: C11_12  and  O2_13 
REMARK    5  A    between atoms: C14_16  and  O3_17 
REMARK    6  A    between atoms: O3_17  and  C15_18 
ROOT
HETATM    1  C7  UNL     1       9.926  10.813   6.332  1.00  0.00     0.033 A 
HETATM    2  C8  UNL     1      10.778  10.198   7.257  1.00  0.00     0.084 A 
HETATM    3  C10 UNL     1      11.989  10.785   7.565  1.00  0.00     0.074 A 
HETATM    4  C11 UNL     1      12.345  11.975   6.955  1.00  0.00     0.073 A 
HETATM    5  C13 UNL     1      11.485  12.559   6.046  1.00  0.00     0.074 A 
HETATM    6  C14 UNL     1      10.259  11.996   5.712  1.00  0.00     0.084 A 
ENDROOT
BRANCH   1   7
HETATM    7  C6  UNL     1       8.642  10.218   5.984  1.00  0.00     0.046 C 
BRANCH   7   8
HETATM    8  C5  UNL     1       7.538  10.650   6.613  1.00  0.00     0.033 A 
HETATM    9  C4  UNL     1       6.910  10.066   7.692  1.00  0.00     0.031 A 
HETATM   10  C3  UNL     1       5.818  10.843   8.011  1.00  0.00     0.031 A 
HETATM   11  C2  UNL     1       5.774  11.914   7.120  1.00  0.00     0.023 A 
HETATM   12  C1  UNL     1       4.875  12.874   7.103  1.00  0.00     0.043 C 
HETATM   13  N1  UNL     1       6.834  11.747   6.302  1.00  0.00    -0.357 N 
ATOM     14  H1  UNL     1       7.069  12.379   5.537  1.00  0.00     0.166 HD
ENDBRANCH   7   8
ENDBRANCH   1   7
BRANCH   2  15
HETATM   15  O1  UNL     1      10.334   9.014   7.811  1.00  0.00    -0.355 OA
HETATM   16  C9  UNL     1       9.786   8.877   9.086  1.00  0.00     0.210 C 
ENDBRANCH   2  15
BRANCH   6  17
HETATM   17  O3  UNL     1       9.393  12.582   4.798  1.00  0.00    -0.350 OA
BRANCH  17  18
HETATM   18  C15 UNL     1       9.600  12.288   3.427  1.00  0.00     0.171 C 
HETATM   19  C16 UNL     1       9.535  13.525   2.573  1.00  0.00     0.034 C 
ENDBRANCH  17  18
ENDBRANCH   6  17
BRANCH   4  20
HETATM   20  O2  UNL     1      13.567  12.552   7.278  1.00  0.00    -0.356 OA
HETATM   21  C12 UNL     1      14.571  11.854   7.984  1.00  0.00     0.210 C 
ENDBRANCH   4  20
TORSDOF 6
ENDMDL
MODEL 5
REMARK VINA RESULT: -5.667795290      1.029      1.258
REMARK  6 active torsions:
REMARK  status: ('A' for Active; 'I' for Inactive)
REMARK    1  A    between atoms: C5_5  and  C6_6 
REMARK    2  A    between atoms: C6_6  and  C7_7 
REMARK    3  A    between atoms: C8_8  and  O1_9 
REMARK    4  A    between atoms: C11_12  and  O2_13 
REMARK    5  A    between atoms: C14_16  and  O3_17 
REMARK    6  A    between atoms: O3_17  and  C15_18 
ROOT
HETATM    1  C7  UNL     1       9.167  11.883   6.846  1.00  0.00     0.033 A 
HETATM    2  C8  UNL     1      10.081  12.219   5.840  1.00  0.00     0.084 A 
HETATM    3  C10 UNL     1      11.418  11.914   6.004  1.00  0.00     0.074 A 
HETATM    4  C11 UNL     1      11.837  11.280   7.161  1.00  0.00     0.073 A 
HETATM    5  C13 UNL     1      10.913  10.961   8.136  1.00  0.00     0.074 A 
HETATM    6  C14 UNL     1       9.559  11.253   8.005  1.00  0.00     0.084 A 
ENDROOT
BRANCH   1   7
HETATM    7  C6  UNL     1       7.750  12.191   6.705  1.00  0.00     0.046 C 
BRANCH   7   8
HETATM    8  C5  UNL     1       6.848  11.244   7.009  1.00  0.00     0.033 A 
HETATM    9  C4  UNL     1       6.677  10.025   6.389  1.00  0.00     0.031 A 
HETATM   10  C3  UNL     1       5.642   9.374   7.024  1.00  0.00     0.031 A 
HETATM   11  C2  UNL     1       5.174  10.200   8.044  1.00  0.00     0.023 A 
HETATM   12  C1  UNL     1       4.190   9.929   8.874  1.00  0.00     0.043 C 
HETATM   13  N1  UNL     1       5.937  11.312   7.988  1.00  0.00    -0.357 N 
ATOM     14  H1  UNL     1       5.831  12.108   8.617  1.00  0.00     0.166 HD
ENDBRANCH   7   8
ENDBRANCH   1   7
BRANCH   2  15
HETATM   15  O1  UNL     1       9.566  12.848   4.725  1.00  0.00    -0.355 OA
HETATM   16  C9  UNL     1       9.531  12.308   3.439  1.00  0.00     0.210 C 
ENDBRANCH   2  15
BRANCH   6  17
HETATM   17  O3  UNL     1       8.629  10.932   8.985  1.00  0.00    -0.350 OA
BRANCH  17  18
HETATM   18  C15 UNL     1       8.668   9.616   9.510  1.00  0.00     0.171 C 
HETATM   19  C16 UNL     1       9.358   8.660   8.575  1.00  0.00     0.034 C 
ENDBRANCH  17  18
ENDBRANCH   6  17
BRANCH   4  20
HETATM   20  O2  UNL     1      13.185  10.982   7.307  1.00  0.00    -0.356 OA
HETATM   21  C12 UNL     1      14.156  11.972   7.571  1.00  0.00     0.210 C 
ENDBRANCH   4  20
TORSDOF 6
ENDMDL
