MODEL 1
REMARK VINA RESULT: -6.752636060      0.000      0.000
REMARK  6 active torsions:
REMARK  status: ('A' for Active; 'I' for Inactive)
REMARK    1  A    between atoms: C2_2  and  C3_3 
REMARK    2  A    between atoms: C3_3  and  C4_4 
REMARK       I    between atoms: C4_4  and  N1_6 
REMARK    3  A    between atoms: N1_6  and  C5_8 
REMARK    4  A    between atoms: C8_12  and  C9_13 
REMARK    5  A    between atoms: C9_13  and  O3_15 
REMARK    6  A    between atoms: O3_15  and  C10_16 
ROOT
HETATM    1  C5  UNL     1     -31.771  25.141  18.764  1.00  0.00     0.094 A 
HETATM    2  S1  UNL     1     -32.853  23.791  19.144  1.00  0.00    -0.075 SA
HETATM    3  C6  UNL     1     -32.677  23.742  20.802  1.00  0.00    -0.008 A 
HETATM    4  C7  UNL     1     -31.790  24.750  21.066  1.00  0.00    -0.026 A 
HETATM    5  C8  UNL     1     -31.317  25.466  20.008  1.00  0.00     0.080 A 
HETATM    6  C12 UNL     1     -31.538  24.869  22.553  1.00  0.00     0.041 C 
HETATM    7  C13 UNL     1     -32.850  24.932  23.315  1.00  0.00     0.005 C 
HETATM    8  C14 UNL     1     -33.867  23.934  22.892  1.00  0.00     0.005 C 
HETATM    9  C15 UNL     1     -33.184  22.942  21.982  1.00  0.00     0.047 C 
ENDROOT
BRANCH   1  10
HETATM   10  N1  UNL     1     -31.583  25.560  17.432  1.00  0.00    -0.320 N 
HETATM   11  C4  UNL     1     -30.491  25.768  16.620  1.00  0.00     0.222 C 
HETATM   12  O1  UNL     1     -29.307  25.650  16.986  1.00  0.00    -0.273 OA
ATOM     13  H1  UNL     1     -32.463  25.755  16.957  1.00  0.00     0.169 HD
BRANCH  11  14
HETATM   14  C3  UNL     1     -30.690  26.174  15.165  1.00  0.00     0.103 C 
BRANCH  14  15
HETATM   15  C2  UNL     1     -29.585  27.059  14.704  1.00  0.00     0.005 C 
HETATM   16  C1  UNL     1     -29.160  26.729  13.297  1.00  0.00     0.005 C 
ENDBRANCH  14  15
ENDBRANCH  11  14
ENDBRANCH   1  10
BRANCH   5  17
HETATM   17  C9  UNL     1     -30.126  26.360  20.154  1.00  0.00     0.296 C 
HETATM   18  O2  UNL     1     -28.998  25.830  20.225  1.00  0.00    -0.259 OA
BRANCH  17  19
HETATM   19  O3  UNL     1     -30.140  27.714  20.200  1.00  0.00    -0.318 OA
BRANCH  19  20
HETATM   20  C10 UNL     1     -30.920  28.554  19.377  1.00  0.00     0.174 C 
HETATM   21  C11 UNL     1     -30.251  28.862  18.065  1.00  0.00     0.034 C 
ENDBRANCH  19  20
ENDBRANCH  17  19
ENDBRANCH   5  17
TORSDOF 6
ENDMDL
MODEL 2
REMARK VINA RESULT: -6.387323385      1.385      1.750
REMARK  6 active torsions:
REMARK  status: ('A' for Active; 'I' for Inactive)
REMARK    1  A    between atoms: C2_2  and  C3_3 
REMARK    2  A    between atoms: C3_3  and  C4_4 
REMARK       I    between atoms: C4_4  and  N1_6 
REMARK    3  A    between atoms: N1_6  and  C5_8 
REMARK    4  A    between atoms: C8_12  and  C9_13 
REMARK    5  A    between atoms: C9_13  and  O3_15 
REMARK    6  A    between atoms: O3_15  and  C10_16 
ROOT
HETATM    1  C5  UNL     1     -31.967  24.897  18.990  1.00  0.00     0.094 A 
HETATM    2  S1  UNL     1     -31.779  23.163  19.298  1.00  0.00    -0.075 SA
HETATM    3  C6  UNL     1     -32.219  23.109  20.907  1.00  0.00    -0.008 A 
HETATM    4  C7  UNL     1     -32.503  24.413  21.210  1.00  0.00    -0.026 A 
HETATM    5  C8  UNL     1     -32.364  25.336  20.218  1.00  0.00     0.080 A 
HETATM    6  C12 UNL     1     -32.958  24.544  22.647  1.00  0.00     0.041 C 
HETATM    7  C13 UNL     1     -34.057  23.543  22.954  1.00  0.00     0.005 C 
HETATM    8  C14 UNL     1     -33.803  22.164  22.461  1.00  0.00     0.005 C 
HETATM    9  C15 UNL     1     -32.361  22.094  22.020  1.00  0.00     0.047 C 
ENDROOT
BRANCH   1  10
HETATM   10  N1  UNL     1     -31.688  25.436  17.718  1.00  0.00    -0.320 N 
HETATM   11  C4  UNL     1     -30.547  25.815  17.047  1.00  0.00     0.222 C 
HETATM   12  O1  UNL     1     -29.402  25.785  17.533  1.00  0.00    -0.273 OA
ATOM     13  H1  UNL     1     -32.532  25.579  17.163  1.00  0.00     0.169 HD
BRANCH  11  14
HETATM   14  C3  UNL     1     -30.638  26.312  15.610  1.00  0.00     0.103 C 
BRANCH  14  15
HETATM   15  C2  UNL     1     -30.013  27.656  15.472  1.00  0.00     0.005 C 
HETATM   16  C1  UNL     1     -28.857  27.633  14.506  1.00  0.00     0.005 C 
ENDBRANCH  14  15
ENDBRANCH  11  14
ENDBRANCH   1  10
BRANCH   5  17
HETATM   17  C9  UNL     1     -32.342  26.800  20.526  1.00  0.00     0.296 C 
HETATM   18  O2  UNL     1     -32.972  27.569  19.772  1.00  0.00    -0.259 OA
BRANCH  17  19
HETATM   19  O3  UNL     1     -31.711  27.391  21.569  1.00  0.00    -0.318 OA
BRANCH  19  20
HETATM   20  C10 UNL     1     -30.419  27.959  21.531  1.00  0.00     0.174 C 
HETATM   21  C11 UNL     1     -29.554  27.358  20.455  1.00  0.00     0.034 C 
ENDBRANCH  19  20
ENDBRANCH  17  19
ENDBRANCH   5  17
TORSDOF 6
ENDMDL
MODEL 3
REMARK VINA RESULT: -6.285912717      1.700      2.187
REMARK  6 active torsions:
REMARK  status: ('A' for Active; 'I' for Inactive)
REMARK    1  A    between atoms: C2_2  and  C3_3 
REMARK    2  A    between atoms: C3_3  and  C4_4 
REMARK       I    between atoms: C4_4  and  N1_6 
REMARK    3  A    between atoms: N1_6  and  C5_8 
REMARK    4  A    between atoms: C8_12  and  C9_13 
REMARK    5  A    between atoms: C9_13  and  O3_15 
REMARK    6  A    between atoms: O3_15  and  C10_16 
ROOT
HETATM    1  C5  UNL     1     -30.904  24.327  19.554  1.00  0.00     0.094 A 
HETATM    2  S1  UNL     1     -30.518  22.679  20.074  1.00  0.00    -0.075 SA
HETATM    3  C6  UNL     1     -31.621  22.505  21.314  1.00  0.00    -0.008 A 
HETATM    4  C7  UNL     1     -32.279  23.704  21.335  1.00  0.00    -0.026 A 
HETATM    5  C8  UNL     1     -31.901  24.648  20.428  1.00  0.00     0.080 A 
HETATM    6  C12 UNL     1     -33.355  23.708  22.398  1.00  0.00     0.041 C 
HETATM    7  C13 UNL     1     -34.236  22.478  22.274  1.00  0.00     0.005 C 
HETATM    8  C14 UNL     1     -33.501  21.201  22.079  1.00  0.00     0.005 C 
HETATM    9  C15 UNL     1     -32.038  21.470  22.336  1.00  0.00     0.047 C 
ENDROOT
BRANCH   1  10
HETATM   10  N1  UNL     1     -30.197  24.932  18.495  1.00  0.00    -0.320 N 
HETATM   11  C4  UNL     1     -30.547  25.612  17.350  1.00  0.00     0.222 C 
HETATM   12  O1  UNL     1     -31.718  25.799  16.972  1.00  0.00    -0.273 OA
ATOM     13  H1  UNL     1     -29.187  24.845  18.602  1.00  0.00     0.169 HD
BRANCH  11  14
HETATM   14  C3  UNL     1     -29.466  26.194  16.449  1.00  0.00     0.103 C 
BRANCH  14  15
HETATM   15  C2  UNL     1     -30.066  26.842  15.251  1.00  0.00     0.005 C 
HETATM   16  C1  UNL     1     -29.881  26.002  14.015  1.00  0.00     0.005 C 
ENDBRANCH  14  15
ENDBRANCH  11  14
ENDBRANCH   1  10
BRANCH   5  17
HETATM   17  C9  UNL     1     -32.330  26.073  20.574  1.00  0.00     0.296 C 
HETATM   18  O2  UNL     1     -33.227  26.498  19.817  1.00  0.00    -0.259 OA
BRANCH  17  19
HETATM   19  O3  UNL     1     -31.850  26.967  21.471  1.00  0.00    -0.318 OA
BRANCH  19  20
HETATM   20  C10 UNL     1     -30.529  27.463  21.509  1.00  0.00     0.174 C 
HETATM   21  C11 UNL     1     -30.080  28.014  20.183  1.00  0.00     0.034 C 
ENDBRANCH  19  20
ENDBRANCH  17  19
ENDBRANCH   5  17
TORSDOF 6
ENDMDL
MODEL 4
REMARK VINA RESULT: -6.221540486      2.246      3.667
REMARK  6 active torsions:
REMARK  status: ('A' for Active; 'I' for Inactive)
REMARK    1  A    between atoms: C2_2  and  C3_3 
REMARK    2  A    between atoms: C3_3  and  C4_4 
REMARK       I    between atoms: C4_4  and  N1_6 
REMARK    3  A    between atoms: N1_6  and  C5_8 
REMARK    4  A    between atoms: C8_12  and  C9_13 
REMARK    5  A    between atoms: C9_13  and  O3_15 
REMARK    6  A    between atoms: O3_15  and  C10_16 
ROOT
HETATM    1  C5  UNL     1     -31.631  25.616  18.517  1.00  0.00     0.094 A 
HETATM    2  S1  UNL     1     -30.799  26.658  19.683  1.00  0.00    -0.075 SA
HETATM    3  C6  UNL     1     -31.548  26.166  21.090  1.00  0.00    -0.008 A 
HETATM    4  C7  UNL     1     -32.436  25.213  20.671  1.00  0.00    -0.026 A 
HETATM    5  C8  UNL     1     -32.482  24.936  19.338  1.00  0.00     0.080 A 
HETATM    6  C12 UNL     1     -33.190  24.628  21.845  1.00  0.00     0.041 C 
HETATM    7  C13 UNL     1     -32.229  24.195  22.938  1.00  0.00     0.005 C 
HETATM    8  C14 UNL     1     -31.163  25.180  23.258  1.00  0.00     0.005 C 
HETATM    9  C15 UNL     1     -31.517  26.477  22.571  1.00  0.00     0.047 C 
ENDROOT
BRANCH   1  10
HETATM   10  N1  UNL     1     -31.324  25.685  17.143  1.00  0.00    -0.320 N 
HETATM   11  C4  UNL     1     -30.191  25.958  16.409  1.00  0.00     0.222 C 
HETATM   12  O1  UNL     1     -29.095  26.283  16.900  1.00  0.00    -0.273 OA
ATOM     13  H1  UNL     1     -32.131  25.485  16.553  1.00  0.00     0.169 HD
BRANCH  11  14
HETATM   14  C3  UNL     1     -30.230  25.872  14.889  1.00  0.00     0.103 C 
BRANCH  14  15
HETATM   15  C2  UNL     1     -29.555  27.047  14.273  1.00  0.00     0.005 C 
HETATM   16  C1  UNL     1     -28.688  26.642  13.110  1.00  0.00     0.005 C 
ENDBRANCH  14  15
ENDBRANCH  11  14
ENDBRANCH   1  10
BRANCH   5  17
HETATM   17  C9  UNL     1     -33.616  24.157  18.751  1.00  0.00     0.296 C 
HETATM   18  O2  UNL     1     -34.402  24.750  17.984  1.00  0.00    -0.259 OA
BRANCH  17  19
HETATM   19  O3  UNL     1     -33.876  22.843  18.954  1.00  0.00    -0.318 OA
BRANCH  19  20
HETATM   20  C10 UNL     1     -32.906  21.838  19.158  1.00  0.00     0.174 C 
HETATM   21  C11 UNL     1     -33.018  21.192  20.513  1.00  0.00     0.034 C 
ENDBRANCH  19  20
ENDBRANCH  17  19
ENDBRANCH   5  17
TORSDOF 6
ENDMDL
MODEL 5
REMARK VINA RESULT: -6.165205996      3.233      5.622
REMARK  6 active torsions:
REMARK  status: ('A' for Active; 'I' for Inactive)
REMARK    1  A    between atoms: C2_2  and  C3_3 
REMARK    2  A    between atoms: C3_3  and  C4_4 
REMARK       I    between atoms: C4_4  and  N1_6 
REMARK    3  A    between atoms: N1_6  and  C5_8 
REMARK    4  A    between atoms: C8_12  and  C9_13 
REMARK    5  A    between atoms: C9_13  and  O3_15 
REMARK    6  A    between atoms: O3_15  and  C10_16 
ROOT
HETATM    1  C5  UNL     1     -31.911  23.752  19.656  1.00  0.00     0.094 A 
HETATM    2  S1  UNL     1     -31.992  25.055  18.459  1.00  0.00    -0.075 SA
HETATM    3  C6  UNL     1     -31.679  26.366  19.443  1.00  0.00    -0.008 A 
HETATM    4  C7  UNL     1     -31.519  25.811  20.684  1.00  0.00    -0.026 A 
HETATM    5  C8  UNL     1     -31.648  24.459  20.791  1.00  0.00     0.080 A 
HETATM    6  C12 UNL     1     -31.192  26.873  21.709  1.00  0.00     0.041 C 
HETATM    7  C13 UNL     1     -30.048  27.748  21.229  1.00  0.00     0.005 C 
HETATM    8  C14 UNL     1     -30.158  28.200  19.817  1.00  0.00     0.005 C 
HETATM    9  C15 UNL     1     -31.550  27.870  19.337  1.00  0.00     0.047 C 
ENDROOT
BRANCH   1  10
HETATM   10  N1  UNL     1     -32.126  22.412  19.276  1.00  0.00    -0.320 N 
HETATM   11  C4  UNL     1     -31.509  21.210  19.544  1.00  0.00     0.222 C 
HETATM   12  O1  UNL     1     -30.479  21.086  20.231  1.00  0.00    -0.273 OA
ATOM     13  H1  UNL     1     -32.929  22.306  18.656  1.00  0.00     0.169 HD
BRANCH  11  14
HETATM   14  C3  UNL     1     -32.087  19.916  18.985  1.00  0.00     0.103 C 
BRANCH  14  15
HETATM   15  C2  UNL     1     -33.520  20.088  18.621  1.00  0.00     0.005 C 
HETATM   16  C1  UNL     1     -34.137  18.791  18.170  1.00  0.00     0.005 C 
ENDBRANCH  14  15
ENDBRANCH  11  14
ENDBRANCH   1  10
BRANCH   5  17
HETATM   17  C9  UNL     1     -31.804  23.804  22.127  1.00  0.00     0.296 C 
HETATM   18  O2  UNL     1     -30.834  23.167  22.588  1.00  0.00    -0.259 OA
BRANCH  17  19
HETATM   19  O3  UNL     1     -32.905  23.844  22.916  1.00  0.00    -0.318 OA
BRANCH  19  20
HETATM   20  C10 UNL     1     -34.125  23.185  22.654  1.00  0.00     0.174 C 
HETATM   21  C11 UNL     1     -33.930  21.766  22.192  1.00  0.00     0.034 C 
ENDBRANCH  19  20
ENDBRANCH  17  19
ENDBRANCH   5  17
TORSDOF 6
ENDMDL
