MODEL 1
REMARK VINA RESULT: -11.481079286      0.000      0.000
REMARK  8 active torsions:
REMARK  status: ('A' for Active; 'I' for Inactive)
REMARK    1  A    between atoms: C1_4  and  C2_5 
REMARK    2  A    between atoms: C1_4  and  N2_20 
REMARK    3  A    between atoms: C3_6  and  C4_7 
REMARK    4  A    between atoms: C7_10  and  C8_11 
REMARK    5  A    between atoms: C9_12  and  C10_13 
REMARK    6  A    between atoms: N2_20  and  C16_22 
REMARK    7  A    between atoms: C19_25  and  C20_26 
REMARK       I    between atoms: C20_26  and  N3_28 
REMARK    8  A    between atoms: N3_28  and  C21_30 
ROOT
HETATM    1  N1  UNL     1     -15.585  28.963  -6.581  1.00  0.00    -0.385 N 
ATOM      2  H11 UNL     1     -15.632  28.865  -7.595  1.00  0.00     0.157 HD
ATOM      3  H12 UNL     1     -15.267  29.829  -6.147  1.00  0.00     0.157 HD
HETATM    4  C1  UNL     1     -15.927  27.994  -5.802  1.00  0.00     0.099 C 
ENDROOT
BRANCH   4   5
HETATM    5  C2  UNL     1     -15.860  28.134  -4.354  1.00  0.00     0.051 C 
HETATM    6  C3  UNL     1     -16.566  27.331  -3.593  1.00  0.00     0.041 C 
BRANCH   6   7
HETATM    7  C4  UNL     1     -16.511  27.457  -2.118  1.00  0.00     0.076 A 
HETATM    8  C5  UNL     1     -16.098  26.495  -1.239  1.00  0.00     0.040 A 
HETATM    9  C6  UNL     1     -16.219  27.057   0.013  1.00  0.00     0.040 A 
HETATM   10  C7  UNL     1     -16.690  28.325  -0.115  1.00  0.00     0.076 A 
HETATM   11  O1  UNL     1     -16.843  28.495  -1.444  1.00  0.00    -0.311 OA
BRANCH  10  12
HETATM   12  C8  UNL     1     -16.990  29.345   0.853  1.00  0.00     0.038 C 
HETATM   13  C9  UNL     1     -16.753  29.617   2.070  1.00  0.00     0.014 C 
BRANCH  13  14
HETATM   14  C10 UNL     1     -16.047  29.089   3.193  1.00  0.00    -0.036 A 
HETATM   15  C11 UNL     1     -16.359  29.624   4.458  1.00  0.00     0.011 A 
HETATM   16  C12 UNL     1     -15.721  29.277   5.613  1.00  0.00     0.001 A 
HETATM   17  C13 UNL     1     -14.713  28.352   5.542  1.00  0.00     0.000 A 
HETATM   18  C14 UNL     1     -14.374  27.805   4.325  1.00  0.00     0.001 A 
HETATM   19  C15 UNL     1     -15.034  28.175   3.186  1.00  0.00     0.011 A 
ENDBRANCH  13  14
ENDBRANCH  10  12
ENDBRANCH   6   7
ENDBRANCH   4   5
BRANCH   4  20
HETATM   20  N2  UNL     1     -16.373  26.781  -6.409  1.00  0.00    -0.343 N 
ATOM     21  H2  UNL     1     -17.327  26.749  -6.768  1.00  0.00     0.167 HD
BRANCH  20  22
HETATM   22  C16 UNL     1     -15.572  25.617  -6.544  1.00  0.00     0.033 A 
HETATM   23  C17 UNL     1     -14.192  25.733  -6.540  1.00  0.00     0.030 A 
HETATM   24  C18 UNL     1     -13.346  24.651  -6.664  1.00  0.00     0.019 A 
HETATM   25  C19 UNL     1     -13.858  23.377  -6.799  1.00  0.00     0.032 A 
HETATM   26  C27 UNL     1     -15.233  23.260  -6.802  1.00  0.00     0.019 A 
HETATM   27  C28 UNL     1     -16.079  24.343  -6.678  1.00  0.00     0.030 A 
BRANCH  25  28
HETATM   28  C20 UNL     1     -13.010  22.182  -6.944  1.00  0.00     0.256 C 
HETATM   29  O2  UNL     1     -13.601  21.120  -7.212  1.00  0.00    -0.267 OA
HETATM   30  N3  UNL     1     -11.616  22.212  -6.794  1.00  0.00    -0.323 N 
ATOM     31  H3  UNL     1     -11.228  23.132  -6.581  1.00  0.00     0.169 HD
BRANCH  30  32
HETATM   32  C21 UNL     1     -10.679  21.193  -6.888  1.00  0.00     0.035 A 
HETATM   33  C22 UNL     1     -10.245  20.538  -5.733  1.00  0.00     0.029 A 
HETATM   34  C23 UNL     1      -9.331  19.509  -5.769  1.00  0.00     0.002 A 
HETATM   35  C24 UNL     1      -8.819  19.104  -6.991  1.00  0.00     0.000 A 
HETATM   36  C25 UNL     1      -9.224  19.726  -8.141  1.00  0.00     0.002 A 
HETATM   37  C26 UNL     1     -10.154  20.769  -8.084  1.00  0.00     0.029 A 
ENDBRANCH  30  32
ENDBRANCH  25  28
ENDBRANCH  20  22
ENDBRANCH   4  20
TORSDOF 8
ENDMDL
MODEL 2
REMARK VINA RESULT: -11.421508891      2.439     11.472
REMARK  8 active torsions:
REMARK  status: ('A' for Active; 'I' for Inactive)
REMARK    1  A    between atoms: C1_4  and  C2_5 
REMARK    2  A    between atoms: C1_4  and  N2_20 
REMARK    3  A    between atoms: C3_6  and  C4_7 
REMARK    4  A    between atoms: C7_10  and  C8_11 
REMARK    5  A    between atoms: C9_12  and  C10_13 
REMARK    6  A    between atoms: N2_20  and  C16_22 
REMARK    7  A    between atoms: C19_25  and  C20_26 
REMARK       I    between atoms: C20_26  and  N3_28 
REMARK    8  A    between atoms: N3_28  and  C21_30 
ROOT
HETATM    1  N1  UNL     1     -18.256  26.110  -3.859  1.00  0.00    -0.385 N 
ATOM      2  H11 UNL     1     -18.955  26.595  -3.297  1.00  0.00     0.157 HD
ATOM      3  H12 UNL     1     -18.496  25.279  -4.399  1.00  0.00     0.157 HD
HETATM    4  C1  UNL     1     -17.037  26.526  -3.911  1.00  0.00     0.099 C 
ENDROOT
BRANCH   4   5
HETATM    5  C2  UNL     1     -16.038  25.833  -4.713  1.00  0.00     0.051 C 
HETATM    6  C3  UNL     1     -16.151  24.541  -4.911  1.00  0.00     0.041 C 
BRANCH   6   7
HETATM    7  C4  UNL     1     -15.145  23.817  -5.724  1.00  0.00     0.076 A 
HETATM    8  C5  UNL     1     -15.352  22.664  -6.427  1.00  0.00     0.040 A 
HETATM    9  C6  UNL     1     -14.145  22.367  -7.021  1.00  0.00     0.040 A 
HETATM   10  C7  UNL     1     -13.240  23.322  -6.683  1.00  0.00     0.076 A 
HETATM   11  O1  UNL     1     -13.925  24.171  -5.891  1.00  0.00    -0.311 OA
BRANCH  10  12
HETATM   12  C8  UNL     1     -11.855  23.503  -7.026  1.00  0.00     0.038 C 
HETATM   13  C9  UNL     1     -10.742  22.909  -6.886  1.00  0.00     0.014 C 
BRANCH  13  14
HETATM   14  C10 UNL     1     -10.203  21.714  -6.321  1.00  0.00    -0.036 A 
HETATM   15  C11 UNL     1      -9.874  20.673  -7.211  1.00  0.00     0.011 A 
HETATM   16  C12 UNL     1      -9.422  19.447  -6.819  1.00  0.00     0.001 A 
HETATM   17  C13 UNL     1      -9.276  19.209  -5.478  1.00  0.00     0.000 A 
HETATM   18  C14 UNL     1      -9.588  20.198  -4.573  1.00  0.00     0.001 A 
HETATM   19  C15 UNL     1     -10.039  21.417  -4.999  1.00  0.00     0.011 A 
ENDBRANCH  13  14
ENDBRANCH  10  12
ENDBRANCH   6   7
ENDBRANCH   4   5
BRANCH   4  20
HETATM   20  N2  UNL     1     -16.701  27.690  -3.155  1.00  0.00    -0.343 N 
ATOM     21  H2  UNL     1     -16.612  28.575  -3.654  1.00  0.00     0.167 HD
BRANCH  20  22
HETATM   22  C16 UNL     1     -16.483  27.692  -1.752  1.00  0.00     0.033 A 
HETATM   23  C17 UNL     1     -16.633  28.869  -1.039  1.00  0.00     0.030 A 
HETATM   24  C18 UNL     1     -16.442  28.952   0.324  1.00  0.00     0.019 A 
HETATM   25  C19 UNL     1     -16.083  27.834   1.047  1.00  0.00     0.032 A 
HETATM   26  C27 UNL     1     -15.934  26.660   0.338  1.00  0.00     0.019 A 
HETATM   27  C28 UNL     1     -16.126  26.577  -1.026  1.00  0.00     0.030 A 
BRANCH  25  28
HETATM   28  C20 UNL     1     -15.855  27.857   2.502  1.00  0.00     0.256 C 
HETATM   29  O2  UNL     1     -15.967  26.766   3.093  1.00  0.00    -0.267 OA
HETATM   30  N3  UNL     1     -15.530  29.026   3.206  1.00  0.00    -0.323 N 
ATOM     31  H3  UNL     1     -15.456  29.865   2.630  1.00  0.00     0.169 HD
BRANCH  30  32
HETATM   32  C21 UNL     1     -15.292  29.225   4.558  1.00  0.00     0.035 A 
HETATM   33  C22 UNL     1     -15.886  28.381   5.500  1.00  0.00     0.029 A 
HETATM   34  C23 UNL     1     -15.672  28.521   6.853  1.00  0.00     0.002 A 
HETATM   35  C24 UNL     1     -14.840  29.533   7.303  1.00  0.00     0.000 A 
HETATM   36  C25 UNL     1     -14.243  30.376   6.405  1.00  0.00     0.002 A 
HETATM   37  C26 UNL     1     -14.472  30.218   5.035  1.00  0.00     0.029 A 
ENDBRANCH  30  32
ENDBRANCH  25  28
ENDBRANCH  20  22
ENDBRANCH   4  20
TORSDOF 8
ENDMDL
MODEL 3
REMARK VINA RESULT: -11.420796907      2.458     11.360
REMARK  8 active torsions:
REMARK  status: ('A' for Active; 'I' for Inactive)
REMARK    1  A    between atoms: C1_4  and  C2_5 
REMARK    2  A    between atoms: C1_4  and  N2_20 
REMARK    3  A    between atoms: C3_6  and  C4_7 
REMARK    4  A    between atoms: C7_10  and  C8_11 
REMARK    5  A    between atoms: C9_12  and  C10_13 
REMARK    6  A    between atoms: N2_20  and  C16_22 
REMARK    7  A    between atoms: C19_25  and  C20_26 
REMARK       I    between atoms: C20_26  and  N3_28 
REMARK    8  A    between atoms: N3_28  and  C21_30 
ROOT
HETATM    1  N1  UNL     1     -18.195  26.402  -3.940  1.00  0.00    -0.385 N 
ATOM      2  H11 UNL     1     -18.888  26.888  -3.370  1.00  0.00     0.157 HD
ATOM      3  H12 UNL     1     -18.450  25.598  -4.511  1.00  0.00     0.157 HD
HETATM    4  C1  UNL     1     -16.964  26.785  -3.960  1.00  0.00     0.099 C 
ENDROOT
BRANCH   4   5
HETATM    5  C2  UNL     1     -15.974  26.091  -4.772  1.00  0.00     0.051 C 
HETATM    6  C3  UNL     1     -16.316  25.003  -5.420  1.00  0.00     0.041 C 
BRANCH   6   7
HETATM    7  C4  UNL     1     -15.323  24.283  -6.252  1.00  0.00     0.076 A 
HETATM    8  C5  UNL     1     -15.599  23.390  -7.249  1.00  0.00     0.040 A 
HETATM    9  C6  UNL     1     -14.375  22.983  -7.733  1.00  0.00     0.040 A 
HETATM   10  C7  UNL     1     -13.392  23.620  -7.045  1.00  0.00     0.076 A 
HETATM   11  O1  UNL     1     -14.049  24.395  -6.159  1.00  0.00    -0.311 OA
BRANCH  10  12
HETATM   12  C8  UNL     1     -11.959  23.572  -7.144  1.00  0.00     0.038 C 
HETATM   13  C9  UNL     1     -10.994  22.821  -6.802  1.00  0.00     0.014 C 
BRANCH  13  14
HETATM   14  C10 UNL     1     -10.754  21.584  -6.132  1.00  0.00    -0.036 A 
HETATM   15  C11 UNL     1      -9.608  21.506  -5.316  1.00  0.00     0.011 A 
HETATM   16  C12 UNL     1      -9.204  20.373  -4.673  1.00  0.00     0.001 A 
HETATM   17  C13 UNL     1      -9.955  19.238  -4.827  1.00  0.00     0.000 A 
HETATM   18  C14 UNL     1     -11.082  19.269  -5.617  1.00  0.00     0.001 A 
HETATM   19  C15 UNL     1     -11.460  20.422  -6.248  1.00  0.00     0.011 A 
ENDBRANCH  13  14
ENDBRANCH  10  12
ENDBRANCH   6   7
ENDBRANCH   4   5
BRANCH   4  20
HETATM   20  N2  UNL     1     -16.606  27.912  -3.159  1.00  0.00    -0.343 N 
ATOM     21  H2  UNL     1     -16.484  28.811  -3.626  1.00  0.00     0.167 HD
BRANCH  20  22
HETATM   22  C16 UNL     1     -16.410  27.860  -1.754  1.00  0.00     0.033 A 
HETATM   23  C17 UNL     1     -16.514  29.020  -1.006  1.00  0.00     0.030 A 
HETATM   24  C18 UNL     1     -16.340  29.051   0.362  1.00  0.00     0.019 A 
HETATM   25  C19 UNL     1     -16.048  27.894   1.054  1.00  0.00     0.032 A 
HETATM   26  C27 UNL     1     -15.945  26.737   0.310  1.00  0.00     0.019 A 
HETATM   27  C28 UNL     1     -16.120  26.706  -1.059  1.00  0.00     0.030 A 
BRANCH  25  28
HETATM   28  C20 UNL     1     -15.842  27.861   2.512  1.00  0.00     0.256 C 
HETATM   29  O2  UNL     1     -15.993  26.754   3.062  1.00  0.00    -0.267 OA
HETATM   30  N3  UNL     1     -15.495  28.995   3.260  1.00  0.00    -0.323 N 
ATOM     31  H3  UNL     1     -15.389  29.851   2.715  1.00  0.00     0.169 HD
BRANCH  30  32
HETATM   32  C21 UNL     1     -15.273  29.140   4.622  1.00  0.00     0.035 A 
HETATM   33  C22 UNL     1     -14.498  30.204   5.091  1.00  0.00     0.029 A 
HETATM   34  C23 UNL     1     -14.259  30.406   6.431  1.00  0.00     0.002 A 
HETATM   35  C24 UNL     1     -14.802  29.526   7.354  1.00  0.00     0.000 A 
HETATM   36  C25 UNL     1     -15.566  28.474   6.926  1.00  0.00     0.002 A 
HETATM   37  C26 UNL     1     -15.798  28.286   5.560  1.00  0.00     0.029 A 
ENDBRANCH  30  32
ENDBRANCH  25  28
ENDBRANCH  20  22
ENDBRANCH   4  20
TORSDOF 8
ENDMDL
MODEL 4
REMARK VINA RESULT: -11.389843849      0.141      1.171
REMARK  8 active torsions:
REMARK  status: ('A' for Active; 'I' for Inactive)
REMARK    1  A    between atoms: C1_4  and  C2_5 
REMARK    2  A    between atoms: C1_4  and  N2_20 
REMARK    3  A    between atoms: C3_6  and  C4_7 
REMARK    4  A    between atoms: C7_10  and  C8_11 
REMARK    5  A    between atoms: C9_12  and  C10_13 
REMARK    6  A    between atoms: N2_20  and  C16_22 
REMARK    7  A    between atoms: C19_25  and  C20_26 
REMARK       I    between atoms: C20_26  and  N3_28 
REMARK    8  A    between atoms: N3_28  and  C21_30 
ROOT
HETATM    1  N1  UNL     1     -15.634  28.973  -6.601  1.00  0.00    -0.385 N 
ATOM      2  H11 UNL     1     -15.645  28.864  -7.615  1.00  0.00     0.157 HD
ATOM      3  H12 UNL     1     -15.358  29.853  -6.167  1.00  0.00     0.157 HD
HETATM    4  C1  UNL     1     -15.970  28.002  -5.822  1.00  0.00     0.099 C 
ENDROOT
BRANCH   4   5
HETATM    5  C2  UNL     1     -15.955  28.158  -4.374  1.00  0.00     0.051 C 
HETATM    6  C3  UNL     1     -16.398  27.185  -3.614  1.00  0.00     0.041 C 
BRANCH   6   7
HETATM    7  C4  UNL     1     -16.390  27.325  -2.139  1.00  0.00     0.076 A 
HETATM    8  C5  UNL     1     -15.986  26.379  -1.239  1.00  0.00     0.040 A 
HETATM    9  C6  UNL     1     -16.155  26.950   0.003  1.00  0.00     0.040 A 
HETATM   10  C7  UNL     1     -16.647  28.207  -0.151  1.00  0.00     0.076 A 
HETATM   11  O1  UNL     1     -16.763  28.363  -1.485  1.00  0.00    -0.311 OA
BRANCH  10  12
HETATM   12  C8  UNL     1     -16.995  29.229   0.799  1.00  0.00     0.038 C 
HETATM   13  C9  UNL     1     -16.782  29.528   2.014  1.00  0.00     0.014 C 
BRANCH  13  14
HETATM   14  C10 UNL     1     -16.070  29.043   3.152  1.00  0.00    -0.036 A 
HETATM   15  C11 UNL     1     -16.357  29.644   4.394  1.00  0.00     0.011 A 
HETATM   16  C12 UNL     1     -15.709  29.343   5.556  1.00  0.00     0.001 A 
HETATM   17  C13 UNL     1     -14.717  28.399   5.518  1.00  0.00     0.000 A 
HETATM   18  C14 UNL     1     -14.403  27.789   4.325  1.00  0.00     0.001 A 
HETATM   19  C15 UNL     1     -15.072  28.113   3.178  1.00  0.00     0.011 A 
ENDBRANCH  13  14
ENDBRANCH  10  12
ENDBRANCH   6   7
ENDBRANCH   4   5
BRANCH   4  20
HETATM   20  N2  UNL     1     -16.358  26.769  -6.430  1.00  0.00    -0.343 N 
ATOM     21  H2  UNL     1     -17.304  26.698  -6.806  1.00  0.00     0.167 HD
BRANCH  20  22
HETATM   22  C16 UNL     1     -15.510  25.636  -6.542  1.00  0.00     0.033 A 
HETATM   23  C17 UNL     1     -16.068  24.372  -6.640  1.00  0.00     0.030 A 
HETATM   24  C18 UNL     1     -15.313  23.224  -6.755  1.00  0.00     0.019 A 
HETATM   25  C19 UNL     1     -13.935  23.295  -6.777  1.00  0.00     0.032 A 
HETATM   26  C27 UNL     1     -13.379  24.553  -6.680  1.00  0.00     0.019 A 
HETATM   27  C28 UNL     1     -14.135  25.702  -6.566  1.00  0.00     0.030 A 
BRANCH  25  28
HETATM   28  C20 UNL     1     -13.072  22.106  -6.888  1.00  0.00     0.256 C 
HETATM   29  O2  UNL     1     -13.627  21.059  -7.269  1.00  0.00    -0.267 OA
HETATM   30  N3  UNL     1     -11.702  22.128  -6.589  1.00  0.00    -0.323 N 
ATOM     31  H3  UNL     1     -11.343  23.035  -6.292  1.00  0.00     0.169 HD
BRANCH  30  32
HETATM   32  C21 UNL     1     -10.756  21.113  -6.632  1.00  0.00     0.035 A 
HETATM   33  C22 UNL     1     -10.208  20.726  -7.857  1.00  0.00     0.029 A 
HETATM   34  C23 UNL     1      -9.255  19.737  -7.958  1.00  0.00     0.002 A 
HETATM   35  C24 UNL     1      -8.821  19.099  -6.807  1.00  0.00     0.000 A 
HETATM   36  C25 UNL     1      -9.339  19.456  -5.591  1.00  0.00     0.002 A 
HETATM   37  C26 UNL     1     -10.306  20.463  -5.510  1.00  0.00     0.029 A 
ENDBRANCH  30  32
ENDBRANCH  25  28
ENDBRANCH  20  22
ENDBRANCH   4  20
TORSDOF 8
ENDMDL
MODEL 5
REMARK VINA RESULT: -11.249339363      2.239     11.264
REMARK  8 active torsions:
REMARK  status: ('A' for Active; 'I' for Inactive)
REMARK    1  A    between atoms: C1_4  and  C2_5 
REMARK    2  A    between atoms: C1_4  and  N2_20 
REMARK    3  A    between atoms: C3_6  and  C4_7 
REMARK    4  A    between atoms: C7_10  and  C8_11 
REMARK    5  A    between atoms: C9_12  and  C10_13 
REMARK    6  A    between atoms: N2_20  and  C16_22 
REMARK    7  A    between atoms: C19_25  and  C20_26 
REMARK       I    between atoms: C20_26  and  N3_28 
REMARK    8  A    between atoms: N3_28  and  C21_30 
ROOT
HETATM    1  N1  UNL     1     -14.906  28.656  -5.018  1.00  0.00    -0.385 N 
ATOM      2  H11 UNL     1     -15.220  29.570  -4.690  1.00  0.00     0.157 HD
ATOM      3  H12 UNL     1     -14.116  28.566  -5.655  1.00  0.00     0.157 HD
HETATM    4  C1  UNL     1     -15.498  27.574  -4.641  1.00  0.00     0.099 C 
ENDROOT
BRANCH   4   5
HETATM    5  C2  UNL     1     -15.050  26.270  -5.111  1.00  0.00     0.051 C 
HETATM    6  C3  UNL     1     -14.432  26.174  -6.263  1.00  0.00     0.041 C 
BRANCH   6   7
HETATM    7  C4  UNL     1     -13.969  24.856  -6.758  1.00  0.00     0.076 A 
HETATM    8  C5  UNL     1     -14.725  23.724  -6.871  1.00  0.00     0.040 A 
HETATM    9  C6  UNL     1     -13.878  22.758  -7.369  1.00  0.00     0.040 A 
HETATM   10  C7  UNL     1     -12.647  23.301  -7.551  1.00  0.00     0.076 A 
HETATM   11  O1  UNL     1     -12.781  24.583  -7.156  1.00  0.00    -0.311 OA
BRANCH  10  12
HETATM   12  C8  UNL     1     -11.413  22.751  -8.045  1.00  0.00     0.038 C 
HETATM   13  C9  UNL     1     -10.511  21.934  -7.687  1.00  0.00     0.014 C 
BRANCH  13  14
HETATM   14  C10 UNL     1     -10.184  21.072  -6.596  1.00  0.00    -0.036 A 
HETATM   15  C11 UNL     1     -10.841  19.827  -6.543  1.00  0.00     0.011 A 
HETATM   16  C12 UNL     1     -10.693  18.929  -5.527  1.00  0.00     0.001 A 
HETATM   17  C13 UNL     1      -9.856  19.254  -4.493  1.00  0.00     0.000 A 
HETATM   18  C14 UNL     1      -9.196  20.462  -4.504  1.00  0.00     0.001 A 
HETATM   19  C15 UNL     1      -9.366  21.340  -5.538  1.00  0.00     0.011 A 
ENDBRANCH  13  14
ENDBRANCH  10  12
ENDBRANCH   6   7
ENDBRANCH   4   5
BRANCH   4  20
HETATM   20  N2  UNL     1     -16.606  27.700  -3.749  1.00  0.00    -0.343 N 
ATOM     21  H2  UNL     1     -17.527  27.871  -4.152  1.00  0.00     0.167 HD
BRANCH  20  22
HETATM   22  C16 UNL     1     -16.505  27.601  -2.336  1.00  0.00     0.033 A 
HETATM   23  C17 UNL     1     -16.720  28.725  -1.556  1.00  0.00     0.030 A 
HETATM   24  C18 UNL     1     -16.643  28.710  -0.179  1.00  0.00     0.019 A 
HETATM   25  C19 UNL     1     -16.340  27.542   0.490  1.00  0.00     0.032 A 
HETATM   26  C27 UNL     1     -16.126  26.422  -0.287  1.00  0.00     0.019 A 
HETATM   27  C28 UNL     1     -16.203  26.437  -1.664  1.00  0.00     0.030 A 
BRANCH  25  28
HETATM   28  C20 UNL     1     -16.234  27.461   1.956  1.00  0.00     0.256 C 
HETATM   29  O2  UNL     1     -16.651  26.411   2.479  1.00  0.00    -0.267 OA
HETATM   30  N3  UNL     1     -15.697  28.493   2.741  1.00  0.00    -0.323 N 
ATOM     31  H3  UNL     1     -15.378  29.307   2.217  1.00  0.00     0.169 HD
BRANCH  30  32
HETATM   32  C21 UNL     1     -15.531  28.583   4.116  1.00  0.00     0.035 A 
HETATM   33  C22 UNL     1     -16.032  29.690   4.805  1.00  0.00     0.029 A 
HETATM   34  C23 UNL     1     -15.911  29.824   6.170  1.00  0.00     0.002 A 
HETATM   35  C24 UNL     1     -15.270  28.829   6.892  1.00  0.00     0.000 A 
HETATM   36  C25 UNL     1     -14.769  27.731   6.244  1.00  0.00     0.002 A 
HETATM   37  C26 UNL     1     -14.902  27.614   4.857  1.00  0.00     0.029 A 
ENDBRANCH  30  32
ENDBRANCH  25  28
ENDBRANCH  20  22
ENDBRANCH   4  20
TORSDOF 8
ENDMDL
