MODEL 1
REMARK VINA RESULT: -7.368851354      0.000      0.000
REMARK  6 active torsions:
REMARK  status: ('A' for Active; 'I' for Inactive)
REMARK    1  A    between atoms: C2_2  and  C4_4 
REMARK    2  A    between atoms: C4_4  and  C5_5 
REMARK    3  A    between atoms: C5_5  and  C8_8 
REMARK    4  A    between atoms: C10_11  and  O2_12 
REMARK    5  A    between atoms: C13_15  and  C14_16 
REMARK    6  A    between atoms: C17_19  and  O3_20 
ROOT
HETATM    1  C8  UNL     1      -2.222 -16.620  15.773  1.00  0.00     0.071 C 
HETATM    2  O1  UNL     1      -1.074 -16.159  15.302  1.00  0.00    -0.308 OA
HETATM    3  C9  UNL     1      -0.043 -16.195  14.460  1.00  0.00     0.145 A 
HETATM    4  C10 UNL     1       0.973 -15.229  14.623  1.00  0.00     0.105 A 
HETATM    5  C12 UNL     1       2.103 -15.148  13.845  1.00  0.00     0.050 A 
HETATM    6  C13 UNL     1       2.274 -16.060  12.850  1.00  0.00    -0.016 A 
HETATM    7  C17 UNL     1       1.295 -17.013  12.669  1.00  0.00     0.108 A 
HETATM    8  C18 UNL     1       0.150 -17.108  13.429  1.00  0.00     0.139 A 
HETATM    9  O4  UNL     1      -0.751 -18.097  13.103  1.00  0.00    -0.345 OA
HETATM   10  C19 UNL     1      -1.989 -18.014  12.509  1.00  0.00     0.179 C 
HETATM   11  C20 UNL     1      -3.154 -18.484  13.298  1.00  0.00     0.054 C 
HETATM   12  C21 UNL     1      -3.853 -17.379  13.992  1.00  0.00    -0.015 C 
HETATM   13  C22 UNL     1      -3.474 -16.633  14.989  1.00  0.00    -0.035 C 
HETATM   14  C23 UNL     1      -4.551 -15.594  15.365  1.00  0.00     0.050 C 
ENDROOT
BRANCH   1  15
HETATM   15  C5  UNL     1      -2.198 -17.644  16.871  1.00  0.00     0.021 C 
HETATM   16  C6  UNL     1      -1.348 -17.265  18.080  1.00  0.00     0.026 C 
HETATM   17  C7  UNL     1      -1.570 -18.964  16.335  1.00  0.00     0.026 C 
BRANCH  15  18
HETATM   18  C4  UNL     1      -3.497 -18.069  17.456  1.00  0.00    -0.005 C 
BRANCH  18  19
HETATM   19  C2  UNL     1      -4.079 -17.451  18.620  1.00  0.00    -0.074 C 
HETATM   20  C1  UNL     1      -4.451 -18.328  19.617  1.00  0.00     0.018 C 
HETATM   21  C3  UNL     1      -4.355 -16.032  18.887  1.00  0.00     0.047 C 
ENDBRANCH  18  19
ENDBRANCH  15  18
ENDBRANCH   1  15
BRANCH   4  22
HETATM   22  O2  UNL     1       0.868 -14.276  15.630  1.00  0.00    -0.353 OA
HETATM   23  C11 UNL     1       1.742 -13.252  15.936  1.00  0.00     0.210 C 
ENDBRANCH   4  22
BRANCH   7  24
HETATM   24  O3  UNL     1       1.606 -17.895  11.609  1.00  0.00    -0.357 OA
ATOM     25  H3  UNL     1       0.843 -18.095  11.078  1.00  0.00     0.217 HD
ENDBRANCH   7  24
BRANCH   6  26
HETATM   26  C14 UNL     1       3.562 -16.131  12.116  1.00  0.00     0.013 C 
HETATM   27  C15 UNL     1       3.626 -14.919  11.178  1.00  0.00     0.015 C 
HETATM   28  C16 UNL     1       4.722 -15.774  13.132  1.00  0.00     0.015 C 
ENDBRANCH   6  26
TORSDOF 6
ENDMDL
MODEL 2
REMARK VINA RESULT: -7.128950063      2.051      7.847
REMARK  6 active torsions:
REMARK  status: ('A' for Active; 'I' for Inactive)
REMARK    1  A    between atoms: C2_2  and  C4_4 
REMARK    2  A    between atoms: C4_4  and  C5_5 
REMARK    3  A    between atoms: C5_5  and  C8_8 
REMARK    4  A    between atoms: C10_11  and  O2_12 
REMARK    5  A    between atoms: C13_15  and  C14_16 
REMARK    6  A    between atoms: C17_19  and  O3_20 
ROOT
HETATM    1  C8  UNL     1       2.783 -13.710  13.163  1.00  0.00     0.071 C 
HETATM    2  O1  UNL     1       1.769 -14.555  13.262  1.00  0.00    -0.308 OA
HETATM    3  C9  UNL     1       0.928 -15.314  13.963  1.00  0.00     0.145 A 
HETATM    4  C10 UNL     1      -0.021 -16.076  13.248  1.00  0.00     0.105 A 
HETATM    5  C12 UNL     1      -0.941 -16.917  13.827  1.00  0.00     0.050 A 
HETATM    6  C13 UNL     1      -0.946 -17.041  15.182  1.00  0.00    -0.016 A 
HETATM    7  C17 UNL     1      -0.030 -16.306  15.903  1.00  0.00     0.108 A 
HETATM    8  C18 UNL     1       0.894 -15.449  15.347  1.00  0.00     0.139 A 
HETATM    9  O4  UNL     1       1.721 -14.759  16.204  1.00  0.00    -0.345 OA
HETATM   10  C19 UNL     1       1.733 -13.427  16.550  1.00  0.00     0.179 C 
HETATM   11  C20 UNL     1       2.952 -12.650  16.215  1.00  0.00     0.054 C 
HETATM   12  C21 UNL     1       2.820 -11.909  14.941  1.00  0.00    -0.015 C 
HETATM   13  C22 UNL     1       2.754 -12.340  13.715  1.00  0.00    -0.035 C 
HETATM   14  C23 UNL     1       2.610 -11.179  12.709  1.00  0.00     0.050 C 
ENDROOT
BRANCH   1  15
HETATM   15  C5  UNL     1       4.171 -14.258  13.003  1.00  0.00     0.021 C 
HETATM   16  C6  UNL     1       4.326 -15.295  11.896  1.00  0.00     0.026 C 
HETATM   17  C7  UNL     1       4.590 -14.997  14.308  1.00  0.00     0.026 C 
BRANCH  15  18
HETATM   18  C4  UNL     1       5.277 -13.293  12.761  1.00  0.00    -0.005 C 
BRANCH  18  19
HETATM   19  C2  UNL     1       5.894 -13.109  11.471  1.00  0.00    -0.074 C 
HETATM   20  C1  UNL     1       5.358 -12.089  10.713  1.00  0.00     0.018 C 
HETATM   21  C3  UNL     1       6.988 -13.861  10.842  1.00  0.00     0.047 C 
ENDBRANCH  18  19
ENDBRANCH  15  18
ENDBRANCH   1  15
BRANCH   4  22
HETATM   22  O2  UNL     1      -0.061 -16.007  11.860  1.00  0.00    -0.353 OA
HETATM   23  C11 UNL     1      -0.940 -16.628  10.996  1.00  0.00     0.210 C 
ENDBRANCH   4  22
BRANCH   7  24
HETATM   24  O3  UNL     1      -0.144 -16.537  17.293  1.00  0.00    -0.357 OA
ATOM     25  H3  UNL     1      -0.198 -17.464  17.497  1.00  0.00     0.217 HD
ENDBRANCH   7  24
BRANCH   6  26
HETATM   26  C14 UNL     1      -1.785 -18.076  15.834  1.00  0.00     0.013 C 
HETATM   27  C15 UNL     1      -3.225 -17.546  15.874  1.00  0.00     0.015 C 
HETATM   28  C16 UNL     1      -1.948 -19.281  14.819  1.00  0.00     0.015 C 
ENDBRANCH   6  26
TORSDOF 6
ENDMDL
MODEL 3
REMARK VINA RESULT: -7.118495791      3.686      6.245
REMARK  6 active torsions:
REMARK  status: ('A' for Active; 'I' for Inactive)
REMARK    1  A    between atoms: C2_2  and  C4_4 
REMARK    2  A    between atoms: C4_4  and  C5_5 
REMARK    3  A    between atoms: C5_5  and  C8_8 
REMARK    4  A    between atoms: C10_11  and  O2_12 
REMARK    5  A    between atoms: C13_15  and  C14_16 
REMARK    6  A    between atoms: C17_19  and  O3_20 
ROOT
HETATM    1  C8  UNL     1       2.238 -14.923  13.400  1.00  0.00     0.071 C 
HETATM    2  O1  UNL     1       2.469 -13.636  13.199  1.00  0.00    -0.308 OA
HETATM    3  C9  UNL     1       3.228 -12.622  12.787  1.00  0.00     0.145 A 
HETATM    4  C10 UNL     1       2.722 -11.314  12.949  1.00  0.00     0.105 A 
HETATM    5  C12 UNL     1       3.393 -10.170  12.589  1.00  0.00     0.050 A 
HETATM    6  C13 UNL     1       4.634 -10.288  12.046  1.00  0.00    -0.016 A 
HETATM    7  C17 UNL     1       5.151 -11.554  11.876  1.00  0.00     0.108 A 
HETATM    8  C18 UNL     1       4.494 -12.716  12.219  1.00  0.00     0.139 A 
HETATM    9  O4  UNL     1       5.129 -13.908  11.957  1.00  0.00    -0.345 OA
HETATM   10  C19 UNL     1       4.866 -14.867  11.005  1.00  0.00     0.179 C 
HETATM   11  C20 UNL     1       4.502 -16.221  11.488  1.00  0.00     0.054 C 
HETATM   12  C21 UNL     1       3.038 -16.433  11.532  1.00  0.00    -0.015 C 
HETATM   13  C22 UNL     1       2.131 -15.909  12.306  1.00  0.00    -0.035 C 
HETATM   14  C23 UNL     1       0.720 -16.435  11.966  1.00  0.00     0.050 C 
ENDROOT
BRANCH   1  15
HETATM   15  C5  UNL     1       2.629 -15.535  14.714  1.00  0.00     0.021 C 
HETATM   16  C6  UNL     1       2.221 -14.727  15.942  1.00  0.00     0.026 C 
HETATM   17  C7  UNL     1       4.180 -15.636  14.796  1.00  0.00     0.026 C 
BRANCH  15  18
HETATM   18  C4  UNL     1       2.158 -16.914  15.009  1.00  0.00    -0.005 C 
BRANCH  18  19
HETATM   19  C2  UNL     1       0.930 -17.195  15.708  1.00  0.00    -0.074 C 
HETATM   20  C1  UNL     1       1.059 -18.043  16.789  1.00  0.00     0.018 C 
HETATM   21  C3  UNL     1      -0.436 -16.733  15.424  1.00  0.00     0.047 C 
ENDBRANCH  18  19
ENDBRANCH  15  18
ENDBRANCH   1  15
BRANCH   4  22
HETATM   22  O2  UNL     1       1.465 -11.122  13.511  1.00  0.00    -0.353 OA
HETATM   23  C11 UNL     1       1.151 -10.633  14.763  1.00  0.00     0.210 C 
ENDBRANCH   4  22
BRANCH   7  24
HETATM   24  O3  UNL     1       6.445 -11.526  11.310  1.00  0.00    -0.357 OA
ATOM     25  H3  UNL     1       7.025 -12.160  11.717  1.00  0.00     0.217 HD
ENDBRANCH   7  24
BRANCH   6  26
HETATM   26  C14 UNL     1       5.470  -9.081  11.823  1.00  0.00     0.013 C 
HETATM   27  C15 UNL     1       5.464  -8.787  10.317  1.00  0.00     0.015 C 
HETATM   28  C16 UNL     1       4.669  -7.827  12.366  1.00  0.00     0.015 C 
ENDBRANCH   6  26
TORSDOF 6
ENDMDL
MODEL 4
REMARK VINA RESULT: -7.059532354      1.600      2.101
REMARK  6 active torsions:
REMARK  status: ('A' for Active; 'I' for Inactive)
REMARK    1  A    between atoms: C2_2  and  C4_4 
REMARK    2  A    between atoms: C4_4  and  C5_5 
REMARK    3  A    between atoms: C5_5  and  C8_8 
REMARK    4  A    between atoms: C10_11  and  O2_12 
REMARK    5  A    between atoms: C13_15  and  C14_16 
REMARK    6  A    between atoms: C17_19  and  O3_20 
ROOT
HETATM    1  C8  UNL     1      -1.129 -16.699  14.889  1.00  0.00     0.071 C 
HETATM    2  O1  UNL     1      -0.148 -15.826  14.722  1.00  0.00    -0.308 OA
HETATM    3  C9  UNL     1       0.859 -15.301  14.027  1.00  0.00     0.145 A 
HETATM    4  C10 UNL     1       1.571 -14.229  14.609  1.00  0.00     0.105 A 
HETATM    5  C12 UNL     1       2.641 -13.596  14.025  1.00  0.00     0.050 A 
HETATM    6  C13 UNL     1       3.062 -14.023  12.805  1.00  0.00    -0.016 A 
HETATM    7  C17 UNL     1       2.384 -15.068  12.214  1.00  0.00     0.108 A 
HETATM    8  C18 UNL     1       1.303 -15.711  12.774  1.00  0.00     0.139 A 
HETATM    9  O4  UNL     1       0.710 -16.717  12.044  1.00  0.00    -0.345 OA
HETATM   10  C19 UNL     1      -0.499 -16.747  11.389  1.00  0.00     0.179 C 
HETATM   11  C20 UNL     1      -1.496 -17.744  11.849  1.00  0.00     0.054 C 
HETATM   12  C21 UNL     1      -2.476 -17.170  12.798  1.00  0.00    -0.015 C 
HETATM   13  C22 UNL     1      -2.323 -16.753  14.022  1.00  0.00    -0.035 C 
HETATM   14  C23 UNL     1      -3.647 -16.223  14.612  1.00  0.00     0.050 C 
ENDROOT
BRANCH   1  15
HETATM   15  C5  UNL     1      -0.833 -18.001  15.575  1.00  0.00     0.021 C 
HETATM   16  C6  UNL     1      -0.172 -17.868  16.943  1.00  0.00     0.026 C 
HETATM   17  C7  UNL     1       0.175 -18.821  14.718  1.00  0.00     0.026 C 
BRANCH  15  18
HETATM   18  C4  UNL     1      -1.963 -18.940  15.804  1.00  0.00    -0.005 C 
BRANCH  18  19
HETATM   19  C2  UNL     1      -2.698 -19.003  17.042  1.00  0.00    -0.074 C 
HETATM   20  C1  UNL     1      -2.718 -20.245  17.642  1.00  0.00     0.018 C 
HETATM   21  C3  UNL     1      -3.446 -17.949  17.741  1.00  0.00     0.047 C 
ENDBRANCH  18  19
ENDBRANCH  15  18
ENDBRANCH   1  15
BRANCH   4  22
HETATM   22  O2  UNL     1       1.201 -13.752  15.862  1.00  0.00    -0.353 OA
HETATM   23  C11 UNL     1       1.829 -12.796  16.635  1.00  0.00     0.210 C 
ENDBRANCH   4  22
BRANCH   7  24
HETATM   24  O3  UNL     1       2.932 -15.410  10.956  1.00  0.00    -0.357 OA
ATOM     25  H3  UNL     1       2.257 -15.589  10.311  1.00  0.00     0.217 HD
ENDBRANCH   7  24
BRANCH   6  26
HETATM   26  C14 UNL     1       4.326 -13.502  12.226  1.00  0.00     0.013 C 
HETATM   27  C15 UNL     1       4.271 -11.971  12.303  1.00  0.00     0.015 C 
HETATM   28  C16 UNL     1       5.492 -13.803  13.253  1.00  0.00     0.015 C 
ENDBRANCH   6  26
TORSDOF 6
ENDMDL
MODEL 5
REMARK VINA RESULT: -7.058108477      0.816      1.742
REMARK  6 active torsions:
REMARK  status: ('A' for Active; 'I' for Inactive)
REMARK    1  A    between atoms: C2_2  and  C4_4 
REMARK    2  A    between atoms: C4_4  and  C5_5 
REMARK    3  A    between atoms: C5_5  and  C8_8 
REMARK    4  A    between atoms: C10_11  and  O2_12 
REMARK    5  A    between atoms: C13_15  and  C14_16 
REMARK    6  A    between atoms: C17_19  and  O3_20 
ROOT
HETATM    1  C8  UNL     1      -2.232 -16.691  15.782  1.00  0.00     0.071 C 
HETATM    2  O1  UNL     1      -1.081 -16.225  15.323  1.00  0.00    -0.308 OA
HETATM    3  C9  UNL     1      -0.053 -16.242  14.476  1.00  0.00     0.145 A 
HETATM    4  C10 UNL     1       0.973 -15.293  14.669  1.00  0.00     0.105 A 
HETATM    5  C12 UNL     1       2.102 -15.196  13.890  1.00  0.00     0.050 A 
HETATM    6  C13 UNL     1       2.259 -16.073  12.863  1.00  0.00    -0.016 A 
HETATM    7  C17 UNL     1       1.270 -17.010  12.652  1.00  0.00     0.108 A 
HETATM    8  C18 UNL     1       0.126 -17.120  13.412  1.00  0.00     0.139 A 
HETATM    9  O4  UNL     1      -0.786 -18.087  13.055  1.00  0.00    -0.345 OA
HETATM   10  C19 UNL     1      -2.025 -17.969  12.470  1.00  0.00     0.179 C 
HETATM   11  C20 UNL     1      -3.192 -18.455  13.246  1.00  0.00     0.054 C 
HETATM   12  C21 UNL     1      -3.877 -17.369  13.981  1.00  0.00    -0.015 C 
HETATM   13  C22 UNL     1      -3.486 -16.663  15.003  1.00  0.00    -0.035 C 
HETATM   14  C23 UNL     1      -4.551 -15.627  15.420  1.00  0.00     0.050 C 
ENDROOT
BRANCH   1  15
HETATM   15  C5  UNL     1      -2.214 -17.753  16.843  1.00  0.00     0.021 C 
HETATM   16  C6  UNL     1      -3.554 -17.989  17.532  1.00  0.00     0.026 C 
HETATM   17  C7  UNL     1      -1.244 -17.330  17.984  1.00  0.00     0.026 C 
BRANCH  15  18
HETATM   18  C4  UNL     1      -1.754 -19.114  16.459  1.00  0.00    -0.005 C 
BRANCH  18  19
HETATM   19  C2  UNL     1      -2.478 -20.315  16.791  1.00  0.00    -0.074 C 
HETATM   20  C1  UNL     1      -3.040 -20.970  15.715  1.00  0.00     0.018 C 
HETATM   21  C3  UNL     1      -2.724 -20.925  18.105  1.00  0.00     0.047 C 
ENDBRANCH  18  19
ENDBRANCH  15  18
ENDBRANCH   1  15
BRANCH   4  22
HETATM   22  O2  UNL     1       0.882 -14.375  15.710  1.00  0.00    -0.353 OA
HETATM   23  C11 UNL     1       1.791 -13.404  16.079  1.00  0.00     0.210 C 
ENDBRANCH   4  22
BRANCH   7  24
HETATM   24  O3  UNL     1       1.567 -17.857  11.560  1.00  0.00    -0.357 OA
ATOM     25  H3  UNL     1       2.475 -18.139  11.566  1.00  0.00     0.217 HD
ENDBRANCH   7  24
BRANCH   6  26
HETATM   26  C14 UNL     1       3.543 -16.132  12.121  1.00  0.00     0.013 C 
HETATM   27  C15 UNL     1       3.610 -14.896  11.214  1.00  0.00     0.015 C 
HETATM   28  C16 UNL     1       4.710 -15.806  13.141  1.00  0.00     0.015 C 
ENDBRANCH   6  26
TORSDOF 6
ENDMDL
