MODEL 1
REMARK VINA RESULT: -7.704873625      0.000      0.000
REMARK  3 active torsions:
REMARK  status: ('A' for Active; 'I' for Inactive)
REMARK    1  A    between atoms: C2_2  and  C5_7 
REMARK    2  A    between atoms: C3_3  and  C4_4 
REMARK    3  A    between atoms: C4_4  and  O1_5 
ROOT
HETATM    1  C5  UNL     1       2.528  14.302 -34.291  1.00  0.00     0.019 C 
HETATM    2  C6  UNL     1       2.222  15.299 -33.218  1.00  0.00     0.010 C 
HETATM    3  C7  UNL     1       3.649  15.797 -32.925  1.00  0.00     0.010 C 
HETATM    4  C8  UNL     1       4.463  15.519 -34.171  1.00  0.00    -0.035 C 
HETATM    5  C9  UNL     1       5.313  14.295 -33.898  1.00  0.00     0.016 C 
HETATM    6  C10 UNL     1       3.417  15.075 -35.194  1.00  0.00     0.002 C 
HETATM    7  C11 UNL     1       2.810  16.253 -35.885  1.00  0.00     0.007 C 
HETATM    8  C12 UNL     1       3.931  17.023 -36.582  1.00  0.00     0.011 C 
HETATM    9  C13 UNL     1       4.770  17.649 -35.520  1.00  0.00    -0.026 C 
HETATM   10  C14 UNL     1       4.046  18.778 -34.853  1.00  0.00     0.016 C 
HETATM   11  C15 UNL     1       5.974  18.305 -36.221  1.00  0.00     0.067 C 
HETATM   12  S1  UNL     1       6.852  17.045 -37.194  1.00  0.00    -0.092 SA
HETATM   13  C16 UNL     1       6.925  18.889 -35.222  1.00  0.00     0.017 C 
HETATM   14  C17 UNL     1       7.206  18.037 -34.034  1.00  0.00     0.002 C 
HETATM   15  C18 UNL     1       5.989  17.347 -33.456  1.00  0.00     0.006 C 
HETATM   16  C19 UNL     1       5.330  16.613 -34.624  1.00  0.00     0.003 C 
ENDROOT
BRANCH   1  17
HETATM   17  C2  UNL     1       1.457  13.501 -34.814  1.00  0.00    -0.081 C 
HETATM   18  C1  UNL     1       1.784  12.060 -35.152  1.00  0.00     0.043 C 
HETATM   19  C3  UNL     1       0.216  13.871 -35.014  1.00  0.00     0.002 C 
BRANCH  19  20
HETATM   20  C4  UNL     1      -0.792  12.913 -35.542  1.00  0.00     0.191 C 
BRANCH  20  21
HETATM   21  O1  UNL     1      -1.458  13.594 -36.586  1.00  0.00    -0.397 OA
ATOM     22  H1  UNL     1      -2.238  13.084 -36.771  1.00  0.00     0.209 HD
ENDBRANCH  20  21
ENDBRANCH  19  20
ENDBRANCH   1  17
TORSDOF 3
ENDMDL
MODEL 2
REMARK VINA RESULT: -7.136803546      3.360      4.576
REMARK  3 active torsions:
REMARK  status: ('A' for Active; 'I' for Inactive)
REMARK    1  A    between atoms: C2_2  and  C5_7 
REMARK    2  A    between atoms: C3_3  and  C4_4 
REMARK    3  A    between atoms: C4_4  and  O1_5 
ROOT
HETATM    1  C5  UNL     1       5.357  14.666 -33.052  1.00  0.00     0.019 C 
HETATM    2  C6  UNL     1       3.921  14.384 -33.366  1.00  0.00     0.010 C 
HETATM    3  C7  UNL     1       3.356  15.811 -33.257  1.00  0.00     0.010 C 
HETATM    4  C8  UNL     1       4.520  16.752 -33.489  1.00  0.00    -0.035 C 
HETATM    5  C9  UNL     1       4.945  17.295 -32.140  1.00  0.00     0.016 C 
HETATM    6  C10 UNL     1       5.651  15.823 -33.934  1.00  0.00     0.002 C 
HETATM    7  C11 UNL     1       5.590  15.575 -35.407  1.00  0.00     0.007 C 
HETATM    8  C12 UNL     1       5.707  16.921 -36.119  1.00  0.00     0.011 C 
HETATM    9  C13 UNL     1       4.451  17.678 -35.853  1.00  0.00    -0.026 C 
HETATM   10  C14 UNL     1       3.293  17.083 -36.594  1.00  0.00     0.016 C 
HETATM   11  C15 UNL     1       4.631  19.084 -36.454  1.00  0.00     0.067 C 
HETATM   12  S1  UNL     1       6.111  19.853 -35.731  1.00  0.00    -0.092 SA
HETATM   13  C16 UNL     1       3.446  19.951 -36.159  1.00  0.00     0.017 C 
HETATM   14  C17 UNL     1       2.922  19.864 -34.768  1.00  0.00     0.002 C 
HETATM   15  C18 UNL     1       2.862  18.459 -34.208  1.00  0.00     0.006 C 
HETATM   16  C19 UNL     1       4.262  17.874 -34.399  1.00  0.00     0.003 C 
ENDROOT
BRANCH   1  17
HETATM   17  C2  UNL     1       6.270  13.563 -32.949  1.00  0.00    -0.081 C 
HETATM   18  C1  UNL     1       6.014  12.378 -33.859  1.00  0.00     0.043 C 
HETATM   19  C3  UNL     1       7.317  13.471 -32.166  1.00  0.00     0.002 C 
BRANCH  19  20
HETATM   20  C4  UNL     1       8.187  12.265 -32.191  1.00  0.00     0.191 C 
BRANCH  20  21
HETATM   21  O1  UNL     1       8.005  11.634 -30.939  1.00  0.00    -0.397 OA
ATOM     22  H1  UNL     1       8.732  11.031 -30.846  1.00  0.00     0.209 HD
ENDBRANCH  20  21
ENDBRANCH  19  20
ENDBRANCH   1  17
TORSDOF 3
ENDMDL
MODEL 3
REMARK VINA RESULT: -7.030560339      3.084      4.269
REMARK  3 active torsions:
REMARK  status: ('A' for Active; 'I' for Inactive)
REMARK    1  A    between atoms: C2_2  and  C5_7 
REMARK    2  A    between atoms: C3_3  and  C4_4 
REMARK    3  A    between atoms: C4_4  and  O1_5 
ROOT
HETATM    1  C5  UNL     1       5.371  14.543 -33.095  1.00  0.00     0.019 C 
HETATM    2  C6  UNL     1       3.928  14.285 -33.399  1.00  0.00     0.010 C 
HETATM    3  C7  UNL     1       3.383  15.718 -33.265  1.00  0.00     0.010 C 
HETATM    4  C8  UNL     1       4.557  16.645 -33.496  1.00  0.00    -0.035 C 
HETATM    5  C9  UNL     1       5.004  17.164 -32.144  1.00  0.00     0.016 C 
HETATM    6  C10 UNL     1       5.670  15.708 -33.966  1.00  0.00     0.002 C 
HETATM    7  C11 UNL     1       5.591  15.480 -35.441  1.00  0.00     0.007 C 
HETATM    8  C12 UNL     1       5.719  16.834 -36.136  1.00  0.00     0.011 C 
HETATM    9  C13 UNL     1       4.476  17.604 -35.846  1.00  0.00    -0.026 C 
HETATM   10  C14 UNL     1       3.302  17.035 -36.583  1.00  0.00     0.016 C 
HETATM   11  C15 UNL     1       4.669  19.016 -36.431  1.00  0.00     0.067 C 
HETATM   12  S1  UNL     1       6.166  19.755 -35.713  1.00  0.00    -0.092 SA
HETATM   13  C16 UNL     1       3.498  19.895 -36.112  1.00  0.00     0.017 C 
HETATM   14  C17 UNL     1       2.988  19.796 -34.717  1.00  0.00     0.002 C 
HETATM   15  C18 UNL     1       2.915  18.385 -34.174  1.00  0.00     0.006 C 
HETATM   16  C19 UNL     1       4.305  17.784 -34.388  1.00  0.00     0.003 C 
ENDROOT
BRANCH   1  17
HETATM   17  C2  UNL     1       6.269  13.427 -33.017  1.00  0.00    -0.081 C 
HETATM   18  C1  UNL     1       7.457  13.570 -32.086  1.00  0.00     0.043 C 
HETATM   19  C3  UNL     1       6.169  12.282 -33.647  1.00  0.00     0.002 C 
BRANCH  19  20
HETATM   20  C4  UNL     1       7.173  11.205 -33.442  1.00  0.00     0.191 C 
BRANCH  20  21
HETATM   21  O1  UNL     1       6.464  10.125 -32.867  1.00  0.00    -0.397 OA
ATOM     22  H1  UNL     1       6.785  10.051 -31.976  1.00  0.00     0.209 HD
ENDBRANCH  20  21
ENDBRANCH  19  20
ENDBRANCH   1  17
TORSDOF 3
ENDMDL
MODEL 4
REMARK VINA RESULT: -6.537409791      1.277      1.481
REMARK  3 active torsions:
REMARK  status: ('A' for Active; 'I' for Inactive)
REMARK    1  A    between atoms: C2_2  and  C5_7 
REMARK    2  A    between atoms: C3_3  and  C4_4 
REMARK    3  A    between atoms: C4_4  and  O1_5 
ROOT
HETATM    1  C5  UNL     1       3.178  14.396 -33.953  1.00  0.00     0.019 C 
HETATM    2  C6  UNL     1       2.882  15.434 -32.916  1.00  0.00     0.010 C 
HETATM    3  C7  UNL     1       4.289  16.035 -32.752  1.00  0.00     0.010 C 
HETATM    4  C8  UNL     1       5.034  15.734 -34.036  1.00  0.00    -0.035 C 
HETATM    5  C9  UNL     1       5.978  14.582 -33.759  1.00  0.00     0.016 C 
HETATM    6  C10 UNL     1       3.953  15.169 -34.957  1.00  0.00     0.002 C 
HETATM    7  C11 UNL     1       3.225  16.266 -35.665  1.00  0.00     0.007 C 
HETATM    8  C12 UNL     1       4.244  17.060 -36.480  1.00  0.00     0.011 C 
HETATM    9  C13 UNL     1       5.110  17.797 -35.516  1.00  0.00    -0.026 C 
HETATM   10  C14 UNL     1       4.362  18.917 -34.861  1.00  0.00     0.016 C 
HETATM   11  C15 UNL     1       6.219  18.483 -36.335  1.00  0.00     0.067 C 
HETATM   12  S1  UNL     1       7.110  17.225 -37.299  1.00  0.00    -0.092 SA
HETATM   13  C16 UNL     1       7.196  19.181 -35.439  1.00  0.00     0.017 C 
HETATM   14  C17 UNL     1       7.611  18.418 -34.230  1.00  0.00     0.002 C 
HETATM   15  C18 UNL     1       6.483  17.691 -33.530  1.00  0.00     0.006 C 
HETATM   16  C19 UNL     1       5.796  16.851 -34.608  1.00  0.00     0.003 C 
ENDROOT
BRANCH   1  17
HETATM   17  C2  UNL     1       2.129  13.503 -34.354  1.00  0.00    -0.081 C 
HETATM   18  C1  UNL     1       0.710  14.028 -34.255  1.00  0.00     0.043 C 
HETATM   19  C3  UNL     1       2.259  12.284 -34.819  1.00  0.00     0.002 C 
BRANCH  19  20
HETATM   20  C4  UNL     1       1.070  11.487 -35.218  1.00  0.00     0.191 C 
BRANCH  20  21
HETATM   21  O1  UNL     1       1.522  10.151 -35.323  1.00  0.00    -0.397 OA
ATOM     22  H1  UNL     1       1.596   9.976 -36.254  1.00  0.00     0.209 HD
ENDBRANCH  20  21
ENDBRANCH  19  20
ENDBRANCH   1  17
TORSDOF 3
ENDMDL
MODEL 5
REMARK VINA RESULT: -6.447454922      1.800      2.177
REMARK  3 active torsions:
REMARK  status: ('A' for Active; 'I' for Inactive)
REMARK    1  A    between atoms: C2_2  and  C5_7 
REMARK    2  A    between atoms: C3_3  and  C4_4 
REMARK    3  A    between atoms: C4_4  and  O1_5 
ROOT
HETATM    1  C5  UNL     1       2.134  14.271 -35.633  1.00  0.00     0.019 C 
HETATM    2  C6  UNL     1       1.641  14.401 -34.225  1.00  0.00     0.010 C 
HETATM    3  C7  UNL     1       2.987  14.350 -33.482  1.00  0.00     0.010 C 
HETATM    4  C8  UNL     1       4.043  14.786 -34.477  1.00  0.00    -0.035 C 
HETATM    5  C9  UNL     1       4.765  13.542 -34.953  1.00  0.00     0.016 C 
HETATM    6  C10 UNL     1       3.228  15.274 -35.676  1.00  0.00     0.002 C 
HETATM    7  C11 UNL     1       2.832  16.705 -35.507  1.00  0.00     0.007 C 
HETATM    8  C12 UNL     1       4.106  17.536 -35.366  1.00  0.00     0.011 C 
HETATM    9  C13 UNL     1       4.717  17.197 -34.050  1.00  0.00    -0.026 C 
HETATM   10  C14 UNL     1       3.910  17.754 -32.918  1.00  0.00     0.016 C 
HETATM   11  C15 UNL     1       6.070  17.930 -33.975  1.00  0.00     0.067 C 
HETATM   12  S1  UNL     1       7.090  17.440 -35.398  1.00  0.00    -0.092 SA
HETATM   13  C16 UNL     1       6.802  17.580 -32.715  1.00  0.00     0.017 C 
HETATM   14  C17 UNL     1       6.784  16.137 -32.347  1.00  0.00     0.002 C 
HETATM   15  C18 UNL     1       5.445  15.458 -32.537  1.00  0.00     0.006 C 
HETATM   16  C19 UNL     1       5.029  15.752 -33.979  1.00  0.00     0.003 C 
ENDROOT
BRANCH   1  17
HETATM   17  C2  UNL     1       1.173  14.177 -36.695  1.00  0.00    -0.081 C 
HETATM   18  C1  UNL     1      -0.209  13.678 -36.323  1.00  0.00     0.043 C 
HETATM   19  C3  UNL     1       1.349  14.495 -37.954  1.00  0.00     0.002 C 
BRANCH  19  20
HETATM   20  C4  UNL     1       0.242  14.366 -38.938  1.00  0.00     0.191 C 
BRANCH  20  21
HETATM   21  O1  UNL     1      -0.065  15.684 -39.345  1.00  0.00    -0.397 OA
ATOM     22  H1  UNL     1      -0.641  16.034 -38.676  1.00  0.00     0.209 HD
ENDBRANCH  20  21
ENDBRANCH  19  20
ENDBRANCH   1  17
TORSDOF 3
ENDMDL
