MODEL 1
REMARK VINA RESULT: -8.198994271      0.000      0.000
REMARK  5 active torsions:
REMARK  status: ('A' for Active; 'I' for Inactive)
REMARK    1  A    between atoms: C3_5  and  C4_6 
REMARK    2  A    between atoms: C5_9  and  N3_10 
REMARK    3  A    between atoms: C6_14  and  C7_15 
REMARK       I    between atoms: C7_15  and  N6_17 
REMARK    4  A    between atoms: N6_17  and  N7_19 
REMARK    5  A    between atoms: C9_26  and  N11_27 
ROOT
HETATM    1  N3  UNL     1      18.866  36.902  36.888  1.00  0.00    -0.172 N 
HETATM    2  N4  UNL     1      19.915  37.691  36.742  1.00  0.00     0.003 NA
HETATM    3  N5  UNL     1      19.536  38.888  36.297  1.00  0.00    -0.262 N 
ATOM      4  H5  UNL     1      20.153  39.677  36.103  1.00  0.00     0.186 HD
HETATM    5  C6  UNL     1      18.203  38.877  36.151  1.00  0.00     0.205 A 
HETATM    6  N10 UNL     1      17.815  37.644  36.521  1.00  0.00    -0.260 N 
ATOM      7  H10 UNL     1      16.849  37.317  36.521  1.00  0.00     0.190 HD
ENDROOT
BRANCH   1   8
HETATM    8  C5  UNL     1      18.893  35.548  37.326  1.00  0.00     0.148 A 
HETATM    9  C3  UNL     1      19.460  35.145  38.505  1.00  0.00     0.133 A 
HETATM   10  N1  UNL     1      19.411  33.819  38.793  1.00  0.00    -0.340 N 
HETATM   11  C2  UNL     1      18.863  32.888  38.034  1.00  0.00     0.079 A 
ATOM     12  H1  UNL     1      19.833  33.516  39.670  1.00  0.00     0.167 HD
HETATM   13  C1  UNL     1      18.833  31.441  38.392  1.00  0.00     0.089 C 
HETATM   14  N12 UNL     1      18.299  33.257  36.871  1.00  0.00    -0.331 N 
HETATM   15  C9  UNL     1      18.314  34.547  36.528  1.00  0.00     0.133 A 
ATOM     16  H12 UNL     1      17.867  32.562  36.261  1.00  0.00     0.168 HD
BRANCH   9  17
HETATM   17  C4  UNL     1      20.094  36.061  39.430  1.00  0.00     0.284 C 
HETATM   18  N2  UNL     1      19.484  37.037  40.215  1.00  0.00    -0.056 NA
HETATM   19  O1  UNL     1      21.372  35.964  39.541  1.00  0.00    -0.269 OA
ENDBRANCH   9  17
BRANCH  15  20
HETATM   20  N11 UNL     1      17.783  34.961  35.415  1.00  0.00    -0.383 N 
ATOM     21 2H11 UNL     1      18.165  35.759  34.907  1.00  0.00     0.157 HD
ATOM     22 1H11 UNL     1      16.970  34.433  35.097  1.00  0.00     0.157 HD
ENDBRANCH  15  20
ENDBRANCH   1   8
BRANCH   5  23
HETATM   23  C7  UNL     1      17.364  39.979  35.687  1.00  0.00     0.306 C 
HETATM   24  O2  UNL     1      16.785  40.756  36.490  1.00  0.00    -0.262 OA
HETATM   25  N6  UNL     1      17.195  40.180  34.304  1.00  0.00    -0.261 N 
ATOM     26  H6  UNL     1      17.655  39.561  33.637  1.00  0.00     0.190 HD
BRANCH  25  27
HETATM   27  N7  UNL     1      16.400  41.224  33.850  1.00  0.00    -0.273 N 
HETATM   28  C8  UNL     1      16.367  41.500  32.598  1.00  0.00     0.215 C 
HETATM   29  N8  UNL     1      17.140  40.740  31.690  1.00  0.00    -0.065 NA
HETATM   30  N9  UNL     1      15.545  42.571  32.165  1.00  0.00    -0.065 NA
ATOM     31  H7  UNL     1      15.844  41.768  34.509  1.00  0.00     0.189 HD
ENDBRANCH  25  27
ENDBRANCH   5  23
TORSDOF 5
ENDMDL
MODEL 2
REMARK VINA RESULT: -8.005447419      2.298      3.207
REMARK  5 active torsions:
REMARK  status: ('A' for Active; 'I' for Inactive)
REMARK    1  A    between atoms: C3_5  and  C4_6 
REMARK    2  A    between atoms: C5_9  and  N3_10 
REMARK    3  A    between atoms: C6_14  and  C7_15 
REMARK       I    between atoms: C7_15  and  N6_17 
REMARK    4  A    between atoms: N6_17  and  N7_19 
REMARK    5  A    between atoms: C9_26  and  N11_27 
ROOT
HETATM    1  N3  UNL     1      18.924  36.805  36.792  1.00  0.00    -0.172 N 
HETATM    2  N4  UNL     1      18.488  37.177  35.603  1.00  0.00     0.003 NA
HETATM    3  N5  UNL     1      18.591  38.498  35.463  1.00  0.00    -0.262 N 
ATOM      4  H5  UNL     1      18.322  39.035  34.639  1.00  0.00     0.186 HD
HETATM    5  C6  UNL     1      19.111  38.998  36.594  1.00  0.00     0.205 A 
HETATM    6  N10 UNL     1      19.307  37.936  37.395  1.00  0.00    -0.260 N 
ATOM      7  H10 UNL     1      19.695  37.986  38.337  1.00  0.00     0.190 HD
ENDROOT
BRANCH   1   8
HETATM    8  C5  UNL     1      18.947  35.474  37.296  1.00  0.00     0.148 A 
HETATM    9  C3  UNL     1      19.552  35.121  38.473  1.00  0.00     0.133 A 
HETATM   10  N1  UNL     1      19.495  33.812  38.829  1.00  0.00    -0.340 N 
HETATM   11  C2  UNL     1      18.905  32.853  38.138  1.00  0.00     0.079 A 
ATOM     12  H1  UNL     1      19.944  33.547  39.704  1.00  0.00     0.167 HD
HETATM   13  C1  UNL     1      18.867  31.427  38.570  1.00  0.00     0.089 C 
HETATM   14  N12 UNL     1      18.304  33.173  36.980  1.00  0.00    -0.331 N 
HETATM   15  C9  UNL     1      18.324  34.444  36.571  1.00  0.00     0.133 A 
ATOM     16  H12 UNL     1      17.839  32.456  36.421  1.00  0.00     0.168 HD
BRANCH   9  17
HETATM   17  C4  UNL     1      20.233  36.071  39.326  1.00  0.00     0.284 C 
HETATM   18  N2  UNL     1      19.663  36.971  40.225  1.00  0.00    -0.056 NA
HETATM   19  O1  UNL     1      21.517  36.089  39.248  1.00  0.00    -0.269 OA
ENDBRANCH   9  17
BRANCH  15  20
HETATM   20  N11 UNL     1      17.759  34.810  35.459  1.00  0.00    -0.383 N 
ATOM     21 2H11 UNL     1      18.186  34.615  34.554  1.00  0.00     0.157 HD
ATOM     22 1H11 UNL     1      16.870  35.300  35.563  1.00  0.00     0.157 HD
ENDBRANCH  15  20
ENDBRANCH   1   8
BRANCH   5  23
HETATM   23  C7  UNL     1      19.398  40.402  36.879  1.00  0.00     0.306 C 
HETATM   24  O2  UNL     1      18.517  41.294  36.777  1.00  0.00    -0.262 OA
HETATM   25  N6  UNL     1      20.696  40.770  37.279  1.00  0.00    -0.261 N 
ATOM     26  H6  UNL     1      21.425  40.062  37.367  1.00  0.00     0.190 HD
BRANCH  25  27
HETATM   27  N7  UNL     1      20.983  42.101  37.553  1.00  0.00    -0.273 N 
HETATM   28  C8  UNL     1      21.753  42.760  36.768  1.00  0.00     0.215 C 
HETATM   29  N8  UNL     1      22.306  42.127  35.630  1.00  0.00    -0.065 NA
HETATM   30  N9  UNL     1      22.027  44.118  37.074  1.00  0.00    -0.065 NA
ATOM     31  H7  UNL     1      20.581  42.553  38.374  1.00  0.00     0.189 HD
ENDBRANCH  25  27
ENDBRANCH   5  23
TORSDOF 5
ENDMDL
MODEL 3
REMARK VINA RESULT: -7.743548899      1.776      1.841
REMARK  5 active torsions:
REMARK  status: ('A' for Active; 'I' for Inactive)
REMARK    1  A    between atoms: C3_5  and  C4_6 
REMARK    2  A    between atoms: C5_9  and  N3_10 
REMARK    3  A    between atoms: C6_14  and  C7_15 
REMARK       I    between atoms: C7_15  and  N6_17 
REMARK    4  A    between atoms: N6_17  and  N7_19 
REMARK    5  A    between atoms: C9_26  and  N11_27 
ROOT
HETATM    1  N3  UNL     1      18.825  36.865  36.924  1.00  0.00    -0.172 N 
HETATM    2  N4  UNL     1      19.859  37.654  36.698  1.00  0.00     0.003 NA
HETATM    3  N5  UNL     1      19.447  38.849  36.275  1.00  0.00    -0.262 N 
ATOM      4  H5  UNL     1      20.047  39.637  36.032  1.00  0.00     0.186 HD
HETATM    5  C6  UNL     1      18.107  38.835  36.225  1.00  0.00     0.205 A 
HETATM    6  N10 UNL     1      17.749  37.603  36.629  1.00  0.00    -0.260 N 
ATOM      7  H10 UNL     1      16.785  37.276  36.700  1.00  0.00     0.190 HD
ENDROOT
BRANCH   1   8
HETATM    8  C5  UNL     1      18.885  35.513  37.366  1.00  0.00     0.148 A 
HETATM    9  C3  UNL     1      19.483  35.125  38.535  1.00  0.00     0.133 A 
HETATM   10  N1  UNL     1      19.464  33.800  38.829  1.00  0.00    -0.340 N 
HETATM   11  C2  UNL     1      18.918  32.856  38.084  1.00  0.00     0.079 A 
ATOM     12  H1  UNL     1      19.908  33.509  39.699  1.00  0.00     0.167 HD
HETATM   13  C1  UNL     1      18.921  31.410  38.448  1.00  0.00     0.089 C 
HETATM   14  N12 UNL     1      18.325  33.210  36.931  1.00  0.00    -0.331 N 
HETATM   15  C9  UNL     1      18.309  34.498  36.583  1.00  0.00     0.133 A 
ATOM     16  H12 UNL     1      17.893  32.505  36.332  1.00  0.00     0.168 HD
BRANCH   9  17
HETATM   17  C4  UNL     1      20.118  36.056  39.444  1.00  0.00     0.284 C 
HETATM   18  N2  UNL     1      19.509  37.052  40.207  1.00  0.00    -0.056 NA
HETATM   19  O1  UNL     1      21.395  35.956  39.562  1.00  0.00    -0.269 OA
ENDBRANCH   9  17
BRANCH  15  20
HETATM   20  N11 UNL     1      17.749  34.898  35.479  1.00  0.00    -0.383 N 
ATOM     21 2H11 UNL     1      17.843  35.859  35.151  1.00  0.00     0.157 HD
ATOM     22 1H11 UNL     1      17.219  34.186  34.977  1.00  0.00     0.157 HD
ENDBRANCH  15  20
ENDBRANCH   1   8
BRANCH   5  23
HETATM   23  C7  UNL     1      17.235  39.934  35.817  1.00  0.00     0.306 C 
HETATM   24  O2  UNL     1      17.294  40.435  34.665  1.00  0.00    -0.262 OA
HETATM   25  N6  UNL     1      16.302  40.449  36.737  1.00  0.00    -0.261 N 
ATOM     26  H6  UNL     1      16.239  40.057  37.676  1.00  0.00     0.190 HD
BRANCH  25  27
HETATM   27  N7  UNL     1      15.467  41.493  36.362  1.00  0.00    -0.273 N 
HETATM   28  C8  UNL     1      14.288  41.240  35.928  1.00  0.00     0.215 C 
HETATM   29  N8  UNL     1      13.846  39.899  35.834  1.00  0.00    -0.065 NA
HETATM   30  N9  UNL     1      13.458  42.328  35.553  1.00  0.00    -0.065 NA
ATOM     31  H7  UNL     1      15.791  42.458  36.431  1.00  0.00     0.189 HD
ENDBRANCH  25  27
ENDBRANCH   5  23
TORSDOF 5
ENDMDL
MODEL 4
REMARK VINA RESULT: -6.142269192      3.453      4.074
REMARK  5 active torsions:
REMARK  status: ('A' for Active; 'I' for Inactive)
REMARK    1  A    between atoms: C3_5  and  C4_6 
REMARK    2  A    between atoms: C5_9  and  N3_10 
REMARK    3  A    between atoms: C6_14  and  C7_15 
REMARK       I    between atoms: C7_15  and  N6_17 
REMARK    4  A    between atoms: N6_17  and  N7_19 
REMARK    5  A    between atoms: C9_26  and  N11_27 
ROOT
HETATM    1  N3  UNL     1      19.376  38.569  37.786  1.00  0.00    -0.172 N 
HETATM    2  N4  UNL     1      18.516  39.478  38.207  1.00  0.00     0.003 NA
HETATM    3  N5  UNL     1      18.939  40.699  37.885  1.00  0.00    -0.262 N 
ATOM      4  H5  UNL     1      18.457  41.574  38.096  1.00  0.00     0.186 HD
HETATM    5  C6  UNL     1      20.106  40.581  37.236  1.00  0.00     0.205 A 
HETATM    6  N10 UNL     1      20.353  39.260  37.188  1.00  0.00    -0.260 N 
ATOM      7  H10 UNL     1      21.176  38.841  36.754  1.00  0.00     0.190 HD
ENDROOT
BRANCH   1   8
HETATM    8  C5  UNL     1      19.263  37.161  37.969  1.00  0.00     0.148 A 
HETATM    9  C3  UNL     1      19.780  36.494  39.047  1.00  0.00     0.133 A 
HETATM   10  N1  UNL     1      19.595  35.150  39.088  1.00  0.00    -0.340 N 
HETATM   11  C2  UNL     1      18.960  34.433  38.179  1.00  0.00     0.079 A 
ATOM     12  H1  UNL     1      19.979  34.651  39.890  1.00  0.00     0.167 HD
HETATM   13  C1  UNL     1      18.781  32.956  38.267  1.00  0.00     0.089 C 
HETATM   14  N12 UNL     1      18.443  35.064  37.111  1.00  0.00    -0.331 N 
HETATM   15  C9  UNL     1      18.590  36.387  37.009  1.00  0.00     0.133 A 
ATOM     16  H12 UNL     1      17.946  34.540  36.390  1.00  0.00     0.168 HD
BRANCH   9  17
HETATM   17  C4  UNL     1      20.498  37.157  40.115  1.00  0.00     0.284 C 
HETATM   18  N2  UNL     1      19.973  37.968  41.120  1.00  0.00    -0.056 NA
HETATM   19  O1  UNL     1      21.772  36.978  40.142  1.00  0.00    -0.269 OA
ENDBRANCH   9  17
BRANCH  15  20
HETATM   20  N11 UNL     1      18.111  37.049  35.997  1.00  0.00    -0.383 N 
ATOM     21 2H11 UNL     1      18.710  37.617  35.399  1.00  0.00     0.157 HD
ATOM     22 1H11 UNL     1      17.105  36.955  35.853  1.00  0.00     0.157 HD
ENDBRANCH  15  20
ENDBRANCH   1   8
BRANCH   5  23
HETATM   23  C7  UNL     1      20.924  41.666  36.699  1.00  0.00     0.306 C 
HETATM   24  O2  UNL     1      22.094  41.471  36.280  1.00  0.00    -0.262 OA
HETATM   25  N6  UNL     1      20.392  42.969  36.651  1.00  0.00    -0.261 N 
ATOM     26  H6  UNL     1      19.446  43.148  36.987  1.00  0.00     0.190 HD
BRANCH  25  27
HETATM   27  N7  UNL     1      21.159  44.009  36.143  1.00  0.00    -0.273 N 
HETATM   28  C8  UNL     1      21.653  44.882  36.942  1.00  0.00     0.215 C 
HETATM   29  N8  UNL     1      21.414  44.779  38.332  1.00  0.00    -0.065 NA
HETATM   30  N9  UNL     1      22.432  45.933  36.394  1.00  0.00    -0.065 NA
ATOM     31  H7  UNL     1      21.328  44.078  35.140  1.00  0.00     0.189 HD
ENDBRANCH  25  27
ENDBRANCH   5  23
TORSDOF 5
ENDMDL
MODEL 5
REMARK VINA RESULT: -6.019749180      2.652      7.495
REMARK  5 active torsions:
REMARK  status: ('A' for Active; 'I' for Inactive)
REMARK    1  A    between atoms: C3_5  and  C4_6 
REMARK    2  A    between atoms: C5_9  and  N3_10 
REMARK    3  A    between atoms: C6_14  and  C7_15 
REMARK       I    between atoms: C7_15  and  N6_17 
REMARK    4  A    between atoms: N6_17  and  N7_19 
REMARK    5  A    between atoms: C9_26  and  N11_27 
ROOT
HETATM    1  N3  UNL     1      17.585  37.956  37.175  1.00  0.00    -0.172 N 
HETATM    2  N4  UNL     1      17.774  36.824  36.522  1.00  0.00     0.003 NA
HETATM    3  N5  UNL     1      18.656  36.059  37.165  1.00  0.00    -0.262 N 
ATOM      4  H5  UNL     1      18.975  35.137  36.870  1.00  0.00     0.186 HD
HETATM    5  C6  UNL     1      19.049  36.713  38.268  1.00  0.00     0.205 A 
HETATM    6  N10 UNL     1      18.376  37.876  38.251  1.00  0.00    -0.260 N 
ATOM      7  H10 UNL     1      18.458  38.602  38.963  1.00  0.00     0.190 HD
ENDROOT
BRANCH   1   8
HETATM    8  C5  UNL     1      16.728  39.019  36.775  1.00  0.00     0.148 A 
HETATM    9  C3  UNL     1      17.161  40.301  36.561  1.00  0.00     0.133 A 
HETATM   10  N1  UNL     1      16.230  41.213  36.182  1.00  0.00    -0.340 N 
HETATM   11  C2  UNL     1      14.944  40.969  36.002  1.00  0.00     0.079 A 
ATOM     12  H1  UNL     1      16.550  42.167  36.022  1.00  0.00     0.167 HD
HETATM   13  C1  UNL     1      13.957  42.004  35.584  1.00  0.00     0.089 C 
HETATM   14  N12 UNL     1      14.493  39.720  36.205  1.00  0.00    -0.331 N 
HETATM   15  C9  UNL     1      15.358  38.774  36.580  1.00  0.00     0.133 A 
ATOM     16  H12 UNL     1      13.506  39.497  36.075  1.00  0.00     0.168 HD
BRANCH   9  17
HETATM   17  C4  UNL     1      18.542  40.704  36.721  1.00  0.00     0.284 C 
HETATM   18  N2  UNL     1      19.340  40.580  37.858  1.00  0.00    -0.056 NA
HETATM   19  O1  UNL     1      19.102  41.241  35.695  1.00  0.00    -0.269 OA
ENDBRANCH   9  17
BRANCH  15  20
HETATM   20  N11 UNL     1      14.977  37.549  36.791  1.00  0.00    -0.383 N 
ATOM     21 2H11 UNL     1      15.392  36.767  36.284  1.00  0.00     0.157 HD
ATOM     22 1H11 UNL     1      14.244  37.434  37.492  1.00  0.00     0.157 HD
ENDBRANCH  15  20
ENDBRANCH   1   8
BRANCH   5  23
HETATM   23  C7  UNL     1      20.007  36.245  39.268  1.00  0.00     0.306 C 
HETATM   24  O2  UNL     1      20.325  35.032  39.366  1.00  0.00    -0.262 OA
HETATM   25  N6  UNL     1      20.591  37.176  40.148  1.00  0.00    -0.261 N 
ATOM     26  H6  UNL     1      20.346  38.164  40.084  1.00  0.00     0.190 HD
BRANCH  25  27
HETATM   27  N7  UNL     1      21.502  36.745  41.102  1.00  0.00    -0.273 N 
HETATM   28  C8  UNL     1      21.680  37.435  42.169  1.00  0.00     0.215 C 
HETATM   29  N8  UNL     1      20.947  38.628  42.364  1.00  0.00    -0.065 NA
HETATM   30  N9  UNL     1      22.618  36.968  43.126  1.00  0.00    -0.065 NA
ATOM     31  H7  UNL     1      22.028  35.883  40.957  1.00  0.00     0.189 HD
ENDBRANCH  25  27
ENDBRANCH   5  23
TORSDOF 5
ENDMDL
