MODEL 1
REMARK VINA RESULT: -9.367666557      0.000      0.000
REMARK  7 active torsions:
REMARK  status: ('A' for Active; 'I' for Inactive)
REMARK    1  A    between atoms: O1_1  and  C1_3 
REMARK    2  A    between atoms: C1_3  and  N1_4 
REMARK    3  A    between atoms: C1_3  and  C13_19 
REMARK    4  A    between atoms: N1_4  and  C2_7 
REMARK    5  A    between atoms: C2_7  and  C3_8 
REMARK    6  A    between atoms: C2_7  and  C9_14 
REMARK    7  A    between atoms: C3_8  and  C4_9 
ROOT
HETATM    1  N1  UNL     1      67.515  24.888  24.005  1.00  0.00    -0.035 N 
ATOM      2  H11 UNL     1      67.945  24.101  23.519  1.00  0.00     0.281 HD
ATOM      3  H12 UNL     1      67.806  24.667  24.957  1.00  0.00     0.281 HD
ENDROOT
BRANCH   1   4
HETATM    4  C1  UNL     1      66.092  24.862  23.877  1.00  0.00     0.354 C 
BRANCH   4   5
HETATM    5  O1  UNL     1      65.520  24.551  25.135  1.00  0.00    -0.366 OA
ATOM      6  H1  UNL     1      64.658  24.947  25.191  1.00  0.00     0.212 HD
ENDBRANCH   4   5
BRANCH   4   7
HETATM    7  C13 UNL     1      65.632  23.806  22.921  1.00  0.00    -0.001 A 
HETATM    8  C14 UNL     1      65.635  24.042  21.547  1.00  0.00     0.011 A 
HETATM    9  C15 UNL     1      65.209  23.063  20.651  1.00  0.00     0.002 A 
HETATM   10  C16 UNL     1      64.778  21.847  21.105  1.00  0.00     0.024 A 
HETATM   11  C17 UNL     1      64.767  21.591  22.447  1.00  0.00     0.034 A 
HETATM   12 CL1  UNL     1      64.208  20.019  22.996  1.00  0.00    -0.084 Cl
HETATM   13  C18 UNL     1      65.188  22.564  23.319  1.00  0.00     0.035 A 
ENDBRANCH   4   7
ENDBRANCH   1   4
BRANCH   1  14
HETATM   14  C2  UNL     1      68.067  26.133  23.569  1.00  0.00     0.246 C 
BRANCH  14  15
HETATM   15  C3  UNL     1      69.579  26.124  23.536  1.00  0.00     0.044 C 
BRANCH  15  16
HETATM   16  C4  UNL     1      70.148  26.757  22.305  1.00  0.00    -0.012 C 
HETATM   17  C5  UNL     1      71.541  26.335  21.978  1.00  0.00     0.005 C 
HETATM   18  C6  UNL     1      71.507  25.717  20.598  1.00  0.00     0.000 C 
HETATM   19  C7  UNL     1      70.215  26.152  19.962  1.00  0.00     0.000 C 
HETATM   20  C8  UNL     1      69.296  26.317  21.131  1.00  0.00     0.005 C 
ENDBRANCH  15  16
ENDBRANCH  14  15
BRANCH  14  21
HETATM   21  C9  UNL     1      67.706  27.252  24.512  1.00  0.00     0.083 A 
HETATM   22  C10 UNL     1      68.495  28.115  25.202  1.00  0.00     0.037 A 
HETATM   23  C11 UNL     1      67.674  28.956  25.930  1.00  0.00     0.027 A 
HETATM   24  C12 UNL     1      66.391  28.546  25.634  1.00  0.00     0.142 A 
HETATM   25  O2  UNL     1      66.450  27.534  24.791  1.00  0.00    -0.325 OA
ENDBRANCH  14  21
ENDBRANCH   1  14
TORSDOF 7
ENDMDL
MODEL 2
REMARK VINA RESULT: -9.340023088      2.770      5.500
REMARK  7 active torsions:
REMARK  status: ('A' for Active; 'I' for Inactive)
REMARK    1  A    between atoms: O1_1  and  C1_3 
REMARK    2  A    between atoms: C1_3  and  N1_4 
REMARK    3  A    between atoms: C1_3  and  C13_19 
REMARK    4  A    between atoms: N1_4  and  C2_7 
REMARK    5  A    between atoms: C2_7  and  C3_8 
REMARK    6  A    between atoms: C2_7  and  C9_14 
REMARK    7  A    between atoms: C3_8  and  C4_9 
ROOT
HETATM    1  N1  UNL     1      69.422  26.142  23.814  1.00  0.00    -0.035 N 
ATOM      2  H11 UNL     1      69.808  27.084  23.863  1.00  0.00     0.281 HD
ATOM      3  H12 UNL     1      69.919  25.723  24.600  1.00  0.00     0.281 HD
ENDROOT
BRANCH   1   4
HETATM    4  C1  UNL     1      69.765  25.503  22.582  1.00  0.00     0.354 C 
BRANCH   4   5
HETATM    5  O1  UNL     1      70.919  24.707  22.779  1.00  0.00    -0.366 OA
ATOM      6  H1  UNL     1      71.207  24.364  21.941  1.00  0.00     0.212 HD
ENDBRANCH   4   5
BRANCH   4   7
HETATM    7  C13 UNL     1      70.101  26.493  21.510  1.00  0.00    -0.001 A 
HETATM    8  C14 UNL     1      70.711  27.705  21.829  1.00  0.00     0.011 A 
HETATM    9  C15 UNL     1      71.028  28.630  20.835  1.00  0.00     0.002 A 
HETATM   10  C16 UNL     1      70.745  28.365  19.524  1.00  0.00     0.024 A 
HETATM   11  C17 UNL     1      70.148  27.184  19.186  1.00  0.00     0.034 A 
HETATM   12 CL1  UNL     1      69.798  26.874  17.493  1.00  0.00    -0.084 Cl
HETATM   13  C18 UNL     1      69.840  26.281  20.174  1.00  0.00     0.035 A 
ENDBRANCH   4   7
ENDBRANCH   1   4
BRANCH   1  14
HETATM   14  C2  UNL     1      68.009  26.147  24.036  1.00  0.00     0.246 C 
BRANCH  14  15
HETATM   15  C3  UNL     1      67.214  26.119  22.750  1.00  0.00     0.044 C 
BRANCH  15  16
HETATM   16  C4  UNL     1      65.986  25.267  22.832  1.00  0.00    -0.012 C 
HETATM   17  C5  UNL     1      65.503  24.747  21.520  1.00  0.00     0.005 C 
HETATM   18  C6  UNL     1      65.506  23.237  21.610  1.00  0.00     0.000 C 
HETATM   19  C7  UNL     1      65.580  22.893  23.072  1.00  0.00     0.000 C 
HETATM   20  C8  UNL     1      66.333  24.045  23.659  1.00  0.00     0.005 C 
ENDBRANCH  15  16
ENDBRANCH  14  15
BRANCH  14  21
HETATM   21  C9  UNL     1      67.569  27.406  24.737  1.00  0.00     0.083 A 
HETATM   22  C10 UNL     1      68.295  28.434  25.247  1.00  0.00     0.037 A 
HETATM   23  C11 UNL     1      67.415  29.351  25.789  1.00  0.00     0.027 A 
HETATM   24  C12 UNL     1      66.163  28.816  25.574  1.00  0.00     0.142 A 
HETATM   25  O2  UNL     1      66.294  27.662  24.948  1.00  0.00    -0.325 OA
ENDBRANCH  14  21
ENDBRANCH   1  14
TORSDOF 7
ENDMDL
MODEL 3
REMARK VINA RESULT: -9.315276925      1.204      3.937
REMARK  7 active torsions:
REMARK  status: ('A' for Active; 'I' for Inactive)
REMARK    1  A    between atoms: O1_1  and  C1_3 
REMARK    2  A    between atoms: C1_3  and  N1_4 
REMARK    3  A    between atoms: C1_3  and  C13_19 
REMARK    4  A    between atoms: N1_4  and  C2_7 
REMARK    5  A    between atoms: C2_7  and  C3_8 
REMARK    6  A    between atoms: C2_7  and  C9_14 
REMARK    7  A    between atoms: C3_8  and  C4_9 
ROOT
HETATM    1  N1  UNL     1      67.603  24.528  24.011  1.00  0.00    -0.035 N 
ATOM      2  H11 UNL     1      68.006  23.879  23.335  1.00  0.00     0.281 HD
ATOM      3  H12 UNL     1      67.815  24.018  24.868  1.00  0.00     0.281 HD
ENDROOT
BRANCH   1   4
HETATM    4  C1  UNL     1      66.193  24.664  23.823  1.00  0.00     0.354 C 
BRANCH   4   5
HETATM    5  O1  UNL     1      65.539  24.463  25.063  1.00  0.00    -0.366 OA
ATOM      6  H1  UNL     1      65.740  25.188  25.642  1.00  0.00     0.212 HD
ENDBRANCH   4   5
BRANCH   4   7
HETATM    7  C13 UNL     1      65.650  23.639  22.877  1.00  0.00    -0.001 A 
HETATM    8  C14 UNL     1      65.615  23.886  21.505  1.00  0.00     0.011 A 
HETATM    9  C15 UNL     1      65.112  22.935  20.619  1.00  0.00     0.002 A 
HETATM   10  C16 UNL     1      64.640  21.737  21.080  1.00  0.00     0.024 A 
HETATM   11  C17 UNL     1      64.664  21.471  22.419  1.00  0.00     0.034 A 
HETATM   12 CL1  UNL     1      64.051  19.922  22.978  1.00  0.00    -0.084 Cl
HETATM   13  C18 UNL     1      65.162  22.416  23.282  1.00  0.00     0.035 A 
ENDBRANCH   4   7
ENDBRANCH   1   4
BRANCH   1  14
HETATM   14  C2  UNL     1      68.270  25.792  23.979  1.00  0.00     0.246 C 
BRANCH  14  15
HETATM   15  C3  UNL     1      67.310  26.958  23.887  1.00  0.00     0.044 C 
BRANCH  15  16
HETATM   16  C4  UNL     1      67.200  27.736  25.159  1.00  0.00    -0.012 C 
HETATM   17  C5  UNL     1      68.221  28.813  25.319  1.00  0.00     0.005 C 
HETATM   18  C6  UNL     1      67.473  30.119  25.468  1.00  0.00     0.000 C 
HETATM   19  C7  UNL     1      66.052  29.765  25.814  1.00  0.00     0.000 C 
HETATM   20  C8  UNL     1      65.856  28.439  25.150  1.00  0.00     0.005 C 
ENDBRANCH  15  16
ENDBRANCH  14  15
BRANCH  14  21
HETATM   21  C9  UNL     1      69.151  25.917  22.763  1.00  0.00     0.083 A 
HETATM   22  C10 UNL     1      68.837  26.163  21.466  1.00  0.00     0.037 A 
HETATM   23  C11 UNL     1      70.012  26.180  20.738  1.00  0.00     0.027 A 
HETATM   24  C12 UNL     1      71.007  25.936  21.660  1.00  0.00     0.142 A 
HETATM   25  O2  UNL     1      70.459  25.785  22.850  1.00  0.00    -0.325 OA
ENDBRANCH  14  21
ENDBRANCH   1  14
TORSDOF 7
ENDMDL
MODEL 4
REMARK VINA RESULT: -9.233553428      2.275      5.027
REMARK  7 active torsions:
REMARK  status: ('A' for Active; 'I' for Inactive)
REMARK    1  A    between atoms: O1_1  and  C1_3 
REMARK    2  A    between atoms: C1_3  and  N1_4 
REMARK    3  A    between atoms: C1_3  and  C13_19 
REMARK    4  A    between atoms: N1_4  and  C2_7 
REMARK    5  A    between atoms: C2_7  and  C3_8 
REMARK    6  A    between atoms: C2_7  and  C9_14 
REMARK    7  A    between atoms: C3_8  and  C4_9 
ROOT
HETATM    1  N1  UNL     1      69.634  25.880  23.931  1.00  0.00    -0.035 N 
ATOM      2  H11 UNL     1      69.000  25.426  24.587  1.00  0.00     0.281 HD
ATOM      3  H12 UNL     1      70.511  25.456  24.236  1.00  0.00     0.281 HD
ENDROOT
BRANCH   1   4
HETATM    4  C1  UNL     1      69.649  27.296  24.119  1.00  0.00     0.354 C 
BRANCH   4   5
HETATM    5  O1  UNL     1      70.652  27.628  25.062  1.00  0.00    -0.366 OA
ATOM      6  H1  UNL     1      71.476  27.759  24.607  1.00  0.00     0.212 HD
ENDBRANCH   4   5
BRANCH   4   7
HETATM    7  C13 UNL     1      68.354  27.805  24.670  1.00  0.00    -0.001 A 
HETATM    8  C14 UNL     1      68.306  29.000  25.384  1.00  0.00     0.011 A 
HETATM    9  C15 UNL     1      67.103  29.480  25.900  1.00  0.00     0.002 A 
HETATM   10  C16 UNL     1      65.941  28.783  25.713  1.00  0.00     0.024 A 
HETATM   11  C17 UNL     1      65.961  27.609  25.016  1.00  0.00     0.034 A 
HETATM   12 CL1  UNL     1      64.451  26.739  24.794  1.00  0.00    -0.084 Cl
HETATM   13  C18 UNL     1      67.153  27.147  24.514  1.00  0.00     0.035 A 
ENDBRANCH   4   7
ENDBRANCH   1   4
BRANCH   1  14
HETATM   14  C2  UNL     1      69.328  25.525  22.580  1.00  0.00     0.246 C 
BRANCH  14  15
HETATM   15  C3  UNL     1      69.347  26.712  21.644  1.00  0.00     0.044 C 
BRANCH  15  16
HETATM   16  C4  UNL     1      70.275  26.536  20.484  1.00  0.00    -0.012 C 
HETATM   17  C5  UNL     1      69.667  25.863  19.299  1.00  0.00     0.005 C 
HETATM   18  C6  UNL     1      69.782  26.822  18.134  1.00  0.00     0.000 C 
HETATM   19  C7  UNL     1      70.809  27.850  18.522  1.00  0.00     0.000 C 
HETATM   20  C8  UNL     1      70.682  27.918  20.011  1.00  0.00     0.005 C 
ENDBRANCH  15  16
ENDBRANCH  14  15
BRANCH  14  21
HETATM   21  C9  UNL     1      67.935  24.961  22.465  1.00  0.00     0.083 A 
HETATM   22  C10 UNL     1      66.973  25.167  21.528  1.00  0.00     0.037 A 
HETATM   23  C11 UNL     1      65.868  24.414  21.879  1.00  0.00     0.027 A 
HETATM   24  C12 UNL     1      66.228  23.772  23.044  1.00  0.00     0.142 A 
HETATM   25  O2  UNL     1      67.460  24.120  23.361  1.00  0.00    -0.325 OA
ENDBRANCH  14  21
ENDBRANCH   1  14
TORSDOF 7
ENDMDL
MODEL 5
REMARK VINA RESULT: -9.191971740      2.660      5.767
REMARK  7 active torsions:
REMARK  status: ('A' for Active; 'I' for Inactive)
REMARK    1  A    between atoms: O1_1  and  C1_3 
REMARK    2  A    between atoms: C1_3  and  N1_4 
REMARK    3  A    between atoms: C1_3  and  C13_19 
REMARK    4  A    between atoms: N1_4  and  C2_7 
REMARK    5  A    between atoms: C2_7  and  C3_8 
REMARK    6  A    between atoms: C2_7  and  C9_14 
REMARK    7  A    between atoms: C3_8  and  C4_9 
ROOT
HETATM    1  N1  UNL     1      65.159  25.057  23.037  1.00  0.00    -0.035 N 
ATOM      2  H11 UNL     1      65.280  25.959  22.577  1.00  0.00     0.281 HD
ATOM      3  H12 UNL     1      64.150  24.955  22.929  1.00  0.00     0.281 HD
ENDROOT
BRANCH   1   4
HETATM    4  C1  UNL     1      65.528  25.125  24.416  1.00  0.00     0.354 C 
BRANCH   4   5
HETATM    5  O1  UNL     1      64.363  25.013  25.214  1.00  0.00    -0.366 OA
ATOM      6  H1  UNL     1      64.610  24.730  26.086  1.00  0.00     0.212 HD
ENDBRANCH   4   5
BRANCH   4   7
HETATM    7  C13 UNL     1      66.166  26.434  24.764  1.00  0.00    -0.001 A 
HETATM    8  C14 UNL     1      65.416  27.459  25.337  1.00  0.00     0.011 A 
HETATM    9  C15 UNL     1      66.003  28.680  25.665  1.00  0.00     0.002 A 
HETATM   10  C16 UNL     1      67.333  28.895  25.429  1.00  0.00     0.024 A 
HETATM   11  C17 UNL     1      68.091  27.906  24.870  1.00  0.00     0.034 A 
HETATM   12 CL1  UNL     1      69.795  28.216  24.581  1.00  0.00    -0.084 Cl
HETATM   13  C18 UNL     1      67.500  26.708  24.551  1.00  0.00     0.035 A 
ENDBRANCH   4   7
ENDBRANCH   1   4
BRANCH   1  14
HETATM   14  C2  UNL     1      65.863  24.022  22.347  1.00  0.00     0.246 C 
BRANCH  14  15
HETATM   15  C3  UNL     1      65.907  24.241  20.851  1.00  0.00     0.044 C 
BRANCH  15  16
HETATM   16  C4  UNL     1      66.701  25.444  20.452  1.00  0.00    -0.012 C 
HETATM   17  C5  UNL     1      67.837  25.768  21.364  1.00  0.00     0.005 C 
HETATM   18  C6  UNL     1      69.100  25.731  20.533  1.00  0.00     0.000 C 
HETATM   19  C7  UNL     1      68.671  25.804  19.093  1.00  0.00     0.000 C 
HETATM   20  C8  UNL     1      67.325  25.153  19.101  1.00  0.00     0.005 C 
ENDBRANCH  15  16
ENDBRANCH  14  15
BRANCH  14  21
HETATM   21  C9  UNL     1      65.186  22.687  22.524  1.00  0.00     0.083 A 
HETATM   22  C10 UNL     1      64.864  21.732  21.614  1.00  0.00     0.037 A 
HETATM   23  C11 UNL     1      64.253  20.691  22.287  1.00  0.00     0.027 A 
HETATM   24  C12 UNL     1      64.236  21.080  23.609  1.00  0.00     0.142 A 
HETATM   25  O2  UNL     1      64.798  22.269  23.712  1.00  0.00    -0.325 OA
ENDBRANCH  14  21
ENDBRANCH   1  14
TORSDOF 7
ENDMDL
