MODEL 1
REMARK VINA RESULT: -8.474034129      0.000      0.000
REMARK  6 active torsions:
REMARK  status: ('A' for Active; 'I' for Inactive)
REMARK    1  A    between atoms: C4_5  and  N1_6 
REMARK    2  A    between atoms: N1_6  and  C5_8 
REMARK    3  A    between atoms: C9_12  and  C10_13 
REMARK    4  A    between atoms: C10_13  and  N2_14 
REMARK    5  A    between atoms: N2_14  and  C11_17 
REMARK    6  A    between atoms: C11_17  and  C12_18 
ROOT
HETATM    1  C5  UNL     1      67.056  26.748  24.107  1.00  0.00     0.082 C 
HETATM    2  C6  UNL     1      66.399  27.809  24.902  1.00  0.00     0.025 C 
HETATM    3  C7  UNL     1      67.296  28.375  25.978  1.00  0.00     0.002 C 
HETATM    4  C8  UNL     1      68.514  28.899  25.248  1.00  0.00     0.006 C 
HETATM    5  C9  UNL     1      69.308  27.684  24.840  1.00  0.00     0.013 C 
HETATM    6  C16 UNL     1      68.530  26.612  24.204  1.00  0.00     0.031 C 
ENDROOT
BRANCH   5   7
HETATM    7  C10 UNL     1      70.391  28.163  23.887  1.00  0.00     0.237 C 
BRANCH   7   8
HETATM    8  N2  UNL     1      70.668  27.200  22.863  1.00  0.00    -0.070 N 
ATOM      9  H22 UNL     1      71.385  26.529  23.138  1.00  0.00     0.277 HD
ATOM     10  H21 UNL     1      69.905  26.538  22.727  1.00  0.00     0.277 HD
BRANCH   8  11
HETATM   11  C11 UNL     1      71.010  27.918  21.646  1.00  0.00     0.278 C 
BRANCH  11  12
HETATM   12  C12 UNL     1      70.337  27.208  20.497  1.00  0.00     0.008 A 
HETATM   13  C13 UNL     1      69.363  26.247  20.565  1.00  0.00     0.017 A 
HETATM   14  C14 UNL     1      68.904  25.751  19.406  1.00  0.00     0.008 A 
HETATM   15  C15 UNL     1      69.446  26.244  18.254  1.00  0.00     0.050 A 
HETATM   16  S1  UNL     1      70.579  27.385  18.817  1.00  0.00    -0.105 SA
ENDBRANCH  11  12
ENDBRANCH   8  11
ENDBRANCH   7   8
ENDBRANCH   5   7
BRANCH   1  17
HETATM   17  N1  UNL     1      66.365  25.482  24.297  1.00  0.00    -0.385 N 
ATOM     18  H1  UNL     1      66.168  25.193  25.255  1.00  0.00     0.160 HD
BRANCH  17  19
HETATM   19  C4  UNL     1      65.945  24.623  23.255  1.00  0.00     0.028 A 
HETATM   20  C3  UNL     1      65.598  23.300  23.435  1.00  0.00     0.032 A 
HETATM   21  C2  UNL     1      65.193  22.462  22.417  1.00  0.00     0.044 A 
HETATM   22  C1  UNL     1      65.123  22.956  21.128  1.00  0.00     0.116 A 
HETATM   23  F1  UNL     1      64.723  22.118  20.144  1.00  0.00    -0.206 F 
HETATM   24  C18 UNL     1      65.462  24.267  20.917  1.00  0.00     0.044 A 
HETATM   25  C17 UNL     1      65.865  25.087  21.951  1.00  0.00     0.032 A 
ENDBRANCH  17  19
ENDBRANCH   1  17
TORSDOF 6
ENDMDL
MODEL 2
REMARK VINA RESULT: -8.324994775      3.124      6.117
REMARK  6 active torsions:
REMARK  status: ('A' for Active; 'I' for Inactive)
REMARK    1  A    between atoms: C4_5  and  N1_6 
REMARK    2  A    between atoms: N1_6  and  C5_8 
REMARK    3  A    between atoms: C9_12  and  C10_13 
REMARK    4  A    between atoms: C10_13  and  N2_14 
REMARK    5  A    between atoms: N2_14  and  C11_17 
REMARK    6  A    between atoms: C11_17  and  C12_18 
ROOT
HETATM    1  C5  UNL     1      70.211  26.694  19.594  1.00  0.00     0.082 C 
HETATM    2  C6  UNL     1      70.871  25.369  19.553  1.00  0.00     0.025 C 
HETATM    3  C7  UNL     1      72.021  25.258  20.527  1.00  0.00     0.002 C 
HETATM    4  C8  UNL     1      71.420  25.540  21.888  1.00  0.00     0.006 C 
HETATM    5  C9  UNL     1      71.168  27.026  21.930  1.00  0.00     0.013 C 
HETATM    6  C16 UNL     1      70.492  27.581  20.750  1.00  0.00     0.031 C 
ENDROOT
BRANCH   5   7
HETATM    7  C10 UNL     1      70.333  27.296  23.171  1.00  0.00     0.237 C 
BRANCH   7   8
HETATM    8  N2  UNL     1      69.775  26.093  23.715  1.00  0.00    -0.070 N 
ATOM      9  H22 UNL     1      69.874  25.295  23.088  1.00  0.00     0.277 HD
ATOM     10  H21 UNL     1      70.319  25.724  24.494  1.00  0.00     0.277 HD
BRANCH   8  11
HETATM   11  C11 UNL     1      68.390  26.357  24.071  1.00  0.00     0.278 C 
BRANCH  11  12
HETATM   12  C12 UNL     1      67.521  25.544  23.142  1.00  0.00     0.008 A 
HETATM   13  C13 UNL     1      67.369  25.702  21.790  1.00  0.00     0.017 A 
HETATM   14  C14 UNL     1      66.537  24.857  21.161  1.00  0.00     0.008 A 
HETATM   15  C15 UNL     1      65.912  23.910  21.919  1.00  0.00     0.050 A 
HETATM   16  S1  UNL     1      66.499  24.222  23.488  1.00  0.00    -0.105 SA
ENDBRANCH  11  12
ENDBRANCH   8  11
ENDBRANCH   7   8
ENDBRANCH   5   7
BRANCH   1  17
HETATM   17  N1  UNL     1      70.374  27.372  18.318  1.00  0.00    -0.385 N 
ATOM     18  H1  UNL     1      71.237  27.894  18.168  1.00  0.00     0.160 HD
BRANCH  17  19
HETATM   19  C4  UNL     1      69.427  27.361  17.267  1.00  0.00     0.028 A 
HETATM   20  C3  UNL     1      69.532  28.124  16.123  1.00  0.00     0.032 A 
HETATM   21  C2  UNL     1      68.605  28.115  15.102  1.00  0.00     0.044 A 
HETATM   22  C1  UNL     1      67.493  27.300  15.209  1.00  0.00     0.116 A 
HETATM   23  F1  UNL     1      66.596  27.306  14.196  1.00  0.00    -0.206 F 
HETATM   24  C18 UNL     1      67.361  26.530  16.335  1.00  0.00     0.044 A 
HETATM   25  C17 UNL     1      68.302  26.555  17.345  1.00  0.00     0.032 A 
ENDBRANCH  17  19
ENDBRANCH   1  17
TORSDOF 6
ENDMDL
MODEL 3
REMARK VINA RESULT: -8.280885601      2.766      5.151
REMARK  6 active torsions:
REMARK  status: ('A' for Active; 'I' for Inactive)
REMARK    1  A    between atoms: C4_5  and  N1_6 
REMARK    2  A    between atoms: N1_6  and  C5_8 
REMARK    3  A    between atoms: C9_12  and  C10_13 
REMARK    4  A    between atoms: C10_13  and  N2_14 
REMARK    5  A    between atoms: N2_14  and  C11_17 
REMARK    6  A    between atoms: C11_17  and  C12_18 
ROOT
HETATM    1  C5  UNL     1      67.843  24.877  22.889  1.00  0.00     0.082 C 
HETATM    2  C6  UNL     1      67.016  23.740  23.353  1.00  0.00     0.025 C 
HETATM    3  C7  UNL     1      65.563  23.874  22.959  1.00  0.00     0.002 C 
HETATM    4  C8  UNL     1      65.568  23.981  21.449  1.00  0.00     0.006 C 
HETATM    5  C9  UNL     1      66.066  25.367  21.132  1.00  0.00     0.013 C 
HETATM    6  C16 UNL     1      67.277  25.778  21.856  1.00  0.00     0.031 C 
ENDROOT
BRANCH   5   7
HETATM    7  C10 UNL     1      66.327  25.411  19.635  1.00  0.00     0.237 C 
BRANCH   7   8
HETATM    8  N2  UNL     1      67.314  24.452  19.235  1.00  0.00    -0.070 N 
ATOM      9  H22 UNL     1      68.026  24.299  19.948  1.00  0.00     0.277 HD
ATOM     10  H21 UNL     1      66.948  23.501  19.199  1.00  0.00     0.277 HD
BRANCH   8  11
HETATM   11  C11 UNL     1      67.876  24.884  17.966  1.00  0.00     0.278 C 
BRANCH  11  12
HETATM   12  C12 UNL     1      68.975  25.874  18.271  1.00  0.00     0.008 A 
HETATM   13  C13 UNL     1      69.810  25.884  19.357  1.00  0.00     0.017 A 
HETATM   14  C14 UNL     1      70.722  26.867  19.423  1.00  0.00     0.008 A 
HETATM   15  C15 UNL     1      70.743  27.774  18.403  1.00  0.00     0.050 A 
HETATM   16  S1  UNL     1      69.492  27.234  17.381  1.00  0.00    -0.105 SA
ENDBRANCH  11  12
ENDBRANCH   8  11
ENDBRANCH   7   8
ENDBRANCH   5   7
BRANCH   1  17
HETATM   17  N1  UNL     1      68.378  25.602  24.030  1.00  0.00    -0.385 N 
ATOM     18  H1  UNL     1      69.216  25.228  24.475  1.00  0.00     0.160 HD
BRANCH  17  19
HETATM   19  C4  UNL     1      67.825  26.787  24.571  1.00  0.00     0.028 A 
HETATM   20  C3  UNL     1      66.483  26.966  24.831  1.00  0.00     0.032 A 
HETATM   21  C2  UNL     1      65.945  28.123  25.353  1.00  0.00     0.044 A 
HETATM   22  C1  UNL     1      66.784  29.183  25.643  1.00  0.00     0.116 A 
HETATM   23  F1  UNL     1      66.236  30.309  26.156  1.00  0.00    -0.206 F 
HETATM   24  C18 UNL     1      68.124  29.036  25.395  1.00  0.00     0.044 A 
HETATM   25  C17 UNL     1      68.640  27.868  24.872  1.00  0.00     0.032 A 
ENDBRANCH  17  19
ENDBRANCH   1  17
TORSDOF 6
ENDMDL
MODEL 4
REMARK VINA RESULT: -8.221290056      2.765      5.179
REMARK  6 active torsions:
REMARK  status: ('A' for Active; 'I' for Inactive)
REMARK    1  A    between atoms: C4_5  and  N1_6 
REMARK    2  A    between atoms: N1_6  and  C5_8 
REMARK    3  A    between atoms: C9_12  and  C10_13 
REMARK    4  A    between atoms: C10_13  and  N2_14 
REMARK    5  A    between atoms: N2_14  and  C11_17 
REMARK    6  A    between atoms: C11_17  and  C12_18 
ROOT
HETATM    1  C5  UNL     1      67.843  24.868  22.893  1.00  0.00     0.082 C 
HETATM    2  C6  UNL     1      67.014  23.727  23.342  1.00  0.00     0.025 C 
HETATM    3  C7  UNL     1      65.563  23.864  22.941  1.00  0.00     0.002 C 
HETATM    4  C8  UNL     1      65.576  23.984  21.432  1.00  0.00     0.006 C 
HETATM    5  C9  UNL     1      66.075  25.374  21.131  1.00  0.00     0.013 C 
HETATM    6  C16 UNL     1      67.282  25.779  21.865  1.00  0.00     0.031 C 
ENDROOT
BRANCH   5   7
HETATM    7  C10 UNL     1      66.344  25.432  19.636  1.00  0.00     0.237 C 
BRANCH   7   8
HETATM    8  N2  UNL     1      67.314  24.458  19.228  1.00  0.00    -0.070 N 
ATOM      9  H22 UNL     1      68.023  24.287  19.940  1.00  0.00     0.277 HD
ATOM     10  H21 UNL     1      66.931  23.514  19.185  1.00  0.00     0.277 HD
BRANCH   8  11
HETATM   11  C11 UNL     1      67.884  24.890  17.962  1.00  0.00     0.278 C 
BRANCH  11  12
HETATM   12  C12 UNL     1      68.984  25.877  18.274  1.00  0.00     0.008 A 
HETATM   13  C13 UNL     1      69.820  25.877  19.359  1.00  0.00     0.017 A 
HETATM   14  C14 UNL     1      70.733  26.859  19.431  1.00  0.00     0.008 A 
HETATM   15  C15 UNL     1      70.753  27.774  18.419  1.00  0.00     0.050 A 
HETATM   16  S1  UNL     1      69.500  27.244  17.394  1.00  0.00    -0.105 SA
ENDBRANCH  11  12
ENDBRANCH   8  11
ENDBRANCH   7   8
ENDBRANCH   5   7
BRANCH   1  17
HETATM   17  N1  UNL     1      68.372  25.583  24.044  1.00  0.00    -0.385 N 
ATOM     18  H1  UNL     1      69.187  25.187  24.510  1.00  0.00     0.160 HD
BRANCH  17  19
HETATM   19  C4  UNL     1      67.841  26.786  24.565  1.00  0.00     0.028 A 
HETATM   20  C3  UNL     1      68.598  27.898  24.869  1.00  0.00     0.032 A 
HETATM   21  C2  UNL     1      68.079  29.069  25.382  1.00  0.00     0.044 A 
HETATM   22  C1  UNL     1      66.719  29.156  25.615  1.00  0.00     0.116 A 
HETATM   23  F1  UNL     1      66.230  30.313  26.117  1.00  0.00    -0.206 F 
HETATM   24  C18 UNL     1      65.940  28.067  25.323  1.00  0.00     0.044 A 
HETATM   25  C17 UNL     1      66.482  26.905  24.810  1.00  0.00     0.032 A 
ENDBRANCH  17  19
ENDBRANCH   1  17
TORSDOF 6
ENDMDL
MODEL 5
REMARK VINA RESULT: -8.210600605      2.522      4.989
REMARK  6 active torsions:
REMARK  status: ('A' for Active; 'I' for Inactive)
REMARK    1  A    between atoms: C4_5  and  N1_6 
REMARK    2  A    between atoms: N1_6  and  C5_8 
REMARK    3  A    between atoms: C9_12  and  C10_13 
REMARK    4  A    between atoms: C10_13  and  N2_14 
REMARK    5  A    between atoms: N2_14  and  C11_17 
REMARK    6  A    between atoms: C11_17  and  C12_18 
ROOT
HETATM    1  C5  UNL     1      68.505  27.742  25.173  1.00  0.00     0.082 C 
HETATM    2  C6  UNL     1      67.927  28.889  25.909  1.00  0.00     0.025 C 
HETATM    3  C7  UNL     1      66.549  29.266  25.416  1.00  0.00     0.002 C 
HETATM    4  C8  UNL     1      65.710  28.016  25.582  1.00  0.00     0.006 C 
HETATM    5  C9  UNL     1      66.145  27.077  24.487  1.00  0.00     0.013 C 
HETATM    6  C16 UNL     1      67.597  26.917  24.338  1.00  0.00     0.031 C 
ENDROOT
BRANCH   5   7
HETATM    7  C10 UNL     1      65.511  25.728  24.786  1.00  0.00     0.237 C 
BRANCH   7   8
HETATM    8  N2  UNL     1      66.407  24.642  24.512  1.00  0.00    -0.070 N 
ATOM      9  H22 UNL     1      67.341  24.959  24.255  1.00  0.00     0.277 HD
ATOM     10  H21 UNL     1      66.663  24.123  25.351  1.00  0.00     0.277 HD
BRANCH   8  11
HETATM   11  C11 UNL     1      65.800  23.800  23.495  1.00  0.00     0.278 C 
BRANCH  11  12
HETATM   12  C12 UNL     1      66.281  24.296  22.152  1.00  0.00     0.008 A 
HETATM   13  C13 UNL     1      67.439  24.976  21.880  1.00  0.00     0.017 A 
HETATM   14  C14 UNL     1      67.665  25.320  20.602  1.00  0.00     0.008 A 
HETATM   15  C15 UNL     1      66.725  24.962  19.680  1.00  0.00     0.050 A 
HETATM   16  S1  UNL     1      65.550  24.159  20.617  1.00  0.00    -0.105 SA
ENDBRANCH  11  12
ENDBRANCH   8  11
ENDBRANCH   7   8
ENDBRANCH   5   7
BRANCH   1  17
HETATM   17  N1  UNL     1      69.698  28.162  24.454  1.00  0.00    -0.385 N 
ATOM     18  H1  UNL     1      70.197  28.978  24.806  1.00  0.00     0.160 HD
BRANCH  17  19
HETATM   19  C4  UNL     1      70.218  27.525  23.304  1.00  0.00     0.028 A 
HETATM   20  C3  UNL     1      70.367  28.139  22.078  1.00  0.00     0.032 A 
HETATM   21  C2  UNL     1      70.870  27.515  20.956  1.00  0.00     0.044 A 
HETATM   22  C1  UNL     1      71.256  26.190  21.041  1.00  0.00     0.116 A 
HETATM   23  F1  UNL     1      71.748  25.596  19.930  1.00  0.00    -0.206 F 
HETATM   24  C18 UNL     1      71.120  25.551  22.246  1.00  0.00     0.044 A 
HETATM   25  C17 UNL     1      70.614  26.197  23.356  1.00  0.00     0.032 A 
ENDBRANCH  17  19
ENDBRANCH   1  17
TORSDOF 6
ENDMDL
