MODEL 1
REMARK VINA RESULT: -7.897412969      0.000      0.000
REMARK  6 active torsions:
REMARK  status: ('A' for Active; 'I' for Inactive)
REMARK    1  A    between atoms: C2_2  and  N1_3 
REMARK    2  A    between atoms: N1_3  and  O1_5 
REMARK    3  A    between atoms: C5_11  and  S1_12 
REMARK    4  A    between atoms: S1_12  and  N3_13 
REMARK    5  A    between atoms: N5_21  and  N6_23 
REMARK       I    between atoms: N6_23  and  C7_25 
REMARK    6  A    between atoms: C7_25  and  C8_27 
ROOT
HETATM    1  C1  UNL     1      18.550  39.986  35.693  1.00  0.00     0.071 C 
HETATM    2  C2  UNL     1      18.982  39.460  37.013  1.00  0.00     0.043 C 
HETATM    3  C3  UNL     1      18.832  38.064  37.342  1.00  0.00     0.049 A 
HETATM    4  C4  UNL     1      18.279  37.201  36.417  1.00  0.00     0.107 A 
HETATM    5  N2  UNL     1      18.152  35.907  36.750  1.00  0.00    -0.340 N 
ATOM      6  H2  UNL     1      17.747  35.252  36.082  1.00  0.00     0.167 HD
HETATM    7  C5  UNL     1      18.554  35.469  37.954  1.00  0.00     0.225 A 
HETATM    8  N4  UNL     1      19.090  36.315  38.849  1.00  0.00    -0.316 N 
ATOM      9  H4  UNL     1      19.386  35.951  39.754  1.00  0.00     0.169 HD
HETATM   10  C6  UNL     1      19.251  37.616  38.594  1.00  0.00     0.135 A 
HETATM   11  N5  UNL     1      19.762  38.466  39.422  1.00  0.00    -0.282 N 
ATOM     12  H5  UNL     1      19.864  39.451  39.181  1.00  0.00     0.188 HD
ENDROOT
BRANCH  11  13
HETATM   13  N6  UNL     1      20.167  37.969  40.664  1.00  0.00    -0.262 N 
HETATM   14  C7  UNL     1      21.308  38.445  41.352  1.00  0.00     0.306 C 
HETATM   15  O4  UNL     1      22.005  39.361  40.830  1.00  0.00    -0.262 OA
ATOM     16  H6  UNL     1      19.614  37.229  41.095  1.00  0.00     0.190 HD
BRANCH  14  17
HETATM   17  C8  UNL     1      21.654  37.869  42.640  1.00  0.00     0.208 A 
HETATM   18  N7  UNL     1      21.614  38.503  43.827  1.00  0.00    -0.264 N 
HETATM   19  N8  UNL     1      22.006  37.630  44.766  1.00  0.00    -0.226 N 
ATOM     20  H7  UNL     1      21.336  39.471  43.984  1.00  0.00     0.190 HD
HETATM   21  N9  UNL     1      22.284  36.478  44.188  1.00  0.00    -0.226 N 
ATOM     22  H8  UNL     1      22.078  37.824  45.765  1.00  0.00     0.210 HD
HETATM   23  N10 UNL     1      22.071  36.630  42.915  1.00  0.00    -0.264 N 
ATOM     24  H9  UNL     1      22.605  35.628  44.651  1.00  0.00     0.210 HD
ATOM     25  H10 UNL     1      22.205  35.899  42.217  1.00  0.00     0.190 HD
ENDBRANCH  14  17
ENDBRANCH  11  13
BRANCH   2  26
HETATM   26  N1  UNL     1      19.492  40.300  37.847  1.00  0.00    -0.273 N 
ATOM     27  H1  UNL     1      18.885  40.657  38.585  1.00  0.00     0.194 HD
BRANCH  26  28
HETATM   28  O1  UNL     1      20.767  40.744  37.820  1.00  0.00    -0.290 OA
ATOM     29  H1  UNL     1      21.028  41.649  37.698  1.00  0.00     0.244 HD
ENDBRANCH  26  28
ENDBRANCH   2  26
BRANCH   7  30
HETATM   30  S1  UNL     1      18.384  33.782  38.378  1.00  0.00     0.289 S 
HETATM   31  O2  UNL     1      17.057  33.606  39.101  1.00  0.00    -0.198 OA
HETATM   32  O3  UNL     1      19.484  33.350  39.293  1.00  0.00    -0.198 OA
BRANCH  30  33
HETATM   33  N3  UNL     1      18.296  32.787  36.964  1.00  0.00    -0.322 N 
ATOM     34  H32 UNL     1      19.008  32.781  36.232  1.00  0.00     0.169 HD
ATOM     35  H31 UNL     1      17.450  32.218  36.965  1.00  0.00     0.169 HD
ENDBRANCH  30  33
ENDBRANCH   7  30
TORSDOF 6
ENDMDL
MODEL 2
REMARK VINA RESULT: -6.794325223      2.495      5.996
REMARK  6 active torsions:
REMARK  status: ('A' for Active; 'I' for Inactive)
REMARK    1  A    between atoms: C2_2  and  N1_3 
REMARK    2  A    between atoms: N1_3  and  O1_5 
REMARK    3  A    between atoms: C5_11  and  S1_12 
REMARK    4  A    between atoms: S1_12  and  N3_13 
REMARK    5  A    between atoms: N5_21  and  N6_23 
REMARK       I    between atoms: N6_23  and  C7_25 
REMARK    6  A    between atoms: C7_25  and  C8_27 
ROOT
HETATM    1  C1  UNL     1      21.867  37.254  41.480  1.00  0.00     0.071 C 
HETATM    2  C2  UNL     1      21.177  37.846  40.306  1.00  0.00     0.043 C 
HETATM    3  C3  UNL     1      20.415  37.024  39.399  1.00  0.00     0.049 A 
HETATM    4  C4  UNL     1      20.324  35.665  39.624  1.00  0.00     0.107 A 
HETATM    5  N2  UNL     1      19.608  34.925  38.763  1.00  0.00    -0.340 N 
ATOM      6  H2  UNL     1      19.527  33.919  38.909  1.00  0.00     0.167 HD
HETATM    7  C5  UNL     1      18.998  35.496  37.712  1.00  0.00     0.225 A 
HETATM    8  N4  UNL     1      19.092  36.820  37.501  1.00  0.00    -0.316 N 
ATOM      9  H4  UNL     1      18.616  37.224  36.694  1.00  0.00     0.169 HD
HETATM   10  C6  UNL     1      19.784  37.625  38.310  1.00  0.00     0.135 A 
HETATM   11  N5  UNL     1      19.902  38.901  38.147  1.00  0.00    -0.282 N 
ATOM     12  H5  UNL     1      20.442  39.475  38.794  1.00  0.00     0.188 HD
ENDROOT
BRANCH  11  13
HETATM   13  N6  UNL     1      19.252  39.457  37.042  1.00  0.00    -0.262 N 
HETATM   14  C7  UNL     1      17.844  39.533  36.931  1.00  0.00     0.306 C 
HETATM   15  O4  UNL     1      17.126  39.080  37.866  1.00  0.00    -0.262 OA
ATOM     16  H6  UNL     1      19.820  39.826  36.279  1.00  0.00     0.190 HD
BRANCH  14  17
HETATM   17  C8  UNL     1      17.255  40.129  35.743  1.00  0.00     0.208 A 
HETATM   18  N7  UNL     1      16.033  40.688  35.661  1.00  0.00    -0.264 N 
HETATM   19  N8  UNL     1      15.868  41.118  34.402  1.00  0.00    -0.226 N 
ATOM     20  H7  UNL     1      15.356  40.771  36.419  1.00  0.00     0.190 HD
HETATM   21  N9  UNL     1      16.955  40.839  33.710  1.00  0.00    -0.226 N 
ATOM     22  H8  UNL     1      15.037  41.585  34.038  1.00  0.00     0.210 HD
HETATM   23  N10 UNL     1      17.780  40.246  34.521  1.00  0.00    -0.264 N 
ATOM     24  H9  UNL     1      17.119  41.048  32.725  1.00  0.00     0.210 HD
ATOM     25  H10 UNL     1      18.708  39.914  34.258  1.00  0.00     0.190 HD
ENDBRANCH  14  17
ENDBRANCH  11  13
BRANCH   2  26
HETATM   26  N1  UNL     1      21.288  39.119  40.134  1.00  0.00    -0.273 N 
ATOM     27  H1  UNL     1      20.548  39.589  39.612  1.00  0.00     0.194 HD
BRANCH  26  28
HETATM   28  O1  UNL     1      22.308  39.879  40.590  1.00  0.00    -0.290 OA
ATOM     29  H1  UNL     1      23.093  40.090  40.100  1.00  0.00     0.244 HD
ENDBRANCH  26  28
ENDBRANCH   2  26
BRANCH   7  30
HETATM   30  S1  UNL     1      18.068  34.524  36.598  1.00  0.00     0.289 S 
HETATM   31  O2  UNL     1      16.620  34.519  37.066  1.00  0.00    -0.198 OA
HETATM   32  O3  UNL     1      18.566  33.115  36.576  1.00  0.00    -0.198 OA
BRANCH  30  33
HETATM   33  N3  UNL     1      18.057  35.226  35.014  1.00  0.00    -0.322 N 
ATOM     34  H32 UNL     1      17.389  35.938  34.716  1.00  0.00     0.169 HD
ATOM     35  H31 UNL     1      18.799  34.836  34.432  1.00  0.00     0.169 HD
ENDBRANCH  30  33
ENDBRANCH   7  30
TORSDOF 6
ENDMDL
MODEL 3
REMARK VINA RESULT: -6.769565619      2.585      6.042
REMARK  6 active torsions:
REMARK  status: ('A' for Active; 'I' for Inactive)
REMARK    1  A    between atoms: C2_2  and  N1_3 
REMARK    2  A    between atoms: N1_3  and  O1_5 
REMARK    3  A    between atoms: C5_11  and  S1_12 
REMARK    4  A    between atoms: S1_12  and  N3_13 
REMARK    5  A    between atoms: N5_21  and  N6_23 
REMARK       I    between atoms: N6_23  and  C7_25 
REMARK    6  A    between atoms: C7_25  and  C8_27 
ROOT
HETATM    1  C1  UNL     1      21.898  37.305  41.529  1.00  0.00     0.071 C 
HETATM    2  C2  UNL     1      21.205  37.940  40.379  1.00  0.00     0.043 C 
HETATM    3  C3  UNL     1      20.466  37.148  39.427  1.00  0.00     0.049 A 
HETATM    4  C4  UNL     1      20.399  35.779  39.585  1.00  0.00     0.107 A 
HETATM    5  N2  UNL     1      19.704  35.067  38.685  1.00  0.00    -0.340 N 
ATOM      6  H2  UNL     1      19.641  34.054  38.782  1.00  0.00     0.167 HD
HETATM    7  C5  UNL     1      19.091  35.677  37.657  1.00  0.00     0.225 A 
HETATM    8  N4  UNL     1      19.161  37.011  37.510  1.00  0.00    -0.316 N 
ATOM      9  H4  UNL     1      18.685  37.445  36.720  1.00  0.00     0.169 HD
HETATM   10  C6  UNL     1      19.833  37.788  38.362  1.00  0.00     0.135 A 
HETATM   11  N5  UNL     1      19.927  39.073  38.262  1.00  0.00    -0.282 N 
ATOM     12  H5  UNL     1      20.452  39.625  38.940  1.00  0.00     0.188 HD
ENDROOT
BRANCH  11  13
HETATM   13  N6  UNL     1      19.275  39.670  37.179  1.00  0.00    -0.262 N 
HETATM   14  C7  UNL     1      17.876  39.596  36.983  1.00  0.00     0.306 C 
HETATM   15  O4  UNL     1      17.169  38.963  37.818  1.00  0.00    -0.262 OA
ATOM     16  H6  UNL     1      19.834  40.182  36.498  1.00  0.00     0.190 HD
BRANCH  14  17
HETATM   17  C8  UNL     1      17.283  40.247  35.827  1.00  0.00     0.208 A 
HETATM   18  N7  UNL     1      16.063  40.811  35.775  1.00  0.00    -0.264 N 
HETATM   19  N8  UNL     1      15.894  41.300  34.538  1.00  0.00    -0.226 N 
ATOM     20  H7  UNL     1      15.388  40.859  36.538  1.00  0.00     0.190 HD
HETATM   21  N9  UNL     1      16.978  41.052  33.830  1.00  0.00    -0.226 N 
ATOM     22  H8  UNL     1      15.062  41.785  34.199  1.00  0.00     0.210 HD
HETATM   23  N10 UNL     1      17.805  40.421  34.610  1.00  0.00    -0.264 N 
ATOM     24  H9  UNL     1      17.139  41.307  32.856  1.00  0.00     0.210 HD
ATOM     25  H10 UNL     1      18.731  40.100  34.329  1.00  0.00     0.190 HD
ENDBRANCH  14  17
ENDBRANCH  11  13
BRANCH   2  26
HETATM   26  N1  UNL     1      21.294  39.221  40.269  1.00  0.00    -0.273 N 
ATOM     27  H1  UNL     1      20.496  39.714  39.868  1.00  0.00     0.194 HD
BRANCH  26  28
HETATM   28  O1  UNL     1      22.360  39.962  40.642  1.00  0.00    -0.290 OA
ATOM     29  H1  UNL     1      22.448  40.898  40.511  1.00  0.00     0.244 HD
ENDBRANCH  26  28
ENDBRANCH   2  26
BRANCH   7  30
HETATM   30  S1  UNL     1      18.188  34.742  36.489  1.00  0.00     0.289 S 
HETATM   31  O2  UNL     1      18.933  34.792  35.163  1.00  0.00    -0.198 OA
HETATM   32  O3  UNL     1      16.823  35.315  36.290  1.00  0.00    -0.198 OA
BRANCH  30  33
HETATM   33  N3  UNL     1      18.124  33.071  36.941  1.00  0.00    -0.322 N 
ATOM     34  H32 UNL     1      18.194  32.303  36.273  1.00  0.00     0.169 HD
ATOM     35  H31 UNL     1      18.010  32.965  37.949  1.00  0.00     0.169 HD
ENDBRANCH  30  33
ENDBRANCH   7  30
TORSDOF 6
ENDMDL
MODEL 4
REMARK VINA RESULT: -6.597014468      2.388      4.719
REMARK  6 active torsions:
REMARK  status: ('A' for Active; 'I' for Inactive)
REMARK    1  A    between atoms: C2_2  and  N1_3 
REMARK    2  A    between atoms: N1_3  and  O1_5 
REMARK    3  A    between atoms: C5_11  and  S1_12 
REMARK    4  A    between atoms: S1_12  and  N3_13 
REMARK    5  A    between atoms: N5_21  and  N6_23 
REMARK       I    between atoms: N6_23  and  C7_25 
REMARK    6  A    between atoms: C7_25  and  C8_27 
ROOT
HETATM    1  C1  UNL     1      17.762  33.112  35.905  1.00  0.00     0.071 C 
HETATM    2  C2  UNL     1      18.243  34.049  36.952  1.00  0.00     0.043 C 
HETATM    3  C3  UNL     1      18.247  35.474  36.730  1.00  0.00     0.049 A 
HETATM    4  C4  UNL     1      17.796  35.977  35.527  1.00  0.00     0.107 A 
HETATM    5  N2  UNL     1      17.810  37.307  35.348  1.00  0.00    -0.340 N 
ATOM      6  H2  UNL     1      17.482  37.702  34.467  1.00  0.00     0.167 HD
HETATM    7  C5  UNL     1      18.254  38.123  36.318  1.00  0.00     0.225 A 
HETATM    8  N4  UNL     1      18.691  37.624  37.487  1.00  0.00    -0.316 N 
ATOM      9  H4  UNL     1      19.021  38.270  38.205  1.00  0.00     0.169 HD
HETATM   10  C6  UNL     1      18.709  36.314  37.742  1.00  0.00     0.135 A 
HETATM   11  N5  UNL     1      19.119  35.790  38.850  1.00  0.00    -0.282 N 
ATOM     12  H5  UNL     1      19.113  34.781  38.998  1.00  0.00     0.188 HD
ENDROOT
BRANCH  11  13
HETATM   13  N6  UNL     1      19.572  36.672  39.834  1.00  0.00    -0.262 N 
HETATM   14  C7  UNL     1      20.943  36.928  40.072  1.00  0.00     0.306 C 
HETATM   15  O4  UNL     1      21.811  36.337  39.369  1.00  0.00    -0.262 OA
ATOM     16  H6  UNL     1      18.882  37.155  40.409  1.00  0.00     0.190 HD
BRANCH  14  17
HETATM   17  C8  UNL     1      21.322  37.862  41.118  1.00  0.00     0.208 A 
HETATM   18  N7  UNL     1      21.859  39.083  40.933  1.00  0.00    -0.264 N 
HETATM   19  N8  UNL     1      22.062  39.624  42.143  1.00  0.00    -0.226 N 
ATOM     20  H7  UNL     1      22.072  39.517  40.036  1.00  0.00     0.190 HD
HETATM   21  N9  UNL     1      21.664  38.769  43.065  1.00  0.00    -0.226 N 
ATOM     22  H8  UNL     1      22.460  40.546  42.321  1.00  0.00     0.210 HD
HETATM   23  N10 UNL     1      21.223  37.718  42.442  1.00  0.00    -0.264 N 
ATOM     24  H9  UNL     1      21.695  38.908  44.074  1.00  0.00     0.210 HD
ATOM     25  H10 UNL     1      20.849  36.889  42.904  1.00  0.00     0.190 HD
ENDBRANCH  14  17
ENDBRANCH  11  13
BRANCH   2  26
HETATM   26  N1  UNL     1      18.656  33.536  38.060  1.00  0.00    -0.273 N 
ATOM     27  H1  UNL     1      18.535  34.090  38.908  1.00  0.00     0.194 HD
BRANCH  26  28
HETATM   28  O1  UNL     1      19.236  32.323  38.187  1.00  0.00    -0.290 OA
ATOM     29  H1  UNL     1      20.162  32.173  38.337  1.00  0.00     0.244 HD
ENDBRANCH  26  28
ENDBRANCH   2  26
BRANCH   7  30
HETATM   30  S1  UNL     1      18.269  39.853  36.077  1.00  0.00     0.289 S 
HETATM   31  O2  UNL     1      17.930  40.132  34.620  1.00  0.00    -0.198 OA
HETATM   32  O3  UNL     1      19.620  40.420  36.368  1.00  0.00    -0.198 OA
BRANCH  30  33
HETATM   33  N3  UNL     1      17.033  40.626  37.013  1.00  0.00    -0.322 N 
ATOM     34  H32 UNL     1      17.208  41.415  37.636  1.00  0.00     0.169 HD
ATOM     35  H31 UNL     1      16.124  40.191  36.855  1.00  0.00     0.169 HD
ENDBRANCH  30  33
ENDBRANCH   7  30
TORSDOF 6
ENDMDL
MODEL 5
REMARK VINA RESULT: -6.419624208      2.441      4.749
REMARK  6 active torsions:
REMARK  status: ('A' for Active; 'I' for Inactive)
REMARK    1  A    between atoms: C2_2  and  N1_3 
REMARK    2  A    between atoms: N1_3  and  O1_5 
REMARK    3  A    between atoms: C5_11  and  S1_12 
REMARK    4  A    between atoms: S1_12  and  N3_13 
REMARK    5  A    between atoms: N5_21  and  N6_23 
REMARK       I    between atoms: N6_23  and  C7_25 
REMARK    6  A    between atoms: C7_25  and  C8_27 
ROOT
HETATM    1  C1  UNL     1      17.713  33.098  35.855  1.00  0.00     0.071 C 
HETATM    2  C2  UNL     1      18.203  34.040  36.895  1.00  0.00     0.043 C 
HETATM    3  C3  UNL     1      18.179  35.465  36.677  1.00  0.00     0.049 A 
HETATM    4  C4  UNL     1      17.694  35.965  35.485  1.00  0.00     0.107 A 
HETATM    5  N2  UNL     1      17.685  37.295  35.310  1.00  0.00    -0.340 N 
ATOM      6  H2  UNL     1      17.331  37.687  34.438  1.00  0.00     0.167 HD
HETATM    7  C5  UNL     1      18.137  38.115  36.273  1.00  0.00     0.225 A 
HETATM    8  N4  UNL     1      18.607  37.620  37.430  1.00  0.00    -0.316 N 
ATOM      9  H4  UNL     1      18.943  38.269  38.142  1.00  0.00     0.169 HD
HETATM   10  C6  UNL     1      18.651  36.310  37.681  1.00  0.00     0.135 A 
HETATM   11  N5  UNL     1      19.094  35.789  38.778  1.00  0.00    -0.282 N 
ATOM     12  H5  UNL     1      19.106  34.780  38.923  1.00  0.00     0.188 HD
ENDROOT
BRANCH  11  13
HETATM   13  N6  UNL     1      19.555  36.676  39.755  1.00  0.00    -0.262 N 
HETATM   14  C7  UNL     1      20.928  36.901  40.008  1.00  0.00     0.306 C 
HETATM   15  O4  UNL     1      21.791  36.277  39.327  1.00  0.00    -0.262 OA
ATOM     16  H6  UNL     1      18.869  37.185  40.311  1.00  0.00     0.190 HD
BRANCH  14  17
HETATM   17  C8  UNL     1      21.316  37.843  41.044  1.00  0.00     0.208 A 
HETATM   18  N7  UNL     1      21.144  37.677  42.369  1.00  0.00    -0.264 N 
HETATM   19  N8  UNL     1      21.632  38.765  42.981  1.00  0.00    -0.226 N 
ATOM     20  H7  UNL     1      20.720  36.869  42.825  1.00  0.00     0.190 HD
HETATM   21  N9  UNL     1      22.100  39.594  42.068  1.00  0.00    -0.226 N 
ATOM     22  H8  UNL     1      21.641  38.927  43.988  1.00  0.00     0.210 HD
HETATM   23  N10 UNL     1      21.906  39.034  40.911  1.00  0.00    -0.264 N 
ATOM     24  H9  UNL     1      22.532  40.502  42.237  1.00  0.00     0.210 HD
ATOM     25  H10 UNL     1      22.169  39.449  40.018  1.00  0.00     0.190 HD
ENDBRANCH  14  17
ENDBRANCH  11  13
BRANCH   2  26
HETATM   26  N1  UNL     1      18.647  33.531  37.992  1.00  0.00    -0.273 N 
ATOM     27  H1  UNL     1      18.649  34.127  38.820  1.00  0.00     0.194 HD
BRANCH  26  28
HETATM   28  O1  UNL     1      19.112  32.270  38.132  1.00  0.00    -0.290 OA
ATOM     29  H1  UNL     1      19.781  31.870  37.589  1.00  0.00     0.244 HD
ENDBRANCH  26  28
ENDBRANCH   2  26
BRANCH   7  30
HETATM   30  S1  UNL     1      18.120  39.846  36.036  1.00  0.00     0.289 S 
HETATM   31  O2  UNL     1      19.534  40.368  36.247  1.00  0.00    -0.198 OA
HETATM   32  O3  UNL     1      17.215  40.510  37.023  1.00  0.00    -0.198 OA
BRANCH  30  33
HETATM   33  N3  UNL     1      17.699  40.250  34.405  1.00  0.00    -0.322 N 
ATOM     34  H32 UNL     1      17.771  39.596  33.625  1.00  0.00     0.169 HD
ATOM     35  H31 UNL     1      17.374  41.215  34.336  1.00  0.00     0.169 HD
ENDBRANCH  30  33
ENDBRANCH   7  30
TORSDOF 6
ENDMDL
