MODEL 1
REMARK VINA RESULT: -3.656257721      0.000      0.000
REMARK  2 active torsions:
REMARK  status: ('A' for Active; 'I' for Inactive)
REMARK    1  A    between atoms: C3_4  and  C4_5 
REMARK    2  A    between atoms: C6_9  and  N1_10 
ROOT
HETATM    1  C1  UNL     1      27.545 -32.522 -35.291  1.00  0.00     0.059 C 
HETATM    2  C2  UNL     1      26.448 -31.543 -35.599  1.00  0.00     0.014 A 
HETATM    3  S1  UNL     1      26.080 -30.798 -37.110  1.00  0.00    -0.088 SA
HETATM    4  C3  UNL     1      24.741 -29.865 -36.610  1.00  0.00     0.062 A 
HETATM    5  C5  UNL     1      24.621 -30.159 -35.293  1.00  0.00     0.065 A 
HETATM    6 BR1  UNL     1      23.193 -29.309 -34.282  1.00  0.00    -0.047 Br
HETATM    7  C6  UNL     1      25.493 -31.017 -34.773  1.00  0.00     0.134 A 
ENDROOT
BRANCH   7   8
HETATM    8  N1  UNL     1      25.492 -31.426 -33.378  1.00  0.00    -0.113 N 
HETATM    9  O2  UNL     1      26.237 -30.811 -32.619  1.00  0.00    -0.532 OA
HETATM   10  O3  UNL     1      24.708 -32.437 -32.933  1.00  0.00    -0.532 OA
ENDBRANCH   7   8
BRANCH   4  11
HETATM   11  C4  UNL     1      23.937 -28.962 -37.463  1.00  0.00     0.278 C 
HETATM   12  O1  UNL     1      24.449 -27.950 -37.997  1.00  0.00    -0.301 OA
ENDBRANCH   4  11
TORSDOF 2
ENDMDL
MODEL 2
REMARK VINA RESULT: -3.651944863      2.485      2.693
REMARK  2 active torsions:
REMARK  status: ('A' for Active; 'I' for Inactive)
REMARK    1  A    between atoms: C3_4  and  C4_5 
REMARK    2  A    between atoms: C6_9  and  N1_10 
ROOT
HETATM    1  C1  UNL     1      28.048 -31.540 -35.048  1.00  0.00     0.059 C 
HETATM    2  C2  UNL     1      26.765 -31.185 -35.745  1.00  0.00     0.014 A 
HETATM    3  S1  UNL     1      26.133 -29.616 -36.077  1.00  0.00    -0.088 SA
HETATM    4  C3  UNL     1      24.695 -30.086 -36.868  1.00  0.00     0.062 A 
HETATM    5  C5  UNL     1      24.750 -31.439 -36.851  1.00  0.00     0.065 A 
HETATM    6 BR1  UNL     1      23.289 -32.434 -37.662  1.00  0.00    -0.047 Br
HETATM    7  C6  UNL     1      25.808 -32.005 -36.277  1.00  0.00     0.134 A 
ENDROOT
BRANCH   7   8
HETATM    8  N1  UNL     1      26.004 -33.442 -36.179  1.00  0.00    -0.113 N 
HETATM    9  O2  UNL     1      25.506 -34.005 -35.208  1.00  0.00    -0.532 OA
HETATM   10  O3  UNL     1      26.701 -34.130 -37.115  1.00  0.00    -0.532 OA
ENDBRANCH   7   8
BRANCH   4  11
HETATM   11  C4  UNL     1      23.665 -29.180 -37.423  1.00  0.00     0.278 C 
HETATM   12  O1  UNL     1      23.969 -28.047 -37.864  1.00  0.00    -0.301 OA
ENDBRANCH   4  11
TORSDOF 2
ENDMDL
MODEL 3
REMARK VINA RESULT: -3.627831413      2.780      2.976
REMARK  2 active torsions:
REMARK  status: ('A' for Active; 'I' for Inactive)
REMARK    1  A    between atoms: C3_4  and  C4_5 
REMARK    2  A    between atoms: C6_9  and  N1_10 
ROOT
HETATM    1  C1  UNL     1      27.679 -32.228 -35.131  1.00  0.00     0.059 C 
HETATM    2  C2  UNL     1      26.503 -31.612 -35.834  1.00  0.00     0.014 A 
HETATM    3  S1  UNL     1      25.999 -29.963 -35.821  1.00  0.00    -0.088 SA
HETATM    4  C3  UNL     1      24.634 -30.109 -36.835  1.00  0.00     0.062 A 
HETATM    5  C5  UNL     1      24.611 -31.425 -37.151  1.00  0.00     0.065 A 
HETATM    6 BR1  UNL     1      23.195 -32.072 -38.318  1.00  0.00    -0.047 Br
HETATM    7  C6  UNL     1      25.566 -32.197 -36.641  1.00  0.00     0.134 A 
ENDROOT
BRANCH   7   8
HETATM    8  N1  UNL     1      25.670 -33.626 -36.887  1.00  0.00    -0.113 N 
HETATM    9  O2  UNL     1      26.195 -33.970 -37.943  1.00  0.00    -0.532 OA
HETATM   10  O3  UNL     1      25.212 -34.537 -35.995  1.00  0.00    -0.532 OA
ENDBRANCH   7   8
BRANCH   4  11
HETATM   11  C4  UNL     1      23.723 -29.015 -37.239  1.00  0.00     0.278 C 
HETATM   12  O1  UNL     1      24.137 -28.044 -37.916  1.00  0.00    -0.301 OA
ENDBRANCH   4  11
TORSDOF 2
ENDMDL
MODEL 4
REMARK VINA RESULT: -3.592605774      3.161      3.575
REMARK  2 active torsions:
REMARK  status: ('A' for Active; 'I' for Inactive)
REMARK    1  A    between atoms: C3_4  and  C4_5 
REMARK    2  A    between atoms: C6_9  and  N1_10 
ROOT
HETATM    1  C1  UNL     1      24.691 -34.662 -34.614  1.00  0.00     0.059 C 
HETATM    2  C2  UNL     1      24.618 -33.165 -34.708  1.00  0.00     0.014 A 
HETATM    3  S1  UNL     1      23.517 -32.101 -33.916  1.00  0.00    -0.088 SA
HETATM    4  C3  UNL     1      24.100 -30.623 -34.543  1.00  0.00     0.062 A 
HETATM    5  C5  UNL     1      25.126 -31.000 -35.343  1.00  0.00     0.065 A 
HETATM    6 BR1  UNL     1      26.114 -29.618 -36.290  1.00  0.00    -0.047 Br
HETATM    7  C6  UNL     1      25.394 -32.299 -35.430  1.00  0.00     0.134 A 
ENDROOT
BRANCH   7   8
HETATM    8  N1  UNL     1      26.459 -32.853 -36.249  1.00  0.00    -0.113 N 
HETATM    9  O2  UNL     1      26.191 -33.085 -37.425  1.00  0.00    -0.532 OA
HETATM   10  O3  UNL     1      27.690 -33.100 -35.742  1.00  0.00    -0.532 OA
ENDBRANCH   7   8
BRANCH   4  11
HETATM   11  C4  UNL     1      23.566 -29.276 -34.245  1.00  0.00     0.278 C 
HETATM   12  O1  UNL     1      23.192 -28.968 -33.089  1.00  0.00    -0.301 OA
ENDBRANCH   4  11
TORSDOF 2
ENDMDL
MODEL 5
REMARK VINA RESULT: -3.509323217      2.959      4.186
REMARK  2 active torsions:
REMARK  status: ('A' for Active; 'I' for Inactive)
REMARK    1  A    between atoms: C3_4  and  C4_5 
REMARK    2  A    between atoms: C6_9  and  N1_10 
ROOT
HETATM    1  C1  UNL     1      23.252 -31.098 -33.100  1.00  0.00     0.059 C 
HETATM    2  C2  UNL     1      24.566 -30.807 -33.767  1.00  0.00     0.014 A 
HETATM    3  S1  UNL     1      26.153 -31.018 -33.127  1.00  0.00    -0.088 SA
HETATM    4  C3  UNL     1      27.043 -30.473 -34.478  1.00  0.00     0.062 A 
HETATM    5  C5  UNL     1      26.086 -30.146 -35.379  1.00  0.00     0.065 A 
HETATM    6 BR1  UNL     1      26.643 -29.461 -37.113  1.00  0.00    -0.047 Br
HETATM    7  C6  UNL     1      24.818 -30.315 -35.019  1.00  0.00     0.134 A 
ENDROOT
BRANCH   7   8
HETATM    8  N1  UNL     1      23.684 -30.006 -35.874  1.00  0.00    -0.113 N 
HETATM    9  O2  UNL     1      23.193 -28.885 -35.760  1.00  0.00    -0.532 OA
HETATM   10  O3  UNL     1      23.192 -30.907 -36.756  1.00  0.00    -0.532 OA
ENDBRANCH   7   8
BRANCH   4  11
HETATM   11  C4  UNL     1      28.517 -30.397 -34.583  1.00  0.00     0.278 C 
HETATM   12  O1  UNL     1      29.188 -29.708 -33.778  1.00  0.00    -0.301 OA
ENDBRANCH   4  11
TORSDOF 2
ENDMDL
