MODEL 1
REMARK VINA RESULT: -4.646286547      0.000      0.000
REMARK  3 active torsions:
REMARK  status: ('A' for Active; 'I' for Inactive)
REMARK    1  A    between atoms: O1_2  and  C2_3 
REMARK    2  A    between atoms: C2_3  and  C3_5 
REMARK    3  A    between atoms: C6_10  and  N1_11 
ROOT
HETATM    1  C3  UNL     1      29.829 -25.903 -30.441  1.00  0.00     0.109 A 
HETATM    2  C4  UNL     1      30.025 -26.084 -29.078  1.00  0.00     0.053 A 
HETATM    3 BR1  UNL     1      30.497 -27.762 -28.297  1.00  0.00    -0.048 Br
HETATM    4  C5  UNL     1      29.820 -24.868 -28.456  1.00  0.00     0.164 A 
HETATM    5  O3  UNL     1      29.516 -23.993 -29.370  1.00  0.00    -0.303 OA
HETATM    6  C6  UNL     1      29.513 -24.572 -30.569  1.00  0.00     0.162 A 
ENDROOT
BRANCH   1   7
HETATM    7  C2  UNL     1      29.944 -26.936 -31.460  1.00  0.00     0.298 C 
HETATM    8  O2  UNL     1      29.116 -27.874 -31.507  1.00  0.00    -0.259 OA
BRANCH   7   9
HETATM    9  O1  UNL     1      30.957 -26.919 -32.401  1.00  0.00    -0.322 OA
HETATM   10  C1  UNL     1      30.767 -27.056 -33.779  1.00  0.00     0.213 C 
ENDBRANCH   7   9
ENDBRANCH   1   7
BRANCH   6  11
HETATM   11  N1  UNL     1      29.219 -23.881 -31.771  1.00  0.00    -0.369 N 
HETATM   12  C7  UNL     1      29.722 -22.543 -31.989  1.00  0.00     0.151 C 
HETATM   13  C8  UNL     1      28.423 -24.493 -32.805  1.00  0.00     0.151 C 
ENDBRANCH   6  11
TORSDOF 3
ENDMDL
MODEL 2
REMARK VINA RESULT: -4.215296986      7.649      9.054
REMARK  3 active torsions:
REMARK  status: ('A' for Active; 'I' for Inactive)
REMARK    1  A    between atoms: O1_2  and  C2_3 
REMARK    2  A    between atoms: C2_3  and  C3_5 
REMARK    3  A    between atoms: C6_10  and  N1_11 
ROOT
HETATM    1  C3  UNL     1      24.990 -30.260 -35.766  1.00  0.00     0.109 A 
HETATM    2  C4  UNL     1      24.871 -29.259 -36.722  1.00  0.00     0.053 A 
HETATM    3 BR1  UNL     1      23.193 -28.555 -37.304  1.00  0.00    -0.048 Br
HETATM    4  C5  UNL     1      26.143 -28.910 -37.129  1.00  0.00     0.164 A 
HETATM    5  O3  UNL     1      26.993 -29.644 -36.471  1.00  0.00    -0.303 OA
HETATM    6  C6  UNL     1      26.344 -30.462 -35.647  1.00  0.00     0.162 A 
ENDROOT
BRANCH   1   7
HETATM    7  C2  UNL     1      23.885 -30.915 -35.080  1.00  0.00     0.298 C 
HETATM    8  O2  UNL     1      23.248 -31.835 -35.641  1.00  0.00    -0.259 OA
BRANCH   7   9
HETATM    9  O1  UNL     1      23.506 -30.550 -33.801  1.00  0.00    -0.322 OA
HETATM   10  C1  UNL     1      23.201 -29.245 -33.402  1.00  0.00     0.213 C 
ENDBRANCH   7   9
ENDBRANCH   1   7
BRANCH   6  11
HETATM   11  N1  UNL     1      26.991 -31.388 -34.792  1.00  0.00    -0.369 N 
HETATM   12  C7  UNL     1      27.327 -32.713 -35.266  1.00  0.00     0.151 C 
HETATM   13  C8  UNL     1      27.337 -31.035 -33.438  1.00  0.00     0.151 C 
ENDBRANCH   6  11
TORSDOF 3
ENDMDL
MODEL 3
REMARK VINA RESULT: -4.188100387      2.323      3.334
REMARK  3 active torsions:
REMARK  status: ('A' for Active; 'I' for Inactive)
REMARK    1  A    between atoms: O1_2  and  C2_3 
REMARK    2  A    between atoms: C2_3  and  C3_5 
REMARK    3  A    between atoms: C6_10  and  N1_11 
ROOT
HETATM    1  C3  UNL     1      29.786 -25.798 -31.228  1.00  0.00     0.109 A 
HETATM    2  C4  UNL     1      29.571 -24.582 -31.863  1.00  0.00     0.053 A 
HETATM    3 BR1  UNL     1      29.303 -24.412 -33.747  1.00  0.00    -0.048 Br
HETATM    4  C5  UNL     1      29.590 -23.592 -30.900  1.00  0.00     0.164 A 
HETATM    5  O3  UNL     1      29.804 -24.156 -29.747  1.00  0.00    -0.303 OA
HETATM    6  C6  UNL     1      29.925 -25.472 -29.900  1.00  0.00     0.162 A 
ENDROOT
BRANCH   1   7
HETATM    7  C2  UNL     1      29.846 -27.098 -31.880  1.00  0.00     0.298 C 
HETATM    8  O2  UNL     1      29.081 -28.022 -31.523  1.00  0.00    -0.259 OA
BRANCH   7   9
HETATM    9  O1  UNL     1      30.738 -27.355 -32.906  1.00  0.00    -0.322 OA
HETATM   10  C1  UNL     1      30.491 -28.218 -33.978  1.00  0.00     0.213 C 
ENDBRANCH   7   9
ENDBRANCH   1   7
BRANCH   6  11
HETATM   11  N1  UNL     1      30.163 -26.367 -28.827  1.00  0.00    -0.369 N 
HETATM   12  C7  UNL     1      31.410 -27.093 -28.742  1.00  0.00     0.151 C 
HETATM   13  C8  UNL     1      29.177 -26.570 -27.796  1.00  0.00     0.151 C 
ENDBRANCH   6  11
TORSDOF 3
ENDMDL
MODEL 4
REMARK VINA RESULT: -4.182217528      3.736      4.851
REMARK  3 active torsions:
REMARK  status: ('A' for Active; 'I' for Inactive)
REMARK    1  A    between atoms: O1_2  and  C2_3 
REMARK    2  A    between atoms: C2_3  and  C3_5 
REMARK    3  A    between atoms: C6_10  and  N1_11 
ROOT
HETATM    1  C3  UNL     1      31.222 -27.101 -26.772  1.00  0.00     0.109 A 
HETATM    2  C4  UNL     1      32.384 -26.889 -26.042  1.00  0.00     0.053 A 
HETATM    3 BR1  UNL     1      32.816 -27.850 -24.449  1.00  0.00    -0.048 Br
HETATM    4  C5  UNL     1      33.109 -25.900 -26.679  1.00  0.00     0.164 A 
HETATM    5  O3  UNL     1      32.441 -25.524 -27.731  1.00  0.00    -0.303 OA
HETATM    6  C6  UNL     1      31.309 -26.218 -27.822  1.00  0.00     0.162 A 
ENDROOT
BRANCH   1   7
HETATM    7  C2  UNL     1      30.176 -28.058 -26.444  1.00  0.00     0.298 C 
HETATM    8  O2  UNL     1      29.217 -27.723 -25.712  1.00  0.00    -0.259 OA
BRANCH   7   9
HETATM    9  O1  UNL     1      30.203 -29.356 -26.923  1.00  0.00    -0.322 OA
HETATM   10  C1  UNL     1      30.846 -30.425 -26.293  1.00  0.00     0.213 C 
ENDBRANCH   7   9
ENDBRANCH   1   7
BRANCH   6  11
HETATM   11  N1  UNL     1      30.364 -26.041 -28.862  1.00  0.00    -0.369 N 
HETATM   12  C7  UNL     1      29.535 -24.857 -28.905  1.00  0.00     0.151 C 
HETATM   13  C8  UNL     1      30.209 -27.026 -29.903  1.00  0.00     0.151 C 
ENDBRANCH   6  11
TORSDOF 3
ENDMDL
MODEL 5
REMARK VINA RESULT: -4.085430695      7.653      8.785
REMARK  3 active torsions:
REMARK  status: ('A' for Active; 'I' for Inactive)
REMARK    1  A    between atoms: O1_2  and  C2_3 
REMARK    2  A    between atoms: C2_3  and  C3_5 
REMARK    3  A    between atoms: C6_10  and  N1_11 
ROOT
HETATM    1  C3  UNL     1      24.996 -30.281 -35.169  1.00  0.00     0.109 A 
HETATM    2  C4  UNL     1      26.348 -30.383 -34.869  1.00  0.00     0.053 A 
HETATM    3 BR1  UNL     1      27.012 -30.774 -33.122  1.00  0.00    -0.048 Br
HETATM    4  C5  UNL     1      27.057 -30.156 -36.033  1.00  0.00     0.164 A 
HETATM    5  O3  UNL     1      26.203 -29.928 -36.988  1.00  0.00    -0.303 OA
HETATM    6  C6  UNL     1      24.961 -29.995 -36.512  1.00  0.00     0.162 A 
ENDROOT
BRANCH   1   7
HETATM    7  C2  UNL     1      23.902 -30.446 -34.223  1.00  0.00     0.298 C 
HETATM    8  O2  UNL     1      23.452 -31.586 -33.967  1.00  0.00    -0.259 OA
BRANCH   7   9
HETATM    9  O1  UNL     1      23.329 -29.364 -33.579  1.00  0.00    -0.322 OA
HETATM   10  C1  UNL     1      23.257 -29.209 -32.191  1.00  0.00     0.213 C 
ENDBRANCH   7   9
ENDBRANCH   1   7
BRANCH   6  11
HETATM   11  N1  UNL     1      23.806 -29.794 -37.308  1.00  0.00    -0.369 N 
HETATM   12  C7  UNL     1      23.192 -30.903 -38.003  1.00  0.00     0.151 C 
HETATM   13  C8  UNL     1      23.212 -28.487 -37.439  1.00  0.00     0.151 C 
ENDBRANCH   6  11
TORSDOF 3
ENDMDL
