MODEL 1
REMARK VINA RESULT: -8.422057431      0.000      0.000
REMARK  3 active torsions:
REMARK  status: ('A' for Active; 'I' for Inactive)
REMARK    1  A    between atoms: C2_2  and  O1_3 
REMARK    2  A    between atoms: O1_3  and  C3_4 
REMARK       I    between atoms: C3_4  and  N1_6 
REMARK    3  A    between atoms: C4_8  and  C5_10 
ROOT
HETATM    1  C5  UNL     1      29.725 -26.563 -28.299  1.00  0.00     0.271 C 
HETATM    2  O3  UNL     1      30.757 -27.339 -27.841  1.00  0.00    -0.358 OA
HETATM    3  C6  UNL     1      31.353 -26.696 -26.772  1.00  0.00     0.069 C 
HETATM    4  C7  UNL     1      32.545 -25.908 -27.254  1.00  0.00     0.038 C 
HETATM    5  C8  UNL     1      33.595 -26.982 -27.399  1.00  0.00     0.003 C 
HETATM    6  C9  UNL     1      33.316 -27.938 -26.283  1.00  0.00     0.003 C 
HETATM    7  C10 UNL     1      31.934 -27.630 -25.751  1.00  0.00     0.038 C 
HETATM    8  C11 UNL     1      30.283 -25.806 -26.174  1.00  0.00     0.119 C 
HETATM    9  C12 UNL     1      29.542 -25.424 -27.389  1.00  0.00     0.166 C 
HETATM   10  O4  UNL     1      28.935 -24.413 -27.576  1.00  0.00    -0.295 OA
ENDROOT
BRANCH   1  11
HETATM   11  C4  UNL     1      29.852 -26.168 -29.718  1.00  0.00     0.205 C 
HETATM   12  N1  UNL     1      30.255 -26.980 -30.632  1.00  0.00    -0.280 N 
HETATM   13  C3  UNL     1      30.367 -26.570 -31.993  1.00  0.00     0.371 C 
ATOM     14  H1  UNL     1      30.499 -27.937 -30.377  1.00  0.00     0.173 HD
HETATM   15  O2  UNL     1      30.467 -27.422 -32.922  1.00  0.00    -0.238 OA
HETATM   16  F1  UNL     1      29.541 -24.908 -30.108  1.00  0.00    -0.188 F 
BRANCH  13  17
HETATM   17  O1  UNL     1      30.374 -25.236 -32.365  1.00  0.00    -0.274 OA
BRANCH  17  18
HETATM   18  C2  UNL     1      29.575 -24.842 -33.423  1.00  0.00     0.137 C 
HETATM   19  C1  UNL     1      28.867 -23.738 -33.344  1.00  0.00     0.038 C 
ENDBRANCH  17  18
ENDBRANCH  13  17
ENDBRANCH   1  11
TORSDOF 3
ENDMDL
MODEL 2
REMARK VINA RESULT: -8.218289399      1.143      1.650
REMARK  3 active torsions:
REMARK  status: ('A' for Active; 'I' for Inactive)
REMARK    1  A    between atoms: C2_2  and  O1_3 
REMARK    2  A    between atoms: O1_3  and  C3_4 
REMARK       I    between atoms: C3_4  and  N1_6 
REMARK    3  A    between atoms: C4_8  and  C5_10 
ROOT
HETATM    1  C5  UNL     1      29.813 -26.560 -28.359  1.00  0.00     0.271 C 
HETATM    2  O3  UNL     1      30.800 -27.378 -27.877  1.00  0.00    -0.358 OA
HETATM    3  C6  UNL     1      31.307 -26.823 -26.716  1.00  0.00     0.069 C 
HETATM    4  C7  UNL     1      32.538 -26.013 -27.037  1.00  0.00     0.038 C 
HETATM    5  C8  UNL     1      33.592 -27.083 -27.175  1.00  0.00     0.003 C 
HETATM    6  C9  UNL     1      33.218 -28.117 -26.161  1.00  0.00     0.003 C 
HETATM    7  C10 UNL     1      31.798 -27.835 -25.724  1.00  0.00     0.038 C 
HETATM    8  C11 UNL     1      30.194 -25.969 -26.144  1.00  0.00     0.119 C 
HETATM    9  C12 UNL     1      29.559 -25.490 -27.384  1.00  0.00     0.166 C 
HETATM   10  O4  UNL     1      28.973 -24.462 -27.544  1.00  0.00    -0.295 OA
ENDROOT
BRANCH   1  11
HETATM   11  C4  UNL     1      30.059 -26.060 -29.728  1.00  0.00     0.205 C 
HETATM   12  N1  UNL     1      29.401 -25.078 -30.238  1.00  0.00    -0.280 N 
HETATM   13  C3  UNL     1      29.661 -24.618 -31.562  1.00  0.00     0.371 C 
ATOM     14  H1  UNL     1      28.679 -24.619 -29.683  1.00  0.00     0.173 HD
HETATM   15  O2  UNL     1      29.243 -23.489 -31.951  1.00  0.00    -0.238 OA
HETATM   16  F1  UNL     1      31.007 -26.636 -30.508  1.00  0.00    -0.188 F 
BRANCH  13  17
HETATM   17  O1  UNL     1      30.373 -25.370 -32.481  1.00  0.00    -0.274 OA
BRANCH  17  18
HETATM   18  C2  UNL     1      29.670 -26.135 -33.395  1.00  0.00     0.137 C 
HETATM   19  C1  UNL     1      29.987 -27.396 -33.586  1.00  0.00     0.038 C 
ENDBRANCH  17  18
ENDBRANCH  13  17
ENDBRANCH   1  11
TORSDOF 3
ENDMDL
MODEL 3
REMARK VINA RESULT: -7.270172124      1.988      2.753
REMARK  3 active torsions:
REMARK  status: ('A' for Active; 'I' for Inactive)
REMARK    1  A    between atoms: C2_2  and  O1_3 
REMARK    2  A    between atoms: O1_3  and  C3_4 
REMARK       I    between atoms: C3_4  and  N1_6 
REMARK    3  A    between atoms: C4_8  and  C5_10 
ROOT
HETATM    1  C5  UNL     1      29.036 -26.148 -29.801  1.00  0.00     0.271 C 
HETATM    2  O3  UNL     1      29.169 -26.977 -28.719  1.00  0.00    -0.358 OA
HETATM    3  C6  UNL     1      29.915 -26.326 -27.753  1.00  0.00     0.069 C 
HETATM    4  C7  UNL     1      31.363 -26.729 -27.873  1.00  0.00     0.038 C 
HETATM    5  C8  UNL     1      31.371 -28.078 -27.197  1.00  0.00     0.003 C 
HETATM    6  C9  UNL     1      30.377 -27.952 -26.087  1.00  0.00     0.003 C 
HETATM    7  C10 UNL     1      29.555 -26.710 -26.348  1.00  0.00     0.038 C 
HETATM    8  C11 UNL     1      29.712 -24.845 -27.999  1.00  0.00     0.119 C 
HETATM    9  C12 UNL     1      29.597 -24.831 -29.468  1.00  0.00     0.166 C 
HETATM   10  O4  UNL     1      29.896 -23.942 -30.207  1.00  0.00    -0.295 OA
ENDROOT
BRANCH   1  11
HETATM   11  C4  UNL     1      29.567 -26.711 -31.061  1.00  0.00     0.205 C 
HETATM   12  N1  UNL     1      29.688 -26.014 -32.136  1.00  0.00    -0.280 N 
HETATM   13  C3  UNL     1      30.203 -26.585 -33.337  1.00  0.00     0.371 C 
ATOM     14  H1  UNL     1      29.409 -25.033 -32.130  1.00  0.00     0.173 HD
HETATM   15  O2  UNL     1      30.601 -25.850 -34.287  1.00  0.00    -0.238 OA
HETATM   16  F1  UNL     1      29.950 -28.010 -31.123  1.00  0.00    -0.188 F 
BRANCH  13  17
HETATM   17  O1  UNL     1      30.295 -27.954 -33.526  1.00  0.00    -0.274 OA
BRANCH  17  18
HETATM   18  C2  UNL     1      29.225 -28.613 -34.103  1.00  0.00     0.137 C 
HETATM   19  C1  UNL     1      29.272 -29.913 -34.292  1.00  0.00     0.038 C 
ENDBRANCH  17  18
ENDBRANCH  13  17
ENDBRANCH   1  11
TORSDOF 3
ENDMDL
MODEL 4
REMARK VINA RESULT: -6.134420240      6.207      9.225
REMARK  3 active torsions:
REMARK  status: ('A' for Active; 'I' for Inactive)
REMARK    1  A    between atoms: C2_2  and  O1_3 
REMARK    2  A    between atoms: O1_3  and  C3_4 
REMARK       I    between atoms: C3_4  and  N1_6 
REMARK    3  A    between atoms: C4_8  and  C5_10 
ROOT
HETATM    1  C5  UNL     1      27.169 -31.344 -34.192  1.00  0.00     0.271 C 
HETATM    2  O3  UNL     1      25.928 -30.764 -34.195  1.00  0.00    -0.358 OA
HETATM    3  C6  UNL     1      25.176 -31.334 -35.206  1.00  0.00     0.069 C 
HETATM    4  C7  UNL     1      25.258 -30.478 -36.444  1.00  0.00     0.038 C 
HETATM    5  C8  UNL     1      24.284 -29.370 -36.127  1.00  0.00     0.003 C 
HETATM    6  C9  UNL     1      23.194 -30.036 -35.349  1.00  0.00     0.003 C 
HETATM    7  C10 UNL     1      23.706 -31.389 -34.910  1.00  0.00     0.038 C 
HETATM    8  C11 UNL     1      25.756 -32.716 -35.426  1.00  0.00     0.119 C 
HETATM    9  C12 UNL     1      27.180 -32.455 -35.154  1.00  0.00     0.166 C 
HETATM   10  O4  UNL     1      28.120 -33.026 -35.618  1.00  0.00    -0.295 OA
ENDROOT
BRANCH   1  11
HETATM   11  C4  UNL     1      28.281 -30.389 -34.384  1.00  0.00     0.205 C 
HETATM   12  N1  UNL     1      29.514 -30.716 -34.210  1.00  0.00    -0.280 N 
HETATM   13  C3  UNL     1      30.566 -29.773 -34.403  1.00  0.00     0.371 C 
ATOM     14  H1  UNL     1      29.744 -31.669 -33.930  1.00  0.00     0.173 HD
HETATM   15  O2  UNL     1      31.766 -30.155 -34.528  1.00  0.00    -0.238 OA
HETATM   16  F1  UNL     1      28.030 -29.110 -34.755  1.00  0.00    -0.188 F 
BRANCH  13  17
HETATM   17  O1  UNL     1      30.336 -28.409 -34.460  1.00  0.00    -0.274 OA
BRANCH  17  18
HETATM   18  C2  UNL     1      30.650 -27.639 -33.356  1.00  0.00     0.137 C 
HETATM   19  C1  UNL     1      30.287 -26.377 -33.303  1.00  0.00     0.038 C 
ENDBRANCH  17  18
ENDBRANCH  13  17
ENDBRANCH   1  11
TORSDOF 3
ENDMDL
MODEL 5
REMARK VINA RESULT: -6.079225812      6.494      9.258
REMARK  3 active torsions:
REMARK  status: ('A' for Active; 'I' for Inactive)
REMARK    1  A    between atoms: C2_2  and  O1_3 
REMARK    2  A    between atoms: O1_3  and  C3_4 
REMARK       I    between atoms: C3_4  and  N1_6 
REMARK    3  A    between atoms: C4_8  and  C5_10 
ROOT
HETATM    1  C5  UNL     1      26.892 -31.493 -35.414  1.00  0.00     0.271 C 
HETATM    2  O3  UNL     1      25.951 -31.797 -34.467  1.00  0.00    -0.358 OA
HETATM    3  C6  UNL     1      24.700 -31.493 -34.973  1.00  0.00     0.069 C 
HETATM    4  C7  UNL     1      24.290 -30.114 -34.519  1.00  0.00     0.038 C 
HETATM    5  C8  UNL     1      23.831 -30.372 -33.105  1.00  0.00     0.003 C 
HETATM    6  C9  UNL     1      23.192 -31.724 -33.155  1.00  0.00     0.003 C 
HETATM    7  C10 UNL     1      23.605 -32.377 -34.454  1.00  0.00     0.038 C 
HETATM    8  C11 UNL     1      24.829 -31.584 -36.480  1.00  0.00     0.119 C 
HETATM    9  C12 UNL     1      26.212 -31.110 -36.659  1.00  0.00     0.166 C 
HETATM   10  O4  UNL     1      26.664 -30.544 -37.609  1.00  0.00    -0.295 OA
ENDROOT
BRANCH   1  11
HETATM   11  C4  UNL     1      27.900 -30.508 -34.968  1.00  0.00     0.205 C 
HETATM   12  N1  UNL     1      29.149 -30.799 -34.845  1.00  0.00    -0.280 N 
HETATM   13  C3  UNL     1      30.099 -29.828 -34.413  1.00  0.00     0.371 C 
ATOM     14  H1  UNL     1      29.465 -31.744 -35.063  1.00  0.00     0.173 HD
HETATM   15  O2  UNL     1      31.339 -30.014 -34.578  1.00  0.00    -0.238 OA
HETATM   16  F1  UNL     1      27.532 -29.239 -34.666  1.00  0.00    -0.188 F 
BRANCH  13  17
HETATM   17  O1  UNL     1      29.721 -28.647 -33.797  1.00  0.00    -0.274 OA
BRANCH  17  18
HETATM   18  C2  UNL     1      30.613 -27.591 -33.790  1.00  0.00     0.137 C 
HETATM   19  C1  UNL     1      30.325 -26.484 -33.143  1.00  0.00     0.038 C 
ENDBRANCH  17  18
ENDBRANCH  13  17
ENDBRANCH   1  11
TORSDOF 3
ENDMDL
