MODEL 1
REMARK VINA RESULT: -6.370769354      0.000      0.000
REMARK  3 active torsions:
REMARK  status: ('A' for Active; 'I' for Inactive)
REMARK    1  A    between atoms: C4_4  and  C5_5 
REMARK    2  A    between atoms: C5_5  and  C6_6 
REMARK    3  A    between atoms: C11_16  and  O3_18 
ROOT
HETATM    1  C6  UNL     1      29.256 -25.947 -30.192  1.00  0.00     0.144 C 
HETATM    2  N1  UNL     1      28.659 -27.028 -29.871  1.00  0.00    -0.244 N 
ATOM      3  H1  UNL     1      28.037 -27.557 -30.481  1.00  0.00     0.196 HD
HETATM    4  O1  UNL     1      28.975 -27.366 -28.598  1.00  0.00    -0.235 OA
HETATM    5  C7  UNL     1      30.169 -26.694 -28.258  1.00  0.00     0.234 C 
HETATM    6  C8  UNL     1      31.323 -27.543 -28.697  1.00  0.00     0.101 C 
HETATM    7  C9  UNL     1      32.303 -27.786 -27.567  1.00  0.00     0.177 C 
HETATM    8  O2  UNL     1      32.570 -26.645 -26.851  1.00  0.00    -0.354 OA
HETATM    9  C10 UNL     1      31.499 -26.084 -26.214  1.00  0.00     0.346 C 
HETATM   10  F1  UNL     1      31.496 -26.458 -24.864  1.00  0.00    -0.216 F 
HETATM   11  C11 UNL     1      30.170 -26.359 -26.816  1.00  0.00     0.167 C 
HETATM   12  C12 UNL     1      29.285 -25.128 -26.595  1.00  0.00     0.057 C 
HETATM   13  O4  UNL     1      30.006 -25.536 -29.099  1.00  0.00    -0.294 OA
ENDROOT
BRANCH  11  14
HETATM   14  O3  UNL     1      29.548 -27.397 -26.106  1.00  0.00    -0.379 OA
ATOM     15  H3  UNL     1      28.967 -27.022 -25.455  1.00  0.00     0.211 HD
ENDBRANCH  11  14
BRANCH   1  16
HETATM   16  C5  UNL     1      29.139 -25.274 -31.529  1.00  0.00     0.113 C 
BRANCH  16  17
HETATM   17  C4  UNL     1      29.543 -23.857 -31.331  1.00  0.00    -0.017 C 
HETATM   18  C2  UNL     1      29.536 -23.053 -32.385  1.00  0.00    -0.091 C 
HETATM   19  C1  UNL     1      29.941 -21.637 -32.181  1.00  0.00     0.042 C 
HETATM   20  C3  UNL     1      29.140 -23.533 -33.733  1.00  0.00     0.042 C 
ENDBRANCH  16  17
ENDBRANCH   1  16
TORSDOF 3
ENDMDL
MODEL 2
REMARK VINA RESULT: -6.092390393      1.291      1.906
REMARK  3 active torsions:
REMARK  status: ('A' for Active; 'I' for Inactive)
REMARK    1  A    between atoms: C4_4  and  C5_5 
REMARK    2  A    between atoms: C5_5  and  C6_6 
REMARK    3  A    between atoms: C11_16  and  O3_18 
ROOT
HETATM    1  C6  UNL     1      29.039 -25.876 -30.263  1.00  0.00     0.144 C 
HETATM    2  N1  UNL     1      28.446 -26.936 -29.873  1.00  0.00    -0.244 N 
ATOM      3  H1  UNL     1      27.764 -27.461 -30.419  1.00  0.00     0.196 HD
HETATM    4  O1  UNL     1      28.857 -27.258 -28.623  1.00  0.00    -0.235 OA
HETATM    5  C7  UNL     1      30.090 -26.609 -28.395  1.00  0.00     0.234 C 
HETATM    6  C8  UNL     1      31.184 -27.493 -28.908  1.00  0.00     0.101 C 
HETATM    7  C9  UNL     1      32.248 -27.739 -27.857  1.00  0.00     0.177 C 
HETATM    8  O2  UNL     1      32.598 -26.592 -27.189  1.00  0.00    -0.354 OA
HETATM    9  C10 UNL     1      31.596 -25.993 -26.479  1.00  0.00     0.346 C 
HETATM   10  F1  UNL     1      31.694 -26.341 -25.126  1.00  0.00    -0.216 F 
HETATM   11  C11 UNL     1      30.216 -26.247 -26.965  1.00  0.00     0.167 C 
HETATM   12  C12 UNL     1      29.380 -24.990 -26.698  1.00  0.00     0.057 C 
HETATM   13  O4  UNL     1      29.885 -25.463 -29.244  1.00  0.00    -0.294 OA
ENDROOT
BRANCH  11  14
HETATM   14  O3  UNL     1      29.631 -27.256 -26.185  1.00  0.00    -0.379 OA
ATOM     15  H3  UNL     1      29.213 -27.887 -26.760  1.00  0.00     0.211 HD
ENDBRANCH  11  14
BRANCH   1  16
HETATM   16  C5  UNL     1      28.828 -25.226 -31.600  1.00  0.00     0.113 C 
BRANCH  16  17
HETATM   17  C4  UNL     1      30.075 -25.444 -32.382  1.00  0.00    -0.017 C 
HETATM   18  C2  UNL     1      30.162 -26.536 -33.126  1.00  0.00    -0.091 C 
HETATM   19  C1  UNL     1      31.411 -26.749 -33.905  1.00  0.00     0.042 C 
HETATM   20  C3  UNL     1      29.059 -27.528 -33.193  1.00  0.00     0.042 C 
ENDBRANCH  16  17
ENDBRANCH   1  16
TORSDOF 3
ENDMDL
MODEL 3
REMARK VINA RESULT: -6.057173539      3.091      5.948
REMARK  3 active torsions:
REMARK  status: ('A' for Active; 'I' for Inactive)
REMARK    1  A    between atoms: C4_4  and  C5_5 
REMARK    2  A    between atoms: C5_5  and  C6_6 
REMARK    3  A    between atoms: C11_16  and  O3_18 
ROOT
HETATM    1  C6  UNL     1      30.163 -27.212 -29.632  1.00  0.00     0.144 C 
HETATM    2  N1  UNL     1      28.901 -27.043 -29.559  1.00  0.00    -0.244 N 
ATOM      3  H1  UNL     1      28.303 -27.405 -28.817  1.00  0.00     0.196 HD
HETATM    4  O1  UNL     1      28.475 -26.311 -30.616  1.00  0.00    -0.235 OA
HETATM    5  C7  UNL     1      29.590 -25.624 -31.141  1.00  0.00     0.234 C 
HETATM    6  C8  UNL     1      29.736 -24.333 -30.395  1.00  0.00     0.101 C 
HETATM    7  C9  UNL     1      29.809 -23.147 -31.335  1.00  0.00     0.177 C 
HETATM    8  O2  UNL     1      30.638 -23.376 -32.405  1.00  0.00    -0.354 OA
HETATM    9  C10 UNL     1      30.266 -24.400 -33.230  1.00  0.00     0.346 C 
HETATM   10  F1  UNL     1      29.605 -23.890 -34.356  1.00  0.00    -0.216 F 
HETATM   11  C11 UNL     1      29.448 -25.470 -32.608  1.00  0.00     0.167 C 
HETATM   12  C12 UNL     1      29.811 -26.798 -33.280  1.00  0.00     0.057 C 
HETATM   13  O4  UNL     1      30.612 -26.571 -30.777  1.00  0.00    -0.294 OA
ENDROOT
BRANCH  11  14
HETATM   14  O3  UNL     1      28.096 -25.255 -32.914  1.00  0.00    -0.379 OA
ATOM     15  H3  UNL     1      28.033 -24.569 -33.569  1.00  0.00     0.211 HD
ENDBRANCH  11  14
BRANCH   1  16
HETATM   16  C5  UNL     1      30.979 -27.976 -28.629  1.00  0.00     0.113 C 
BRANCH  16  17
HETATM   17  C4  UNL     1      30.523 -27.536 -27.284  1.00  0.00    -0.017 C 
HETATM   18  C2  UNL     1      31.189 -26.558 -26.687  1.00  0.00    -0.091 C 
HETATM   19  C1  UNL     1      30.728 -26.123 -25.343  1.00  0.00     0.042 C 
HETATM   20  C3  UNL     1      32.360 -25.906 -27.326  1.00  0.00     0.042 C 
ENDBRANCH  16  17
ENDBRANCH   1  16
TORSDOF 3
ENDMDL
MODEL 4
REMARK VINA RESULT: -5.343404591      9.455     10.512
REMARK  3 active torsions:
REMARK  status: ('A' for Active; 'I' for Inactive)
REMARK    1  A    between atoms: C4_4  and  C5_5 
REMARK    2  A    between atoms: C5_5  and  C6_6 
REMARK    3  A    between atoms: C11_16  and  O3_18 
ROOT
HETATM    1  C6  UNL     1      22.071 -30.233 -35.189  1.00  0.00     0.144 C 
HETATM    2  N1  UNL     1      20.919 -29.689 -35.122  1.00  0.00    -0.244 N 
ATOM      3  H1  UNL     1      20.347 -29.425 -35.924  1.00  0.00     0.196 HD
HETATM    4  O1  UNL     1      20.569 -29.514 -33.825  1.00  0.00    -0.235 OA
HETATM    5  C7  UNL     1      21.356 -30.389 -33.046  1.00  0.00     0.234 C 
HETATM    6  C8  UNL     1      20.658 -31.713 -32.983  1.00  0.00     0.101 C 
HETATM    7  C9  UNL     1      20.482 -32.188 -31.554  1.00  0.00     0.177 C 
HETATM    8  O2  UNL     1      21.617 -32.016 -30.802  1.00  0.00    -0.354 OA
HETATM    9  C10 UNL     1      22.031 -30.723 -30.647  1.00  0.00     0.346 C 
HETATM   10  F1  UNL     1      21.608 -30.230 -29.405  1.00  0.00    -0.216 F 
HETATM   11  C11 UNL     1      21.634 -29.781 -31.724  1.00  0.00     0.167 C 
HETATM   12  C12 UNL     1      22.750 -28.744 -31.883  1.00  0.00     0.057 C 
HETATM   13  O4  UNL     1      22.520 -30.437 -33.893  1.00  0.00    -0.294 OA
ENDROOT
BRANCH  11  14
HETATM   14  O3  UNL     1      20.507 -29.056 -31.310  1.00  0.00    -0.379 OA
ATOM     15  H3  UNL     1      19.871 -29.042 -32.016  1.00  0.00     0.211 HD
ENDBRANCH  11  14
BRANCH   1  16
HETATM   16  C5  UNL     1      22.776 -30.576 -36.469  1.00  0.00     0.113 C 
BRANCH  16  17
HETATM   17  C4  UNL     1      24.234 -30.491 -36.189  1.00  0.00    -0.017 C 
HETATM   18  C2  UNL     1      24.910 -29.473 -36.700  1.00  0.00    -0.091 C 
HETATM   19  C1  UNL     1      26.367 -29.394 -36.417  1.00  0.00     0.042 C 
HETATM   20  C3  UNL     1      24.250 -28.434 -37.532  1.00  0.00     0.042 C 
ENDBRANCH  16  17
ENDBRANCH   1  16
TORSDOF 3
ENDMDL
MODEL 5
REMARK VINA RESULT: -5.157237252      9.138     10.334
REMARK  3 active torsions:
REMARK  status: ('A' for Active; 'I' for Inactive)
REMARK    1  A    between atoms: C4_4  and  C5_5 
REMARK    2  A    between atoms: C5_5  and  C6_6 
REMARK    3  A    between atoms: C11_16  and  O3_18 
ROOT
HETATM    1  C6  UNL     1      24.435 -29.779 -35.160  1.00  0.00     0.144 C 
HETATM    2  N1  UNL     1      23.320 -29.426 -35.669  1.00  0.00    -0.244 N 
ATOM      3  H1  UNL     1      23.188 -29.108 -36.629  1.00  0.00     0.196 HD
HETATM    4  O1  UNL     1      22.338 -29.536 -34.743  1.00  0.00    -0.235 OA
HETATM    5  C7  UNL     1      22.793 -30.413 -33.736  1.00  0.00     0.234 C 
HETATM    6  C8  UNL     1      22.461 -31.813 -34.153  1.00  0.00     0.101 C 
HETATM    7  C9  UNL     1      21.698 -32.555 -33.073  1.00  0.00     0.177 C 
HETATM    8  O2  UNL     1      22.233 -32.358 -31.824  1.00  0.00    -0.354 OA
HETATM    9  C10 UNL     1      22.224 -31.067 -31.376  1.00  0.00     0.346 C 
HETATM   10  F1  UNL     1      21.140 -30.869 -30.511  1.00  0.00    -0.216 F 
HETATM   11  C11 UNL     1      22.231 -30.016 -32.424  1.00  0.00     0.167 C 
HETATM   12  C12 UNL     1      23.023 -28.818 -31.891  1.00  0.00     0.057 C 
HETATM   13  O4  UNL     1      24.204 -30.143 -33.842  1.00  0.00    -0.294 OA
ENDROOT
BRANCH  11  14
HETATM   14  O3  UNL     1      20.923 -29.545 -32.613  1.00  0.00    -0.379 OA
ATOM     15  H3  UNL     1      20.388 -30.248 -32.961  1.00  0.00     0.211 HD
ENDBRANCH  11  14
BRANCH   1  16
HETATM   16  C5  UNL     1      25.744 -29.784 -35.897  1.00  0.00     0.113 C 
BRANCH  16  17
HETATM   17  C4  UNL     1      26.586 -30.833 -35.264  1.00  0.00    -0.017 C 
HETATM   18  C2  UNL     1      26.706 -31.997 -35.885  1.00  0.00    -0.091 C 
HETATM   19  C1  UNL     1      27.549 -33.042 -35.246  1.00  0.00     0.042 C 
HETATM   20  C3  UNL     1      26.027 -32.268 -37.177  1.00  0.00     0.042 C 
ENDBRANCH  16  17
ENDBRANCH   1  16
TORSDOF 3
ENDMDL
