MODEL 1
REMARK VINA RESULT: -6.013095161      0.000      0.000
REMARK  6 active torsions:
REMARK  status: ('A' for Active; 'I' for Inactive)
REMARK    1  A    between atoms: C2_2  and  N1_4 
REMARK    2  A    between atoms: N1_4  and  C5_6 
REMARK    3  A    between atoms: C5_6  and  N2_8 
REMARK    4  A    between atoms: N2_8  and  N3_10 
REMARK    5  A    between atoms: C6_15  and  C7_16 
REMARK    6  A    between atoms: C7_16  and  C8_17 
ROOT
HETATM    1  N3  UNL     1      30.242 -26.969 -31.214  1.00  0.00    -0.113 N 
HETATM    2  N4  UNL     1      31.081 -26.936 -32.233  1.00  0.00    -0.204 N 
ATOM      3  H4  UNL     1      31.938 -27.486 -32.282  1.00  0.00     0.212 HD
HETATM    4  N5  UNL     1      30.682 -26.110 -33.181  1.00  0.00    -0.270 N 
ATOM      5  H5  UNL     1      31.153 -25.909 -34.063  1.00  0.00     0.190 HD
HETATM    6  C6  UNL     1      29.524 -25.587 -32.743  1.00  0.00     0.116 A 
HETATM    7  N6  UNL     1      29.266 -26.121 -31.536  1.00  0.00    -0.250 N 
ATOM      8  H6  UNL     1      28.451 -25.910 -30.959  1.00  0.00     0.192 HD
ENDROOT
BRANCH   1   9
HETATM    9  N2  UNL     1      30.354 -27.728 -30.049  1.00  0.00    -0.238 N 
ATOM     10  H2  UNL     1      30.751 -28.665 -30.122  1.00  0.00     0.193 HD
BRANCH   9  11
HETATM   11  C5  UNL     1      29.948 -27.270 -28.769  1.00  0.00     0.191 C 
HETATM   12  S1  UNL     1      28.721 -28.064 -28.069  1.00  0.00    -0.039 SA
BRANCH  11  13
HETATM   13  N1  UNL     1      30.551 -26.194 -28.120  1.00  0.00    -0.357 N 
HETATM   14  C4  UNL     1      29.967 -24.868 -28.419  1.00  0.00     0.152 C 
BRANCH  13  15
HETATM   15  C2  UNL     1      31.641 -26.171 -27.213  1.00  0.00     0.078 C 
HETATM   16  C1  UNL     1      31.096 -26.200 -25.770  1.00  0.00     0.032 C 
HETATM   17  C3  UNL     1      32.654 -27.250 -27.290  1.00  0.00     0.032 C 
ENDBRANCH  13  15
ENDBRANCH  11  13
ENDBRANCH   9  11
ENDBRANCH   1   9
BRANCH   6  18
HETATM   18  C7  UNL     1      28.732 -24.605 -33.503  1.00  0.00     0.094 C 
BRANCH  18  19
HETATM   19  C8  UNL     1      29.351 -23.218 -33.458  1.00  0.00     0.122 C 
HETATM   20 CL1  UNL     1      29.792 -22.796 -31.784  1.00  0.00    -0.130 Cl
ENDBRANCH  18  19
ENDBRANCH   6  18
TORSDOF 6
ENDMDL
MODEL 2
REMARK VINA RESULT: -5.626512372      2.638      5.491
REMARK  6 active torsions:
REMARK  status: ('A' for Active; 'I' for Inactive)
REMARK    1  A    between atoms: C2_2  and  N1_4 
REMARK    2  A    between atoms: N1_4  and  C5_6 
REMARK    3  A    between atoms: C5_6  and  N2_8 
REMARK    4  A    between atoms: N2_8  and  N3_10 
REMARK    5  A    between atoms: C6_15  and  C7_16 
REMARK    6  A    between atoms: C7_16  and  C8_17 
ROOT
HETATM    1  N3  UNL     1      31.157 -27.031 -29.875  1.00  0.00    -0.113 N 
HETATM    2  N4  UNL     1      30.903 -28.214 -29.345  1.00  0.00    -0.204 N 
ATOM      3  H4  UNL     1      30.712 -29.052 -29.893  1.00  0.00     0.212 HD
HETATM    4  N5  UNL     1      30.927 -28.185 -28.026  1.00  0.00    -0.270 N 
ATOM      5  H5  UNL     1      30.762 -28.965 -27.390  1.00  0.00     0.190 HD
HETATM    6  C6  UNL     1      31.212 -26.914 -27.696  1.00  0.00     0.116 A 
HETATM    7  N6  UNL     1      31.350 -26.217 -28.837  1.00  0.00    -0.250 N 
ATOM      8  H6  UNL     1      31.569 -25.222 -28.899  1.00  0.00     0.192 HD
ENDROOT
BRANCH   1   9
HETATM    9  N2  UNL     1      31.212 -26.704 -31.229  1.00  0.00    -0.238 N 
ATOM     10  H2  UNL     1      32.129 -26.589 -31.660  1.00  0.00     0.193 HD
BRANCH   9  11
HETATM   11  C5  UNL     1      30.063 -26.523 -32.042  1.00  0.00     0.191 C 
HETATM   12  S1  UNL     1      29.937 -27.475 -33.347  1.00  0.00    -0.039 SA
BRANCH  11  13
HETATM   13  N1  UNL     1      29.075 -25.580 -31.762  1.00  0.00    -0.357 N 
HETATM   14  C4  UNL     1      28.031 -26.022 -30.810  1.00  0.00     0.152 C 
BRANCH  13  15
HETATM   15  C2  UNL     1      28.914 -24.257 -32.247  1.00  0.00     0.078 C 
HETATM   16  C1  UNL     1      29.831 -23.311 -31.445  1.00  0.00     0.032 C 
HETATM   17  C3  UNL     1      29.193 -23.984 -33.677  1.00  0.00     0.032 C 
ENDBRANCH  13  15
ENDBRANCH  11  13
ENDBRANCH   9  11
ENDBRANCH   1   9
BRANCH   6  18
HETATM   18  C7  UNL     1      31.334 -26.440 -26.307  1.00  0.00     0.094 C 
BRANCH  18  19
HETATM   19  C8  UNL     1      30.017 -25.902 -25.772  1.00  0.00     0.122 C 
HETATM   20 CL1  UNL     1      28.767 -27.171 -25.826  1.00  0.00    -0.130 Cl
ENDBRANCH  18  19
ENDBRANCH   6  18
TORSDOF 6
ENDMDL
MODEL 3
REMARK VINA RESULT: -5.614359914      1.211      1.447
REMARK  6 active torsions:
REMARK  status: ('A' for Active; 'I' for Inactive)
REMARK    1  A    between atoms: C2_2  and  N1_4 
REMARK    2  A    between atoms: N1_4  and  C5_6 
REMARK    3  A    between atoms: C5_6  and  N2_8 
REMARK    4  A    between atoms: N2_8  and  N3_10 
REMARK    5  A    between atoms: C6_15  and  C7_16 
REMARK    6  A    between atoms: C7_16  and  C8_17 
ROOT
HETATM    1  N3  UNL     1      30.289 -26.907 -30.835  1.00  0.00    -0.113 N 
HETATM    2  N4  UNL     1      31.212 -26.889 -31.780  1.00  0.00    -0.204 N 
ATOM      3  H4  UNL     1      32.105 -27.375 -31.712  1.00  0.00     0.212 HD
HETATM    4  N5  UNL     1      30.843 -26.169 -32.823  1.00  0.00    -0.270 N 
ATOM      5  H5  UNL     1      31.376 -26.001 -33.676  1.00  0.00     0.190 HD
HETATM    6  C6  UNL     1      29.617 -25.703 -32.527  1.00  0.00     0.116 A 
HETATM    7  N6  UNL     1      29.290 -26.162 -31.306  1.00  0.00    -0.250 N 
ATOM      8  H6  UNL     1      28.414 -25.970 -30.819  1.00  0.00     0.192 HD
ENDROOT
BRANCH   1   9
HETATM    9  N2  UNL     1      30.349 -27.565 -29.607  1.00  0.00    -0.238 N 
ATOM     10  H2  UNL     1      29.956 -28.504 -29.545  1.00  0.00     0.193 HD
BRANCH   9  11
HETATM   11  C5  UNL     1      30.924 -27.001 -28.439  1.00  0.00     0.191 C 
HETATM   12  S1  UNL     1      32.378 -27.567 -27.999  1.00  0.00    -0.039 SA
BRANCH  11  13
HETATM   13  N1  UNL     1      30.296 -26.012 -27.684  1.00  0.00    -0.357 N 
HETATM   14  C4  UNL     1      29.962 -24.772 -28.420  1.00  0.00     0.152 C 
BRANCH  13  15
HETATM   15  C2  UNL     1      29.925 -26.008 -26.315  1.00  0.00     0.078 C 
HETATM   16  C1  UNL     1      29.022 -27.227 -26.035  1.00  0.00     0.032 C 
HETATM   17  C3  UNL     1      30.992 -26.043 -25.288  1.00  0.00     0.032 C 
ENDBRANCH  13  15
ENDBRANCH  11  13
ENDBRANCH   9  11
ENDBRANCH   1   9
BRANCH   6  18
HETATM   18  C7  UNL     1      28.831 -24.844 -33.430  1.00  0.00     0.094 C 
BRANCH  18  19
HETATM   19  C8  UNL     1      29.358 -23.419 -33.460  1.00  0.00     0.122 C 
HETATM   20 CL1  UNL     1      29.755 -22.875 -31.810  1.00  0.00    -0.130 Cl
ENDBRANCH  18  19
ENDBRANCH   6  18
TORSDOF 6
ENDMDL
MODEL 4
REMARK VINA RESULT: -5.595051114      0.932      1.511
REMARK  6 active torsions:
REMARK  status: ('A' for Active; 'I' for Inactive)
REMARK    1  A    between atoms: C2_2  and  N1_4 
REMARK    2  A    between atoms: N1_4  and  C5_6 
REMARK    3  A    between atoms: C5_6  and  N2_8 
REMARK    4  A    between atoms: N2_8  and  N3_10 
REMARK    5  A    between atoms: C6_15  and  C7_16 
REMARK    6  A    between atoms: C7_16  and  C8_17 
ROOT
HETATM    1  N3  UNL     1      30.184 -27.089 -30.587  1.00  0.00    -0.113 N 
HETATM    2  N4  UNL     1      31.174 -26.671 -31.356  1.00  0.00    -0.204 N 
ATOM      3  H4  UNL     1      32.135 -26.999 -31.274  1.00  0.00     0.212 HD
HETATM    4  N5  UNL     1      30.773 -25.780 -32.243  1.00  0.00    -0.270 N 
ATOM      5  H5  UNL     1      31.343 -25.309 -32.945  1.00  0.00     0.190 HD
HETATM    6  C6  UNL     1      29.455 -25.621 -32.029  1.00  0.00     0.116 A 
HETATM    7  N6  UNL     1      29.107 -26.429 -31.012  1.00  0.00    -0.250 N 
ATOM      8  H6  UNL     1      28.167 -26.521 -30.626  1.00  0.00     0.192 HD
ENDROOT
BRANCH   1   9
HETATM    9  N2  UNL     1      30.253 -28.022 -29.553  1.00  0.00    -0.238 N 
ATOM     10  H2  UNL     1      30.648 -28.939 -29.758  1.00  0.00     0.193 HD
BRANCH   9  11
HETATM   11  C5  UNL     1      29.804 -27.766 -28.231  1.00  0.00     0.191 C 
HETATM   12  S1  UNL     1      28.292 -28.229 -27.874  1.00  0.00    -0.039 SA
BRANCH  11  13
HETATM   13  N1  UNL     1      30.597 -27.147 -27.266  1.00  0.00    -0.357 N 
HETATM   14  C4  UNL     1      32.056 -27.232 -27.497  1.00  0.00     0.152 C 
BRANCH  13  15
HETATM   15  C2  UNL     1      30.221 -26.443 -26.093  1.00  0.00     0.078 C 
HETATM   16  C1  UNL     1      31.480 -26.179 -25.240  1.00  0.00     0.032 C 
HETATM   17  C3  UNL     1      29.539 -25.135 -26.235  1.00  0.00     0.032 C 
ENDBRANCH  13  15
ENDBRANCH  11  13
ENDBRANCH   9  11
ENDBRANCH   1   9
BRANCH   6  18
HETATM   18  C7  UNL     1      28.606 -24.706 -32.810  1.00  0.00     0.094 C 
BRANCH  18  19
HETATM   19  C8  UNL     1      29.366 -23.468 -33.256  1.00  0.00     0.122 C 
HETATM   20 CL1  UNL     1      29.788 -22.463 -31.846  1.00  0.00    -0.130 Cl
ENDBRANCH  18  19
ENDBRANCH   6  18
TORSDOF 6
ENDMDL
MODEL 5
REMARK VINA RESULT: -5.571957322      3.086      5.696
REMARK  6 active torsions:
REMARK  status: ('A' for Active; 'I' for Inactive)
REMARK    1  A    between atoms: C2_2  and  N1_4 
REMARK    2  A    between atoms: N1_4  and  C5_6 
REMARK    3  A    between atoms: C5_6  and  N2_8 
REMARK    4  A    between atoms: N2_8  and  N3_10 
REMARK    5  A    between atoms: C6_15  and  C7_16 
REMARK    6  A    between atoms: C7_16  and  C8_17 
ROOT
HETATM    1  N3  UNL     1      30.867 -26.546 -29.322  1.00  0.00    -0.113 N 
HETATM    2  N4  UNL     1      31.232 -25.483 -28.628  1.00  0.00    -0.204 N 
ATOM      3  H4  UNL     1      31.802 -24.726 -29.005  1.00  0.00     0.212 HD
HETATM    4  N5  UNL     1      30.774 -25.514 -27.391  1.00  0.00    -0.270 N 
ATOM      5  H5  UNL     1      30.919 -24.815 -26.662  1.00  0.00     0.190 HD
HETATM    6  C6  UNL     1      30.079 -26.660 -27.290  1.00  0.00     0.116 A 
HETATM    7  N6  UNL     1      30.144 -27.283 -28.479  1.00  0.00    -0.250 N 
ATOM      8  H6  UNL     1      29.707 -28.178 -28.702  1.00  0.00     0.192 HD
ENDROOT
BRANCH   1   9
HETATM    9  N2  UNL     1      31.174 -26.835 -30.651  1.00  0.00    -0.238 N 
ATOM     10  H2  UNL     1      32.053 -27.312 -30.849  1.00  0.00     0.193 HD
BRANCH   9  11
HETATM   11  C5  UNL     1      30.331 -26.503 -31.743  1.00  0.00     0.191 C 
HETATM   12  S1  UNL     1      30.765 -27.075 -33.196  1.00  0.00    -0.039 SA
BRANCH  11  13
HETATM   13  N1  UNL     1      29.183 -25.724 -31.608  1.00  0.00    -0.357 N 
HETATM   14  C4  UNL     1      28.067 -26.365 -30.878  1.00  0.00     0.152 C 
BRANCH  13  15
HETATM   15  C2  UNL     1      28.917 -24.407 -32.061  1.00  0.00     0.078 C 
HETATM   16  C1  UNL     1      29.901 -23.432 -31.382  1.00  0.00     0.032 C 
HETATM   17  C3  UNL     1      28.995 -24.124 -33.514  1.00  0.00     0.032 C 
ENDBRANCH  13  15
ENDBRANCH  11  13
ENDBRANCH   9  11
ENDBRANCH   1   9
BRANCH   6  18
HETATM   18  C7  UNL     1      29.393 -27.092 -26.060  1.00  0.00     0.094 C 
BRANCH  18  19
HETATM   19  C8  UNL     1      28.100 -27.831 -26.361  1.00  0.00     0.122 C 
HETATM   20 CL1  UNL     1      27.155 -28.051 -24.866  1.00  0.00    -0.130 Cl
ENDBRANCH  18  19
ENDBRANCH   6  18
TORSDOF 6
ENDMDL
