MODEL 1
REMARK VINA RESULT: -6.426597532      0.000      0.000
REMARK  5 active torsions:
REMARK  status: ('A' for Active; 'I' for Inactive)
REMARK    1  A    between atoms: C2_2  and  O1_4 
REMARK    2  A    between atoms: O1_4  and  C4_5 
REMARK    3  A    between atoms: C4_5  and  C5_7 
REMARK    4  A    between atoms: C5_7  and  O3_8 
REMARK    5  A    between atoms: O3_8  and  C6_9 
ROOT
HETATM    1  C6  UNL     1      56.979 -13.127 -28.480  1.00  0.00     0.253 C 
HETATM    2  C7  UNL     1      55.866 -12.618 -27.643  1.00  0.00     0.082 C 
HETATM    3  N1  UNL     1      56.750 -12.545 -29.835  1.00  0.00    -0.031 N 
ATOM      4  H11 UNL     1      57.214 -11.646 -29.967  1.00  0.00     0.281 HD
ATOM      5  H12 UNL     1      55.793 -12.220 -29.974  1.00  0.00     0.281 HD
HETATM    6  C8  UNL     1      57.153 -13.531 -30.798  1.00  0.00     0.246 C 
HETATM    7  C9  UNL     1      58.255 -14.448 -30.296  1.00  0.00     0.204 C 
HETATM    8  O4  UNL     1      57.874 -15.162 -29.182  1.00  0.00    -0.379 OA
HETATM    9  C10 UNL     1      56.712 -14.637 -28.659  1.00  0.00     0.187 C 
HETATM   10  C11 UNL     1      55.575 -14.900 -29.589  1.00  0.00     0.076 C 
HETATM   11  C12 UNL     1      55.935 -14.446 -31.003  1.00  0.00     0.205 C 
HETATM   12  F1  UNL     1      54.941 -13.669 -31.556  1.00  0.00    -0.247 F 
ENDROOT
BRANCH   1  13
HETATM   13  O3  UNL     1      58.251 -12.879 -28.193  1.00  0.00    -0.316 OA
BRANCH  13  14
HETATM   14  C5  UNL     1      58.865 -12.984 -27.032  1.00  0.00     0.220 C 
BRANCH  14  15
HETATM   15  C4  UNL     1      58.808 -11.928 -26.013  1.00  0.00     0.305 C 
HETATM   16  O2  UNL     1      59.088 -10.753 -26.213  1.00  0.00    -0.258 OA
BRANCH  15  17
HETATM   17  O1  UNL     1      58.400 -12.302 -24.718  1.00  0.00    -0.312 OA
BRANCH  17  18
HETATM   18  C2  UNL     1      57.379 -13.234 -24.527  1.00  0.00     0.124 C 
HETATM   19  C1  UNL     1      57.821 -14.416 -23.682  1.00  0.00     0.040 C 
HETATM   20  C3  UNL     1      56.155 -12.626 -23.867  1.00  0.00     0.040 C 
ENDBRANCH  17  18
ENDBRANCH  15  17
ENDBRANCH  14  15
ENDBRANCH  13  14
ENDBRANCH   1  13
TORSDOF 5
ENDMDL
MODEL 2
REMARK VINA RESULT: -6.388218431      1.032      1.412
REMARK  5 active torsions:
REMARK  status: ('A' for Active; 'I' for Inactive)
REMARK    1  A    between atoms: C2_2  and  O1_4 
REMARK    2  A    between atoms: O1_4  and  C4_5 
REMARK    3  A    between atoms: C4_5  and  C5_7 
REMARK    4  A    between atoms: C5_7  and  O3_8 
REMARK    5  A    between atoms: O3_8  and  C6_9 
ROOT
HETATM    1  C6  UNL     1      57.094 -13.154 -28.424  1.00  0.00     0.253 C 
HETATM    2  C7  UNL     1      55.985 -12.470 -27.717  1.00  0.00     0.082 C 
HETATM    3  N1  UNL     1      57.104 -12.569 -29.798  1.00  0.00    -0.031 N 
ATOM      4  H11 UNL     1      57.709 -11.752 -29.880  1.00  0.00     0.281 HD
ATOM      5  H12 UNL     1      56.227 -12.109 -30.042  1.00  0.00     0.281 HD
HETATM    6  C8  UNL     1      57.456 -13.622 -30.709  1.00  0.00     0.246 C 
HETATM    7  C9  UNL     1      58.348 -14.684 -30.086  1.00  0.00     0.204 C 
HETATM    8  O4  UNL     1      57.745 -15.312 -29.019  1.00  0.00    -0.379 OA
HETATM    9  C10 UNL     1      56.625 -14.611 -28.629  1.00  0.00     0.187 C 
HETATM   10  C11 UNL     1      55.570 -14.719 -29.678  1.00  0.00     0.076 C 
HETATM   11  C12 UNL     1      56.145 -14.350 -31.045  1.00  0.00     0.205 C 
HETATM   12  F1  UNL     1      55.344 -13.443 -31.706  1.00  0.00    -0.247 F 
ENDROOT
BRANCH   1  13
HETATM   13  O3  UNL     1      58.350 -13.093 -27.999  1.00  0.00    -0.316 OA
BRANCH  13  14
HETATM   14  C5  UNL     1      58.792 -12.905 -26.772  1.00  0.00     0.220 C 
BRANCH  14  15
HETATM   15  C4  UNL     1      58.588 -13.889 -25.703  1.00  0.00     0.305 C 
HETATM   16  O2  UNL     1      58.817 -15.088 -25.807  1.00  0.00    -0.258 OA
BRANCH  15  17
HETATM   17  O1  UNL     1      58.095 -13.413 -24.472  1.00  0.00    -0.312 OA
BRANCH  17  18
HETATM   18  C2  UNL     1      57.089 -12.446 -24.427  1.00  0.00     0.124 C 
HETATM   19  C1  UNL     1      55.730 -13.036 -24.088  1.00  0.00     0.040 C 
HETATM   20  C3  UNL     1      57.383 -11.351 -23.418  1.00  0.00     0.040 C 
ENDBRANCH  17  18
ENDBRANCH  15  17
ENDBRANCH  14  15
ENDBRANCH  13  14
ENDBRANCH   1  13
TORSDOF 5
ENDMDL
MODEL 3
REMARK VINA RESULT: -6.239429189      1.476      1.903
REMARK  5 active torsions:
REMARK  status: ('A' for Active; 'I' for Inactive)
REMARK    1  A    between atoms: C2_2  and  O1_4 
REMARK    2  A    between atoms: O1_4  and  C4_5 
REMARK    3  A    between atoms: C4_5  and  C5_7 
REMARK    4  A    between atoms: C5_7  and  O3_8 
REMARK    5  A    between atoms: O3_8  and  C6_9 
ROOT
HETATM    1  C6  UNL     1      55.929 -13.311 -28.628  1.00  0.00     0.253 C 
HETATM    2  C7  UNL     1      54.582 -12.926 -29.114  1.00  0.00     0.082 C 
HETATM    3  N1  UNL     1      56.875 -12.383 -29.317  1.00  0.00    -0.031 N 
ATOM      4  H11 UNL     1      57.053 -11.530 -28.787  1.00  0.00     0.281 HD
ATOM      5  H12 UNL     1      56.470 -11.942 -30.143  1.00  0.00     0.281 HD
HETATM    6  C8  UNL     1      58.069 -13.126 -29.605  1.00  0.00     0.246 C 
HETATM    7  C9  UNL     1      58.338 -14.244 -28.611  1.00  0.00     0.204 C 
HETATM    8  O4  UNL     1      57.326 -15.177 -28.589  1.00  0.00    -0.379 OA
HETATM    9  C10 UNL     1      56.220 -14.692 -29.254  1.00  0.00     0.187 C 
HETATM   10  C11 UNL     1      56.511 -14.597 -30.715  1.00  0.00     0.076 C 
HETATM   11  C12 UNL     1      57.815 -13.835 -30.945  1.00  0.00     0.205 C 
HETATM   12  F1  UNL     1      57.668 -12.849 -31.896  1.00  0.00    -0.247 F 
ENDROOT
BRANCH   1  13
HETATM   13  O3  UNL     1      56.257 -13.270 -27.344  1.00  0.00    -0.316 OA
BRANCH  13  14
HETATM   14  C5  UNL     1      56.197 -12.249 -26.513  1.00  0.00     0.220 C 
BRANCH  14  15
HETATM   15  C4  UNL     1      56.993 -12.189 -25.281  1.00  0.00     0.305 C 
HETATM   16  O2  UNL     1      57.690 -11.239 -24.947  1.00  0.00    -0.258 OA
BRANCH  15  17
HETATM   17  O1  UNL     1      56.946 -13.309 -24.426  1.00  0.00    -0.312 OA
BRANCH  17  18
HETATM   18  C2  UNL     1      58.082 -14.084 -24.195  1.00  0.00     0.124 C 
HETATM   19  C1  UNL     1      57.819 -15.229 -23.231  1.00  0.00     0.040 C 
HETATM   20  C3  UNL     1      58.649 -14.677 -25.473  1.00  0.00     0.040 C 
ENDBRANCH  17  18
ENDBRANCH  15  17
ENDBRANCH  14  15
ENDBRANCH  13  14
ENDBRANCH   1  13
TORSDOF 5
ENDMDL
MODEL 4
REMARK VINA RESULT: -6.051615882      2.488      5.371
REMARK  5 active torsions:
REMARK  status: ('A' for Active; 'I' for Inactive)
REMARK    1  A    between atoms: C2_2  and  O1_4 
REMARK    2  A    between atoms: O1_4  and  C4_5 
REMARK    3  A    between atoms: C4_5  and  C5_7 
REMARK    4  A    between atoms: C5_7  and  O3_8 
REMARK    5  A    between atoms: O3_8  and  C6_9 
ROOT
HETATM    1  C6  UNL     1      57.188 -12.842 -27.226  1.00  0.00     0.253 C 
HETATM    2  C7  UNL     1      55.743 -12.544 -27.379  1.00  0.00     0.082 C 
HETATM    3  N1  UNL     1      57.248 -14.072 -26.382  1.00  0.00    -0.031 N 
ATOM      4  H11 UNL     1      57.246 -14.932 -26.930  1.00  0.00     0.281 HD
ATOM      5  H12 UNL     1      56.386 -14.244 -25.865  1.00  0.00     0.281 HD
HETATM    6  C8  UNL     1      58.398 -13.951 -25.531  1.00  0.00     0.246 C 
HETATM    7  C9  UNL     1      59.516 -13.123 -26.143  1.00  0.00     0.204 C 
HETATM    8  O4  UNL     1      59.123 -11.830 -26.409  1.00  0.00    -0.379 OA
HETATM    9  C10 UNL     1      57.751 -11.725 -26.320  1.00  0.00     0.187 C 
HETATM   10  C11 UNL     1      57.323 -11.884 -24.900  1.00  0.00     0.076 C 
HETATM   11  C12 UNL     1      57.935 -13.151 -24.303  1.00  0.00     0.205 C 
HETATM   12  F1  UNL     1      56.988 -13.919 -23.661  1.00  0.00    -0.247 F 
ENDROOT
BRANCH   1  13
HETATM   13  O3  UNL     1      57.975 -13.081 -28.266  1.00  0.00    -0.316 OA
BRANCH  13  14
HETATM   14  C5  UNL     1      57.873 -12.619 -29.496  1.00  0.00     0.220 C 
BRANCH  14  15
HETATM   15  C4  UNL     1      58.027 -13.480 -30.675  1.00  0.00     0.305 C 
HETATM   16  O2  UNL     1      59.036 -13.540 -31.367  1.00  0.00    -0.258 OA
BRANCH  15  17
HETATM   17  O1  UNL     1      56.932 -14.293 -31.029  1.00  0.00    -0.312 OA
BRANCH  17  18
HETATM   18  C2  UNL     1      55.655 -14.035 -30.529  1.00  0.00     0.124 C 
HETATM   19  C1  UNL     1      54.629 -13.832 -31.632  1.00  0.00     0.040 C 
HETATM   20  C3  UNL     1      55.151 -15.145 -29.626  1.00  0.00     0.040 C 
ENDBRANCH  17  18
ENDBRANCH  15  17
ENDBRANCH  14  15
ENDBRANCH  13  14
ENDBRANCH   1  13
TORSDOF 5
ENDMDL
MODEL 5
REMARK VINA RESULT: -6.007012790      2.730      5.389
REMARK  5 active torsions:
REMARK  status: ('A' for Active; 'I' for Inactive)
REMARK    1  A    between atoms: C2_2  and  O1_4 
REMARK    2  A    between atoms: O1_4  and  C4_5 
REMARK    3  A    between atoms: C4_5  and  C5_7 
REMARK    4  A    between atoms: C5_7  and  O3_8 
REMARK    5  A    between atoms: O3_8  and  C6_9 
ROOT
HETATM    1  C6  UNL     1      58.583 -13.083 -26.818  1.00  0.00     0.253 C 
HETATM    2  C7  UNL     1      59.866 -13.700 -26.402  1.00  0.00     0.082 C 
HETATM    3  N1  UNL     1      58.629 -11.688 -26.288  1.00  0.00    -0.031 N 
ATOM      4  H11 UNL     1      59.032 -11.023 -26.948  1.00  0.00     0.281 HD
ATOM      5  H12 UNL     1      59.316 -11.567 -25.543  1.00  0.00     0.281 HD
HETATM    6  C8  UNL     1      57.296 -11.341 -25.883  1.00  0.00     0.246 C 
HETATM    7  C9  UNL     1      56.218 -12.053 -26.683  1.00  0.00     0.204 C 
HETATM    8  O4  UNL     1      56.292 -13.422 -26.555  1.00  0.00    -0.379 OA
HETATM    9  C10 UNL     1      57.491 -13.779 -25.978  1.00  0.00     0.187 C 
HETATM   10  C11 UNL     1      57.515 -13.342 -24.552  1.00  0.00     0.076 C 
HETATM   11  C12 UNL     1      57.138 -11.865 -24.446  1.00  0.00     0.205 C 
HETATM   12  F1  UNL     1      58.033 -11.166 -23.666  1.00  0.00    -0.247 F 
ENDROOT
BRANCH   1  13
HETATM   13  O3  UNL     1      58.232 -12.971 -28.093  1.00  0.00    -0.316 OA
BRANCH  13  14
HETATM   14  C5  UNL     1      58.427 -13.827 -29.076  1.00  0.00     0.220 C 
BRANCH  14  15
HETATM   15  C4  UNL     1      58.059 -13.526 -30.465  1.00  0.00     0.305 C 
HETATM   16  O2  UNL     1      58.847 -13.488 -31.401  1.00  0.00    -0.258 OA
BRANCH  15  17
HETATM   17  O1  UNL     1      56.700 -13.263 -30.731  1.00  0.00    -0.312 OA
BRANCH  17  18
HETATM   18  C2  UNL     1      55.771 -14.301 -30.809  1.00  0.00     0.124 C 
HETATM   19  C1  UNL     1      55.368 -14.825 -29.441  1.00  0.00     0.040 C 
HETATM   20  C3  UNL     1      54.504 -13.890 -31.539  1.00  0.00     0.040 C 
ENDBRANCH  17  18
ENDBRANCH  15  17
ENDBRANCH  14  15
ENDBRANCH  13  14
ENDBRANCH   1  13
TORSDOF 5
ENDMDL
