MODEL 1
REMARK VINA RESULT: -6.114006706      0.000      0.000
REMARK  2 active torsions:
REMARK  status: ('A' for Active; 'I' for Inactive)
REMARK    1  A    between atoms: O1_2  and  C2_3 
REMARK    2  A    between atoms: C5_7  and  C6_8 
ROOT
HETATM    1  C2  UNL     1       2.928  19.047  14.240  1.00  0.00     0.139 A 
HETATM    2  C3  UNL     1       4.238  19.040  14.669  1.00  0.00     0.086 A 
HETATM    3  C4  UNL     1       4.982  17.825  15.115  1.00  0.00     0.079 C 
HETATM    4  O2  UNL     1       4.707  20.249  14.620  1.00  0.00    -0.309 OA
HETATM    5  C5  UNL     1       3.841  21.107  14.194  1.00  0.00     0.119 A 
HETATM    6  C9  UNL     1       2.684  20.376  13.939  1.00  0.00     0.185 A 
HETATM    7  F1  UNL     1       1.513  20.865  13.473  1.00  0.00    -0.200 F 
ENDROOT
BRANCH   5   8
HETATM    8  C6  UNL     1       3.988  22.543  14.004  1.00  0.00     0.077 C 
HETATM    9  C7  UNL     1       3.207  23.369  14.639  1.00  0.00     0.120 A 
HETATM   10  N1  UNL     1       2.995  24.772  14.757  1.00  0.00    -0.293 N 
HETATM   11  C8  UNL     1       2.092  23.216  15.591  1.00  0.00     0.288 A 
HETATM   12  N2  UNL     1       1.948  24.636  15.652  1.00  0.00    -0.264 N 
ATOM     13  H1  UNL     1       3.450  25.581  14.335  1.00  0.00     0.187 HD
ATOM     14  H2  UNL     1       1.331  25.280  16.148  1.00  0.00     0.190 HD
HETATM   15  O3  UNL     1       1.520  22.234  16.117  1.00  0.00    -0.264 OA
ENDBRANCH   5   8
BRANCH   1  16
HETATM   16  O1  UNL     1       2.066  17.959  14.140  1.00  0.00    -0.351 OA
HETATM   17  C1  UNL     1       2.163  17.187  12.928  1.00  0.00     0.210 C 
ENDBRANCH   1  16
TORSDOF 2
ENDMDL
MODEL 2
REMARK VINA RESULT: -5.914147645      1.775      2.321
REMARK  2 active torsions:
REMARK  status: ('A' for Active; 'I' for Inactive)
REMARK    1  A    between atoms: O1_2  and  C2_3 
REMARK    2  A    between atoms: C5_7  and  C6_8 
ROOT
HETATM    1  C2  UNL     1       4.224  18.274  14.394  1.00  0.00     0.139 A 
HETATM    2  C3  UNL     1       2.959  18.658  14.004  1.00  0.00     0.086 A 
HETATM    3  C4  UNL     1       1.842  17.718  13.693  1.00  0.00     0.079 C 
HETATM    4  O2  UNL     1       2.906  19.954  13.954  1.00  0.00    -0.309 OA
HETATM    5  C5  UNL     1       4.023  20.516  14.275  1.00  0.00     0.119 A 
HETATM    6  C9  UNL     1       4.897  19.472  14.565  1.00  0.00     0.185 A 
HETATM    7  F1  UNL     1       6.187  19.590  14.951  1.00  0.00    -0.200 F 
ENDROOT
BRANCH   5   8
HETATM    8  C6  UNL     1       4.355  21.932  14.336  1.00  0.00     0.077 C 
HETATM    9  C7  UNL     1       3.449  22.801  14.680  1.00  0.00     0.120 A 
HETATM   10  N1  UNL     1       3.324  24.207  14.864  1.00  0.00    -0.293 N 
HETATM   11  C8  UNL     1       2.026  22.720  15.053  1.00  0.00     0.288 A 
HETATM   12  N2  UNL     1       1.986  24.139  15.217  1.00  0.00    -0.264 N 
ATOM     13  H1  UNL     1       3.980  24.982  14.771  1.00  0.00     0.187 HD
ATOM     14  H2  UNL     1       1.272  24.818  15.482  1.00  0.00     0.190 HD
HETATM   15  O3  UNL     1       1.204  21.782  15.171  1.00  0.00    -0.264 OA
ENDBRANCH   5   8
BRANCH   1  16
HETATM   16  O1  UNL     1       4.696  16.977  14.571  1.00  0.00    -0.351 OA
HETATM   17  C1  UNL     1       6.050  16.734  14.141  1.00  0.00     0.210 C 
ENDBRANCH   1  16
TORSDOF 2
ENDMDL
MODEL 3
REMARK VINA RESULT: -5.801505896      4.198      5.949
REMARK  2 active torsions:
REMARK  status: ('A' for Active; 'I' for Inactive)
REMARK    1  A    between atoms: O1_2  and  C2_3 
REMARK    2  A    between atoms: C5_7  and  C6_8 
ROOT
HETATM    1  C2  UNL     1       4.101  18.512  14.132  1.00  0.00     0.139 A 
HETATM    2  C3  UNL     1       4.557  17.221  14.298  1.00  0.00     0.086 A 
HETATM    3  C4  UNL     1       5.994  16.833  14.405  1.00  0.00     0.079 C 
HETATM    4  O2  UNL     1       3.541  16.415  14.344  1.00  0.00    -0.309 OA
HETATM    5  C5  UNL     1       2.409  17.026  14.225  1.00  0.00     0.119 A 
HETATM    6  C9  UNL     1       2.724  18.374  14.086  1.00  0.00     0.185 A 
HETATM    7  F1  UNL     1       1.847  19.392  13.934  1.00  0.00    -0.200 F 
ENDROOT
BRANCH   5   8
HETATM    8  C6  UNL     1       1.062  16.472  14.227  1.00  0.00     0.077 C 
HETATM    9  C7  UNL     1       0.526  16.056  13.116  1.00  0.00     0.120 A 
HETATM   10  N1  UNL     1      -0.692  15.476  12.662  1.00  0.00    -0.293 N 
HETATM   11  C8  UNL     1       0.967  15.999  11.711  1.00  0.00     0.288 A 
HETATM   12  N2  UNL     1      -0.285  15.418  11.340  1.00  0.00    -0.264 N 
ATOM     13  H1  UNL     1      -1.551  15.202  13.138  1.00  0.00     0.187 HD
ATOM     14  H2  UNL     1      -0.703  15.097  10.467  1.00  0.00     0.190 HD
HETATM   15  O3  UNL     1       2.014  16.331  11.108  1.00  0.00    -0.264 OA
ENDBRANCH   5   8
BRANCH   1  16
HETATM   16  O1  UNL     1       4.864  19.671  14.035  1.00  0.00    -0.351 OA
HETATM   17  C1  UNL     1       4.302  20.850  14.643  1.00  0.00     0.210 C 
ENDBRANCH   1  16
TORSDOF 2
ENDMDL
MODEL 4
REMARK VINA RESULT: -5.410931182      1.528      2.148
REMARK  2 active torsions:
REMARK  status: ('A' for Active; 'I' for Inactive)
REMARK    1  A    between atoms: O1_2  and  C2_3 
REMARK    2  A    between atoms: C5_7  and  C6_8 
ROOT
HETATM    1  C2  UNL     1       4.061  19.158  14.616  1.00  0.00     0.139 A 
HETATM    2  C3  UNL     1       2.749  18.921  14.264  1.00  0.00     0.086 A 
HETATM    3  C4  UNL     1       2.050  17.611  14.419  1.00  0.00     0.079 C 
HETATM    4  O2  UNL     1       2.235  20.011  13.783  1.00  0.00    -0.309 OA
HETATM    5  C5  UNL     1       3.071  20.996  13.766  1.00  0.00     0.119 A 
HETATM    6  C9  UNL     1       4.256  20.490  14.292  1.00  0.00     0.185 A 
HETATM    7  F1  UNL     1       5.411  21.171  14.467  1.00  0.00    -0.200 F 
ENDROOT
BRANCH   5   8
HETATM    8  C6  UNL     1       2.871  22.362  13.304  1.00  0.00     0.077 C 
HETATM    9  C7  UNL     1       2.653  23.316  14.162  1.00  0.00     0.120 A 
HETATM   10  N1  UNL     1       2.414  24.719  14.171  1.00  0.00    -0.293 N 
HETATM   11  C8  UNL     1       2.534  23.382  15.629  1.00  0.00     0.288 A 
HETATM   12  N2  UNL     1       2.302  24.790  15.549  1.00  0.00    -0.264 N 
ATOM     13  H1  UNL     1       2.350  25.418  13.431  1.00  0.00     0.187 HD
ATOM     14  H2  UNL     1       2.127  25.534  16.224  1.00  0.00     0.190 HD
HETATM   15  O3  UNL     1       2.607  22.538  16.552  1.00  0.00    -0.264 OA
ENDBRANCH   5   8
BRANCH   1  16
HETATM   16  O1  UNL     1       4.964  18.255  15.168  1.00  0.00    -0.351 OA
HETATM   17  C1  UNL     1       5.835  17.584  14.238  1.00  0.00     0.210 C 
ENDBRANCH   1  16
TORSDOF 2
ENDMDL
MODEL 5
REMARK VINA RESULT: -5.352612760      4.287      5.863
REMARK  2 active torsions:
REMARK  status: ('A' for Active; 'I' for Inactive)
REMARK    1  A    between atoms: O1_2  and  C2_3 
REMARK    2  A    between atoms: C5_7  and  C6_8 
ROOT
HETATM    1  C2  UNL     1       3.629  18.240  14.273  1.00  0.00     0.139 A 
HETATM    2  C3  UNL     1       4.200  17.006  14.043  1.00  0.00     0.086 A 
HETATM    3  C4  UNL     1       5.420  16.492  14.731  1.00  0.00     0.079 C 
HETATM    4  O2  UNL     1       3.508  16.380  13.142  1.00  0.00    -0.309 OA
HETATM    5  C5  UNL     1       2.499  17.065  12.716  1.00  0.00     0.119 A 
HETATM    6  C9  UNL     1       2.541  18.267  13.417  1.00  0.00     0.185 A 
HETATM    7  F1  UNL     1       1.672  19.296  13.298  1.00  0.00    -0.200 F 
ENDROOT
BRANCH   5   8
HETATM    8  C6  UNL     1       1.501  16.708  11.718  1.00  0.00     0.077 C 
HETATM    9  C7  UNL     1       0.372  16.174  12.085  1.00  0.00     0.120 A 
HETATM   10  N1  UNL     1      -0.829  15.690  11.495  1.00  0.00    -0.293 N 
HETATM   11  C8  UNL     1      -0.218  15.788  13.378  1.00  0.00     0.288 A 
HETATM   12  N2  UNL     1      -1.392  15.325  12.706  1.00  0.00    -0.264 N 
ATOM     13  H1  UNL     1      -1.156  15.632  10.531  1.00  0.00     0.187 HD
ATOM     14  H2  UNL     1      -2.274  14.903  12.997  1.00  0.00     0.190 HD
HETATM   15  O3  UNL     1       0.166  15.848  14.569  1.00  0.00    -0.264 OA
ENDBRANCH   5   8
BRANCH   1  16
HETATM   16  O1  UNL     1       4.061  19.218  15.163  1.00  0.00    -0.351 OA
HETATM   17  C1  UNL     1       4.378  20.500  14.588  1.00  0.00     0.210 C 
ENDBRANCH   1  16
TORSDOF 2
ENDMDL
