MODEL 1
REMARK VINA RESULT: -5.575054515      0.000      0.000
REMARK  3 active torsions:
REMARK  status: ('A' for Active; 'I' for Inactive)
REMARK    1  A    between atoms: N1_2  and  C2_4 
REMARK    2  A    between atoms: C4_7  and  C5_8 
REMARK    3  A    between atoms: C6_9  and  C7_10 
ROOT
HETATM    1  C2  UNL     1       2.379  22.417  14.134  1.00  0.00     0.187 A 
HETATM    2  O1  UNL     1       1.639  21.419  13.811  1.00  0.00    -0.299 OA
HETATM    3  C3  UNL     1       2.060  20.234  13.855  1.00  0.00     0.163 A 
HETATM    4  C4  UNL     1       3.360  20.034  14.267  1.00  0.00     0.031 A 
HETATM    5  S1  UNL     1       3.849  21.646  14.556  1.00  0.00    -0.045 SA
ENDROOT
BRANCH   4   6
HETATM    6  C5  UNL     1       4.090  18.769  14.407  1.00  0.00     0.028 C 
HETATM    7  C6  UNL     1       5.393  18.741  14.503  1.00  0.00     0.086 C 
BRANCH   7   8
HETATM    8  C7  UNL     1       6.137  17.495  14.643  1.00  0.00     0.198 C 
HETATM    9  O2  UNL     1       7.374  17.557  14.885  1.00  0.00    -0.645 OA
HETATM   10  O3  UNL     1       5.549  16.256  14.522  1.00  0.00    -0.645 OA
ENDBRANCH   7   8
ENDBRANCH   4   6
BRANCH   1  11
HETATM   11  N1  UNL     1       2.049  23.669  14.125  1.00  0.00    -0.369 N 
HETATM   12  C1  UNL     1       2.766  24.560  15.003  1.00  0.00     0.148 C 
ATOM     13  H1  UNL     1       1.307  24.013  13.516  1.00  0.00     0.161 HD
ENDBRANCH   1  11
TORSDOF 3
ENDMDL
MODEL 2
REMARK VINA RESULT: -5.340837239      3.003      5.840
REMARK  3 active torsions:
REMARK  status: ('A' for Active; 'I' for Inactive)
REMARK    1  A    between atoms: N1_2  and  C2_4 
REMARK    2  A    between atoms: C4_7  and  C5_8 
REMARK    3  A    between atoms: C6_9  and  C7_10 
ROOT
HETATM    1  C2  UNL     1       4.392  17.747  13.920  1.00  0.00     0.187 A 
HETATM    2  O1  UNL     1       3.173  17.720  13.520  1.00  0.00    -0.299 OA
HETATM    3  C3  UNL     1       2.430  18.734  13.574  1.00  0.00     0.163 A 
HETATM    4  C4  UNL     1       2.971  19.895  14.084  1.00  0.00     0.031 A 
HETATM    5  S1  UNL     1       4.557  19.369  14.443  1.00  0.00    -0.045 SA
ENDROOT
BRANCH   4   6
HETATM    6  C5  UNL     1       2.330  21.204  14.256  1.00  0.00     0.028 C 
HETATM    7  C6  UNL     1       2.977  22.218  14.767  1.00  0.00     0.086 C 
BRANCH   7   8
HETATM    8  C7  UNL     1       2.359  23.525  14.947  1.00  0.00     0.198 C 
HETATM    9  O2  UNL     1       1.441  23.644  15.805  1.00  0.00    -0.645 OA
HETATM   10  O3  UNL     1       2.734  24.635  14.222  1.00  0.00    -0.645 OA
ENDBRANCH   7   8
ENDBRANCH   4   6
BRANCH   1  11
HETATM   11  N1  UNL     1       5.239  16.768  13.910  1.00  0.00    -0.369 N 
HETATM   12  C1  UNL     1       6.477  16.942  14.628  1.00  0.00     0.148 C 
ATOM     13  H1  UNL     1       5.036  15.903  13.411  1.00  0.00     0.161 HD
ENDBRANCH   1  11
TORSDOF 3
ENDMDL
MODEL 3
REMARK VINA RESULT: -5.134571899      3.064      5.804
REMARK  3 active torsions:
REMARK  status: ('A' for Active; 'I' for Inactive)
REMARK    1  A    between atoms: N1_2  and  C2_4 
REMARK    2  A    between atoms: C4_7  and  C5_8 
REMARK    3  A    between atoms: C6_9  and  C7_10 
ROOT
HETATM    1  C2  UNL     1       3.111  17.846  14.011  1.00  0.00     0.187 A 
HETATM    2  O1  UNL     1       4.263  18.117  14.508  1.00  0.00    -0.299 OA
HETATM    3  C3  UNL     1       4.624  19.298  14.751  1.00  0.00     0.163 A 
HETATM    4  C4  UNL     1       3.733  20.309  14.464  1.00  0.00     0.031 A 
HETATM    5  S1  UNL     1       2.420  19.405  13.850  1.00  0.00    -0.045 SA
ENDROOT
BRANCH   4   6
HETATM    6  C5  UNL     1       3.900  21.756  14.649  1.00  0.00     0.028 C 
HETATM    7  C6  UNL     1       2.887  22.576  14.557  1.00  0.00     0.086 C 
BRANCH   7   8
HETATM    8  C7  UNL     1       3.032  24.015  14.736  1.00  0.00     0.198 C 
HETATM    9  O2  UNL     1       4.043  24.585  14.239  1.00  0.00    -0.645 OA
HETATM   10  O3  UNL     1       2.115  24.779  15.423  1.00  0.00    -0.645 OA
ENDBRANCH   7   8
ENDBRANCH   4   6
BRANCH   1  11
HETATM   11  N1  UNL     1       2.642  16.675  13.724  1.00  0.00    -0.369 N 
HETATM   12  C1  UNL     1       1.733  16.570  12.609  1.00  0.00     0.148 C 
ATOM     13  H1  UNL     1       2.905  15.854  14.268  1.00  0.00     0.161 HD
ENDBRANCH   1  11
TORSDOF 3
ENDMDL
MODEL 4
REMARK VINA RESULT: -5.114675094      2.612      3.204
REMARK  3 active torsions:
REMARK  status: ('A' for Active; 'I' for Inactive)
REMARK    1  A    between atoms: N1_2  and  C2_4 
REMARK    2  A    between atoms: C4_7  and  C5_8 
REMARK    3  A    between atoms: C6_9  and  C7_10 
ROOT
HETATM    1  C2  UNL     1       3.633  22.591  14.380  1.00  0.00     0.187 A 
HETATM    2  O1  UNL     1       4.544  21.714  14.602  1.00  0.00    -0.299 OA
HETATM    3  C3  UNL     1       4.303  20.480  14.570  1.00  0.00     0.163 A 
HETATM    4  C4  UNL     1       3.013  20.088  14.286  1.00  0.00     0.031 A 
HETATM    5  S1  UNL     1       2.260  21.610  14.088  1.00  0.00    -0.045 SA
ENDROOT
BRANCH   4   6
HETATM    6  C5  UNL     1       2.470  18.728  14.188  1.00  0.00     0.028 C 
HETATM    7  C6  UNL     1       2.260  18.159  13.030  1.00  0.00     0.086 C 
BRANCH   7   8
HETATM    8  C7  UNL     1       1.722  16.810  12.911  1.00  0.00     0.198 C 
HETATM    9  O2  UNL     1       1.181  16.287  13.925  1.00  0.00    -0.645 OA
HETATM   10  O3  UNL     1       1.777  16.084  11.743  1.00  0.00    -0.645 OA
ENDBRANCH   7   8
ENDBRANCH   4   6
BRANCH   1  11
HETATM   11  N1  UNL     1       3.770  23.878  14.388  1.00  0.00    -0.369 N 
HETATM   12  C1  UNL     1       2.700  24.665  14.948  1.00  0.00     0.148 C 
ATOM     13  H1  UNL     1       4.608  24.320  14.010  1.00  0.00     0.161 HD
ENDBRANCH   1  11
TORSDOF 3
ENDMDL
MODEL 5
REMARK VINA RESULT: -5.111913422      4.549      5.481
REMARK  3 active torsions:
REMARK  status: ('A' for Active; 'I' for Inactive)
REMARK    1  A    between atoms: N1_2  and  C2_4 
REMARK    2  A    between atoms: C4_7  and  C5_8 
REMARK    3  A    between atoms: C6_9  and  C7_10 
ROOT
HETATM    1  C2  UNL     1       0.230  15.818  12.399  1.00  0.00     0.187 A 
HETATM    2  O1  UNL     1       0.285  15.892  13.680  1.00  0.00    -0.299 OA
HETATM    3  C3  UNL     1       1.232  16.469  14.275  1.00  0.00     0.163 A 
HETATM    4  C4  UNL     1       2.226  17.027  13.501  1.00  0.00     0.031 A 
HETATM    5  S1  UNL     1       1.658  16.642  11.936  1.00  0.00    -0.045 SA
ENDROOT
BRANCH   4   6
HETATM    6  C5  UNL     1       3.428  17.748  13.936  1.00  0.00     0.028 C 
HETATM    7  C6  UNL     1       4.604  17.179  13.930  1.00  0.00     0.086 C 
BRANCH   7   8
HETATM    8  C7  UNL     1       5.810  17.877  14.358  1.00  0.00     0.198 C 
HETATM    9  O2  UNL     1       6.892  17.231  14.415  1.00  0.00    -0.645 OA
HETATM   10  O3  UNL     1       5.818  19.211  14.703  1.00  0.00    -0.645 OA
ENDBRANCH   7   8
ENDBRANCH   4   6
BRANCH   1  11
HETATM   11  N1  UNL     1      -0.692  15.253  11.689  1.00  0.00    -0.369 N 
HETATM   12  C1  UNL     1      -0.763  15.586  10.289  1.00  0.00     0.148 C 
ATOM     13  H1  UNL     1      -1.348  14.593  12.108  1.00  0.00     0.161 HD
ENDBRANCH   1  11
TORSDOF 3
ENDMDL
