MODEL 1
REMARK VINA RESULT: -9.251547203      0.000      0.000
REMARK  10 active torsions:
REMARK  status: ('A' for Active; 'I' for Inactive)
REMARK    1  A    between atoms: C18_18  and  C19_19 
REMARK    2  A    between atoms: C19_19  and  C20_20 
REMARK    3  A    between atoms: C20_20  and  C21_21 
REMARK    4  A    between atoms: C22_25  and  C23_26 
REMARK    5  A    between atoms: C23_26  and  C24_27 
REMARK    6  A    between atoms: C24_27  and  C25_28 
REMARK    7  A    between atoms: C25_28  and  N2_29 
REMARK    8  A    between atoms: C28_36  and  C29_37 
REMARK    9  A    between atoms: C29_37  and  C30_38 
REMARK   10  A    between atoms: C30_38  and  O2_39 
ROOT
HETATM    1  C21 UNL     1      42.728   7.507   8.359  1.00  0.00     0.198 C 
HETATM    2  N1  UNL     1      43.048   6.570   9.468  1.00  0.00    -0.059 N 
ATOM      3  H11 UNL     1      42.718   6.890  10.378  1.00  0.00     0.278 HD
ATOM      4  H12 UNL     1      44.042   6.539   9.699  1.00  0.00     0.278 HD
HETATM    5  C22 UNL     1      42.503   5.274   9.075  1.00  0.00     0.255 C 
HETATM    6  C27 UNL     1      42.585   5.326   7.598  1.00  0.00     0.163 C 
HETATM    7  O1  UNL     1      42.970   4.513   6.845  1.00  0.00    -0.295 OA
HETATM    8  C28 UNL     1      42.047   6.707   7.326  1.00  0.00     0.090 C 
ENDROOT
BRANCH   1   9
HETATM    9  C20 UNL     1      43.980   8.214   8.069  1.00  0.00     0.034 C 
BRANCH   9  10
HETATM   10  C19 UNL     1      45.278   7.674   8.519  1.00  0.00     0.007 C 
BRANCH  10  11
HETATM   11  C18 UNL     1      46.222   8.774   9.019  1.00  0.00    -0.006 C 
HETATM   12  C2  UNL     1      47.144   8.290  10.115  1.00  0.00    -0.036 C 
HETATM   13  C1  UNL     1      48.492   7.915   9.502  1.00  0.00     0.016 C 
HETATM   14  C3  UNL     1      46.586   7.184  10.948  1.00  0.00     0.010 C 
HETATM   15  C15 UNL     1      47.370   9.563  10.896  1.00  0.00    -0.001 C 
HETATM   16  C4  UNL     1      47.253   6.959  12.253  1.00  0.00     0.010 C 
HETATM   17  C5  UNL     1      48.334   7.931  12.567  1.00  0.00     0.023 C 
HETATM   18  C6  UNL     1      48.693   7.761  13.992  1.00  0.00    -0.047 A 
HETATM   19  C14 UNL     1      48.038   9.365  12.216  1.00  0.00    -0.001 C 
HETATM   20  C7  UNL     1      49.693   6.899  14.375  1.00  0.00     0.008 A 
HETATM   21  C11 UNL     1      48.041   8.449  14.977  1.00  0.00    -0.051 A 
HETATM   22  C8  UNL     1      50.023   6.740  15.730  1.00  0.00     0.001 A 
HETATM   23  C9  UNL     1      49.344   7.451  16.696  1.00  0.00     0.001 A 
HETATM   24  C10 UNL     1      48.342   8.315  16.309  1.00  0.00     0.007 A 
HETATM   25  C12 UNL     1      46.967   9.372  14.517  1.00  0.00     0.039 C 
HETATM   26  C13 UNL     1      47.427  10.169  13.324  1.00  0.00     0.010 C 
HETATM   27  C16 UNL     1      46.000  10.175  10.985  1.00  0.00     0.006 C 
HETATM   28  C17 UNL     1      45.422   9.902   9.614  1.00  0.00     0.006 C 
ENDBRANCH  10  11
ENDBRANCH   9  10
ENDBRANCH   1   9
BRANCH   8  29
HETATM   29  C29 UNL     1      42.164   7.082   5.908  1.00  0.00     0.040 C 
BRANCH  29  30
HETATM   30  C30 UNL     1      41.101   8.138   5.572  1.00  0.00     0.165 C 
BRANCH  30  31
HETATM   31  O2  UNL     1      39.939   7.468   5.196  1.00  0.00    -0.401 OA
ATOM     32  H2  UNL     1      39.244   7.740   5.784  1.00  0.00     0.209 HD
ENDBRANCH  30  31
ENDBRANCH  29  30
ENDBRANCH   8  29
BRANCH   5  33
HETATM   33  C23 UNL     1      43.194   4.142   9.731  1.00  0.00     0.042 C 
BRANCH  33  34
HETATM   34  C24 UNL     1      42.217   3.208  10.379  1.00  0.00     0.022 C 
BRANCH  34  35
HETATM   35  C25 UNL     1      42.296   1.810   9.782  1.00  0.00     0.122 C 
BRANCH  35  36
HETATM   36  N2  UNL     1      42.497   1.858   8.353  1.00  0.00    -0.367 N 
HETATM   37  C26 UNL     1      41.749   1.246   7.509  1.00  0.00     0.196 C 
HETATM   38  N3  UNL     1      41.955   1.301   6.117  1.00  0.00    -0.067 NA
HETATM   39  N4  UNL     1      40.661   0.474   7.999  1.00  0.00    -0.067 NA
ATOM     40  H2  UNL     1      43.277   2.409   7.995  1.00  0.00     0.161 HD
ENDBRANCH  35  36
ENDBRANCH  34  35
ENDBRANCH  33  34
ENDBRANCH   5  33
TORSDOF 10
ENDMDL
MODEL 2
REMARK VINA RESULT: -9.126142553      1.297      1.544
REMARK  10 active torsions:
REMARK  status: ('A' for Active; 'I' for Inactive)
REMARK    1  A    between atoms: C18_18  and  C19_19 
REMARK    2  A    between atoms: C19_19  and  C20_20 
REMARK    3  A    between atoms: C20_20  and  C21_21 
REMARK    4  A    between atoms: C22_25  and  C23_26 
REMARK    5  A    between atoms: C23_26  and  C24_27 
REMARK    6  A    between atoms: C24_27  and  C25_28 
REMARK    7  A    between atoms: C25_28  and  N2_29 
REMARK    8  A    between atoms: C28_36  and  C29_37 
REMARK    9  A    between atoms: C29_37  and  C30_38 
REMARK   10  A    between atoms: C30_38  and  O2_39 
ROOT
HETATM    1  C21 UNL     1      42.589   7.509   8.254  1.00  0.00     0.198 C 
HETATM    2  N1  UNL     1      42.838   6.462   9.280  1.00  0.00    -0.059 N 
ATOM      3  H11 UNL     1      42.479   6.705  10.203  1.00  0.00     0.278 HD
ATOM      4  H12 UNL     1      43.820   6.379   9.546  1.00  0.00     0.278 HD
HETATM    5  C22 UNL     1      42.275   5.226   8.745  1.00  0.00     0.255 C 
HETATM    6  C27 UNL     1      42.421   5.414   7.284  1.00  0.00     0.163 C 
HETATM    7  O1  UNL     1      42.815   4.664   6.473  1.00  0.00    -0.295 OA
HETATM    8  C28 UNL     1      41.932   6.830   7.123  1.00  0.00     0.090 C 
ENDROOT
BRANCH   1   9
HETATM    9  C20 UNL     1      43.871   8.200   8.082  1.00  0.00     0.034 C 
BRANCH   9  10
HETATM   10  C19 UNL     1      45.121   7.626   8.615  1.00  0.00     0.007 C 
BRANCH  10  11
HETATM   11  C18 UNL     1      46.108   8.707   9.074  1.00  0.00    -0.006 C 
HETATM   12  C2  UNL     1      47.033   8.218  10.164  1.00  0.00    -0.036 C 
HETATM   13  C1  UNL     1      48.359   7.788   9.538  1.00  0.00     0.016 C 
HETATM   14  C3  UNL     1      46.456   7.148  11.032  1.00  0.00     0.010 C 
HETATM   15  C15 UNL     1      47.312   9.501  10.914  1.00  0.00    -0.001 C 
HETATM   16  C4  UNL     1      47.138   6.931  12.329  1.00  0.00     0.010 C 
HETATM   17  C5  UNL     1      48.254   7.875  12.604  1.00  0.00     0.023 C 
HETATM   18  C6  UNL     1      48.632   7.725  14.026  1.00  0.00    -0.047 A 
HETATM   19  C14 UNL     1      47.996   9.310  12.227  1.00  0.00    -0.001 C 
HETATM   20  C7  UNL     1      49.612   6.841  14.411  1.00  0.00     0.008 A 
HETATM   21  C11 UNL     1      48.019   8.454  15.007  1.00  0.00    -0.051 A 
HETATM   22  C8  UNL     1      49.960   6.702  15.764  1.00  0.00     0.001 A 
HETATM   23  C9  UNL     1      49.321   7.454  16.725  1.00  0.00     0.001 A 
HETATM   24  C10 UNL     1      48.338   8.340  16.336  1.00  0.00     0.007 A 
HETATM   25  C12 UNL     1      46.966   9.400  14.544  1.00  0.00     0.039 C 
HETATM   26  C13 UNL     1      47.430  10.157  13.327  1.00  0.00     0.010 C 
HETATM   27  C16 UNL     1      45.963  10.156  11.012  1.00  0.00     0.006 C 
HETATM   28  C17 UNL     1      45.353   9.871   9.657  1.00  0.00     0.006 C 
ENDBRANCH  10  11
ENDBRANCH   9  10
ENDBRANCH   1   9
BRANCH   8  29
HETATM   29  C29 UNL     1      42.118   7.332   5.753  1.00  0.00     0.040 C 
BRANCH  29  30
HETATM   30  C30 UNL     1      41.086   8.435   5.471  1.00  0.00     0.165 C 
BRANCH  30  31
HETATM   31  O2  UNL     1      39.836   7.829   5.363  1.00  0.00    -0.401 OA
ATOM     32  H2  UNL     1      39.589   7.835   4.446  1.00  0.00     0.209 HD
ENDBRANCH  30  31
ENDBRANCH  29  30
ENDBRANCH   8  29
BRANCH   5  33
HETATM   33  C23 UNL     1      42.908   4.017   9.317  1.00  0.00     0.042 C 
BRANCH  33  34
HETATM   34  C24 UNL     1      44.331   4.280   9.709  1.00  0.00     0.022 C 
BRANCH  34  35
HETATM   35  C25 UNL     1      44.927   3.109  10.478  1.00  0.00     0.122 C 
BRANCH  35  36
HETATM   36  N2  UNL     1      44.432   1.847   9.981  1.00  0.00    -0.367 N 
HETATM   37  C26 UNL     1      43.853   0.971  10.719  1.00  0.00     0.196 C 
HETATM   38  N3  UNL     1      43.374  -0.257  10.222  1.00  0.00    -0.067 NA
HETATM   39  N4  UNL     1      43.687   1.249  12.102  1.00  0.00    -0.067 NA
ATOM     40  H2  UNL     1      44.550   1.640   8.989  1.00  0.00     0.161 HD
ENDBRANCH  35  36
ENDBRANCH  34  35
ENDBRANCH  33  34
ENDBRANCH   5  33
TORSDOF 10
ENDMDL
MODEL 3
REMARK VINA RESULT: -8.992194088      4.501      8.981
REMARK  10 active torsions:
REMARK  status: ('A' for Active; 'I' for Inactive)
REMARK    1  A    between atoms: C18_18  and  C19_19 
REMARK    2  A    between atoms: C19_19  and  C20_20 
REMARK    3  A    between atoms: C20_20  and  C21_21 
REMARK    4  A    between atoms: C22_25  and  C23_26 
REMARK    5  A    between atoms: C23_26  and  C24_27 
REMARK    6  A    between atoms: C24_27  and  C25_28 
REMARK    7  A    between atoms: C25_28  and  N2_29 
REMARK    8  A    between atoms: C28_36  and  C29_37 
REMARK    9  A    between atoms: C29_37  and  C30_38 
REMARK   10  A    between atoms: C30_38  and  O2_39 
ROOT
HETATM    1  C21 UNL     1      38.765  -1.310   5.938  1.00  0.00     0.198 C 
HETATM    2  N1  UNL     1      39.260   0.064   5.662  1.00  0.00    -0.059 N 
ATOM      3  H11 UNL     1      40.146   0.082   5.158  1.00  0.00     0.278 HD
ATOM      4  H12 UNL     1      39.582   0.555   6.497  1.00  0.00     0.278 HD
HETATM    5  C22 UNL     1      38.179   0.753   4.963  1.00  0.00     0.255 C 
HETATM    6  C27 UNL     1      36.973   0.090   5.506  1.00  0.00     0.163 C 
HETATM    7  O1  UNL     1      35.972   0.564   5.891  1.00  0.00    -0.295 OA
HETATM    8  C28 UNL     1      37.381  -1.359   5.433  1.00  0.00     0.090 C 
ENDROOT
BRANCH   1   9
HETATM    9  C20 UNL     1      39.066  -1.559   7.352  1.00  0.00     0.034 C 
BRANCH   9  10
HETATM   10  C19 UNL     1      40.453  -1.516   7.852  1.00  0.00     0.007 C 
BRANCH  10  11
HETATM   11  C18 UNL     1      40.543  -0.946   9.272  1.00  0.00    -0.006 C 
HETATM   12  C2  UNL     1      40.858   0.532   9.283  1.00  0.00    -0.036 C 
HETATM   13  C1  UNL     1      39.557   1.318   9.441  1.00  0.00     0.016 C 
HETATM   14  C3  UNL     1      41.653   1.003   8.111  1.00  0.00     0.010 C 
HETATM   15  C15 UNL     1      41.599   0.668  10.594  1.00  0.00    -0.001 C 
HETATM   16  C4  UNL     1      42.324   2.316   8.270  1.00  0.00     0.010 C 
HETATM   17  C5  UNL     1      42.165   2.928   9.616  1.00  0.00     0.023 C 
HETATM   18  C6  UNL     1      43.110   4.061   9.711  1.00  0.00    -0.047 A 
HETATM   19  C14 UNL     1      42.286   1.979  10.779  1.00  0.00    -0.001 C 
HETATM   20  C7  UNL     1      42.732   5.334   9.356  1.00  0.00     0.008 A 
HETATM   21  C11 UNL     1      44.394   3.883  10.148  1.00  0.00    -0.051 A 
HETATM   22  C8  UNL     1      43.639   6.402   9.445  1.00  0.00     0.001 A 
HETATM   23  C9  UNL     1      44.925   6.185   9.890  1.00  0.00     0.001 A 
HETATM   24  C10 UNL     1      45.301   4.907  10.245  1.00  0.00     0.007 A 
HETATM   25  C12 UNL     1      44.759   2.489  10.523  1.00  0.00     0.039 C 
HETATM   26  C13 UNL     1      43.668   1.857  11.348  1.00  0.00     0.010 C 
HETATM   27  C16 UNL     1      42.522  -0.518  10.605  1.00  0.00     0.006 C 
HETATM   28  C17 UNL     1      41.662  -1.618  10.021  1.00  0.00     0.006 C 
ENDBRANCH  10  11
ENDBRANCH   9  10
ENDBRANCH   1   9
BRANCH   8  29
HETATM   29  C29 UNL     1      36.396  -2.249   6.069  1.00  0.00     0.040 C 
BRANCH  29  30
HETATM   30  C30 UNL     1      35.386  -2.723   5.014  1.00  0.00     0.165 C 
BRANCH  30  31
HETATM   31  O2  UNL     1      35.763  -4.001   4.607  1.00  0.00    -0.401 OA
ATOM     32  H2  UNL     1      35.850  -4.539   5.384  1.00  0.00     0.209 HD
ENDBRANCH  30  31
ENDBRANCH  29  30
ENDBRANCH   8  29
BRANCH   5  33
HETATM   33  C23 UNL     1      38.245   2.223   5.120  1.00  0.00     0.042 C 
BRANCH  33  34
HETATM   34  C24 UNL     1      39.507   2.641   5.812  1.00  0.00     0.022 C 
BRANCH  34  35
HETATM   35  C25 UNL     1      39.303   3.905   6.637  1.00  0.00     0.122 C 
BRANCH  35  36
HETATM   36  N2  UNL     1      40.351   4.868   6.393  1.00  0.00    -0.367 N 
HETATM   37  C26 UNL     1      40.216   5.882   5.618  1.00  0.00     0.196 C 
HETATM   38  N3  UNL     1      41.246   6.816   5.389  1.00  0.00    -0.067 NA
HETATM   39  N4  UNL     1      38.972   6.074   4.959  1.00  0.00    -0.067 NA
ATOM     40  H2  UNL     1      41.247   4.735   6.862  1.00  0.00     0.161 HD
ENDBRANCH  35  36
ENDBRANCH  34  35
ENDBRANCH  33  34
ENDBRANCH   5  33
TORSDOF 10
ENDMDL
MODEL 4
REMARK VINA RESULT: -8.784055810      3.463     10.350
REMARK  10 active torsions:
REMARK  status: ('A' for Active; 'I' for Inactive)
REMARK    1  A    between atoms: C18_18  and  C19_19 
REMARK    2  A    between atoms: C19_19  and  C20_20 
REMARK    3  A    between atoms: C20_20  and  C21_21 
REMARK    4  A    between atoms: C22_25  and  C23_26 
REMARK    5  A    between atoms: C23_26  and  C24_27 
REMARK    6  A    between atoms: C24_27  and  C25_28 
REMARK    7  A    between atoms: C25_28  and  N2_29 
REMARK    8  A    between atoms: C28_36  and  C29_37 
REMARK    9  A    between atoms: C29_37  and  C30_38 
REMARK   10  A    between atoms: C30_38  and  O2_39 
ROOT
HETATM    1  C21 UNL     1      45.271   4.081   9.565  1.00  0.00     0.198 C 
HETATM    2  N1  UNL     1      46.504   4.781  10.010  1.00  0.00    -0.059 N 
ATOM      3  H11 UNL     1      47.361   4.375   9.634  1.00  0.00     0.278 HD
ATOM      4  H12 UNL     1      46.721   4.636  10.997  1.00  0.00     0.278 HD
HETATM    5  C22 UNL     1      46.323   6.187   9.657  1.00  0.00     0.255 C 
HETATM    6  C27 UNL     1      44.855   6.351   9.739  1.00  0.00     0.163 C 
HETATM    7  O1  UNL     1      44.229   7.208  10.238  1.00  0.00    -0.295 OA
HETATM    8  C28 UNL     1      44.384   5.118   9.011  1.00  0.00     0.090 C 
ENDROOT
BRANCH   1   9
HETATM    9  C20 UNL     1      44.855   3.258  10.705  1.00  0.00     0.034 C 
BRANCH   9  10
HETATM   10  C19 UNL     1      44.646   1.805  10.557  1.00  0.00     0.007 C 
BRANCH  10  11
HETATM   11  C18 UNL     1      43.325   1.340  11.181  1.00  0.00    -0.006 C 
HETATM   12  C2  UNL     1      42.554   0.408  10.275  1.00  0.00    -0.036 C 
HETATM   13  C1  UNL     1      42.836  -1.035  10.689  1.00  0.00     0.016 C 
HETATM   14  C3  UNL     1      42.793   0.625   8.817  1.00  0.00     0.010 C 
HETATM   15  C15 UNL     1      41.130   0.700  10.691  1.00  0.00    -0.001 C 
HETATM   16  C4  UNL     1      41.784   0.038   7.903  1.00  0.00     0.010 C 
HETATM   17  C5  UNL     1      40.637  -0.614   8.590  1.00  0.00     0.023 C 
HETATM   18  C6  UNL     1      39.597  -0.884   7.573  1.00  0.00    -0.047 A 
HETATM   19  C14 UNL     1      40.094   0.123   9.786  1.00  0.00    -0.001 C 
HETATM   20  C7  UNL     1      39.556  -2.080   6.899  1.00  0.00     0.008 A 
HETATM   21  C11 UNL     1      38.645   0.048   7.264  1.00  0.00    -0.051 A 
HETATM   22  C8  UNL     1      38.568  -2.325   5.932  1.00  0.00     0.001 A 
HETATM   23  C9  UNL     1      37.624  -1.363   5.647  1.00  0.00     0.001 A 
HETATM   24  C10 UNL     1      37.668  -0.163   6.325  1.00  0.00     0.007 A 
HETATM   25  C12 UNL     1      38.726   1.328   8.021  1.00  0.00     0.039 C 
HETATM   26  C13 UNL     1      38.968   1.066   9.484  1.00  0.00     0.010 C 
HETATM   27  C16 UNL     1      41.091   2.199  10.796  1.00  0.00     0.006 C 
HETATM   28  C17 UNL     1      42.430   2.527  11.420  1.00  0.00     0.006 C 
ENDBRANCH  10  11
ENDBRANCH   9  10
ENDBRANCH   1   9
BRANCH   8  29
HETATM   29  C29 UNL     1      42.924   4.953   9.080  1.00  0.00     0.040 C 
BRANCH  29  30
HETATM   30  C30 UNL     1      42.446   4.140   7.868  1.00  0.00     0.165 C 
BRANCH  30  31
HETATM   31  O2  UNL     1      42.933   4.762   6.720  1.00  0.00    -0.401 OA
ATOM     32  H2  UNL     1      42.329   5.457   6.488  1.00  0.00     0.209 HD
ENDBRANCH  30  31
ENDBRANCH  29  30
ENDBRANCH   8  29
BRANCH   5  33
HETATM   33  C23 UNL     1      47.133   7.095  10.499  1.00  0.00     0.042 C 
BRANCH  33  34
HETATM   34  C24 UNL     1      47.115   6.667  11.935  1.00  0.00     0.022 C 
BRANCH  34  35
HETATM   35  C25 UNL     1      47.835   7.669  12.829  1.00  0.00     0.122 C 
BRANCH  35  36
HETATM   36  N2  UNL     1      48.951   7.058  13.510  1.00  0.00    -0.367 N 
HETATM   37  C26 UNL     1      49.002   6.890  14.782  1.00  0.00     0.196 C 
HETATM   38  N3  UNL     1      50.097   6.292  15.435  1.00  0.00    -0.067 NA
HETATM   39  N4  UNL     1      47.904   7.329  15.570  1.00  0.00    -0.067 NA
ATOM     40  H2  UNL     1      49.744   6.742  12.950  1.00  0.00     0.161 HD
ENDBRANCH  35  36
ENDBRANCH  34  35
ENDBRANCH  33  34
ENDBRANCH   5  33
TORSDOF 10
ENDMDL
MODEL 5
REMARK VINA RESULT: -8.780072674      1.712      2.730
REMARK  10 active torsions:
REMARK  status: ('A' for Active; 'I' for Inactive)
REMARK    1  A    between atoms: C18_18  and  C19_19 
REMARK    2  A    between atoms: C19_19  and  C20_20 
REMARK    3  A    between atoms: C20_20  and  C21_21 
REMARK    4  A    between atoms: C22_25  and  C23_26 
REMARK    5  A    between atoms: C23_26  and  C24_27 
REMARK    6  A    between atoms: C24_27  and  C25_28 
REMARK    7  A    between atoms: C25_28  and  N2_29 
REMARK    8  A    between atoms: C28_36  and  C29_37 
REMARK    9  A    between atoms: C29_37  and  C30_38 
REMARK   10  A    between atoms: C30_38  and  O2_39 
ROOT
HETATM    1  C21 UNL     1      41.729   5.026   7.976  1.00  0.00     0.198 C 
HETATM    2  N1  UNL     1      41.243   3.675   8.362  1.00  0.00    -0.059 N 
ATOM      3  H11 UNL     1      40.688   3.673   9.218  1.00  0.00     0.278 HD
ATOM      4  H12 UNL     1      41.983   3.056   8.692  1.00  0.00     0.278 HD
HETATM    5  C22 UNL     1      40.524   3.155   7.202  1.00  0.00     0.255 C 
HETATM    6  C27 UNL     1      41.222   3.810   6.073  1.00  0.00     0.163 C 
HETATM    7  O1  UNL     1      41.600   3.348   5.063  1.00  0.00    -0.295 OA
HETATM    8  C28 UNL     1      41.320   5.227   6.575  1.00  0.00     0.090 C 
ENDROOT
BRANCH   1   9
HETATM    9  C20 UNL     1      43.143   5.059   8.365  1.00  0.00     0.034 C 
BRANCH   9  10
HETATM   10  C19 UNL     1      43.657   6.105   9.270  1.00  0.00     0.007 C 
BRANCH  10  11
HETATM   11  C18 UNL     1      44.934   6.762   8.733  1.00  0.00    -0.006 C 
HETATM   12  C2  UNL     1      46.012   6.874   9.786  1.00  0.00    -0.036 C 
HETATM   13  C1  UNL     1      46.984   5.705   9.630  1.00  0.00     0.016 C 
HETATM   14  C3  UNL     1      45.502   6.989  11.184  1.00  0.00     0.010 C 
HETATM   15  C15 UNL     1      46.753   8.108   9.323  1.00  0.00    -0.001 C 
HETATM   16  C4  UNL     1      46.469   7.501  12.185  1.00  0.00     0.010 C 
HETATM   17  C5  UNL     1      47.786   7.900  11.620  1.00  0.00     0.023 C 
HETATM   18  C6  UNL     1      48.518   8.646  12.665  1.00  0.00    -0.047 A 
HETATM   19  C14 UNL     1      47.731   8.646  10.313  1.00  0.00    -0.001 C 
HETATM   20  C7  UNL     1      49.363   8.003  13.538  1.00  0.00     0.008 A 
HETATM   21  C11 UNL     1      48.377   9.999  12.806  1.00  0.00    -0.051 A 
HETATM   22  C8  UNL     1      50.050   8.720  14.531  1.00  0.00     0.001 A 
HETATM   23  C9  UNL     1      49.883  10.083  14.642  1.00  0.00     0.001 A 
HETATM   24  C10 UNL     1      49.034  10.725  13.765  1.00  0.00     0.007 A 
HETATM   25  C12 UNL     1      47.453  10.654  11.838  1.00  0.00     0.039 C 
HETATM   26  C13 UNL     1      47.692  10.139  10.443  1.00  0.00     0.010 C 
HETATM   27  C16 UNL     1      45.654   9.067   8.959  1.00  0.00     0.006 C 
HETATM   28  C17 UNL     1      44.635   8.170   8.290  1.00  0.00     0.006 C 
ENDBRANCH  10  11
ENDBRANCH   9  10
ENDBRANCH   1   9
BRANCH   8  29
HETATM   29  C29 UNL     1      42.126   6.079   5.686  1.00  0.00     0.040 C 
BRANCH  29  30
HETATM   30  C30 UNL     1      41.649   7.534   5.806  1.00  0.00     0.165 C 
BRANCH  30  31
HETATM   31  O2  UNL     1      40.354   7.600   5.293  1.00  0.00    -0.401 OA
ATOM     32  H2  UNL     1      39.926   8.354   5.682  1.00  0.00     0.209 HD
ENDBRANCH  30  31
ENDBRANCH  29  30
ENDBRANCH   8  29
BRANCH   5  33
HETATM   33  C23 UNL     1      40.478   1.676   7.176  1.00  0.00     0.042 C 
BRANCH  33  34
HETATM   34  C24 UNL     1      41.697   1.082   7.816  1.00  0.00     0.022 C 
BRANCH  34  35
HETATM   35  C25 UNL     1      41.359   0.387   9.128  1.00  0.00     0.122 C 
BRANCH  35  36
HETATM   36  N2  UNL     1      42.435   0.511  10.082  1.00  0.00    -0.367 N 
HETATM   37  C26 UNL     1      42.426   1.343  11.059  1.00  0.00     0.196 C 
HETATM   38  N3  UNL     1      43.482   1.455  11.983  1.00  0.00    -0.067 NA
HETATM   39  N4  UNL     1      41.299   2.195  11.217  1.00  0.00    -0.067 NA
ATOM     40  H2  UNL     1      43.248  -0.096   9.973  1.00  0.00     0.161 HD
ENDBRANCH  35  36
ENDBRANCH  34  35
ENDBRANCH  33  34
ENDBRANCH   5  33
TORSDOF 10
ENDMDL
