MODEL 1
REMARK VINA RESULT: -7.139986983      0.000      0.000
REMARK  12 active torsions:
REMARK  status: ('A' for Active; 'I' for Inactive)
REMARK    1  A    between atoms: C2_2  and  C3_3 
REMARK    2  A    between atoms: C3_3  and  C4_4 
REMARK    3  A    between atoms: C4_4  and  O1_5 
REMARK    4  A    between atoms: O1_5  and  C5_6 
REMARK    5  A    between atoms: C7_8  and  O2_9 
REMARK    6  A    between atoms: C10_13  and  O3_14 
REMARK    7  A    between atoms: C14_19  and  C15_20 
REMARK    8  A    between atoms: C15_20  and  C17_22 
REMARK    9  A    between atoms: C17_22  and  C18_23 
REMARK   10  A    between atoms: C18_23  and  C19_24 
REMARK   11  A    between atoms: C19_24  and  O4_25 
REMARK   12  A    between atoms: C19_24  and  C20_27 
ROOT
HETATM    1  C5  UNL     1      22.971   0.007  60.564  1.00  0.00     0.132 C 
HETATM    2  C6  UNL     1      22.778  -1.438  61.122  1.00  0.00     0.065 C 
HETATM    3  C7  UNL     1      21.308  -1.651  61.161  1.00  0.00     0.125 C 
HETATM    4  C8  UNL     1      20.860  -1.678  59.687  1.00  0.00     0.022 C 
HETATM    5  C9  UNL     1      19.451  -2.209  59.754  1.00  0.00     0.039 C 
HETATM    6  C10 UNL     1      18.929  -2.146  58.349  1.00  0.00     0.123 C 
HETATM    7  C11 UNL     1      18.840  -0.733  57.950  1.00  0.00     0.023 C 
HETATM    8  C12 UNL     1      17.863   0.040  58.753  1.00  0.00     0.008 C 
HETATM    9  C13 UNL     1      18.518   1.317  59.119  1.00  0.00     0.006 C 
HETATM   10  C14 UNL     1      19.631   1.425  58.030  1.00  0.00    -0.002 C 
HETATM   11  C23 UNL     1      20.175   0.046  57.960  1.00  0.00    -0.029 C 
HETATM   12  C24 UNL     1      20.773  -0.440  56.688  1.00  0.00     0.016 C 
HETATM   13  C25 UNL     1      20.995  -0.289  59.169  1.00  0.00     0.011 C 
HETATM   14  C26 UNL     1      22.450   0.057  59.144  1.00  0.00    -0.017 C 
HETATM   15  C27 UNL     1      23.341  -0.899  58.393  1.00  0.00     0.018 C 
HETATM   16  C28 UNL     1      22.749   1.464  58.732  1.00  0.00     0.018 C 
ENDROOT
BRANCH  10  17
HETATM   17  C15 UNL     1      18.931   1.962  56.798  1.00  0.00    -0.014 C 
HETATM   18  C16 UNL     1      18.048   3.160  57.296  1.00  0.00     0.010 C 
BRANCH  17  19
HETATM   19  C17 UNL     1      19.864   2.659  55.837  1.00  0.00     0.007 C 
BRANCH  19  20
HETATM   20  C18 UNL     1      20.760   3.683  56.534  1.00  0.00     0.032 C 
BRANCH  20  21
HETATM   21  C19 UNL     1      21.971   3.998  55.692  1.00  0.00     0.121 C 
BRANCH  21  22
HETATM   22  O4  UNL     1      22.764   2.890  55.543  1.00  0.00    -0.395 OA
ATOM     23  H4  UNL     1      22.518   2.400  54.767  1.00  0.00     0.210 HD
ENDBRANCH  21  22
BRANCH  21  24
HETATM   24  C20 UNL     1      22.737   5.199  56.203  1.00  0.00     0.006 C 
HETATM   25  C21 UNL     1      21.725   6.298  56.470  1.00  0.00     0.012 C 
HETATM   26  C22 UNL     1      23.434   4.900  57.500  1.00  0.00     0.012 C 
ENDBRANCH  21  24
ENDBRANCH  20  21
ENDBRANCH  19  20
ENDBRANCH  17  19
ENDBRANCH  10  17
BRANCH   6  27
HETATM   27  O3  UNL     1      17.619  -2.658  58.288  1.00  0.00    -0.395 OA
ATOM     28  H3  UNL     1      17.012  -2.064  58.713  1.00  0.00     0.210 HD
ENDBRANCH   6  27
BRANCH   3  29
HETATM   29  O2  UNL     1      20.696  -0.645  61.868  1.00  0.00    -0.395 OA
ATOM     30  H2  UNL     1      19.864  -0.943  62.216  1.00  0.00     0.210 HD
ENDBRANCH   3  29
BRANCH   1  31
HETATM   31  O1  UNL     1      22.462   0.885  61.451  1.00  0.00    -0.385 OA
BRANCH  31  32
HETATM   32  C4  UNL     1      23.380   1.767  61.944  1.00  0.00     0.168 C 
BRANCH  32  33
HETATM   33  C3  UNL     1      24.721   1.294  62.338  1.00  0.00     0.026 C 
BRANCH  33  34
HETATM   34  C2  UNL     1      25.730   2.047  61.460  1.00  0.00    -0.002 C 
HETATM   35  C1  UNL     1      25.130   3.290  60.884  1.00  0.00     0.005 C 
ENDBRANCH  33  34
ENDBRANCH  32  33
ENDBRANCH  31  32
ENDBRANCH   1  31
TORSDOF 12
ENDMDL
MODEL 2
REMARK VINA RESULT: -6.992732522      1.737      2.624
REMARK  12 active torsions:
REMARK  status: ('A' for Active; 'I' for Inactive)
REMARK    1  A    between atoms: C2_2  and  C3_3 
REMARK    2  A    between atoms: C3_3  and  C4_4 
REMARK    3  A    between atoms: C4_4  and  O1_5 
REMARK    4  A    between atoms: O1_5  and  C5_6 
REMARK    5  A    between atoms: C7_8  and  O2_9 
REMARK    6  A    between atoms: C10_13  and  O3_14 
REMARK    7  A    between atoms: C14_19  and  C15_20 
REMARK    8  A    between atoms: C15_20  and  C17_22 
REMARK    9  A    between atoms: C17_22  and  C18_23 
REMARK   10  A    between atoms: C18_23  and  C19_24 
REMARK   11  A    between atoms: C19_24  and  O4_25 
REMARK   12  A    between atoms: C19_24  and  C20_27 
ROOT
HETATM    1  C5  UNL     1      22.756  -0.036  60.508  1.00  0.00     0.132 C 
HETATM    2  C6  UNL     1      22.466  -1.425  61.159  1.00  0.00     0.065 C 
HETATM    3  C7  UNL     1      20.986  -1.560  61.156  1.00  0.00     0.125 C 
HETATM    4  C8  UNL     1      20.589  -1.671  59.672  1.00  0.00     0.022 C 
HETATM    5  C9  UNL     1      19.152  -2.123  59.722  1.00  0.00     0.039 C 
HETATM    6  C10 UNL     1      18.683  -2.136  58.298  1.00  0.00     0.123 C 
HETATM    7  C11 UNL     1      18.684  -0.754  57.796  1.00  0.00     0.023 C 
HETATM    8  C12 UNL     1      17.722   0.125  58.504  1.00  0.00     0.008 C 
HETATM    9  C13 UNL     1      18.432   1.389  58.803  1.00  0.00     0.006 C 
HETATM   10  C14 UNL     1      19.586   1.362  57.752  1.00  0.00    -0.002 C 
HETATM   11  C23 UNL     1      20.057  -0.045  57.802  1.00  0.00    -0.029 C 
HETATM   12  C24 UNL     1      20.672  -0.652  56.592  1.00  0.00     0.016 C 
HETATM   13  C25 UNL     1      20.816  -0.332  59.062  1.00  0.00     0.011 C 
HETATM   14  C26 UNL     1      22.288  -0.064  59.069  1.00  0.00    -0.017 C 
HETATM   15  C27 UNL     1      23.151  -1.116  58.422  1.00  0.00     0.018 C 
HETATM   16  C28 UNL     1      22.675   1.293  58.570  1.00  0.00     0.018 C 
ENDROOT
BRANCH  10  17
HETATM   17  C15 UNL     1      18.959   1.842  56.460  1.00  0.00    -0.014 C 
HETATM   18  C16 UNL     1      18.220   3.180  56.814  1.00  0.00     0.010 C 
BRANCH  17  19
HETATM   19  C17 UNL     1      19.972   2.321  55.447  1.00  0.00     0.007 C 
BRANCH  19  20
HETATM   20  C18 UNL     1      19.321   2.755  54.134  1.00  0.00     0.032 C 
BRANCH  20  21
HETATM   21  C19 UNL     1      18.621   1.594  53.472  1.00  0.00     0.121 C 
BRANCH  21  22
HETATM   22  O4  UNL     1      19.480   0.540  53.302  1.00  0.00    -0.395 OA
ATOM     23  H4  UNL     1      19.430   0.203  52.415  1.00  0.00     0.210 HD
ENDBRANCH  21  22
BRANCH  21  24
HETATM   24  C20 UNL     1      17.924   1.991  52.189  1.00  0.00     0.006 C 
HETATM   25  C21 UNL     1      17.732   3.496  52.229  1.00  0.00     0.012 C 
HETATM   26  C22 UNL     1      18.762   1.673  50.983  1.00  0.00     0.012 C 
ENDBRANCH  21  24
ENDBRANCH  20  21
ENDBRANCH  19  20
ENDBRANCH  17  19
ENDBRANCH  10  17
BRANCH   6  27
HETATM   27  O3  UNL     1      17.351  -2.584  58.223  1.00  0.00    -0.395 OA
ATOM     28  H3  UNL     1      16.865  -2.074  57.585  1.00  0.00     0.210 HD
ENDBRANCH   6  27
BRANCH   3  29
HETATM   29  O2  UNL     1      20.405  -0.475  61.767  1.00  0.00    -0.395 OA
ATOM     30  H2  UNL     1      19.747  -0.089  61.200  1.00  0.00     0.210 HD
ENDBRANCH   3  29
BRANCH   1  31
HETATM   31  O1  UNL     1      22.264   0.929  61.310  1.00  0.00    -0.385 OA
BRANCH  31  32
HETATM   32  C4  UNL     1      23.215   1.776  61.802  1.00  0.00     0.168 C 
BRANCH  32  33
HETATM   33  C3  UNL     1      24.499   1.239  62.291  1.00  0.00     0.026 C 
BRANCH  33  34
HETATM   34  C2  UNL     1      25.607   2.000  61.549  1.00  0.00    -0.002 C 
HETATM   35  C1  UNL     1      25.060   3.191  60.829  1.00  0.00     0.005 C 
ENDBRANCH  33  34
ENDBRANCH  32  33
ENDBRANCH  31  32
ENDBRANCH   1  31
TORSDOF 12
ENDMDL
MODEL 3
REMARK VINA RESULT: -6.896079986      2.138      6.417
REMARK  12 active torsions:
REMARK  status: ('A' for Active; 'I' for Inactive)
REMARK    1  A    between atoms: C2_2  and  C3_3 
REMARK    2  A    between atoms: C3_3  and  C4_4 
REMARK    3  A    between atoms: C4_4  and  O1_5 
REMARK    4  A    between atoms: O1_5  and  C5_6 
REMARK    5  A    between atoms: C7_8  and  O2_9 
REMARK    6  A    between atoms: C10_13  and  O3_14 
REMARK    7  A    between atoms: C14_19  and  C15_20 
REMARK    8  A    between atoms: C15_20  and  C17_22 
REMARK    9  A    between atoms: C17_22  and  C18_23 
REMARK   10  A    between atoms: C18_23  and  C19_24 
REMARK   11  A    between atoms: C19_24  and  O4_25 
REMARK   12  A    between atoms: C19_24  and  C20_27 
ROOT
HETATM    1  C5  UNL     1      18.677   2.188  55.501  1.00  0.00     0.132 C 
HETATM    2  C6  UNL     1      17.440   1.387  54.984  1.00  0.00     0.065 C 
HETATM    3  C7  UNL     1      17.842  -0.042  55.048  1.00  0.00     0.125 C 
HETATM    4  C8  UNL     1      17.984  -0.359  56.549  1.00  0.00     0.022 C 
HETATM    5  C9  UNL     1      18.070  -1.863  56.587  1.00  0.00     0.039 C 
HETATM    6  C10 UNL     1      18.324  -2.216  58.022  1.00  0.00     0.123 C 
HETATM    7  C11 UNL     1      19.648  -1.697  58.400  1.00  0.00     0.023 C 
HETATM    8  C12 UNL     1      20.759  -2.330  57.651  1.00  0.00     0.008 C 
HETATM    9  C13 UNL     1      21.664  -1.241  57.219  1.00  0.00     0.006 C 
HETATM   10  C14 UNL     1      21.301  -0.107  58.229  1.00  0.00    -0.002 C 
HETATM   11  C23 UNL     1      19.819  -0.166  58.287  1.00  0.00    -0.029 C 
HETATM   12  C24 UNL     1      19.118   0.271  59.524  1.00  0.00     0.016 C 
HETATM   13  C25 UNL     1      19.193   0.363  57.031  1.00  0.00     0.011 C 
HETATM   14  C26 UNL     1      18.918   1.832  56.952  1.00  0.00    -0.017 C 
HETATM   15  C27 UNL     1      17.675   2.308  57.658  1.00  0.00     0.018 C 
HETATM   16  C28 UNL     1      20.079   2.703  57.317  1.00  0.00     0.018 C 
ENDROOT
BRANCH  10  17
HETATM   17  C15 UNL     1      22.061  -0.442  59.494  1.00  0.00    -0.014 C 
HETATM   18  C16 UNL     1      23.529  -0.761  59.040  1.00  0.00     0.010 C 
BRANCH  17  19
HETATM   19  C17 UNL     1      22.281   0.751  60.393  1.00  0.00     0.007 C 
BRANCH  19  20
HETATM   20  C18 UNL     1      23.431   0.536  61.377  1.00  0.00     0.032 C 
BRANCH  20  21
HETATM   21  C19 UNL     1      23.805   1.829  62.057  1.00  0.00     0.121 C 
BRANCH  21  22
HETATM   22  O4  UNL     1      22.793   2.748  61.948  1.00  0.00    -0.395 OA
ATOM     23  H4  UNL     1      22.466   2.993  62.806  1.00  0.00     0.210 HD
ENDBRANCH  21  22
BRANCH  21  24
HETATM   24  C20 UNL     1      25.137   2.369  61.586  1.00  0.00     0.006 C 
HETATM   25  C21 UNL     1      25.934   1.195  61.047  1.00  0.00     0.012 C 
HETATM   26  C22 UNL     1      24.968   3.354  60.463  1.00  0.00     0.012 C 
ENDBRANCH  21  24
ENDBRANCH  20  21
ENDBRANCH  19  20
ENDBRANCH  17  19
ENDBRANCH  10  17
BRANCH   6  27
HETATM   27  O3  UNL     1      18.387  -3.614  58.181  1.00  0.00    -0.395 OA
ATOM     28  H3  UNL     1      18.674  -3.834  59.059  1.00  0.00     0.210 HD
ENDBRANCH   6  27
BRANCH   3  29
HETATM   29  O2  UNL     1      19.018  -0.240  54.365  1.00  0.00    -0.395 OA
ATOM     30  H2  UNL     1      19.582  -0.836  54.843  1.00  0.00     0.210 HD
ENDBRANCH   3  29
BRANCH   1  31
HETATM   31  O1  UNL     1      19.696   2.018  54.634  1.00  0.00    -0.385 OA
BRANCH  31  32
HETATM   32  C4  UNL     1      19.861   3.059  53.767  1.00  0.00     0.168 C 
BRANCH  32  33
HETATM   33  C3  UNL     1      18.973   3.193  52.596  1.00  0.00     0.026 C 
BRANCH  33  34
HETATM   34  C2  UNL     1      19.201   1.952  51.724  1.00  0.00    -0.002 C 
HETATM   35  C1  UNL     1      18.224   1.895  50.593  1.00  0.00     0.005 C 
ENDBRANCH  33  34
ENDBRANCH  32  33
ENDBRANCH  31  32
ENDBRANCH   1  31
TORSDOF 12
ENDMDL
MODEL 4
REMARK VINA RESULT: -6.866438869      1.595      5.495
REMARK  12 active torsions:
REMARK  status: ('A' for Active; 'I' for Inactive)
REMARK    1  A    between atoms: C2_2  and  C3_3 
REMARK    2  A    between atoms: C3_3  and  C4_4 
REMARK    3  A    between atoms: C4_4  and  O1_5 
REMARK    4  A    between atoms: O1_5  and  C5_6 
REMARK    5  A    between atoms: C7_8  and  O2_9 
REMARK    6  A    between atoms: C10_13  and  O3_14 
REMARK    7  A    between atoms: C14_19  and  C15_20 
REMARK    8  A    between atoms: C15_20  and  C17_22 
REMARK    9  A    between atoms: C17_22  and  C18_23 
REMARK   10  A    between atoms: C18_23  and  C19_24 
REMARK   11  A    between atoms: C19_24  and  O4_25 
REMARK   12  A    between atoms: C19_24  and  C20_27 
ROOT
HETATM    1  C5  UNL     1      19.103   2.011  55.997  1.00  0.00     0.132 C 
HETATM    2  C6  UNL     1      18.146   1.259  55.018  1.00  0.00     0.065 C 
HETATM    3  C7  UNL     1      18.562  -0.166  55.078  1.00  0.00     0.125 C 
HETATM    4  C8  UNL     1      18.206  -0.636  56.501  1.00  0.00     0.022 C 
HETATM    5  C9  UNL     1      18.338  -2.136  56.422  1.00  0.00     0.039 C 
HETATM    6  C10 UNL     1      18.111  -2.635  57.818  1.00  0.00     0.123 C 
HETATM    7  C11 UNL     1      19.208  -2.148  58.668  1.00  0.00     0.023 C 
HETATM    8  C12 UNL     1      20.532  -2.692  58.282  1.00  0.00     0.008 C 
HETATM    9  C13 UNL     1      21.482  -1.556  58.287  1.00  0.00     0.006 C 
HETATM   10  C14 UNL     1      20.755  -0.537  59.218  1.00  0.00    -0.002 C 
HETATM   11  C23 UNL     1      19.343  -0.612  58.766  1.00  0.00    -0.029 C 
HETATM   12  C24 UNL     1      18.250  -0.312  59.729  1.00  0.00     0.016 C 
HETATM   13  C25 UNL     1      19.152   0.040  57.429  1.00  0.00     0.011 C 
HETATM   14  C26 UNL     1      18.859   1.507  57.403  1.00  0.00    -0.017 C 
HETATM   15  C27 UNL     1      17.432   1.897  57.690  1.00  0.00     0.018 C 
HETATM   16  C28 UNL     1      19.793   2.343  58.220  1.00  0.00     0.018 C 
ENDROOT
BRANCH  10  17
HETATM   17  C15 UNL     1      21.060  -0.996  60.628  1.00  0.00    -0.014 C 
HETATM   18  C16 UNL     1      22.378  -1.843  60.525  1.00  0.00     0.010 C 
BRANCH  17  19
HETATM   19  C17 UNL     1      21.498   0.125  61.540  1.00  0.00     0.007 C 
BRANCH  19  20
HETATM   20  C18 UNL     1      22.599   0.985  60.920  1.00  0.00     0.032 C 
BRANCH  20  21
HETATM   21  C19 UNL     1      23.408   1.675  61.989  1.00  0.00     0.121 C 
BRANCH  21  22
HETATM   22  O4  UNL     1      23.071   3.001  62.076  1.00  0.00    -0.395 OA
ATOM     23  H4  UNL     1      23.772   3.502  62.474  1.00  0.00     0.210 HD
ENDBRANCH  21  22
BRANCH  21  24
HETATM   24  C20 UNL     1      24.896   1.462  61.820  1.00  0.00     0.006 C 
HETATM   25  C21 UNL     1      25.078   0.297  60.864  1.00  0.00     0.012 C 
HETATM   26  C22 UNL     1      25.561   2.661  61.205  1.00  0.00     0.012 C 
ENDBRANCH  21  24
ENDBRANCH  20  21
ENDBRANCH  19  20
ENDBRANCH  17  19
ENDBRANCH  10  17
BRANCH   6  27
HETATM   27  O3  UNL     1      18.176  -4.041  57.854  1.00  0.00    -0.395 OA
ATOM     28  H3  UNL     1      18.877  -4.325  58.428  1.00  0.00     0.210 HD
ENDBRANCH   6  27
BRANCH   3  29
HETATM   29  O2  UNL     1      19.906  -0.284  54.816  1.00  0.00    -0.395 OA
ATOM     30  H2  UNL     1      20.128  -1.187  54.623  1.00  0.00     0.210 HD
ENDBRANCH   3  29
BRANCH   1  31
HETATM   31  O1  UNL     1      20.359   1.939  55.513  1.00  0.00    -0.385 OA
BRANCH  31  32
HETATM   32  C4  UNL     1      20.799   3.101  54.947  1.00  0.00     0.168 C 
BRANCH  32  33
HETATM   33  C3  UNL     1      21.802   3.929  55.645  1.00  0.00     0.026 C 
BRANCH  33  34
HETATM   34  C2  UNL     1      22.783   2.960  56.319  1.00  0.00    -0.002 C 
HETATM   35  C1  UNL     1      23.368   3.554  57.560  1.00  0.00     0.005 C 
ENDBRANCH  33  34
ENDBRANCH  32  33
ENDBRANCH  31  32
ENDBRANCH   1  31
TORSDOF 12
ENDMDL
MODEL 5
REMARK VINA RESULT: -6.811063824      1.811      2.755
REMARK  12 active torsions:
REMARK  status: ('A' for Active; 'I' for Inactive)
REMARK    1  A    between atoms: C2_2  and  C3_3 
REMARK    2  A    between atoms: C3_3  and  C4_4 
REMARK    3  A    between atoms: C4_4  and  O1_5 
REMARK    4  A    between atoms: O1_5  and  C5_6 
REMARK    5  A    between atoms: C7_8  and  O2_9 
REMARK    6  A    between atoms: C10_13  and  O3_14 
REMARK    7  A    between atoms: C14_19  and  C15_20 
REMARK    8  A    between atoms: C15_20  and  C17_22 
REMARK    9  A    between atoms: C17_22  and  C18_23 
REMARK   10  A    between atoms: C18_23  and  C19_24 
REMARK   11  A    between atoms: C19_24  and  O4_25 
REMARK   12  A    between atoms: C19_24  and  C20_27 
ROOT
HETATM    1  C5  UNL     1      23.055   0.358  60.112  1.00  0.00     0.132 C 
HETATM    2  C6  UNL     1      22.972  -0.968  60.933  1.00  0.00     0.065 C 
HETATM    3  C7  UNL     1      21.520  -1.233  61.105  1.00  0.00     0.125 C 
HETATM    4  C8  UNL     1      20.993  -1.549  59.692  1.00  0.00     0.022 C 
HETATM    5  C9  UNL     1      19.620  -2.119  59.945  1.00  0.00     0.039 C 
HETATM    6  C10 UNL     1      19.018  -2.337  58.589  1.00  0.00     0.123 C 
HETATM    7  C11 UNL     1      18.831  -1.027  57.948  1.00  0.00     0.023 C 
HETATM    8  C12 UNL     1      17.860  -0.162  58.660  1.00  0.00     0.008 C 
HETATM    9  C13 UNL     1      18.464   1.187  58.746  1.00  0.00     0.006 C 
HETATM   10  C14 UNL     1      19.506   1.142  57.585  1.00  0.00    -0.002 C 
HETATM   11  C23 UNL     1      20.119  -0.202  57.731  1.00  0.00    -0.029 C 
HETATM   12  C24 UNL     1      20.671  -0.887  56.532  1.00  0.00     0.016 C 
HETATM   13  C25 UNL     1      21.023  -0.274  58.925  1.00  0.00     0.011 C 
HETATM   14  C26 UNL     1      22.454   0.123  58.743  1.00  0.00    -0.017 C 
HETATM   15  C27 UNL     1      23.351  -0.915  58.121  1.00  0.00     0.018 C 
HETATM   16  C28 UNL     1      22.652   1.443  58.066  1.00  0.00     0.018 C 
ENDROOT
BRANCH  10  17
HETATM   17  C15 UNL     1      18.712   1.413  56.325  1.00  0.00    -0.014 C 
HETATM   18  C16 UNL     1      17.827   2.670  56.640  1.00  0.00     0.010 C 
BRANCH  17  19
HETATM   19  C17 UNL     1      19.557   1.923  55.183  1.00  0.00     0.007 C 
BRANCH  19  20
HETATM   20  C18 UNL     1      18.975   1.556  53.818  1.00  0.00     0.032 C 
BRANCH  20  21
HETATM   21  C19 UNL     1      19.443   2.522  52.758  1.00  0.00     0.121 C 
BRANCH  21  22
HETATM   22  O4  UNL     1      20.033   3.621  53.326  1.00  0.00    -0.395 OA
ATOM     23  H4  UNL     1      19.592   4.418  53.056  1.00  0.00     0.210 HD
ENDBRANCH  21  22
BRANCH  21  24
HETATM   24  C20 UNL     1      18.348   2.887  51.781  1.00  0.00     0.006 C 
HETATM   25  C21 UNL     1      18.350   1.834  50.688  1.00  0.00     0.012 C 
HETATM   26  C22 UNL     1      16.994   2.861  52.432  1.00  0.00     0.012 C 
ENDBRANCH  21  24
ENDBRANCH  20  21
ENDBRANCH  19  20
ENDBRANCH  17  19
ENDBRANCH  10  17
BRANCH   6  27
HETATM   27  O3  UNL     1      17.736  -2.907  58.706  1.00  0.00    -0.395 OA
ATOM     28  H3  UNL     1      17.267  -2.519  59.435  1.00  0.00     0.210 HD
ENDBRANCH   6  27
BRANCH   3  29
HETATM   29  O2  UNL     1      20.895  -0.141  61.657  1.00  0.00    -0.395 OA
ATOM     30  H2  UNL     1      21.519   0.560  61.802  1.00  0.00     0.210 HD
ENDBRANCH   3  29
BRANCH   1  31
HETATM   31  O1  UNL     1      22.549   1.361  60.857  1.00  0.00    -0.385 OA
BRANCH  31  32
HETATM   32  C4  UNL     1      23.490   2.049  61.568  1.00  0.00     0.168 C 
BRANCH  32  33
HETATM   33  C3  UNL     1      24.084   3.279  61.010  1.00  0.00     0.026 C 
BRANCH  33  34
HETATM   34  C2  UNL     1      25.574   2.988  60.787  1.00  0.00    -0.002 C 
HETATM   35  C1  UNL     1      26.010   1.772  61.541  1.00  0.00     0.005 C 
ENDBRANCH  33  34
ENDBRANCH  32  33
ENDBRANCH  31  32
ENDBRANCH   1  31
TORSDOF 12
ENDMDL
