MODEL 1
REMARK VINA RESULT: -7.483490022      0.000      0.000
REMARK  12 active torsions:
REMARK  status: ('A' for Active; 'I' for Inactive)
REMARK    1  A    between atoms: C2_2  and  O1_4 
REMARK    2  A    between atoms: C2_2  and  C4_6 
REMARK    3  A    between atoms: C4_6  and  C5_7 
REMARK    4  A    between atoms: C5_7  and  C6_8 
REMARK    5  A    between atoms: C6_8  and  C7_9 
REMARK    6  A    between atoms: C7_9  and  C8_10 
REMARK    7  A    between atoms: C8_10  and  C9_11 
REMARK    8  A    between atoms: C15_18  and  C16_19 
REMARK    9  A    between atoms: C21_24  and  C22_25 
REMARK   10  A    between atoms: C21_24  and  C23_28 
REMARK   11  A    between atoms: C22_25  and  O3_26 
REMARK   12  A    between atoms: C23_28  and  O4_29 
ROOT
HETATM    1  C8  UNL     1      20.621  -1.143  60.117  1.00  0.00     0.021 C 
HETATM    2  C10 UNL     1      21.396  -2.091  59.258  1.00  0.00     0.018 C 
HETATM    3  C11 UNL     1      21.266  -2.024  57.801  1.00  0.00     0.006 C 
HETATM    4  C12 UNL     1      20.674  -0.811  57.202  1.00  0.00    -0.005 C 
HETATM    5  C13 UNL     1      19.929  -1.247  55.974  1.00  0.00     0.006 C 
HETATM    6  C14 UNL     1      18.858  -0.247  55.832  1.00  0.00     0.006 C 
HETATM    7  C15 UNL     1      18.869   0.655  57.102  1.00  0.00     0.003 C 
HETATM    8  C25 UNL     1      19.530  -0.197  58.010  1.00  0.00    -0.028 C 
HETATM    9  C26 UNL     1      18.551  -1.387  58.208  1.00  0.00     0.016 C 
HETATM   10  C27 UNL     1      20.077   0.076  59.342  1.00  0.00    -0.026 C 
HETATM   11  C28 UNL     1      21.334   0.949  59.318  1.00  0.00     0.016 C 
HETATM   12  C29 UNL     1      19.131   0.754  60.293  1.00  0.00     0.016 C 
ENDROOT
BRANCH   7  13
HETATM   13  C16 UNL     1      18.998   1.987  56.539  1.00  0.00    -0.039 C 
HETATM   14  C17 UNL     1      18.134   2.381  55.347  1.00  0.00     0.015 C 
HETATM   15  C18 UNL     1      18.786   3.140  57.499  1.00  0.00     0.010 C 
HETATM   16  C19 UNL     1      19.244   4.463  56.878  1.00  0.00     0.002 C 
HETATM   17  C20 UNL     1      20.727   4.402  56.903  1.00  0.00     0.014 C 
HETATM   18  C21 UNL     1      21.160   3.303  55.992  1.00  0.00     0.003 C 
HETATM   19  C24 UNL     1      20.408   2.072  55.911  1.00  0.00     0.023 C 
BRANCH  18  20
HETATM   20  C22 UNL     1      21.333   3.974  54.611  1.00  0.00     0.175 C 
BRANCH  20  21
HETATM   21  O3  UNL     1      22.619   3.852  54.146  1.00  0.00    -0.400 OA
ATOM     22  H3  UNL     1      22.773   2.998  53.761  1.00  0.00     0.209 HD
ENDBRANCH  20  21
ENDBRANCH  18  20
BRANCH  18  23
HETATM   23  C23 UNL     1      22.624   3.018  56.401  1.00  0.00     0.175 C 
BRANCH  23  24
HETATM   24  O4  UNL     1      22.928   1.675  56.161  1.00  0.00    -0.400 OA
ATOM     25  H4  UNL     1      23.271   1.576  55.281  1.00  0.00     0.209 HD
ENDBRANCH  23  24
ENDBRANCH  18  23
ENDBRANCH   7  13
BRANCH   1  26
HETATM   26  C7  UNL     1      21.633  -0.698  61.144  1.00  0.00     0.017 C 
BRANCH  26  27
HETATM   27  C6  UNL     1      22.952  -1.343  61.182  1.00  0.00     0.001 C 
BRANCH  27  28
HETATM   28  C5  UNL     1      24.194  -0.663  61.555  1.00  0.00     0.003 C 
BRANCH  28  29
HETATM   29  C4  UNL     1      24.869   0.156  60.474  1.00  0.00     0.037 C 
BRANCH  29  30
HETATM   30  C2  UNL     1      24.929   1.580  61.007  1.00  0.00     0.051 C 
HETATM   31  C1  UNL     1      24.109   1.762  62.251  1.00  0.00     0.045 C 
HETATM   32  C3  UNL     1      26.355   2.033  61.214  1.00  0.00     0.045 C 
BRANCH  30  33
HETATM   33  O1  UNL     1      24.350   2.389  60.013  1.00  0.00    -0.391 OA
ATOM     34  H1  UNL     1      23.893   1.810  59.415  1.00  0.00     0.210 HD
ENDBRANCH  30  33
ENDBRANCH  29  30
ENDBRANCH  28  29
ENDBRANCH  27  28
ENDBRANCH  26  27
ENDBRANCH   1  26
BRANCH   1  35
HETATM   35  C9  UNL     1      19.578  -1.816  60.922  1.00  0.00     0.241 C 
HETATM   36  O2  UNL     1      19.802  -2.459  61.970  1.00  0.00    -0.306 OA
ENDBRANCH   1  35
TORSDOF 12
ENDMDL
MODEL 2
REMARK VINA RESULT: -7.467676491      2.903      5.333
REMARK  12 active torsions:
REMARK  status: ('A' for Active; 'I' for Inactive)
REMARK    1  A    between atoms: C2_2  and  O1_4 
REMARK    2  A    between atoms: C2_2  and  C4_6 
REMARK    3  A    between atoms: C4_6  and  C5_7 
REMARK    4  A    between atoms: C5_7  and  C6_8 
REMARK    5  A    between atoms: C6_8  and  C7_9 
REMARK    6  A    between atoms: C7_9  and  C8_10 
REMARK    7  A    between atoms: C8_10  and  C9_11 
REMARK    8  A    between atoms: C15_18  and  C16_19 
REMARK    9  A    between atoms: C21_24  and  C22_25 
REMARK   10  A    between atoms: C21_24  and  C23_28 
REMARK   11  A    between atoms: C22_25  and  O3_26 
REMARK   12  A    between atoms: C23_28  and  O4_29 
ROOT
HETATM    1  C8  UNL     1      22.717   0.405  60.462  1.00  0.00     0.021 C 
HETATM    2  C10 UNL     1      23.028   1.276  59.286  1.00  0.00     0.018 C 
HETATM    3  C11 UNL     1      22.354   1.040  58.008  1.00  0.00     0.006 C 
HETATM    4  C12 UNL     1      21.137   0.205  57.997  1.00  0.00    -0.005 C 
HETATM    5  C13 UNL     1      21.122  -0.531  56.689  1.00  0.00     0.006 C 
HETATM    6  C14 UNL     1      20.382  -1.769  56.985  1.00  0.00     0.006 C 
HETATM    7  C15 UNL     1      20.144  -1.834  58.523  1.00  0.00     0.003 C 
HETATM    8  C25 UNL     1      21.167  -0.973  58.971  1.00  0.00    -0.028 C 
HETATM    9  C26 UNL     1      22.484  -1.711  58.603  1.00  0.00     0.016 C 
HETATM   10  C27 UNL     1      21.408  -0.396  60.297  1.00  0.00    -0.026 C 
HETATM   11  C28 UNL     1      20.394   0.682  60.686  1.00  0.00     0.016 C 
HETATM   12  C29 UNL     1      21.407  -1.382  61.431  1.00  0.00     0.016 C 
ENDROOT
BRANCH   7  13
HETATM   13  C16 UNL     1      18.703  -1.980  58.610  1.00  0.00    -0.039 C 
HETATM   14  C17 UNL     1      18.047  -2.116  59.980  1.00  0.00     0.015 C 
HETATM   15  C18 UNL     1      17.882  -0.887  57.956  1.00  0.00     0.010 C 
HETATM   16  C19 UNL     1      16.410  -1.298  57.844  1.00  0.00     0.002 C 
HETATM   17  C20 UNL     1      16.379  -2.305  56.754  1.00  0.00     0.014 C 
HETATM   18  C21 UNL     1      17.148  -3.501  57.206  1.00  0.00     0.003 C 
HETATM   19  C24 UNL     1      18.353  -3.351  57.988  1.00  0.00     0.023 C 
BRANCH  18  20
HETATM   20  C22 UNL     1      16.106  -4.404  57.903  1.00  0.00     0.175 C 
BRANCH  20  21
HETATM   21  O3  UNL     1      16.447  -5.731  57.816  1.00  0.00    -0.400 OA
ATOM     22  H3  UNL     1      15.691  -6.295  57.927  1.00  0.00     0.209 HD
ENDBRANCH  20  21
ENDBRANCH  18  20
BRANCH  18  23
HETATM   23  C23 UNL     1      17.440  -4.285  55.905  1.00  0.00     0.175 C 
BRANCH  23  24
HETATM   24  O4  UNL     1      16.333  -4.216  55.054  1.00  0.00    -0.400 OA
ATOM     25  H4  UNL     1      16.622  -4.057  54.164  1.00  0.00     0.209 HD
ENDBRANCH  23  24
ENDBRANCH  18  23
ENDBRANCH   7  13
BRANCH   1  26
HETATM   26  C7  UNL     1      22.586   1.389  61.599  1.00  0.00     0.017 C 
BRANCH  26  27
HETATM   27  C6  UNL     1      23.766   2.148  62.033  1.00  0.00     0.001 C 
BRANCH  27  28
HETATM   28  C5  UNL     1      24.337   3.278  61.298  1.00  0.00     0.003 C 
BRANCH  28  29
HETATM   29  C4  UNL     1      25.809   3.187  60.950  1.00  0.00     0.037 C 
BRANCH  29  30
HETATM   30  C2  UNL     1      26.114   4.415  60.105  1.00  0.00     0.051 C 
HETATM   31  C1  UNL     1      24.910   4.910  59.357  1.00  0.00     0.045 C 
HETATM   32  C3  UNL     1      26.740   5.512  60.932  1.00  0.00     0.045 C 
BRANCH  30  33
HETATM   33  O1  UNL     1      27.052   3.999  59.143  1.00  0.00    -0.391 OA
ATOM     34  H1  UNL     1      27.840   3.753  59.613  1.00  0.00     0.210 HD
ENDBRANCH  30  33
ENDBRANCH  29  30
ENDBRANCH  28  29
ENDBRANCH  27  28
ENDBRANCH  26  27
ENDBRANCH   1  26
BRANCH   1  35
HETATM   35  C9  UNL     1      23.858  -0.446  60.865  1.00  0.00     0.241 C 
HETATM   36  O2  UNL     1      25.040  -0.257  60.508  1.00  0.00    -0.306 OA
ENDBRANCH   1  35
TORSDOF 12
ENDMDL
MODEL 3
REMARK VINA RESULT: -7.416530079      2.874      5.306
REMARK  12 active torsions:
REMARK  status: ('A' for Active; 'I' for Inactive)
REMARK    1  A    between atoms: C2_2  and  O1_4 
REMARK    2  A    between atoms: C2_2  and  C4_6 
REMARK    3  A    between atoms: C4_6  and  C5_7 
REMARK    4  A    between atoms: C5_7  and  C6_8 
REMARK    5  A    between atoms: C6_8  and  C7_9 
REMARK    6  A    between atoms: C7_9  and  C8_10 
REMARK    7  A    between atoms: C8_10  and  C9_11 
REMARK    8  A    between atoms: C15_18  and  C16_19 
REMARK    9  A    between atoms: C21_24  and  C22_25 
REMARK   10  A    between atoms: C21_24  and  C23_28 
REMARK   11  A    between atoms: C22_25  and  O3_26 
REMARK   12  A    between atoms: C23_28  and  O4_29 
ROOT
HETATM    1  C8  UNL     1      22.026  -0.170  60.591  1.00  0.00     0.021 C 
HETATM    2  C10 UNL     1      22.679   0.301  59.330  1.00  0.00     0.018 C 
HETATM    3  C11 UNL     1      22.126  -0.096  58.034  1.00  0.00     0.006 C 
HETATM    4  C12 UNL     1      20.753  -0.634  57.989  1.00  0.00    -0.005 C 
HETATM    5  C13 UNL     1      20.716  -1.649  56.883  1.00  0.00     0.006 C 
HETATM    6  C14 UNL     1      19.665  -2.593  57.300  1.00  0.00     0.006 C 
HETATM    7  C15 UNL     1      19.236  -2.226  58.752  1.00  0.00     0.003 C 
HETATM    8  C25 UNL     1      20.377  -1.516  59.180  1.00  0.00    -0.028 C 
HETATM    9  C26 UNL     1      21.508  -2.581  59.210  1.00  0.00     0.016 C 
HETATM   10  C27 UNL     1      20.591  -0.694  60.374  1.00  0.00    -0.026 C 
HETATM   11  C28 UNL     1      19.831   0.634  60.345  1.00  0.00     0.016 C 
HETATM   12  C29 UNL     1      20.212  -1.349  61.674  1.00  0.00     0.016 C 
ENDROOT
BRANCH   7  13
HETATM   13  C16 UNL     1      17.803  -2.041  58.617  1.00  0.00    -0.039 C 
HETATM   14  C17 UNL     1      16.978  -1.674  59.846  1.00  0.00     0.015 C 
HETATM   15  C18 UNL     1      17.357  -1.012  57.598  1.00  0.00     0.010 C 
HETATM   16  C19 UNL     1      15.854  -1.123  57.327  1.00  0.00     0.002 C 
HETATM   17  C20 UNL     1      15.705  -2.351  56.507  1.00  0.00     0.014 C 
HETATM   18  C21 UNL     1      16.098  -3.520  57.347  1.00  0.00     0.003 C 
HETATM   19  C24 UNL     1      17.203  -3.423  58.273  1.00  0.00     0.023 C 
BRANCH  18  20
HETATM   20  C22 UNL     1      14.793  -3.971  58.039  1.00  0.00     0.175 C 
BRANCH  20  21
HETATM   21  O3  UNL     1      15.043  -4.584  59.242  1.00  0.00    -0.400 OA
ATOM     22  H3  UNL     1      14.246  -4.711  59.743  1.00  0.00     0.209 HD
ENDBRANCH  20  21
ENDBRANCH  18  20
BRANCH  18  23
HETATM   23  C23 UNL     1      16.340  -4.660  56.331  1.00  0.00     0.175 C 
BRANCH  23  24
HETATM   24  O4  UNL     1      17.084  -4.178  55.250  1.00  0.00    -0.400 OA
ATOM     25  H4  UNL     1      17.963  -4.538  55.279  1.00  0.00     0.209 HD
ENDBRANCH  23  24
ENDBRANCH  18  23
ENDBRANCH   7  13
BRANCH   1  26
HETATM   26  C7  UNL     1      22.004   1.068  61.454  1.00  0.00     0.017 C 
BRANCH  26  27
HETATM   27  C6  UNL     1      23.271   1.637  61.930  1.00  0.00     0.001 C 
BRANCH  27  28
HETATM   28  C5  UNL     1      23.795   2.942  61.523  1.00  0.00     0.003 C 
BRANCH  28  29
HETATM   29  C4  UNL     1      25.132   2.944  60.809  1.00  0.00     0.037 C 
BRANCH  29  30
HETATM   30  C2  UNL     1      25.033   4.023  59.741  1.00  0.00     0.051 C 
HETATM   31  C1  UNL     1      23.981   3.718  58.714  1.00  0.00     0.045 C 
HETATM   32  C3  UNL     1      24.827   5.388  60.354  1.00  0.00     0.045 C 
BRANCH  30  33
HETATM   33  O1  UNL     1      26.270   4.022  59.074  1.00  0.00    -0.391 OA
ATOM     34  H1  UNL     1      26.941   4.154  59.734  1.00  0.00     0.210 HD
ENDBRANCH  30  33
ENDBRANCH  29  30
ENDBRANCH  28  29
ENDBRANCH  27  28
ENDBRANCH  26  27
ENDBRANCH   1  26
BRANCH   1  35
HETATM   35  C9  UNL     1      22.867  -1.115  61.357  1.00  0.00     0.241 C 
HETATM   36  O2  UNL     1      24.103  -1.232  61.217  1.00  0.00    -0.306 OA
ENDBRANCH   1  35
TORSDOF 12
ENDMDL
MODEL 4
REMARK VINA RESULT: -7.385842465      2.562      4.589
REMARK  12 active torsions:
REMARK  status: ('A' for Active; 'I' for Inactive)
REMARK    1  A    between atoms: C2_2  and  O1_4 
REMARK    2  A    between atoms: C2_2  and  C4_6 
REMARK    3  A    between atoms: C4_6  and  C5_7 
REMARK    4  A    between atoms: C5_7  and  C6_8 
REMARK    5  A    between atoms: C6_8  and  C7_9 
REMARK    6  A    between atoms: C7_9  and  C8_10 
REMARK    7  A    between atoms: C8_10  and  C9_11 
REMARK    8  A    between atoms: C15_18  and  C16_19 
REMARK    9  A    between atoms: C21_24  and  C22_25 
REMARK   10  A    between atoms: C21_24  and  C23_28 
REMARK   11  A    between atoms: C22_25  and  O3_26 
REMARK   12  A    between atoms: C23_28  and  O4_29 
ROOT
HETATM    1  C8  UNL     1      23.395   0.620  60.839  1.00  0.00     0.021 C 
HETATM    2  C10 UNL     1      23.875  -0.512  61.692  1.00  0.00     0.018 C 
HETATM    3  C11 UNL     1      23.070  -1.730  61.803  1.00  0.00     0.006 C 
HETATM    4  C12 UNL     1      22.007  -1.965  60.807  1.00  0.00    -0.005 C 
HETATM    5  C13 UNL     1      20.899  -2.692  61.511  1.00  0.00     0.006 C 
HETATM    6  C14 UNL     1      19.687  -2.299  60.773  1.00  0.00     0.006 C 
HETATM    7  C15 UNL     1      20.080  -1.180  59.762  1.00  0.00     0.003 C 
HETATM    8  C25 UNL     1      21.264  -0.704  60.362  1.00  0.00    -0.028 C 
HETATM    9  C26 UNL     1      20.794  -0.073  61.701  1.00  0.00     0.016 C 
HETATM   10  C27 UNL     1      22.289   0.208  59.846  1.00  0.00    -0.026 C 
HETATM   11  C28 UNL     1      23.151  -0.406  58.740  1.00  0.00     0.016 C 
HETATM   12  C29 UNL     1      21.766   1.500  59.282  1.00  0.00     0.016 C 
ENDROOT
BRANCH   7  13
HETATM   13  C16 UNL     1      19.622  -1.727  58.498  1.00  0.00    -0.039 C 
HETATM   14  C17 UNL     1      20.568  -2.589  57.669  1.00  0.00     0.015 C 
HETATM   15  C18 UNL     1      18.365  -2.571  58.553  1.00  0.00     0.010 C 
HETATM   16  C19 UNL     1      17.815  -2.830  57.148  1.00  0.00     0.002 C 
HETATM   17  C20 UNL     1      17.215  -1.537  56.730  1.00  0.00     0.014 C 
HETATM   18  C21 UNL     1      18.314  -0.536  56.606  1.00  0.00     0.003 C 
HETATM   19  C24 UNL     1      19.415  -0.530  57.542  1.00  0.00     0.023 C 
BRANCH  18  20
HETATM   20  C22 UNL     1      18.791  -0.648  55.141  1.00  0.00     0.175 C 
BRANCH  20  21
HETATM   21  O3  UNL     1      20.139  -0.412  55.028  1.00  0.00    -0.400 OA
ATOM     22  H3  UNL     1      20.650  -1.180  55.256  1.00  0.00     0.209 HD
ENDBRANCH  20  21
ENDBRANCH  18  20
BRANCH  18  23
HETATM   23  C23 UNL     1      17.591   0.831  56.610  1.00  0.00     0.175 C 
BRANCH  23  24
HETATM   24  O4  UNL     1      18.361   1.774  55.924  1.00  0.00    -0.400 OA
ATOM     25  H4  UNL     1      19.075   2.069  56.477  1.00  0.00     0.209 HD
ENDBRANCH  23  24
ENDBRANCH  18  23
ENDBRANCH   7  13
BRANCH   1  26
HETATM   26  C7  UNL     1      24.636   1.044  60.092  1.00  0.00     0.017 C 
BRANCH  26  27
HETATM   27  C6  UNL     1      25.915   1.128  60.809  1.00  0.00     0.001 C 
BRANCH  27  28
HETATM   28  C5  UNL     1      26.592   2.382  61.145  1.00  0.00     0.003 C 
BRANCH  28  29
HETATM   29  C4  UNL     1      25.894   3.662  60.731  1.00  0.00     0.037 C 
BRANCH  29  30
HETATM   30  C2  UNL     1      26.986   4.578  60.197  1.00  0.00     0.051 C 
HETATM   31  C1  UNL     1      26.457   5.921  59.787  1.00  0.00     0.045 C 
HETATM   32  C3  UNL     1      28.125   4.710  61.180  1.00  0.00     0.045 C 
BRANCH  30  33
HETATM   33  O1  UNL     1      27.478   3.958  59.035  1.00  0.00    -0.391 OA
ATOM     34  H1  UNL     1      27.615   3.042  59.247  1.00  0.00     0.210 HD
ENDBRANCH  30  33
ENDBRANCH  29  30
ENDBRANCH  28  29
ENDBRANCH  27  28
ENDBRANCH  26  27
ENDBRANCH   1  26
BRANCH   1  35
HETATM   35  C9  UNL     1      23.034   1.820  61.626  1.00  0.00     0.241 C 
HETATM   36  O2  UNL     1      23.436   2.049  62.787  1.00  0.00    -0.306 OA
ENDBRANCH   1  35
TORSDOF 12
ENDMDL
MODEL 5
REMARK VINA RESULT: -7.314705684      2.613      6.592
REMARK  12 active torsions:
REMARK  status: ('A' for Active; 'I' for Inactive)
REMARK    1  A    between atoms: C2_2  and  O1_4 
REMARK    2  A    between atoms: C2_2  and  C4_6 
REMARK    3  A    between atoms: C4_6  and  C5_7 
REMARK    4  A    between atoms: C5_7  and  C6_8 
REMARK    5  A    between atoms: C6_8  and  C7_9 
REMARK    6  A    between atoms: C7_9  and  C8_10 
REMARK    7  A    between atoms: C8_10  and  C9_11 
REMARK    8  A    between atoms: C15_18  and  C16_19 
REMARK    9  A    between atoms: C21_24  and  C22_25 
REMARK   10  A    between atoms: C21_24  and  C23_28 
REMARK   11  A    between atoms: C22_25  and  O3_26 
REMARK   12  A    between atoms: C23_28  and  O4_29 
ROOT
HETATM    1  C8  UNL     1      19.919  -0.874  59.780  1.00  0.00     0.021 C 
HETATM    2  C10 UNL     1      19.971  -2.024  60.735  1.00  0.00     0.018 C 
HETATM    3  C11 UNL     1      21.212  -2.315  61.455  1.00  0.00     0.006 C 
HETATM    4  C12 UNL     1      22.257  -1.274  61.507  1.00  0.00    -0.005 C 
HETATM    5  C13 UNL     1      23.581  -1.981  61.517  1.00  0.00     0.006 C 
HETATM    6  C14 UNL     1      24.503  -1.020  60.889  1.00  0.00     0.006 C 
HETATM    7  C15 UNL     1      23.661   0.167  60.335  1.00  0.00     0.003 C 
HETATM    8  C25 UNL     1      22.398  -0.452  60.225  1.00  0.00    -0.028 C 
HETATM    9  C26 UNL     1      22.589  -1.531  59.125  1.00  0.00     0.016 C 
HETATM   10  C27 UNL     1      21.076   0.128  59.970  1.00  0.00    -0.026 C 
HETATM   11  C28 UNL     1      20.527   0.938  61.148  1.00  0.00     0.016 C 
HETATM   12  C29 UNL     1      21.002   1.044  58.780  1.00  0.00     0.016 C 
ENDROOT
BRANCH   7  13
HETATM   13  C16 UNL     1      24.280   1.314  60.972  1.00  0.00    -0.039 C 
HETATM   14  C17 UNL     1      23.908   1.662  62.409  1.00  0.00     0.015 C 
HETATM   15  C18 UNL     1      25.794   1.319  61.010  1.00  0.00     0.010 C 
HETATM   16  C19 UNL     1      26.330   2.694  61.419  1.00  0.00     0.002 C 
HETATM   17  C20 UNL     1      26.119   3.554  60.227  1.00  0.00     0.014 C 
HETATM   18  C21 UNL     1      24.650   3.689  60.008  1.00  0.00     0.003 C 
HETATM   19  C24 UNL     1      23.764   2.569  60.232  1.00  0.00     0.023 C 
BRANCH  18  20
HETATM   20  C22 UNL     1      24.238   4.933  60.826  1.00  0.00     0.175 C 
BRANCH  20  21
HETATM   21  O3  UNL     1      24.598   6.098  60.194  1.00  0.00    -0.400 OA
ATOM     22  H3  UNL     1      24.864   6.766  60.814  1.00  0.00     0.209 HD
ENDBRANCH  20  21
ENDBRANCH  18  20
BRANCH  18  23
HETATM   23  C23 UNL     1      24.523   4.199  58.554  1.00  0.00     0.175 C 
BRANCH  23  24
HETATM   24  O4  UNL     1      23.172   4.318  58.212  1.00  0.00    -0.400 OA
ATOM     25  H4  UNL     1      23.086   4.399  57.269  1.00  0.00     0.209 HD
ENDBRANCH  23  24
ENDBRANCH  18  23
ENDBRANCH   7  13
BRANCH   1  26
HETATM   26  C7  UNL     1      18.600  -0.214  60.100  1.00  0.00     0.017 C 
BRANCH  26  27
HETATM   27  C6  UNL     1      17.498  -0.298  59.132  1.00  0.00     0.001 C 
BRANCH  27  28
HETATM   28  C5  UNL     1      16.253  -1.032  59.361  1.00  0.00     0.003 C 
BRANCH  28  29
HETATM   29  C4  UNL     1      16.386  -2.466  59.831  1.00  0.00     0.037 C 
BRANCH  29  30
HETATM   30  C2  UNL     1      15.654  -3.313  58.801  1.00  0.00     0.051 C 
HETATM   31  C1  UNL     1      14.745  -2.497  57.929  1.00  0.00     0.045 C 
HETATM   32  C3  UNL     1      16.617  -4.134  57.977  1.00  0.00     0.045 C 
BRANCH  30  33
HETATM   33  O1  UNL     1      14.839  -4.194  59.533  1.00  0.00    -0.391 OA
ATOM     34  H1  UNL     1      14.726  -4.974  59.001  1.00  0.00     0.210 HD
ENDBRANCH  30  33
ENDBRANCH  29  30
ENDBRANCH  28  29
ENDBRANCH  27  28
ENDBRANCH  26  27
ENDBRANCH   1  26
BRANCH   1  35
HETATM   35  C9  UNL     1      19.763  -1.302  58.372  1.00  0.00     0.241 C 
HETATM   36  O2  UNL     1      19.721  -2.493  57.997  1.00  0.00    -0.306 OA
ENDBRANCH   1  35
TORSDOF 12
ENDMDL
