MODEL 1
REMARK VINA RESULT: -6.988215126      0.000      0.000
REMARK  12 active torsions:
REMARK  status: ('A' for Active; 'I' for Inactive)
REMARK    1  A    between atoms: N1_2  and  C4_5 
REMARK    2  A    between atoms: C4_5  and  O1_6 
REMARK    3  A    between atoms: O1_6  and  C5_7 
REMARK    4  A    between atoms: C5_7  and  C6_8 
REMARK    5  A    between atoms: C6_8  and  O2_9 
REMARK    6  A    between atoms: C6_8  and  N2_11 
REMARK    7  A    between atoms: N2_11  and  C7_13 
REMARK    8  A    between atoms: C7_13  and  C8_14 
REMARK    9  A    between atoms: C7_13  and  C10_23 
REMARK   10  A    between atoms: C8_14  and  N3_15 
REMARK       I    between atoms: C9_17  and  N5_19 
REMARK   11  A    between atoms: N5_19  and  O3_21 
REMARK   12  A    between atoms: C10_23  and  C11_24 
ROOT
HETATM    1  C7  UNL     1      25.726 -76.189  12.261  1.00  0.00     0.002 C 
ENDROOT
BRANCH   1   2
HETATM    2  N2  UNL     1      24.691 -77.119  12.029  1.00  0.00    -0.367 N 
ATOM      3  H2  UNL     1      23.746 -76.787  11.838  1.00  0.00     0.161 HD
BRANCH   2   4
HETATM    4  C6  UNL     1      24.951 -78.491  12.057  1.00  0.00     0.241 C 
BRANCH   4   5
HETATM    5  C5  UNL     1      24.215 -79.201  10.906  1.00  0.00     0.223 C 
BRANCH   5   6
HETATM    6  O1  UNL     1      24.671 -80.459  10.713  1.00  0.00    -0.360 OA
BRANCH   6   7
HETATM    7  C4  UNL     1      24.912 -80.791   9.429  1.00  0.00     0.403 C 
BRANCH   7   8
HETATM    8  N1  UNL     1      26.166 -81.367   9.072  1.00  0.00    -0.058 N 
HETATM    9  C1  UNL     1      26.139 -82.328   8.014  1.00  0.00     0.274 C 
HETATM   10  C2  UNL     1      26.781 -81.994  10.253  1.00  0.00     0.274 C 
HETATM   11  C3  UNL     1      27.119 -80.305   8.659  1.00  0.00     0.274 C 
ENDBRANCH   7   8
ENDBRANCH   6   7
ENDBRANCH   5   6
ENDBRANCH   4   5
BRANCH   4  12
HETATM   12  O2  UNL     1      24.623 -79.207  13.184  1.00  0.00    -0.375 OA
ATOM     13  H2  UNL     1      23.930 -79.794  12.909  1.00  0.00     0.212 HD
ENDBRANCH   4  12
ENDBRANCH   2   4
ENDBRANCH   1   2
BRANCH   1  14
HETATM   14  C8  UNL     1      25.713 -75.521  13.618  1.00  0.00     0.174 C 
BRANCH  14  15
HETATM   15  N3  UNL     1      24.417 -75.263  14.149  1.00  0.00    -0.358 N 
HETATM   16  C9  UNL     1      23.814 -75.995  15.016  1.00  0.00     0.208 C 
HETATM   17  N4  UNL     1      22.522 -75.587  15.436  1.00  0.00    -0.062 NA
HETATM   18  N5  UNL     1      24.350 -77.181  15.580  1.00  0.00    -0.241 N 
ATOM     19  H5  UNL     1      25.355 -77.231  15.746  1.00  0.00     0.197 HD
ATOM     20  H3  UNL     1      23.930 -74.431  13.816  1.00  0.00     0.162 HD
BRANCH  18  21
HETATM   21  O3  UNL     1      23.586 -78.248  15.906  1.00  0.00    -0.287 OA
ATOM     22  H3  UNL     1      23.619 -78.663  16.760  1.00  0.00     0.244 HD
ENDBRANCH  18  21
ENDBRANCH  14  15
ENDBRANCH   1  14
BRANCH   1  23
HETATM   23  C10 UNL     1      25.997 -75.265  11.120  1.00  0.00     0.058 C 
BRANCH  23  24
HETATM   24  C11 UNL     1      27.245 -75.626  10.319  1.00  0.00    -0.009 C 
HETATM   25  C12 UNL     1      27.013 -76.751   9.372  1.00  0.00     0.005 C 
HETATM   26  C13 UNL     1      27.788 -76.445   8.090  1.00  0.00     0.000 C 
HETATM   27  C14 UNL     1      26.987 -75.336   7.391  1.00  0.00     0.000 C 
HETATM   28  C15 UNL     1      26.886 -74.142   8.316  1.00  0.00     0.000 C 
HETATM   29  C16 UNL     1      27.674 -74.367   9.591  1.00  0.00     0.005 C 
ENDBRANCH  23  24
ENDBRANCH   1  23
TORSDOF 12
ENDMDL
MODEL 2
REMARK VINA RESULT: -6.826297877      2.629      5.340
REMARK  12 active torsions:
REMARK  status: ('A' for Active; 'I' for Inactive)
REMARK    1  A    between atoms: N1_2  and  C4_5 
REMARK    2  A    between atoms: C4_5  and  O1_6 
REMARK    3  A    between atoms: O1_6  and  C5_7 
REMARK    4  A    between atoms: C5_7  and  C6_8 
REMARK    5  A    between atoms: C6_8  and  O2_9 
REMARK    6  A    between atoms: C6_8  and  N2_11 
REMARK    7  A    between atoms: N2_11  and  C7_13 
REMARK    8  A    between atoms: C7_13  and  C8_14 
REMARK    9  A    between atoms: C7_13  and  C10_23 
REMARK   10  A    between atoms: C8_14  and  N3_15 
REMARK       I    between atoms: C9_17  and  N5_19 
REMARK   11  A    between atoms: N5_19  and  O3_21 
REMARK   12  A    between atoms: C10_23  and  C11_24 
ROOT
HETATM    1  C7  UNL     1      24.636 -78.097  12.948  1.00  0.00     0.002 C 
ENDROOT
BRANCH   1   2
HETATM    2  N2  UNL     1      23.928 -77.612  11.829  1.00  0.00    -0.367 N 
ATOM      3  H2  UNL     1      22.993 -77.966  11.630  1.00  0.00     0.161 HD
BRANCH   2   4
HETATM    4  C6  UNL     1      24.496 -76.649  10.993  1.00  0.00     0.241 C 
BRANCH   4   5
HETATM    5  C5  UNL     1      24.367 -77.074   9.518  1.00  0.00     0.223 C 
BRANCH   5   6
HETATM    6  O1  UNL     1      25.282 -78.009   9.178  1.00  0.00    -0.360 OA
BRANCH   6   7
HETATM    7  C4  UNL     1      25.718 -77.948   7.904  1.00  0.00     0.403 C 
BRANCH   7   8
HETATM    8  N1  UNL     1      27.116 -78.006   7.633  1.00  0.00    -0.058 N 
HETATM    9  C1  UNL     1      27.918 -76.990   8.241  1.00  0.00     0.274 C 
HETATM   10  C2  UNL     1      27.344 -77.969   6.179  1.00  0.00     0.274 C 
HETATM   11  C3  UNL     1      27.672 -79.310   8.077  1.00  0.00     0.274 C 
ENDBRANCH   7   8
ENDBRANCH   6   7
ENDBRANCH   5   6
ENDBRANCH   4   5
BRANCH   4  12
HETATM   12  O2  UNL     1      25.823 -76.326  11.155  1.00  0.00    -0.375 OA
ATOM     13  H2  UNL     1      26.046 -76.632  12.026  1.00  0.00     0.212 HD
ENDBRANCH   4  12
ENDBRANCH   2   4
ENDBRANCH   1   2
BRANCH   1  14
HETATM   14  C8  UNL     1      25.350 -79.416  12.748  1.00  0.00     0.174 C 
BRANCH  14  15
HETATM   15  N3  UNL     1      25.170 -80.009  11.466  1.00  0.00    -0.358 N 
HETATM   16  C9  UNL     1      25.682 -81.127  11.091  1.00  0.00     0.208 C 
HETATM   17  N4  UNL     1      25.399 -81.571   9.774  1.00  0.00    -0.062 NA
HETATM   18  N5  UNL     1      26.508 -81.946  11.903  1.00  0.00    -0.241 N 
ATOM     19  H5  UNL     1      26.322 -81.987  12.905  1.00  0.00     0.197 HD
ATOM     20  H3  UNL     1      24.591 -79.508  10.793  1.00  0.00     0.162 HD
BRANCH  18  21
HETATM   21  O3  UNL     1      27.533 -82.675  11.405  1.00  0.00    -0.287 OA
ATOM     22  H3  UNL     1      28.084 -83.226  11.948  1.00  0.00     0.244 HD
ENDBRANCH  18  21
ENDBRANCH  14  15
ENDBRANCH   1  14
BRANCH   1  23
HETATM   23  C10 UNL     1      23.904 -77.980  14.244  1.00  0.00     0.058 C 
BRANCH  23  24
HETATM   24  C11 UNL     1      24.393 -76.834  15.125  1.00  0.00    -0.009 C 
HETATM   25  C12 UNL     1      25.609 -76.171  14.580  1.00  0.00     0.005 C 
HETATM   26  C13 UNL     1      25.475 -74.670  14.839  1.00  0.00     0.000 C 
HETATM   27  C14 UNL     1      24.427 -74.180  13.829  1.00  0.00     0.000 C 
HETATM   28  C15 UNL     1      23.134 -74.933  14.055  1.00  0.00     0.000 C 
HETATM   29  C16 UNL     1      23.238 -75.858  15.251  1.00  0.00     0.005 C 
ENDBRANCH  23  24
ENDBRANCH   1  23
TORSDOF 12
ENDMDL
MODEL 3
REMARK VINA RESULT: -6.795179918      2.840      5.340
REMARK  12 active torsions:
REMARK  status: ('A' for Active; 'I' for Inactive)
REMARK    1  A    between atoms: N1_2  and  C4_5 
REMARK    2  A    between atoms: C4_5  and  O1_6 
REMARK    3  A    between atoms: O1_6  and  C5_7 
REMARK    4  A    between atoms: C5_7  and  C6_8 
REMARK    5  A    between atoms: C6_8  and  O2_9 
REMARK    6  A    between atoms: C6_8  and  N2_11 
REMARK    7  A    between atoms: N2_11  and  C7_13 
REMARK    8  A    between atoms: C7_13  and  C8_14 
REMARK    9  A    between atoms: C7_13  and  C10_23 
REMARK   10  A    between atoms: C8_14  and  N3_15 
REMARK       I    between atoms: C9_17  and  N5_19 
REMARK   11  A    between atoms: N5_19  and  O3_21 
REMARK   12  A    between atoms: C10_23  and  C11_24 
ROOT
HETATM    1  C7  UNL     1      25.740 -76.617  11.105  1.00  0.00     0.002 C 
ENDROOT
BRANCH   1   2
HETATM    2  N2  UNL     1      25.681 -77.987  10.780  1.00  0.00    -0.367 N 
ATOM      3  H2  UNL     1      26.231 -78.346  10.000  1.00  0.00     0.161 HD
BRANCH   2   4
HETATM    4  C6  UNL     1      24.875 -78.857  11.517  1.00  0.00     0.241 C 
BRANCH   4   5
HETATM    5  C5  UNL     1      25.581 -80.214  11.706  1.00  0.00     0.223 C 
BRANCH   5   6
HETATM    6  O1  UNL     1      25.244 -81.099  10.741  1.00  0.00    -0.360 OA
BRANCH   6   7
HETATM    7  C4  UNL     1      26.265 -81.525   9.972  1.00  0.00     0.403 C 
BRANCH   7   8
HETATM    8  N1  UNL     1      26.348 -81.105   8.613  1.00  0.00    -0.058 N 
HETATM    9  C1  UNL     1      27.257 -80.036   8.338  1.00  0.00     0.274 C 
HETATM   10  C2  UNL     1      25.014 -80.716   8.128  1.00  0.00     0.274 C 
HETATM   11  C3  UNL     1      26.755 -82.243   7.748  1.00  0.00     0.274 C 
ENDBRANCH   7   8
ENDBRANCH   6   7
ENDBRANCH   5   6
ENDBRANCH   4   5
BRANCH   4  12
HETATM   12  O2  UNL     1      23.624 -79.171  11.040  1.00  0.00    -0.375 OA
ATOM     13  H2  UNL     1      23.191 -78.335  10.918  1.00  0.00     0.212 HD
ENDBRANCH   4  12
ENDBRANCH   2   4
ENDBRANCH   1   2
BRANCH   1  14
HETATM   14  C8  UNL     1      26.798 -75.817  10.379  1.00  0.00     0.174 C 
BRANCH  14  15
HETATM   15  N3  UNL     1      26.448 -75.412   9.060  1.00  0.00    -0.358 N 
HETATM   16  C9  UNL     1      27.008 -74.458   8.406  1.00  0.00     0.208 C 
HETATM   17  N4  UNL     1      26.530 -74.189   7.098  1.00  0.00    -0.062 NA
HETATM   18  N5  UNL     1      28.069 -73.657   8.902  1.00  0.00    -0.241 N 
ATOM     19  H5  UNL     1      28.760 -74.088   9.516  1.00  0.00     0.197 HD
ATOM     20  H3  UNL     1      25.693 -75.918   8.598  1.00  0.00     0.162 HD
BRANCH  18  21
HETATM   21  O3  UNL     1      28.202 -72.347   8.596  1.00  0.00    -0.287 OA
ATOM     22  H3  UNL     1      28.807 -71.772   9.050  1.00  0.00     0.244 HD
ENDBRANCH  18  21
ENDBRANCH  14  15
ENDBRANCH   1  14
BRANCH   1  23
HETATM   23  C10 UNL     1      25.634 -76.321  12.565  1.00  0.00     0.058 C 
BRANCH  23  24
HETATM   24  C11 UNL     1      24.528 -75.328  12.913  1.00  0.00    -0.009 C 
HETATM   25  C12 UNL     1      23.207 -75.987  13.105  1.00  0.00     0.005 C 
HETATM   26  C13 UNL     1      22.502 -75.282  14.264  1.00  0.00     0.000 C 
HETATM   27  C14 UNL     1      23.227 -75.764  15.529  1.00  0.00     0.000 C 
HETATM   28  C15 UNL     1      24.693 -75.402  15.426  1.00  0.00     0.000 C 
HETATM   29  C16 UNL     1      24.974 -74.603  14.169  1.00  0.00     0.005 C 
ENDBRANCH  23  24
ENDBRANCH   1  23
TORSDOF 12
ENDMDL
MODEL 4
REMARK VINA RESULT: -6.790260594      3.013      6.850
REMARK  12 active torsions:
REMARK  status: ('A' for Active; 'I' for Inactive)
REMARK    1  A    between atoms: N1_2  and  C4_5 
REMARK    2  A    between atoms: C4_5  and  O1_6 
REMARK    3  A    between atoms: O1_6  and  C5_7 
REMARK    4  A    between atoms: C5_7  and  C6_8 
REMARK    5  A    between atoms: C6_8  and  O2_9 
REMARK    6  A    between atoms: C6_8  and  N2_11 
REMARK    7  A    between atoms: N2_11  and  C7_13 
REMARK    8  A    between atoms: C7_13  and  C8_14 
REMARK    9  A    between atoms: C7_13  and  C10_23 
REMARK   10  A    between atoms: C8_14  and  N3_15 
REMARK       I    between atoms: C9_17  and  N5_19 
REMARK   11  A    between atoms: N5_19  and  O3_21 
REMARK   12  A    between atoms: C10_23  and  C11_24 
ROOT
HETATM    1  C7  UNL     1      25.298 -77.579  11.323  1.00  0.00     0.002 C 
ENDROOT
BRANCH   1   2
HETATM    2  N2  UNL     1      26.380 -76.956  10.669  1.00  0.00    -0.367 N 
ATOM      3  H2  UNL     1      27.049 -77.522  10.148  1.00  0.00     0.161 HD
BRANCH   2   4
HETATM    4  C6  UNL     1      26.542 -75.570  10.728  1.00  0.00     0.241 C 
BRANCH   4   5
HETATM    5  C5  UNL     1      27.394 -75.077   9.543  1.00  0.00     0.223 C 
BRANCH   5   6
HETATM    6  O1  UNL     1      26.851 -73.993   8.945  1.00  0.00    -0.360 OA
BRANCH   6   7
HETATM    7  C4  UNL     1      27.726 -73.022   8.618  1.00  0.00     0.403 C 
BRANCH   7   8
HETATM    8  N1  UNL     1      27.300 -71.934   7.802  1.00  0.00    -0.058 N 
HETATM    9  C1  UNL     1      26.934 -70.735   8.490  1.00  0.00     0.274 C 
HETATM   10  C2  UNL     1      26.164 -72.353   6.965  1.00  0.00     0.274 C 
HETATM   11  C3  UNL     1      28.371 -71.564   6.840  1.00  0.00     0.274 C 
ENDBRANCH   7   8
ENDBRANCH   6   7
ENDBRANCH   5   6
ENDBRANCH   4   5
BRANCH   4  12
HETATM   12  O2  UNL     1      27.127 -75.015  11.842  1.00  0.00    -0.375 OA
ATOM     13  H2  UNL     1      26.409 -74.855  12.443  1.00  0.00     0.212 HD
ENDBRANCH   4  12
ENDBRANCH   2   4
ENDBRANCH   1   2
BRANCH   1  14
HETATM   14  C8  UNL     1      24.824 -78.879  10.712  1.00  0.00     0.174 C 
BRANCH  14  15
HETATM   15  N3  UNL     1      24.956 -80.022  11.550  1.00  0.00    -0.358 N 
HETATM   16  C9  UNL     1      25.704 -81.038  11.302  1.00  0.00     0.208 C 
HETATM   17  N4  UNL     1      25.715 -82.093  12.250  1.00  0.00    -0.062 NA
HETATM   18  N5  UNL     1      26.518 -81.175  10.149  1.00  0.00    -0.241 N 
ATOM     19  H5  UNL     1      26.952 -80.340   9.756  1.00  0.00     0.197 HD
ATOM     20  H3  UNL     1      24.415 -80.037  12.413  1.00  0.00     0.162 HD
BRANCH  18  21
HETATM   21  O3  UNL     1      26.742 -82.365   9.548  1.00  0.00    -0.287 OA
ATOM     22  H3  UNL     1      27.383 -82.479   8.855  1.00  0.00     0.244 HD
ENDBRANCH  18  21
ENDBRANCH  14  15
ENDBRANCH   1  14
BRANCH   1  23
HETATM   23  C10 UNL     1      24.201 -76.651  11.730  1.00  0.00     0.058 C 
BRANCH  23  24
HETATM   24  C11 UNL     1      23.859 -76.717  13.216  1.00  0.00    -0.009 C 
HETATM   25  C12 UNL     1      25.038 -77.048  14.062  1.00  0.00     0.005 C 
HETATM   26  C13 UNL     1      24.938 -76.219  15.342  1.00  0.00     0.000 C 
HETATM   27  C14 UNL     1      25.301 -74.787  14.924  1.00  0.00     0.000 C 
HETATM   28  C15 UNL     1      24.339 -74.327  13.850  1.00  0.00     0.000 C 
HETATM   29  C16 UNL     1      23.270 -75.369  13.587  1.00  0.00     0.005 C 
ENDBRANCH  23  24
ENDBRANCH   1  23
TORSDOF 12
ENDMDL
MODEL 5
REMARK VINA RESULT: -6.758588242      2.915      5.613
REMARK  12 active torsions:
REMARK  status: ('A' for Active; 'I' for Inactive)
REMARK    1  A    between atoms: N1_2  and  C4_5 
REMARK    2  A    between atoms: C4_5  and  O1_6 
REMARK    3  A    between atoms: O1_6  and  C5_7 
REMARK    4  A    between atoms: C5_7  and  C6_8 
REMARK    5  A    between atoms: C6_8  and  O2_9 
REMARK    6  A    between atoms: C6_8  and  N2_11 
REMARK    7  A    between atoms: N2_11  and  C7_13 
REMARK    8  A    between atoms: C7_13  and  C8_14 
REMARK    9  A    between atoms: C7_13  and  C10_23 
REMARK   10  A    between atoms: C8_14  and  N3_15 
REMARK       I    between atoms: C9_17  and  N5_19 
REMARK   11  A    between atoms: N5_19  and  O3_21 
REMARK   12  A    between atoms: C10_23  and  C11_24 
ROOT
HETATM    1  C7  UNL     1      25.247 -77.576  11.389  1.00  0.00     0.002 C 
ENDROOT
BRANCH   1   2
HETATM    2  N2  UNL     1      26.333 -76.920  10.774  1.00  0.00    -0.367 N 
ATOM      3  H2  UNL     1      27.024 -77.462  10.256  1.00  0.00     0.161 HD
BRANCH   2   4
HETATM    4  C6  UNL     1      26.468 -75.533  10.868  1.00  0.00     0.241 C 
BRANCH   4   5
HETATM    5  C5  UNL     1      27.205 -74.980   9.633  1.00  0.00     0.223 C 
BRANCH   5   6
HETATM    6  O1  UNL     1      27.865 -75.950   8.960  1.00  0.00    -0.360 OA
BRANCH   6   7
HETATM    7  C4  UNL     1      27.592 -76.021   7.643  1.00  0.00     0.403 C 
BRANCH   7   8
HETATM    8  N1  UNL     1      27.625 -77.283   6.982  1.00  0.00    -0.058 N 
HETATM    9  C1  UNL     1      27.618 -77.247   5.552  1.00  0.00     0.274 C 
HETATM   10  C2  UNL     1      26.493 -78.111   7.430  1.00  0.00     0.274 C 
HETATM   11  C3  UNL     1      28.838 -78.042   7.384  1.00  0.00     0.274 C 
ENDBRANCH   7   8
ENDBRANCH   6   7
ENDBRANCH   5   6
ENDBRANCH   4   5
BRANCH   4  12
HETATM   12  O2  UNL     1      27.134 -75.001  11.947  1.00  0.00    -0.375 OA
ATOM     13  H2  UNL     1      27.842 -75.609  12.123  1.00  0.00     0.212 HD
ENDBRANCH   4  12
ENDBRANCH   2   4
ENDBRANCH   1   2
BRANCH   1  14
HETATM   14  C8  UNL     1      24.825 -78.881  10.750  1.00  0.00     0.174 C 
BRANCH  14  15
HETATM   15  N3  UNL     1      24.969 -80.030  11.577  1.00  0.00    -0.358 N 
HETATM   16  C9  UNL     1      25.715 -81.043  11.313  1.00  0.00     0.208 C 
HETATM   17  N4  UNL     1      25.739 -82.106  12.252  1.00  0.00    -0.062 NA
HETATM   18  N5  UNL     1      26.514 -81.170  10.147  1.00  0.00    -0.241 N 
ATOM     19  H5  UNL     1      26.943 -80.331   9.756  1.00  0.00     0.197 HD
ATOM     20  H3  UNL     1      24.439 -80.052  12.448  1.00  0.00     0.162 HD
BRANCH  18  21
HETATM   21  O3  UNL     1      26.732 -82.355   9.534  1.00  0.00    -0.287 OA
ATOM     22  H3  UNL     1      27.602 -82.713   9.401  1.00  0.00     0.244 HD
ENDBRANCH  18  21
ENDBRANCH  14  15
ENDBRANCH   1  14
BRANCH   1  23
HETATM   23  C10 UNL     1      24.116 -76.679  11.770  1.00  0.00     0.058 C 
BRANCH  23  24
HETATM   24  C11 UNL     1      23.760 -76.735  13.254  1.00  0.00    -0.009 C 
HETATM   25  C12 UNL     1      24.923 -77.103  14.108  1.00  0.00     0.005 C 
HETATM   26  C13 UNL     1      24.839 -76.271  15.388  1.00  0.00     0.000 C 
HETATM   27  C14 UNL     1      25.250 -74.851  14.973  1.00  0.00     0.000 C 
HETATM   28  C15 UNL     1      24.310 -74.361  13.892  1.00  0.00     0.000 C 
HETATM   29  C16 UNL     1      23.211 -75.369  13.621  1.00  0.00     0.005 C 
ENDBRANCH  23  24
ENDBRANCH   1  23
TORSDOF 12
ENDMDL
