MODEL 1
REMARK VINA RESULT: -5.997729917      0.000      0.000
REMARK  4 active torsions:
REMARK  status: ('A' for Active; 'I' for Inactive)
REMARK    1  A    between atoms: O1_2  and  C2_3 
REMARK    2  A    between atoms: C2_3  and  O2_4 
REMARK    3  A    between atoms: O2_4  and  C3_5 
REMARK    4  A    between atoms: C3_5  and  O3_6 
ROOT
HETATM    1  C3  UNL     1      21.697  82.185   0.211  1.00  0.00     0.344 C 
HETATM    2  O4  UNL     1      21.765  81.909   1.563  1.00  0.00    -0.167 OA
HETATM    3  O5  UNL     1      20.714  81.654   2.211  1.00  0.00    -0.220 OA
HETATM    4  C5  UNL     1      19.742  82.572   2.286  1.00  0.00     0.135 C 
HETATM    5  C6  UNL     1      18.446  82.083   1.745  1.00  0.00     0.031 C 
HETATM    6  C7  UNL     1      18.222  82.165   0.301  1.00  0.00     0.011 C 
HETATM    7  C8  UNL     1      19.420  81.925  -0.540  1.00  0.00     0.047 C 
HETATM    8  C9  UNL     1      20.520  82.940  -0.246  1.00  0.00     0.145 C 
HETATM    9  C10 UNL     1      20.855  83.606  -1.593  1.00  0.00     0.054 C 
HETATM   10  O6  UNL     1      20.069  83.974   0.541  1.00  0.00    -0.358 OA
HETATM   11  C11 UNL     1      20.177  83.935   1.865  1.00  0.00     0.097 C 
HETATM   12  C12 UNL     1      21.363  84.568   2.424  1.00  0.00     0.050 C 
HETATM   13  C13 UNL     1      18.984  84.397   2.733  1.00  0.00     0.026 C 
HETATM   14  C14 UNL     1      19.208  85.767   3.390  1.00  0.00     0.014 C 
HETATM   15  C15 UNL     1      19.373  83.231   3.596  1.00  0.00     0.033 C 
HETATM   16  C16 UNL     1      18.347  82.384   4.240  1.00  0.00     0.009 C 
HETATM   17  C17 UNL     1      18.415  80.906   3.848  1.00  0.00     0.005 C 
HETATM   18  C18 UNL     1      18.312  80.669   2.356  1.00  0.00    -0.012 C 
HETATM   19  C19 UNL     1      16.886  80.196   2.096  1.00  0.00     0.010 C 
ENDROOT
BRANCH   1  20
HETATM   20  O2  UNL     1      21.837  80.943  -0.359  1.00  0.00    -0.304 OA
BRANCH  20  21
HETATM   21  C2  UNL     1      22.964  80.591  -0.984  1.00  0.00     0.343 C 
BRANCH  21  22
HETATM   22  O1  UNL     1      23.595  79.621  -0.158  1.00  0.00    -0.372 OA
HETATM   23  C1  UNL     1      24.811  79.238  -0.719  1.00  0.00     0.204 C 
ENDBRANCH  21  22
ENDBRANCH  20  21
ENDBRANCH   1  20
BRANCH   1  24
HETATM   24  O3  UNL     1      22.874  82.909  -0.080  1.00  0.00    -0.334 OA
HETATM   25  C4  UNL     1      23.666  83.061   1.049  1.00  0.00     0.208 C 
ENDBRANCH   1  24
TORSDOF 4
ENDMDL
MODEL 2
REMARK VINA RESULT: -5.927862830      2.786      5.347
REMARK  4 active torsions:
REMARK  status: ('A' for Active; 'I' for Inactive)
REMARK    1  A    between atoms: O1_2  and  C2_3 
REMARK    2  A    between atoms: C2_3  and  O2_4 
REMARK    3  A    between atoms: O2_4  and  C3_5 
REMARK    4  A    between atoms: C3_5  and  O3_6 
ROOT
HETATM    1  C3  UNL     1      18.268  83.836  -2.708  1.00  0.00     0.344 C 
HETATM    2  O4  UNL     1      17.390  83.866  -1.641  1.00  0.00    -0.167 OA
HETATM    3  O5  UNL     1      17.796  83.598  -0.478  1.00  0.00    -0.220 OA
HETATM    4  C5  UNL     1      18.318  82.393  -0.219  1.00  0.00     0.135 C 
HETATM    5  C6  UNL     1      19.714  82.467   0.287  1.00  0.00     0.031 C 
HETATM    6  C7  UNL     1      20.801  82.574  -0.688  1.00  0.00     0.011 C 
HETATM    7  C8  UNL     1      20.492  83.383  -1.893  1.00  0.00     0.047 C 
HETATM    8  C9  UNL     1      19.314  82.802  -2.667  1.00  0.00     0.145 C 
HETATM    9  C10 UNL     1      19.823  82.561  -4.100  1.00  0.00     0.054 C 
HETATM   10  O6  UNL     1      18.968  81.550  -2.215  1.00  0.00    -0.358 OA
HETATM   11  C11 UNL     1      18.038  81.383  -1.280  1.00  0.00     0.097 C 
HETATM   12  C12 UNL     1      16.688  81.134  -1.765  1.00  0.00     0.050 C 
HETATM   13  C13 UNL     1      18.288  80.368  -0.141  1.00  0.00     0.026 C 
HETATM   14  C14 UNL     1      17.468  79.079  -0.288  1.00  0.00     0.014 C 
HETATM   15  C15 UNL     1      17.636  81.417   0.713  1.00  0.00     0.033 C 
HETATM   16  C16 UNL     1      18.126  81.700   2.079  1.00  0.00     0.009 C 
HETATM   17  C17 UNL     1      18.575  83.147   2.299  1.00  0.00     0.005 C 
HETATM   18  C18 UNL     1      19.656  83.599   1.339  1.00  0.00    -0.012 C 
HETATM   19  C19 UNL     1      20.965  83.559   2.120  1.00  0.00     0.010 C 
ENDROOT
BRANCH   1  20
HETATM   20  O2  UNL     1      18.740  85.126  -2.747  1.00  0.00    -0.304 OA
BRANCH  20  21
HETATM   21  C2  UNL     1      18.923  85.760  -3.909  1.00  0.00     0.343 C 
BRANCH  21  22
HETATM   22  O1  UNL     1      19.944  86.724  -3.683  1.00  0.00    -0.372 OA
HETATM   23  C1  UNL     1      21.153  86.263  -4.200  1.00  0.00     0.204 C 
ENDBRANCH  21  22
ENDBRANCH  20  21
ENDBRANCH   1  20
BRANCH   1  24
HETATM   24  O3  UNL     1      17.459  83.656  -3.850  1.00  0.00    -0.334 OA
HETATM   25  C4  UNL     1      16.119  83.873  -3.560  1.00  0.00     0.208 C 
ENDBRANCH   1  24
TORSDOF 4
ENDMDL
MODEL 3
REMARK VINA RESULT: -5.609088665      4.106      6.286
REMARK  4 active torsions:
REMARK  status: ('A' for Active; 'I' for Inactive)
REMARK    1  A    between atoms: O1_2  and  C2_3 
REMARK    2  A    between atoms: C2_3  and  O2_4 
REMARK    3  A    between atoms: O2_4  and  C3_5 
REMARK    4  A    between atoms: C3_5  and  O3_6 
ROOT
HETATM    1  C3  UNL     1      26.581  81.241  -1.198  1.00  0.00     0.344 C 
HETATM    2  O4  UNL     1      27.081  81.849  -0.063  1.00  0.00    -0.167 OA
HETATM    3  O5  UNL     1      26.362  82.645   0.599  1.00  0.00    -0.220 OA
HETATM    4  C5  UNL     1      25.895  83.757   0.017  1.00  0.00     0.135 C 
HETATM    5  C6  UNL     1      24.410  83.833   0.028  1.00  0.00     0.031 C 
HETATM    6  C7  UNL     1      23.672  83.137  -1.027  1.00  0.00     0.011 C 
HETATM    7  C8  UNL     1      24.264  81.851  -1.470  1.00  0.00     0.047 C 
HETATM    8  C9  UNL     1      25.670  82.047  -2.027  1.00  0.00     0.145 C 
HETATM    9  C10 UNL     1      25.651  81.459  -3.450  1.00  0.00     0.054 C 
HETATM   10  O6  UNL     1      25.970  83.375  -2.212  1.00  0.00    -0.358 OA
HETATM   11  C11 UNL     1      26.577  84.088  -1.267  1.00  0.00     0.097 C 
HETATM   12  C12 UNL     1      28.027  84.167  -1.367  1.00  0.00     0.050 C 
HETATM   13  C13 UNL     1      26.080  85.520  -0.965  1.00  0.00     0.026 C 
HETATM   14  C14 UNL     1      27.017  86.612  -1.501  1.00  0.00     0.014 C 
HETATM   15  C15 UNL     1      26.340  85.132   0.461  1.00  0.00     0.033 C 
HETATM   16  C16 UNL     1      25.430  85.559   1.546  1.00  0.00     0.009 C 
HETATM   17  C17 UNL     1      24.808  84.404   2.335  1.00  0.00     0.005 C 
HETATM   18  C18 UNL     1      24.040  83.425   1.473  1.00  0.00    -0.012 C 
HETATM   19  C19 UNL     1      22.564  83.748   1.671  1.00  0.00     0.010 C 
ENDROOT
BRANCH   1  20
HETATM   20  O2  UNL     1      26.031  80.083  -0.704  1.00  0.00    -0.304 OA
BRANCH  20  21
HETATM   21  C2  UNL     1      26.383  78.888  -1.187  1.00  0.00     0.343 C 
BRANCH  21  22
HETATM   22  O1  UNL     1      25.222  78.347  -1.806  1.00  0.00    -0.372 OA
HETATM   23  C1  UNL     1      25.591  77.451  -2.805  1.00  0.00     0.204 C 
ENDBRANCH  21  22
ENDBRANCH  20  21
ENDBRANCH   1  20
BRANCH   1  24
HETATM   24  O3  UNL     1      27.715  80.871  -1.953  1.00  0.00    -0.334 OA
HETATM   25  C4  UNL     1      28.867  80.894  -1.178  1.00  0.00     0.208 C 
ENDBRANCH   1  24
TORSDOF 4
ENDMDL
MODEL 4
REMARK VINA RESULT: -5.443239039      1.877      4.521
REMARK  4 active torsions:
REMARK  status: ('A' for Active; 'I' for Inactive)
REMARK    1  A    between atoms: O1_2  and  C2_3 
REMARK    2  A    between atoms: C2_3  and  O2_4 
REMARK    3  A    between atoms: O2_4  and  C3_5 
REMARK    4  A    between atoms: C3_5  and  O3_6 
ROOT
HETATM    1  C3  UNL     1      19.493  83.179  -0.935  1.00  0.00     0.344 C 
HETATM    2  O4  UNL     1      18.608  83.867  -0.126  1.00  0.00    -0.167 OA
HETATM    3  O5  UNL     1      18.977  84.285   1.004  1.00  0.00    -0.220 OA
HETATM    4  C5  UNL     1      19.392  83.413   1.931  1.00  0.00     0.135 C 
HETATM    5  C6  UNL     1      20.784  83.674   2.385  1.00  0.00     0.031 C 
HETATM    6  C7  UNL     1      21.886  83.138   1.586  1.00  0.00     0.011 C 
HETATM    7  C8  UNL     1      21.661  83.133   0.120  1.00  0.00     0.047 C 
HETATM    8  C9  UNL     1      20.447  82.289  -0.254  1.00  0.00     0.145 C 
HETATM    9  C10 UNL     1      20.950  81.243  -1.266  1.00  0.00     0.054 C 
HETATM   10  O6  UNL     1      19.991  81.543   0.807  1.00  0.00    -0.358 OA
HETATM   11  C11 UNL     1      19.040  81.999   1.617  1.00  0.00     0.097 C 
HETATM   12  C12 UNL     1      17.679  81.603   1.282  1.00  0.00     0.050 C 
HETATM   13  C13 UNL     1      19.190  81.801   3.143  1.00  0.00     0.026 C 
HETATM   14  C14 UNL     1      18.266  80.712   3.707  1.00  0.00     0.014 C 
HETATM   15  C15 UNL     1      18.620  83.188   3.211  1.00  0.00     0.033 C 
HETATM   16  C16 UNL     1      19.116  84.168   4.201  1.00  0.00     0.009 C 
HETATM   17  C17 UNL     1      19.683  85.450   3.586  1.00  0.00     0.005 C 
HETATM   18  C18 UNL     1      20.809  85.205   2.604  1.00  0.00    -0.012 C 
HETATM   19  C19 UNL     1      22.101  85.535   3.343  1.00  0.00     0.010 C 
ENDROOT
BRANCH   1  20
HETATM   20  O2  UNL     1      20.072  84.183  -1.672  1.00  0.00    -0.304 OA
BRANCH  20  21
HETATM   21  C2  UNL     1      19.918  84.245  -2.998  1.00  0.00     0.343 C 
BRANCH  21  22
HETATM   22  O1  UNL     1      19.159  85.419  -3.259  1.00  0.00    -0.372 OA
HETATM   23  C1  UNL     1      19.925  86.329  -3.982  1.00  0.00     0.204 C 
ENDBRANCH  21  22
ENDBRANCH  20  21
ENDBRANCH   1  20
BRANCH   1  24
HETATM   24  O3  UNL     1      18.684  82.430  -1.818  1.00  0.00    -0.334 OA
HETATM   25  C4  UNL     1      17.355  82.824  -1.742  1.00  0.00     0.208 C 
ENDBRANCH   1  24
TORSDOF 4
ENDMDL
MODEL 5
REMARK VINA RESULT: -5.439300716      2.173      3.062
REMARK  4 active torsions:
REMARK  status: ('A' for Active; 'I' for Inactive)
REMARK    1  A    between atoms: O1_2  and  C2_3 
REMARK    2  A    between atoms: C2_3  and  O2_4 
REMARK    3  A    between atoms: O2_4  and  C3_5 
REMARK    4  A    between atoms: C3_5  and  O3_6 
ROOT
HETATM    1  C3  UNL     1      21.171  82.163  -2.309  1.00  0.00     0.344 C 
HETATM    2  O4  UNL     1      21.039  81.156  -1.372  1.00  0.00    -0.167 OA
HETATM    3  O5  UNL     1      19.895  80.729  -1.059  1.00  0.00    -0.220 OA
HETATM    4  C5  UNL     1      18.999  81.564  -0.520  1.00  0.00     0.135 C 
HETATM    5  C6  UNL     1      17.750  81.663  -1.321  1.00  0.00     0.031 C 
HETATM    6  C7  UNL     1      17.723  82.588  -2.455  1.00  0.00     0.011 C 
HETATM    7  C8  UNL     1      18.999  82.705  -3.204  1.00  0.00     0.047 C 
HETATM    8  C9  UNL     1      20.128  83.201  -2.307  1.00  0.00     0.145 C 
HETATM    9  C10 UNL     1      20.690  84.463  -2.988  1.00  0.00     0.054 C 
HETATM   10  O6  UNL     1      19.663  83.649  -1.094  1.00  0.00    -0.358 OA
HETATM   11  C11 UNL     1      19.593  82.844  -0.038  1.00  0.00     0.097 C 
HETATM   12  C12 UNL     1      20.743  82.867   0.855  1.00  0.00     0.050 C 
HETATM   13  C13 UNL     1      18.338  82.889   0.863  1.00  0.00     0.026 C 
HETATM   14  C14 UNL     1      18.583  83.588   2.209  1.00  0.00     0.014 C 
HETATM   15  C15 UNL     1      18.515  81.399   0.903  1.00  0.00     0.033 C 
HETATM   16  C16 UNL     1      17.348  80.491   0.868  1.00  0.00     0.009 C 
HETATM   17  C17 UNL     1      17.349  79.513  -0.309  1.00  0.00     0.005 C 
HETATM   18  C18 UNL     1      17.424  80.190  -1.661  1.00  0.00    -0.012 C 
HETATM   19  C19 UNL     1      16.011  80.159  -2.233  1.00  0.00     0.010 C 
ENDROOT
BRANCH   1  20
HETATM   20  O2  UNL     1      21.284  81.467  -3.487  1.00  0.00    -0.304 OA
BRANCH  20  21
HETATM   21  C2  UNL     1      22.471  81.044  -3.930  1.00  0.00     0.343 C 
BRANCH  21  22
HETATM   22  O1  UNL     1      22.470  79.629  -3.795  1.00  0.00    -0.372 OA
HETATM   23  C1  UNL     1      23.741  79.184  -3.439  1.00  0.00     0.204 C 
ENDBRANCH  21  22
ENDBRANCH  20  21
ENDBRANCH   1  20
BRANCH   1  24
HETATM   24  O3  UNL     1      22.430  82.748  -2.050  1.00  0.00    -0.334 OA
HETATM   25  C4  UNL     1      23.124  82.044  -1.076  1.00  0.00     0.208 C 
ENDBRANCH   1  24
TORSDOF 4
ENDMDL
