MODEL 1
REMARK VINA RESULT: -8.122938849      0.000      0.000
REMARK  4 active torsions:
REMARK  status: ('A' for Active; 'I' for Inactive)
REMARK    1  A    between atoms: O1_2  and  C2_3 
REMARK    2  A    between atoms: C2_3  and  C3_5 
REMARK    3  A    between atoms: N2_9  and  C6_11 
REMARK    4  A    between atoms: N3_16  and  C11_17 
ROOT
HETATM    1  C3  UNL     1      24.590  85.474   2.449  1.00  0.00     0.100 A 
HETATM    2  C4  UNL     1      23.327  84.956   2.365  1.00  0.00     0.142 A 
HETATM    3  N1  UNL     1      22.476  85.270   3.308  1.00  0.00    -0.132 N 
HETATM    4  C5  UNL     1      21.137  84.982   3.615  1.00  0.00     0.704 A 
HETATM    5  N2  UNL     1      20.400  84.251   2.922  1.00  0.00    -0.219 N 
ATOM      6  H2  UNL     1      20.996  83.955   2.149  1.00  0.00     0.178 HD
HETATM    7  N3  UNL     1      20.798  85.610   4.750  1.00  0.00    -0.117 N 
HETATM    8  N4  UNL     1      21.869  86.277   5.161  1.00  0.00    -0.262 N 
ATOM      9  H4  UNL     1      21.925  86.854   5.999  1.00  0.00     0.190 HD
HETATM   10  C17 UNL     1      22.867  86.062   4.287  1.00  0.00     0.187 A 
HETATM   11  S1  UNL     1      24.503  86.395   3.882  1.00  0.00    -0.044 SA
ENDROOT
BRANCH   5  12
HETATM   12  C6  UNL     1      19.219  83.655   2.677  1.00  0.00     0.099 C 
HETATM   13  C7  UNL     1      18.989  82.308   3.371  1.00  0.00     0.026 C 
HETATM   14  C8  UNL     1      18.107  81.495   2.482  1.00  0.00     0.002 C 
HETATM   15  C9  UNL     1      17.744  82.372   1.316  1.00  0.00     0.002 C 
HETATM   16  C10 UNL     1      18.980  83.251   1.209  1.00  0.00     0.026 C 
ENDBRANCH   5  12
BRANCH   7  17
HETATM   17  C11 UNL     1      19.508  85.620   5.474  1.00  0.00     0.126 C 
HETATM   18  C12 UNL     1      19.344  84.451   6.381  1.00  0.00     0.028 C 
HETATM   19  C13 UNL     1      18.869  84.932   7.734  1.00  0.00     0.002 C 
HETATM   20  C14 UNL     1      20.016  85.788   8.296  1.00  0.00     0.000 C 
HETATM   21  C15 UNL     1      20.143  87.052   7.457  1.00  0.00     0.002 C 
HETATM   22  C16 UNL     1      19.358  86.963   6.190  1.00  0.00     0.028 C 
ENDBRANCH   7  17
BRANCH   1  23
HETATM   23  C2  UNL     1      25.725  85.276   1.521  1.00  0.00     0.301 C 
HETATM   24  O2  UNL     1      26.191  86.264   0.910  1.00  0.00    -0.259 OA
BRANCH  23  25
HETATM   25  O1  UNL     1      26.263  84.015   1.331  1.00  0.00    -0.322 OA
HETATM   26  C1  UNL     1      25.998  83.375   0.096  1.00  0.00     0.213 C 
ENDBRANCH  23  25
ENDBRANCH   1  23
TORSDOF 4
ENDMDL
MODEL 2
REMARK VINA RESULT: -7.914754927      3.531      6.179
REMARK  4 active torsions:
REMARK  status: ('A' for Active; 'I' for Inactive)
REMARK    1  A    between atoms: O1_2  and  C2_3 
REMARK    2  A    between atoms: C2_3  and  C3_5 
REMARK    3  A    between atoms: N2_9  and  C6_11 
REMARK    4  A    between atoms: N3_16  and  C11_17 
ROOT
HETATM    1  C3  UNL     1      18.659  81.718   1.683  1.00  0.00     0.100 A 
HETATM    2  C4  UNL     1      18.595  82.449   2.837  1.00  0.00     0.142 A 
HETATM    3  N1  UNL     1      19.539  83.330   3.053  1.00  0.00    -0.132 N 
HETATM    4  C5  UNL     1      19.861  84.258   4.055  1.00  0.00     0.704 A 
HETATM    5  N2  UNL     1      19.189  84.434   5.091  1.00  0.00    -0.219 N 
ATOM      6  H2  UNL     1      18.418  83.773   5.005  1.00  0.00     0.178 HD
HETATM    7  N3  UNL     1      20.986  84.904   3.714  1.00  0.00    -0.117 N 
HETATM    8  N4  UNL     1      21.375  84.417   2.543  1.00  0.00    -0.262 N 
ATOM      9  H4  UNL     1      22.202  84.709   2.022  1.00  0.00     0.190 HD
HETATM   10  C17 UNL     1      20.499  83.474   2.160  1.00  0.00     0.187 A 
HETATM   11  S1  UNL     1      20.074  82.328   0.952  1.00  0.00    -0.044 SA
ENDROOT
BRANCH   5  12
HETATM   12  C6  UNL     1      18.965  85.053   6.265  1.00  0.00     0.099 C 
HETATM   13  C7  UNL     1      19.168  86.571   6.274  1.00  0.00     0.026 C 
HETATM   14  C8  UNL     1      19.618  86.952   7.646  1.00  0.00     0.002 C 
HETATM   15  C9  UNL     1      19.601  85.693   8.469  1.00  0.00     0.002 C 
HETATM   16  C10 UNL     1      19.908  84.643   7.413  1.00  0.00     0.026 C 
ENDBRANCH   5  12
BRANCH   7  17
HETATM   17  C11 UNL     1      21.720  85.967   4.436  1.00  0.00     0.126 C 
HETATM   18  C12 UNL     1      22.477  85.452   5.611  1.00  0.00     0.028 C 
HETATM   19  C13 UNL     1      23.883  86.006   5.579  1.00  0.00     0.002 C 
HETATM   20  C14 UNL     1      24.535  85.409   4.321  1.00  0.00     0.000 C 
HETATM   21  C15 UNL     1      23.859  85.998   3.091  1.00  0.00     0.002 C 
HETATM   22  C16 UNL     1      22.599  86.721   3.438  1.00  0.00     0.028 C 
ENDBRANCH   7  17
BRANCH   1  23
HETATM   23  C2  UNL     1      17.726  80.672   1.208  1.00  0.00     0.301 C 
HETATM   24  O2  UNL     1      17.091  79.997   2.049  1.00  0.00    -0.259 OA
BRANCH  23  25
HETATM   25  O1  UNL     1      17.561  80.442  -0.146  1.00  0.00    -0.322 OA
HETATM   26  C1  UNL     1      16.968  79.215  -0.530  1.00  0.00     0.213 C 
ENDBRANCH  23  25
ENDBRANCH   1  23
TORSDOF 4
ENDMDL
MODEL 3
REMARK VINA RESULT: -7.649196853      3.148      5.563
REMARK  4 active torsions:
REMARK  status: ('A' for Active; 'I' for Inactive)
REMARK    1  A    between atoms: O1_2  and  C2_3 
REMARK    2  A    between atoms: C2_3  and  C3_5 
REMARK    3  A    between atoms: N2_9  and  C6_11 
REMARK    4  A    between atoms: N3_16  and  C11_17 
ROOT
HETATM    1  C3  UNL     1      19.102  82.149   1.138  1.00  0.00     0.100 A 
HETATM    2  C4  UNL     1      20.099  83.013   1.502  1.00  0.00     0.142 A 
HETATM    3  N1  UNL     1      19.981  83.628   2.651  1.00  0.00    -0.132 N 
HETATM    4  C5  UNL     1      20.726  84.557   3.394  1.00  0.00     0.704 A 
HETATM    5  N2  UNL     1      21.815  85.040   3.024  1.00  0.00    -0.219 N 
ATOM      6  H2  UNL     1      21.987  84.606   2.117  1.00  0.00     0.178 HD
HETATM    7  N3  UNL     1      20.080  84.829   4.537  1.00  0.00    -0.117 N 
HETATM    8  N4  UNL     1      18.967  84.107   4.536  1.00  0.00    -0.262 N 
ATOM      9  H4  UNL     1      18.264  84.096   5.275  1.00  0.00     0.190 HD
HETATM   10  C17 UNL     1      18.921  83.393   3.399  1.00  0.00     0.187 A 
HETATM   11  S1  UNL     1      18.035  82.257   2.464  1.00  0.00    -0.044 SA
ENDROOT
BRANCH   5  12
HETATM   12  C6  UNL     1      22.879  85.842   3.214  1.00  0.00     0.099 C 
HETATM   13  C7  UNL     1      24.089  85.578   2.311  1.00  0.00     0.026 C 
HETATM   14  C8  UNL     1      25.310  85.951   3.085  1.00  0.00     0.002 C 
HETATM   15  C9  UNL     1      24.835  86.510   4.398  1.00  0.00     0.002 C 
HETATM   16  C10 UNL     1      23.543  85.735   4.600  1.00  0.00     0.026 C 
ENDBRANCH   5  12
BRANCH   7  17
HETATM   17  C11 UNL     1      20.458  85.736   5.643  1.00  0.00     0.126 C 
HETATM   18  C12 UNL     1      19.361  86.666   6.030  1.00  0.00     0.028 C 
HETATM   19  C13 UNL     1      19.209  86.657   7.534  1.00  0.00     0.002 C 
HETATM   20  C14 UNL     1      18.749  85.236   7.896  1.00  0.00     0.000 C 
HETATM   21  C15 UNL     1      19.889  84.266   7.617  1.00  0.00     0.002 C 
HETATM   22  C16 UNL     1      20.976  84.897   6.812  1.00  0.00     0.028 C 
ENDBRANCH   7  17
BRANCH   1  23
HETATM   23  C2  UNL     1      18.998  81.338  -0.096  1.00  0.00     0.301 C 
HETATM   24  O2  UNL     1      20.019  81.168  -0.800  1.00  0.00    -0.259 OA
BRANCH  23  25
HETATM   25  O1  UNL     1      17.789  80.778  -0.466  1.00  0.00    -0.322 OA
HETATM   26  C1  UNL     1      17.506  79.472   0.005  1.00  0.00     0.213 C 
ENDBRANCH  23  25
ENDBRANCH   1  23
TORSDOF 4
ENDMDL
MODEL 4
REMARK VINA RESULT: -7.368726437      2.767      3.701
REMARK  4 active torsions:
REMARK  status: ('A' for Active; 'I' for Inactive)
REMARK    1  A    between atoms: O1_2  and  C2_3 
REMARK    2  A    between atoms: C2_3  and  C3_5 
REMARK    3  A    between atoms: N2_9  and  C6_11 
REMARK    4  A    between atoms: N3_16  and  C11_17 
ROOT
HETATM    1  C3  UNL     1      23.775  82.089  -0.389  1.00  0.00     0.100 A 
HETATM    2  C4  UNL     1      22.458  81.754  -0.235  1.00  0.00     0.142 A 
HETATM    3  N1  UNL     1      21.759  82.423   0.647  1.00  0.00    -0.132 N 
HETATM    4  C5  UNL     1      20.437  82.421   1.118  1.00  0.00     0.704 A 
HETATM    5  N2  UNL     1      19.546  81.650   0.708  1.00  0.00    -0.219 N 
ATOM      6  H2  UNL     1      20.014  81.080   0.004  1.00  0.00     0.178 HD
HETATM    7  N3  UNL     1      20.302  83.366   2.060  1.00  0.00    -0.117 N 
HETATM    8  N4  UNL     1      21.483  83.954   2.194  1.00  0.00    -0.262 N 
ATOM      9  H4  UNL     1      21.699  84.716   2.836  1.00  0.00     0.190 HD
HETATM   10  C17 UNL     1      22.347  83.378   1.341  1.00  0.00     0.187 A 
HETATM   11  S1  UNL     1      23.957  83.353   0.741  1.00  0.00    -0.044 SA
ENDROOT
BRANCH   5  12
HETATM   12  C6  UNL     1      18.283  81.187   0.723  1.00  0.00     0.099 C 
HETATM   13  C7  UNL     1      17.875  80.387   1.964  1.00  0.00     0.026 C 
HETATM   14  C8  UNL     1      16.856  79.385   1.532  1.00  0.00     0.002 C 
HETATM   15  C9  UNL     1      16.594  79.638   0.072  1.00  0.00     0.002 C 
HETATM   16  C10 UNL     1      17.944  80.169  -0.383  1.00  0.00     0.026 C 
ENDBRANCH   5  12
BRANCH   7  17
HETATM   17  C11 UNL     1      19.110  83.751   2.848  1.00  0.00     0.126 C 
HETATM   18  C12 UNL     1      18.935  82.925   4.075  1.00  0.00     0.028 C 
HETATM   19  C13 UNL     1      18.666  83.835   5.252  1.00  0.00     0.002 C 
HETATM   20  C14 UNL     1      19.948  84.662   5.439  1.00  0.00     0.000 C 
HETATM   21  C15 UNL     1      20.104  85.602   4.251  1.00  0.00     0.002 C 
HETATM   22  C16 UNL     1      19.175  85.251   3.136  1.00  0.00     0.028 C 
ENDBRANCH   7  17
BRANCH   1  23
HETATM   23  C2  UNL     1      24.770  81.493  -1.309  1.00  0.00     0.301 C 
HETATM   24  O2  UNL     1      24.618  81.634  -2.543  1.00  0.00    -0.259 OA
BRANCH  23  25
HETATM   25  O1  UNL     1      25.852  80.790  -0.810  1.00  0.00    -0.322 OA
HETATM   26  C1  UNL     1      27.035  81.522  -0.542  1.00  0.00     0.213 C 
ENDBRANCH  23  25
ENDBRANCH   1  23
TORSDOF 4
ENDMDL
MODEL 5
REMARK VINA RESULT: -7.094740220      4.040      7.235
REMARK  4 active torsions:
REMARK  status: ('A' for Active; 'I' for Inactive)
REMARK    1  A    between atoms: O1_2  and  C2_3 
REMARK    2  A    between atoms: C2_3  and  C3_5 
REMARK    3  A    between atoms: N2_9  and  C6_11 
REMARK    4  A    between atoms: N3_16  and  C11_17 
ROOT
HETATM    1  C3  UNL     1      19.018  83.602   4.650  1.00  0.00     0.100 A 
HETATM    2  C4  UNL     1      18.733  82.668   3.693  1.00  0.00     0.142 A 
HETATM    3  N1  UNL     1      19.255  82.834   2.504  1.00  0.00    -0.132 N 
HETATM    4  C5  UNL     1      19.236  82.158   1.275  1.00  0.00     0.704 A 
HETATM    5  N2  UNL     1      18.608  81.100   1.066  1.00  0.00    -0.219 N 
ATOM      6  H2  UNL     1      18.160  80.894   1.959  1.00  0.00     0.178 HD
HETATM    7  N3  UNL     1      19.986  82.828   0.389  1.00  0.00    -0.117 N 
HETATM    8  N4  UNL     1      20.472  83.892   1.016  1.00  0.00    -0.262 N 
ATOM      9  H4  UNL     1      21.082  84.598   0.605  1.00  0.00     0.190 HD
HETATM   10  C17 UNL     1      20.025  83.882   2.283  1.00  0.00     0.187 A 
HETATM   11  S1  UNL     1      20.028  84.684   3.802  1.00  0.00    -0.044 SA
ENDROOT
BRANCH   5  12
HETATM   12  C6  UNL     1      18.222  80.093   0.262  1.00  0.00     0.099 C 
HETATM   13  C7  UNL     1      17.462  80.499  -1.006  1.00  0.00     0.026 C 
HETATM   14  C8  UNL     1      16.517  79.390  -1.333  1.00  0.00     0.002 C 
HETATM   15  C9  UNL     1      16.768  78.300  -0.327  1.00  0.00     0.002 C 
HETATM   16  C10 UNL     1      17.212  79.108   0.882  1.00  0.00     0.026 C 
ENDBRANCH   5  12
BRANCH   7  17
HETATM   17  C11 UNL     1      20.276  82.519  -1.029  1.00  0.00     0.126 C 
HETATM   18  C12 UNL     1      20.594  83.732  -1.832  1.00  0.00     0.028 C 
HETATM   19  C13 UNL     1      21.841  83.475  -2.648  1.00  0.00     0.002 C 
HETATM   20  C14 UNL     1      22.975  83.295  -1.626  1.00  0.00     0.000 C 
HETATM   21  C15 UNL     1      22.743  82.002  -0.857  1.00  0.00     0.002 C 
HETATM   22  C16 UNL     1      21.373  81.455  -1.084  1.00  0.00     0.028 C 
ENDBRANCH   7  17
BRANCH   1  23
HETATM   23  C2  UNL     1      18.558  83.644   6.056  1.00  0.00     0.301 C 
HETATM   24  O2  UNL     1      18.107  82.600   6.579  1.00  0.00    -0.259 OA
BRANCH  23  25
HETATM   25  O1  UNL     1      18.625  84.820   6.781  1.00  0.00    -0.322 OA
HETATM   26  C1  UNL     1      18.567  84.718   8.192  1.00  0.00     0.213 C 
ENDBRANCH  23  25
ENDBRANCH   1  23
TORSDOF 4
ENDMDL
