MODEL 1
REMARK VINA RESULT: -7.902188798      0.000      0.000
REMARK  4 active torsions:
REMARK  status: ('A' for Active; 'I' for Inactive)
REMARK    1  A    between atoms: C3_4  and  N2_5 
REMARK    2  A    between atoms: C4_8  and  N3_9 
REMARK    3  A    between atoms: N3_9  and  C5_11 
REMARK    4  A    between atoms: C12_18  and  N4_19 
ROOT
HETATM    1  N1  UNL     1      17.695  80.534   2.550  1.00  0.00    -0.100 NA
HETATM    2  C1  UNL     1      18.023  81.638   3.408  1.00  0.00     0.075 A 
HETATM    3  C2  UNL     1      17.924  81.495   4.766  1.00  0.00     0.067 A 
HETATM    4  C3  UNL     1      18.208  82.526   5.683  1.00  0.00     0.131 A 
HETATM    5  C4  UNL     1      18.612  83.751   5.211  1.00  0.00     0.064 A 
HETATM    6  C11 UNL     1      18.709  83.888   3.839  1.00  0.00     0.063 A 
HETATM    7  C12 UNL     1      18.423  82.854   2.927  1.00  0.00     0.057 A 
ENDROOT
BRANCH   5   8
HETATM    8  N3  UNL     1      18.993  84.824   6.070  1.00  0.00    -0.383 N 
ATOM      9  H3  UNL     1      18.225  85.407   6.405  1.00  0.00     0.160 HD
BRANCH   8  10
HETATM   10  C5  UNL     1      20.277  85.197   6.525  1.00  0.00     0.081 C 
HETATM   11  C6  UNL     1      20.420  85.541   7.973  1.00  0.00     0.025 C 
HETATM   12  C7  UNL     1      21.596  86.483   8.193  1.00  0.00     0.002 C 
HETATM   13  C8  UNL     1      22.796  86.059   7.380  1.00  0.00     0.000 C 
HETATM   14  C9  UNL     1      22.527  85.870   5.926  1.00  0.00     0.002 C 
HETATM   15  C10 UNL     1      21.030  86.190   5.698  1.00  0.00     0.025 C 
ENDBRANCH   8  10
ENDBRANCH   5   8
BRANCH   4  16
HETATM   16  N2  UNL     1      18.057  82.249   7.066  1.00  0.00    -0.113 N 
HETATM   17  O1  UNL     1      18.350  81.137   7.510  1.00  0.00    -0.532 OA
HETATM   18  O2  UNL     1      17.629  83.268   7.937  1.00  0.00    -0.532 OA
ENDBRANCH   4  16
BRANCH   7  19
HETATM   19  N4  UNL     1      18.598  83.114   1.549  1.00  0.00    -0.375 N 
HETATM   20  C13 UNL     1      17.434  83.598   0.809  1.00  0.00     0.149 C 
HETATM   21  C14 UNL     1      17.416  83.137  -0.611  1.00  0.00     0.187 C 
HETATM   22  O3  UNL     1      18.526  82.586  -1.135  1.00  0.00    -0.388 OA
HETATM   23  C15 UNL     1      19.422  81.968  -0.313  1.00  0.00     0.187 C 
HETATM   24  C16 UNL     1      19.786  82.995   0.767  1.00  0.00     0.149 C 
ENDBRANCH   7  19
TORSDOF 4
ENDMDL
MODEL 2
REMARK VINA RESULT: -7.504948966      3.362      5.605
REMARK  4 active torsions:
REMARK  status: ('A' for Active; 'I' for Inactive)
REMARK    1  A    between atoms: C3_4  and  N2_5 
REMARK    2  A    between atoms: C4_8  and  N3_9 
REMARK    3  A    between atoms: N3_9  and  C5_11 
REMARK    4  A    between atoms: C12_18  and  N4_19 
ROOT
HETATM    1  N1  UNL     1      24.784  86.247   4.854  1.00  0.00    -0.100 NA
HETATM    2  C1  UNL     1      23.392  85.896   4.818  1.00  0.00     0.075 A 
HETATM    3  C2  UNL     1      22.593  86.176   5.893  1.00  0.00     0.067 A 
HETATM    4  C3  UNL     1      21.222  85.853   5.954  1.00  0.00     0.131 A 
HETATM    5  C4  UNL     1      20.633  85.225   4.884  1.00  0.00     0.064 A 
HETATM    6  C11 UNL     1      21.447  84.944   3.802  1.00  0.00     0.063 A 
HETATM    7  C12 UNL     1      22.816  85.269   3.747  1.00  0.00     0.057 A 
ENDROOT
BRANCH   5   8
HETATM    8  N3  UNL     1      19.239  84.931   4.831  1.00  0.00    -0.383 N 
ATOM      9  H3  UNL     1      18.649  85.685   4.480  1.00  0.00     0.160 HD
BRANCH   8  10
HETATM   10  C5  UNL     1      18.556  83.749   5.194  1.00  0.00     0.081 C 
HETATM   11  C6  UNL     1      18.236  83.557   6.641  1.00  0.00     0.025 C 
HETATM   12  C7  UNL     1      18.101  82.077   6.975  1.00  0.00     0.002 C 
HETATM   13  C8  UNL     1      17.321  81.345   5.910  1.00  0.00     0.000 C 
HETATM   14  C9  UNL     1      17.832  81.536   4.523  1.00  0.00     0.002 C 
HETATM   15  C10 UNL     1      19.065  82.466   4.619  1.00  0.00     0.025 C 
ENDBRANCH   8  10
ENDBRANCH   5   8
BRANCH   4  16
HETATM   16  N2  UNL     1      20.509  86.192   7.132  1.00  0.00    -0.113 N 
HETATM   17  O1  UNL     1      20.845  85.717   8.218  1.00  0.00    -0.532 OA
HETATM   18  O2  UNL     1      19.453  87.121   7.063  1.00  0.00    -0.532 OA
ENDBRANCH   4  16
BRANCH   7  19
HETATM   19  N4  UNL     1      23.527  84.959   2.566  1.00  0.00    -0.375 N 
HETATM   20  C13 UNL     1      22.999  83.881   1.732  1.00  0.00     0.149 C 
HETATM   21  C14 UNL     1      24.069  83.118   1.024  1.00  0.00     0.187 C 
HETATM   22  O3  UNL     1      25.318  83.616   0.992  1.00  0.00    -0.388 OA
HETATM   23  C15 UNL     1      25.734  84.454   1.986  1.00  0.00     0.187 C 
HETATM   24  C16 UNL     1      24.700  85.585   2.047  1.00  0.00     0.149 C 
ENDBRANCH   7  19
TORSDOF 4
ENDMDL
MODEL 3
REMARK VINA RESULT: -7.480387726      1.825      2.810
REMARK  4 active torsions:
REMARK  status: ('A' for Active; 'I' for Inactive)
REMARK    1  A    between atoms: C3_4  and  N2_5 
REMARK    2  A    between atoms: C4_8  and  N3_9 
REMARK    3  A    between atoms: N3_9  and  C5_11 
REMARK    4  A    between atoms: C12_18  and  N4_19 
ROOT
HETATM    1  N1  UNL     1      17.386  81.142   5.511  1.00  0.00    -0.100 NA
HETATM    2  C1  UNL     1      18.129  82.367   5.410  1.00  0.00     0.075 A 
HETATM    3  C2  UNL     1      18.181  83.221   6.478  1.00  0.00     0.067 A 
HETATM    4  C3  UNL     1      18.870  84.450   6.464  1.00  0.00     0.131 A 
HETATM    5  C4  UNL     1      19.537  84.832   5.326  1.00  0.00     0.064 A 
HETATM    6  C11 UNL     1      19.478  83.965   4.250  1.00  0.00     0.063 A 
HETATM    7  C12 UNL     1      18.789  82.738   4.270  1.00  0.00     0.057 A 
ENDROOT
BRANCH   5   8
HETATM    8  N3  UNL     1      20.320  86.021   5.251  1.00  0.00    -0.383 N 
ATOM      9  H3  UNL     1      19.793  86.893   5.287  1.00  0.00     0.160 HD
BRANCH   8  10
HETATM   10  C5  UNL     1      21.720  86.167   5.134  1.00  0.00     0.081 C 
HETATM   11  C6  UNL     1      22.328  85.914   3.792  1.00  0.00     0.025 C 
HETATM   12  C7  UNL     1      23.785  85.492   3.927  1.00  0.00     0.002 C 
HETATM   13  C8  UNL     1      24.506  86.333   4.952  1.00  0.00     0.000 C 
HETATM   14  C9  UNL     1      23.841  86.394   6.285  1.00  0.00     0.002 C 
HETATM   15  C10 UNL     1      22.562  85.528   6.192  1.00  0.00     0.025 C 
ENDBRANCH   8  10
ENDBRANCH   5   8
BRANCH   4  16
HETATM   16  N2  UNL     1      18.838  85.246   7.638  1.00  0.00    -0.113 N 
HETATM   17  O1  UNL     1      19.344  84.830   8.682  1.00  0.00    -0.532 OA
HETATM   18  O2  UNL     1      18.279  86.536   7.588  1.00  0.00    -0.532 OA
ENDBRANCH   4  16
BRANCH   7  19
HETATM   19  N4  UNL     1      18.838  81.927   3.114  1.00  0.00    -0.375 N 
HETATM   20  C13 UNL     1      20.079  81.941   2.342  1.00  0.00     0.149 C 
HETATM   21  C14 UNL     1      19.854  81.752   0.879  1.00  0.00     0.187 C 
HETATM   22  O3  UNL     1      18.649  81.339   0.448  1.00  0.00    -0.388 OA
HETATM   23  C15 UNL     1      17.540  81.604   1.198  1.00  0.00     0.187 C 
HETATM   24  C16 UNL     1      17.834  81.053   2.600  1.00  0.00     0.149 C 
ENDBRANCH   7  19
TORSDOF 4
ENDMDL
MODEL 4
REMARK VINA RESULT: -7.473135164      1.319      1.977
REMARK  4 active torsions:
REMARK  status: ('A' for Active; 'I' for Inactive)
REMARK    1  A    between atoms: C3_4  and  N2_5 
REMARK    2  A    between atoms: C4_8  and  N3_9 
REMARK    3  A    between atoms: N3_9  and  C5_11 
REMARK    4  A    between atoms: C12_18  and  N4_19 
ROOT
HETATM    1  N1  UNL     1      17.773  80.007   1.377  1.00  0.00    -0.100 NA
HETATM    2  C1  UNL     1      18.081  81.200   2.116  1.00  0.00     0.075 A 
HETATM    3  C2  UNL     1      18.097  81.167   3.483  1.00  0.00     0.067 A 
HETATM    4  C3  UNL     1      18.371  82.290   4.290  1.00  0.00     0.131 A 
HETATM    5  C4  UNL     1      18.642  83.496   3.691  1.00  0.00     0.064 A 
HETATM    6  C11 UNL     1      18.622  83.522   2.309  1.00  0.00     0.063 A 
HETATM    7  C12 UNL     1      18.348  82.397   1.508  1.00  0.00     0.057 A 
ENDROOT
BRANCH   5   8
HETATM    8  N3  UNL     1      19.003  84.661   4.428  1.00  0.00    -0.383 N 
ATOM      9  H3  UNL     1      18.227  85.270   4.687  1.00  0.00     0.160 HD
BRANCH   8  10
HETATM   10  C5  UNL     1      20.278  85.096   4.852  1.00  0.00     0.081 C 
HETATM   11  C6  UNL     1      20.396  85.627   6.244  1.00  0.00     0.025 C 
HETATM   12  C7  UNL     1      21.567  86.593   6.360  1.00  0.00     0.002 C 
HETATM   13  C8  UNL     1      22.782  86.071   5.629  1.00  0.00     0.000 C 
HETATM   14  C9  UNL     1      22.538  85.693   4.208  1.00  0.00     0.002 C 
HETATM   15  C10 UNL     1      21.044  85.975   3.915  1.00  0.00     0.025 C 
ENDBRANCH   8  10
ENDBRANCH   5   8
BRANCH   4  16
HETATM   16  N2  UNL     1      18.348  82.121   5.698  1.00  0.00    -0.113 N 
HETATM   17  O1  UNL     1      17.976  83.042   6.427  1.00  0.00    -0.532 OA
HETATM   18  O2  UNL     1      18.697  80.876   6.255  1.00  0.00    -0.532 OA
ENDBRANCH   4  16
BRANCH   7  19
HETATM   19  N4  UNL     1      18.395  82.550   0.104  1.00  0.00    -0.375 N 
HETATM   20  C13 UNL     1      19.704  82.798  -0.497  1.00  0.00     0.149 C 
HETATM   21  C14 UNL     1      19.632  83.663  -1.710  1.00  0.00     0.187 C 
HETATM   22  O3  UNL     1      18.434  83.902  -2.275  1.00  0.00    -0.388 OA
HETATM   23  C15 UNL     1      17.307  83.844  -1.509  1.00  0.00     0.187 C 
HETATM   24  C16 UNL     1      17.323  82.466  -0.834  1.00  0.00     0.149 C 
ENDBRANCH   7  19
TORSDOF 4
ENDMDL
MODEL 5
REMARK VINA RESULT: -7.401413758      1.494      1.805
REMARK  4 active torsions:
REMARK  status: ('A' for Active; 'I' for Inactive)
REMARK    1  A    between atoms: C3_4  and  N2_5 
REMARK    2  A    between atoms: C4_8  and  N3_9 
REMARK    3  A    between atoms: N3_9  and  C5_11 
REMARK    4  A    between atoms: C12_18  and  N4_19 
ROOT
HETATM    1  N1  UNL     1      17.996  80.348   0.677  1.00  0.00    -0.100 NA
HETATM    2  C1  UNL     1      18.224  81.444   1.577  1.00  0.00     0.075 A 
HETATM    3  C2  UNL     1      18.280  81.217   2.925  1.00  0.00     0.067 A 
HETATM    4  C3  UNL     1      18.482  82.231   3.882  1.00  0.00     0.131 A 
HETATM    5  C4  UNL     1      18.637  83.529   3.460  1.00  0.00     0.064 A 
HETATM    6  C11 UNL     1      18.578  83.752   2.097  1.00  0.00     0.063 A 
HETATM    7  C12 UNL     1      18.376  82.734   1.146  1.00  0.00     0.057 A 
ENDROOT
BRANCH   5   8
HETATM    8  N3  UNL     1      18.921  84.604   4.353  1.00  0.00    -0.383 N 
ATOM      9  H3  UNL     1      18.106  85.114   4.693  1.00  0.00     0.160 HD
BRANCH   8  10
HETATM   10  C5  UNL     1      20.166  85.064   4.836  1.00  0.00     0.081 C 
HETATM   11  C6  UNL     1      20.222  85.536   6.254  1.00  0.00     0.025 C 
HETATM   12  C7  UNL     1      21.352  86.538   6.448  1.00  0.00     0.002 C 
HETATM   13  C8  UNL     1      22.607  86.093   5.735  1.00  0.00     0.000 C 
HETATM   14  C9  UNL     1      22.420  85.770   4.291  1.00  0.00     0.002 C 
HETATM   15  C10 UNL     1      20.926  86.011   3.964  1.00  0.00     0.025 C 
ENDBRANCH   8  10
ENDBRANCH   5   8
BRANCH   4  16
HETATM   16  N2  UNL     1      18.512  81.861   5.251  1.00  0.00    -0.113 N 
HETATM   17  O1  UNL     1      19.059  80.812   5.597  1.00  0.00    -0.532 OA
HETATM   18  O2  UNL     1      17.966  82.726   6.217  1.00  0.00    -0.532 OA
ENDBRANCH   4  16
BRANCH   7  19
HETATM   19  N4  UNL     1      18.372  83.091  -0.222  1.00  0.00    -0.375 N 
HETATM   20  C13 UNL     1      17.090  83.476  -0.808  1.00  0.00     0.149 C 
HETATM   21  C14 UNL     1      16.973  83.097  -2.247  1.00  0.00     0.187 C 
HETATM   22  O3  UNL     1      18.075  82.712  -2.915  1.00  0.00    -0.388 OA
HETATM   23  C15 UNL     1      19.117  82.159  -2.231  1.00  0.00     0.187 C 
HETATM   24  C16 UNL     1      19.476  83.158  -1.124  1.00  0.00     0.149 C 
ENDBRANCH   7  19
TORSDOF 4
ENDMDL
