MODEL 1
REMARK VINA RESULT: -6.372889918      0.000      0.000
REMARK  7 active torsions:
REMARK  status: ('A' for Active; 'I' for Inactive)
REMARK    1  A    between atoms: N1_1  and  C1_4 
REMARK    2  A    between atoms: C4_11  and  N4_12 
REMARK    3  A    between atoms: N4_12  and  C5_14 
REMARK    4  A    between atoms: C5_14  and  C6_15 
REMARK    5  A    between atoms: C6_15  and  N5_16 
REMARK    6  A    between atoms: C9_19  and  C10_20 
REMARK    7  A    between atoms: C13_27  and  N8_28 
ROOT
HETATM    1  C1  UNL     1      -2.904  18.527  21.843  1.00  0.00     0.679 A 
HETATM    2  N2  UNL     1      -3.875  17.695  21.441  1.00  0.00    -0.174 N 
ATOM      3  H2  UNL     1      -3.756  17.163  20.579  1.00  0.00     0.186 HD
HETATM    4  C2  UNL     1      -5.001  17.553  22.157  1.00  0.00     0.151 A 
HETATM    5  N3  UNL     1      -5.970  16.709  21.760  1.00  0.00    -0.346 N 
ATOM      6  H3  UNL     1      -5.849  16.178  20.898  1.00  0.00     0.167 HD
HETATM    7  C3  UNL     1      -7.104  16.551  22.486  1.00  0.00     0.138 A 
HETATM    8  C4  UNL     1      -7.270  17.263  23.649  1.00  0.00     0.117 A 
HETATM    9  N7  UNL     1      -6.281  18.117  24.042  1.00  0.00    -0.336 N 
ATOM     10  H7  UNL     1      -6.409  18.644  24.907  1.00  0.00     0.168 HD
HETATM   11  C12 UNL     1      -5.148  18.297  23.344  1.00  0.00     0.124 A 
HETATM   12  C13 UNL     1      -4.139  19.147  23.738  1.00  0.00     0.150 A 
HETATM   13  N9  UNL     1      -3.010  19.238  22.950  1.00  0.00    -0.175 N 
ATOM     14  H9  UNL     1      -2.251  19.861  23.225  1.00  0.00     0.186 HD
ENDROOT
BRANCH   8  15
HETATM   15  N4  UNL     1      -8.341  17.119  24.345  1.00  0.00    -0.373 N 
ATOM     16  H4  UNL     1      -8.256  16.741  25.288  1.00  0.00     0.161 HD
BRANCH  15  17
HETATM   17  C5  UNL     1      -9.660  17.464  23.863  1.00  0.00     0.151 C 
BRANCH  17  18
HETATM   18  C6  UNL     1      -9.903  18.918  24.234  1.00  0.00     0.292 C 
BRANCH  18  19
HETATM   19  N5  UNL     1     -10.006  19.756  23.071  1.00  0.00     0.090 N 
HETATM   20  C7  UNL     1     -10.362  18.885  21.945  1.00  0.00     0.273 C 
HETATM   21  C8  UNL     1     -10.284  19.890  20.798  1.00  0.00     0.045 C 
HETATM   22  C9  UNL     1      -9.118  20.750  21.207  1.00  0.00     0.105 C 
HETATM   23  C11 UNL     1      -8.740  20.276  22.616  1.00  0.00     0.286 C 
BRANCH  22  24
HETATM   24  C10 UNL     1      -8.016  20.560  20.248  1.00  0.00     0.237 C 
HETATM   25  N6  UNL     1      -6.638  20.682  20.627  1.00  0.00    -0.062 NA
HETATM   26  O1  UNL     1      -8.268  20.283  19.060  1.00  0.00    -0.276 OA
ENDBRANCH  22  24
ENDBRANCH  18  19
ENDBRANCH  17  18
ENDBRANCH  15  17
ENDBRANCH   8  15
BRANCH  12  27
HETATM   27  N8  UNL     1      -4.245  19.962  24.873  1.00  0.00    -0.365 N 
HETATM   28  C14 UNL     1      -4.966  21.143  25.257  1.00  0.00     0.124 C 
HETATM   29  C15 UNL     1      -4.026  21.921  26.166  1.00  0.00     0.021 C 
HETATM   30  C16 UNL     1      -2.841  20.998  26.332  1.00  0.00     0.021 C 
HETATM   31  C17 UNL     1      -3.467  19.641  26.106  1.00  0.00     0.124 C 
ENDBRANCH  12  27
BRANCH   1  32
HETATM   32  N1  UNL     1      -1.840  18.625  21.115  1.00  0.00    -0.234 N 
ATOM     33  H12 UNL     1      -1.832  18.236  20.174  1.00  0.00     0.174 HD
ATOM     34  H11 UNL     1      -1.026  19.097  21.510  1.00  0.00     0.174 HD
ENDBRANCH   1  32
TORSDOF 7
ENDMDL
MODEL 2
REMARK VINA RESULT: -6.346882230      4.079      8.507
REMARK  7 active torsions:
REMARK  status: ('A' for Active; 'I' for Inactive)
REMARK    1  A    between atoms: N1_1  and  C1_4 
REMARK    2  A    between atoms: C4_11  and  N4_12 
REMARK    3  A    between atoms: N4_12  and  C5_14 
REMARK    4  A    between atoms: C5_14  and  C6_15 
REMARK    5  A    between atoms: C6_15  and  N5_16 
REMARK    6  A    between atoms: C9_19  and  C10_20 
REMARK    7  A    between atoms: C13_27  and  N8_28 
ROOT
HETATM    1  C1  UNL     1     -13.038  15.745  26.718  1.00  0.00     0.679 A 
HETATM    2  N2  UNL     1     -11.868  16.385  26.575  1.00  0.00    -0.174 N 
ATOM      3  H2  UNL     1     -11.331  16.641  27.404  1.00  0.00     0.186 HD
HETATM    4  C2  UNL     1     -11.396  16.693  25.357  1.00  0.00     0.151 A 
HETATM    5  N3  UNL     1     -10.217  17.324  25.214  1.00  0.00    -0.346 N 
ATOM      6  H3  UNL     1      -9.681  17.579  26.044  1.00  0.00     0.167 HD
HETATM    7  C3  UNL     1      -9.728  17.627  23.987  1.00  0.00     0.138 A 
HETATM    8  C4  UNL     1     -10.445  17.284  22.867  1.00  0.00     0.117 A 
HETATM    9  N7  UNL     1     -11.641  16.644  23.023  1.00  0.00    -0.336 N 
ATOM     10  H7  UNL     1     -12.170  16.391  22.189  1.00  0.00     0.168 HD
HETATM   11  C12 UNL     1     -12.152  16.333  24.225  1.00  0.00     0.124 A 
HETATM   12  C13 UNL     1     -13.351  15.678  24.395  1.00  0.00     0.150 A 
HETATM   13  N9  UNL     1     -13.771  15.394  25.678  1.00  0.00    -0.175 N 
ATOM     14  H9  UNL     1     -14.656  14.908  25.825  1.00  0.00     0.186 HD
ENDROOT
BRANCH   8  15
HETATM   15  N4  UNL     1      -9.990  17.565  21.698  1.00  0.00    -0.373 N 
ATOM     16  H4  UNL     1     -10.433  17.129  20.890  1.00  0.00     0.161 HD
BRANCH  15  17
HETATM   17  C5  UNL     1      -8.883  18.465  21.467  1.00  0.00     0.151 C 
BRANCH  17  18
HETATM   18  C6  UNL     1      -7.856  17.706  20.644  1.00  0.00     0.292 C 
BRANCH  18  19
HETATM   19  N5  UNL     1      -6.562  17.705  21.272  1.00  0.00     0.090 N 
HETATM   20  C7  UNL     1      -6.545  16.581  22.215  1.00  0.00     0.273 C 
HETATM   21  C8  UNL     1      -5.192  16.816  22.882  1.00  0.00     0.045 C 
HETATM   22  C9  UNL     1      -5.127  18.318  22.949  1.00  0.00     0.105 C 
HETATM   23  C11 UNL     1      -6.353  18.812  22.173  1.00  0.00     0.286 C 
BRANCH  22  24
HETATM   24  C10 UNL     1      -5.160  18.742  24.359  1.00  0.00     0.237 C 
HETATM   25  N6  UNL     1      -5.816  19.944  24.785  1.00  0.00    -0.062 NA
HETATM   26  O1  UNL     1      -4.603  18.046  25.230  1.00  0.00    -0.276 OA
ENDBRANCH  22  24
ENDBRANCH  18  19
ENDBRANCH  17  18
ENDBRANCH  15  17
ENDBRANCH   8  15
BRANCH  12  27
HETATM   27  N8  UNL     1     -14.184  15.346  23.317  1.00  0.00    -0.365 N 
HETATM   28  C14 UNL     1     -15.064  16.035  22.416  1.00  0.00     0.124 C 
HETATM   29  C15 UNL     1     -16.210  15.072  22.144  1.00  0.00     0.021 C 
HETATM   30  C16 UNL     1     -15.788  13.803  22.849  1.00  0.00     0.021 C 
HETATM   31  C17 UNL     1     -14.283  13.932  22.850  1.00  0.00     0.124 C 
ENDBRANCH  12  27
BRANCH   1  32
HETATM   32  N1  UNL     1     -13.446  15.472  27.914  1.00  0.00    -0.234 N 
ATOM     33  H12 UNL     1     -14.087  16.106  28.389  1.00  0.00     0.174 HD
ATOM     34  H11 UNL     1     -13.108  14.616  28.356  1.00  0.00     0.174 HD
ENDBRANCH   1  32
TORSDOF 7
ENDMDL
MODEL 3
REMARK VINA RESULT: -6.275829059      7.426     11.034
REMARK  7 active torsions:
REMARK  status: ('A' for Active; 'I' for Inactive)
REMARK    1  A    between atoms: N1_1  and  C1_4 
REMARK    2  A    between atoms: C4_11  and  N4_12 
REMARK    3  A    between atoms: N4_12  and  C5_14 
REMARK    4  A    between atoms: C5_14  and  C6_15 
REMARK    5  A    between atoms: C6_15  and  N5_16 
REMARK    6  A    between atoms: C9_19  and  C10_20 
REMARK    7  A    between atoms: C13_27  and  N8_28 
ROOT
HETATM    1  C1  UNL     1     -14.342  12.549  16.913  1.00  0.00     0.679 A 
HETATM    2  N2  UNL     1     -14.015  11.773  17.957  1.00  0.00    -0.174 N 
ATOM      3  H2  UNL     1     -13.513  10.900  17.797  1.00  0.00     0.186 HD
HETATM    4  C2  UNL     1     -14.341  12.131  19.209  1.00  0.00     0.151 A 
HETATM    5  N3  UNL     1     -14.003  11.359  20.257  1.00  0.00    -0.346 N 
ATOM      6  H3  UNL     1     -13.500  10.486  20.095  1.00  0.00     0.167 HD
HETATM    7  C3  UNL     1     -14.317  11.720  21.525  1.00  0.00     0.138 A 
HETATM    8  C4  UNL     1     -14.992  12.895  21.749  1.00  0.00     0.117 A 
HETATM    9  N7  UNL     1     -15.331  13.671  20.678  1.00  0.00    -0.336 N 
ATOM     10  H7  UNL     1     -15.832  14.543  20.848  1.00  0.00     0.168 HD
HETATM   11  C12 UNL     1     -15.036  13.339  19.411  1.00  0.00     0.124 A 
HETATM   12  C13 UNL     1     -15.363  14.119  18.325  1.00  0.00     0.150 A 
HETATM   13  N9  UNL     1     -14.992  13.686  17.068  1.00  0.00    -0.175 N 
ATOM     14  H9  UNL     1     -15.224  14.251  16.250  1.00  0.00     0.186 HD
ENDROOT
BRANCH   8  15
HETATM   15  N4  UNL     1     -15.294  13.247  22.948  1.00  0.00    -0.373 N 
ATOM     16  H4  UNL     1     -14.961  12.668  23.718  1.00  0.00     0.161 HD
BRANCH  15  17
HETATM   17  C5  UNL     1     -16.079  14.419  23.263  1.00  0.00     0.151 C 
BRANCH  17  18
HETATM   18  C6  UNL     1     -15.105  15.569  23.457  1.00  0.00     0.292 C 
BRANCH  18  19
HETATM   19  N5  UNL     1     -13.934  15.163  24.185  1.00  0.00     0.090 N 
HETATM   20  C7  UNL     1     -13.946  15.894  25.457  1.00  0.00     0.273 C 
HETATM   21  C8  UNL     1     -12.593  15.467  26.021  1.00  0.00     0.045 C 
HETATM   22  C9  UNL     1     -11.737  15.410  24.784  1.00  0.00     0.105 C 
HETATM   23  C11 UNL     1     -12.700  15.642  23.613  1.00  0.00     0.286 C 
BRANCH  22  24
HETATM   24  C10 UNL     1     -10.703  16.457  24.862  1.00  0.00     0.237 C 
HETATM   25  N6  UNL     1      -9.302  16.158  24.800  1.00  0.00    -0.062 NA
HETATM   26  O1  UNL     1     -11.036  17.651  24.987  1.00  0.00    -0.276 OA
ENDBRANCH  22  24
ENDBRANCH  18  19
ENDBRANCH  17  18
ENDBRANCH  15  17
ENDBRANCH   8  15
BRANCH  12  27
HETATM   27  N8  UNL     1     -16.106  15.301  18.446  1.00  0.00    -0.365 N 
HETATM   28  C14 UNL     1     -15.846  16.682  18.738  1.00  0.00     0.124 C 
HETATM   29  C15 UNL     1     -17.051  17.169  19.531  1.00  0.00     0.021 C 
HETATM   30  C16 UNL     1     -17.999  15.992  19.502  1.00  0.00     0.021 C 
HETATM   31  C17 UNL     1     -17.583  15.286  18.232  1.00  0.00     0.124 C 
ENDBRANCH  12  27
BRANCH   1  32
HETATM   32  N1  UNL     1     -14.003  12.157  15.729  1.00  0.00    -0.234 N 
ATOM     33  H12 UNL     1     -14.617  11.534  15.205  1.00  0.00     0.174 HD
ATOM     34  H11 UNL     1     -13.117  12.487  15.346  1.00  0.00     0.174 HD
ENDBRANCH   1  32
TORSDOF 7
ENDMDL
MODEL 4
REMARK VINA RESULT: -6.090643164      7.200     10.795
REMARK  7 active torsions:
REMARK  status: ('A' for Active; 'I' for Inactive)
REMARK    1  A    between atoms: N1_1  and  C1_4 
REMARK    2  A    between atoms: C4_11  and  N4_12 
REMARK    3  A    between atoms: N4_12  and  C5_14 
REMARK    4  A    between atoms: C5_14  and  C6_15 
REMARK    5  A    between atoms: C6_15  and  N5_16 
REMARK    6  A    between atoms: C9_19  and  C10_20 
REMARK    7  A    between atoms: C13_27  and  N8_28 
ROOT
HETATM    1  C1  UNL     1     -14.047  12.801  16.542  1.00  0.00     0.679 A 
HETATM    2  N2  UNL     1     -14.032  12.032  17.641  1.00  0.00    -0.174 N 
ATOM      3  H2  UNL     1     -13.656  11.085  17.588  1.00  0.00     0.186 HD
HETATM    4  C2  UNL     1     -14.505  12.492  18.809  1.00  0.00     0.151 A 
HETATM    5  N3  UNL     1     -14.479  11.725  19.914  1.00  0.00    -0.346 N 
ATOM      6  H3  UNL     1     -14.103  10.778  19.858  1.00  0.00     0.167 HD
HETATM    7  C3  UNL     1     -14.943  12.187  21.101  1.00  0.00     0.138 A 
HETATM    8  C4  UNL     1     -15.450  13.462  21.181  1.00  0.00     0.117 A 
HETATM    9  N7  UNL     1     -15.472  14.231  20.054  1.00  0.00    -0.336 N 
ATOM     10  H7  UNL     1     -15.849  15.177  20.118  1.00  0.00     0.168 HD
HETATM   11  C12 UNL     1     -15.022  13.800  18.865  1.00  0.00     0.124 A 
HETATM   12  C13 UNL     1     -15.029  14.572  17.724  1.00  0.00     0.150 A 
HETATM   13  N9  UNL     1     -14.523  14.030  16.560  1.00  0.00    -0.175 N 
ATOM     14  H9  UNL     1     -14.518  14.587  15.705  1.00  0.00     0.186 HD
ENDROOT
BRANCH   8  15
HETATM   15  N4  UNL     1     -15.892  13.910  22.302  1.00  0.00    -0.373 N 
ATOM     16  H4  UNL     1     -16.851  14.257  22.338  1.00  0.00     0.161 HD
BRANCH  15  17
HETATM   17  C5  UNL     1     -15.105  13.952  23.513  1.00  0.00     0.151 C 
BRANCH  17  18
HETATM   18  C6  UNL     1     -14.507  15.346  23.609  1.00  0.00     0.292 C 
BRANCH  18  19
HETATM   19  N5  UNL     1     -13.357  15.377  24.470  1.00  0.00     0.090 N 
HETATM   20  C7  UNL     1     -13.263  16.738  25.012  1.00  0.00     0.273 C 
HETATM   21  C8  UNL     1     -11.938  16.634  25.762  1.00  0.00     0.045 C 
HETATM   22  C9  UNL     1     -11.128  15.745  24.856  1.00  0.00     0.105 C 
HETATM   23  C11 UNL     1     -12.102  15.285  23.764  1.00  0.00     0.286 C 
BRANCH  22  24
HETATM   24  C10 UNL     1     -10.003  16.516  24.302  1.00  0.00     0.237 C 
HETATM   25  N6  UNL     1     -10.174  17.484  23.258  1.00  0.00    -0.062 NA
HETATM   26  O1  UNL     1      -8.850  16.336  24.741  1.00  0.00    -0.276 OA
ENDBRANCH  22  24
ENDBRANCH  18  19
ENDBRANCH  17  18
ENDBRANCH  15  17
ENDBRANCH   8  15
BRANCH  12  27
HETATM   27  N8  UNL     1     -15.583  15.859  17.692  1.00  0.00    -0.365 N 
HETATM   28  C14 UNL     1     -16.878  16.442  17.481  1.00  0.00     0.124 C 
HETATM   29  C15 UNL     1     -16.626  17.750  16.746  1.00  0.00     0.021 C 
HETATM   30  C16 UNL     1     -15.118  17.863  16.722  1.00  0.00     0.021 C 
HETATM   31  C17 UNL     1     -14.725  17.055  17.937  1.00  0.00     0.124 C 
ENDBRANCH  12  27
BRANCH   1  32
HETATM   32  N1  UNL     1     -13.577  12.308  15.443  1.00  0.00    -0.234 N 
ATOM     33  H12 UNL     1     -14.192  12.184  14.639  1.00  0.00     0.174 HD
ATOM     34  H11 UNL     1     -12.590  12.052  15.411  1.00  0.00     0.174 HD
ENDBRANCH   1  32
TORSDOF 7
ENDMDL
MODEL 5
REMARK VINA RESULT: -5.900634695      3.434      7.393
REMARK  7 active torsions:
REMARK  status: ('A' for Active; 'I' for Inactive)
REMARK    1  A    between atoms: N1_1  and  C1_4 
REMARK    2  A    between atoms: C4_11  and  N4_12 
REMARK    3  A    between atoms: N4_12  and  C5_14 
REMARK    4  A    between atoms: C5_14  and  C6_15 
REMARK    5  A    between atoms: C6_15  and  N5_16 
REMARK    6  A    between atoms: C9_19  and  C10_20 
REMARK    7  A    between atoms: C13_27  and  N8_28 
ROOT
HETATM    1  C1  UNL     1      -9.424  17.738  22.388  1.00  0.00     0.679 A 
HETATM    2  N2  UNL     1      -8.443  16.891  22.733  1.00  0.00    -0.174 N 
ATOM      3  H2  UNL     1      -8.679  15.998  23.166  1.00  0.00     0.186 HD
HETATM    4  C2  UNL     1      -7.156  17.203  22.518  1.00  0.00     0.151 A 
HETATM    5  N3  UNL     1      -6.173  16.348  22.854  1.00  0.00    -0.346 N 
ATOM      6  H3  UNL     1      -6.412  15.455  23.286  1.00  0.00     0.167 HD
HETATM    7  C3  UNL     1      -4.872  16.651  22.627  1.00  0.00     0.138 A 
HETATM    8  C4  UNL     1      -4.546  17.851  22.043  1.00  0.00     0.117 A 
HETATM    9  N7  UNL     1      -5.551  18.712  21.708  1.00  0.00    -0.336 N 
ATOM     10  H7  UNL     1      -5.305  19.602  21.275  1.00  0.00     0.168 HD
HETATM   11  C12 UNL     1      -6.848  18.441  21.922  1.00  0.00     0.124 A 
HETATM   12  C13 UNL     1      -7.870  19.296  21.576  1.00  0.00     0.150 A 
HETATM   13  N9  UNL     1      -9.170  18.905  21.828  1.00  0.00    -0.175 N 
ATOM     14  H9  UNL     1      -9.941  19.524  21.578  1.00  0.00     0.186 HD
ENDROOT
BRANCH   8  15
HETATM   15  N4  UNL     1      -3.315  18.148  21.824  1.00  0.00    -0.373 N 
ATOM     16  H4  UNL     1      -2.708  17.428  21.429  1.00  0.00     0.161 HD
BRANCH  15  17
HETATM   17  C5  UNL     1      -2.742  19.444  22.105  1.00  0.00     0.151 C 
BRANCH  17  18
HETATM   18  C6  UNL     1      -1.456  19.547  21.302  1.00  0.00     0.292 C 
BRANCH  18  19
HETATM   19  N5  UNL     1      -0.361  20.022  22.103  1.00  0.00     0.090 N 
HETATM   20  C7  UNL     1       0.746  19.076  21.919  1.00  0.00     0.273 C 
HETATM   21  C8  UNL     1       1.744  19.635  22.930  1.00  0.00     0.045 C 
HETATM   22  C9  UNL     1       0.843  20.080  24.052  1.00  0.00     0.105 C 
HETATM   23  C11 UNL     1      -0.584  19.896  23.523  1.00  0.00     0.286 C 
BRANCH  22  24
HETATM   24  C10 UNL     1       1.103  19.249  25.240  1.00  0.00     0.237 C 
HETATM   25  N6  UNL     1       0.066  18.878  26.158  1.00  0.00    -0.062 NA
HETATM   26  O1  UNL     1       2.257  18.843  25.474  1.00  0.00    -0.276 OA
ENDBRANCH  22  24
ENDBRANCH  18  19
ENDBRANCH  17  18
ENDBRANCH  15  17
ENDBRANCH   8  15
BRANCH  12  27
HETATM   27  N8  UNL     1      -7.635  20.568  21.036  1.00  0.00    -0.365 N 
HETATM   28  C14 UNL     1      -7.467  21.143  19.731  1.00  0.00     0.124 C 
HETATM   29  C15 UNL     1      -6.445  22.257  19.900  1.00  0.00     0.021 C 
HETATM   30  C16 UNL     1      -6.210  22.305  21.393  1.00  0.00     0.021 C 
HETATM   31  C17 UNL     1      -7.510  21.755  21.932  1.00  0.00     0.124 C 
ENDBRANCH  12  27
BRANCH   1  32
HETATM   32  N1  UNL     1     -10.646  17.387  22.617  1.00  0.00    -0.234 N 
ATOM     33  H12 UNL     1     -10.889  16.398  22.670  1.00  0.00     0.174 HD
ATOM     34  H11 UNL     1     -11.345  18.120  22.741  1.00  0.00     0.174 HD
ENDBRANCH   1  32
TORSDOF 7
ENDMDL
