MODEL 1
REMARK VINA RESULT: -7.103977071      0.000      0.000
REMARK  9 active torsions:
REMARK  status: ('A' for Active; 'I' for Inactive)
REMARK    1  A    between atoms: C2_2  and  O2_4 
REMARK    2  A    between atoms: O2_4  and  C3_5 
REMARK    3  A    between atoms: C10_12  and  N1_13 
REMARK    4  A    between atoms: N1_13  and  C11_16 
REMARK    5  A    between atoms: C11_16  and  C12_17 
REMARK    6  A    between atoms: C12_17  and  C13_18 
REMARK    7  A    between atoms: C13_18  and  O3_19 
REMARK    8  A    between atoms: C21_28  and  O4_29 
REMARK    9  A    between atoms: O4_29  and  C22_30 
ROOT
HETATM    1  C3  UNL     1     -17.329  11.255  -1.234  1.00  0.00     0.161 C 
HETATM    2  C4  UNL     1     -18.811  11.205  -1.000  1.00  0.00     0.040 C 
HETATM    3  C5  UNL     1     -19.379   9.960  -1.673  1.00  0.00    -0.003 C 
HETATM    4  C6  UNL     1     -19.028   8.745  -0.890  1.00  0.00     0.010 C 
HETATM    5  C7  UNL     1     -18.221   7.723  -1.591  1.00  0.00     0.035 C 
HETATM    6  C8  UNL     1     -18.515   7.591  -3.034  1.00  0.00    -0.073 C 
HETATM    7  C9  UNL     1     -18.015   6.545  -3.669  1.00  0.00     0.009 C 
HETATM    8  C10 UNL     1     -18.212   6.261  -5.113  1.00  0.00     0.209 C 
HETATM    9  C14 UNL     1     -19.273   7.152  -5.677  1.00  0.00     0.038 C 
HETATM   10  C15 UNL     1     -18.951   8.573  -5.194  1.00  0.00     0.017 C 
HETATM   11  C16 UNL     1     -19.326   8.584  -3.728  1.00  0.00    -0.013 C 
HETATM   12  C17 UNL     1     -20.808   8.242  -3.661  1.00  0.00     0.021 C 
HETATM   13  C18 UNL     1     -19.039   9.937  -3.110  1.00  0.00    -0.027 C 
HETATM   14  C19 UNL     1     -19.955  10.927  -3.830  1.00  0.00     0.016 C 
HETATM   15  C20 UNL     1     -17.625  10.307  -3.450  1.00  0.00     0.045 C 
HETATM   16  C21 UNL     1     -17.142  11.547  -2.729  1.00  0.00     0.162 C 
ENDROOT
BRANCH   8  17
HETATM   17  N1  UNL     1     -18.539   4.854  -5.229  1.00  0.00    -0.068 N 
ATOM     18  H12 UNL     1     -18.282   4.487  -6.145  1.00  0.00     0.277 HD
ATOM     19  H11 UNL     1     -17.926   4.282  -4.648  1.00  0.00     0.277 HD
BRANCH  17  20
HETATM   20  C11 UNL     1     -19.934   4.597  -4.932  1.00  0.00     0.235 C 
BRANCH  20  21
HETATM   21  C12 UNL     1     -19.982   3.689  -3.721  1.00  0.00     0.053 C 
BRANCH  21  22
HETATM   22  C13 UNL     1     -18.816   2.718  -3.733  1.00  0.00     0.165 C 
BRANCH  22  23
HETATM   23  O3  UNL     1     -18.944   1.846  -4.804  1.00  0.00    -0.401 OA
ATOM     24  H3  UNL     1     -19.638   1.222  -4.628  1.00  0.00     0.209 HD
ENDBRANCH  22  23
ENDBRANCH  21  22
ENDBRANCH  20  21
ENDBRANCH  17  20
ENDBRANCH   8  17
BRANCH  16  25
HETATM   25  O4  UNL     1     -18.002  12.629  -3.022  1.00  0.00    -0.314 OA
BRANCH  25  26
HETATM   26  C22 UNL     1     -17.625  13.791  -3.632  1.00  0.00     0.255 C 
HETATM   27  C23 UNL     1     -16.232  14.314  -3.600  1.00  0.00     0.126 C 
HETATM   28  O5  UNL     1     -18.488  14.457  -4.253  1.00  0.00    -0.266 OA
ENDBRANCH  25  26
ENDBRANCH  16  25
BRANCH   1  29
HETATM   29  O2  UNL     1     -16.688  12.258  -0.511  1.00  0.00    -0.314 OA
BRANCH  29  30
HETATM   30  C2  UNL     1     -17.318  13.084   0.410  1.00  0.00     0.255 C 
HETATM   31  C1  UNL     1     -17.796  14.446   0.058  1.00  0.00     0.126 C 
HETATM   32  O1  UNL     1     -17.468  12.628   1.573  1.00  0.00    -0.266 OA
ENDBRANCH  29  30
ENDBRANCH   1  29
TORSDOF 9
ENDMDL
MODEL 2
REMARK VINA RESULT: -6.953119360      1.196      1.364
REMARK  9 active torsions:
REMARK  status: ('A' for Active; 'I' for Inactive)
REMARK    1  A    between atoms: C2_2  and  O2_4 
REMARK    2  A    between atoms: O2_4  and  C3_5 
REMARK    3  A    between atoms: C10_12  and  N1_13 
REMARK    4  A    between atoms: N1_13  and  C11_16 
REMARK    5  A    between atoms: C11_16  and  C12_17 
REMARK    6  A    between atoms: C12_17  and  C13_18 
REMARK    7  A    between atoms: C13_18  and  O3_19 
REMARK    8  A    between atoms: C21_28  and  O4_29 
REMARK    9  A    between atoms: O4_29  and  C22_30 
ROOT
HETATM    1  C3  UNL     1     -16.283  11.579  -1.081  1.00  0.00     0.161 C 
HETATM    2  C4  UNL     1     -17.559  11.563  -0.291  1.00  0.00     0.040 C 
HETATM    3  C5  UNL     1     -18.284  10.245  -0.546  1.00  0.00    -0.003 C 
HETATM    4  C6  UNL     1     -17.606   9.135   0.176  1.00  0.00     0.010 C 
HETATM    5  C7  UNL     1     -17.082   8.033  -0.659  1.00  0.00     0.035 C 
HETATM    6  C8  UNL     1     -17.899   7.725  -1.854  1.00  0.00    -0.073 C 
HETATM    7  C9  UNL     1     -17.633   6.607  -2.507  1.00  0.00     0.009 C 
HETATM    8  C10 UNL     1     -18.354   6.148  -3.722  1.00  0.00     0.209 C 
HETATM    9  C14 UNL     1     -19.589   6.964  -3.931  1.00  0.00     0.038 C 
HETATM   10  C15 UNL     1     -19.172   8.433  -3.776  1.00  0.00     0.017 C 
HETATM   11  C16 UNL     1     -18.958   8.626  -2.291  1.00  0.00    -0.013 C 
HETATM   12  C17 UNL     1     -20.285   8.298  -1.620  1.00  0.00     0.021 C 
HETATM   13  C18 UNL     1     -18.518  10.044  -1.990  1.00  0.00    -0.027 C 
HETATM   14  C19 UNL     1     -19.684  10.940  -2.411  1.00  0.00     0.016 C 
HETATM   15  C20 UNL     1     -17.360  10.366  -2.889  1.00  0.00     0.045 C 
HETATM   16  C21 UNL     1     -16.695  11.685  -2.556  1.00  0.00     0.162 C 
ENDROOT
BRANCH   8  17
HETATM   17  N1  UNL     1     -18.636   4.737  -3.540  1.00  0.00    -0.068 N 
ATOM     18  H12 UNL     1     -18.190   4.174  -4.263  1.00  0.00     0.277 HD
ATOM     19  H11 UNL     1     -18.152   4.365  -2.724  1.00  0.00     0.277 HD
BRANCH  17  20
HETATM   20  C11 UNL     1     -20.059   4.475  -3.472  1.00  0.00     0.235 C 
BRANCH  20  21
HETATM   21  C12 UNL     1     -20.410   3.567  -4.631  1.00  0.00     0.053 C 
BRANCH  21  22
HETATM   22  C13 UNL     1     -19.154   3.045  -5.303  1.00  0.00     0.165 C 
BRANCH  22  23
HETATM   23  O3  UNL     1     -18.877   1.764  -4.848  1.00  0.00    -0.401 OA
ATOM     24  H3  UNL     1     -18.431   1.272  -5.527  1.00  0.00     0.209 HD
ENDBRANCH  22  23
ENDBRANCH  21  22
ENDBRANCH  20  21
ENDBRANCH  17  20
ENDBRANCH   8  17
BRANCH  16  25
HETATM   25  O4  UNL     1     -17.650  12.725  -2.617  1.00  0.00    -0.314 OA
BRANCH  25  26
HETATM   26  C22 UNL     1     -17.657  13.733  -3.538  1.00  0.00     0.255 C 
HETATM   27  C23 UNL     1     -16.430  14.464  -3.957  1.00  0.00     0.126 C 
HETATM   28  O5  UNL     1     -18.747  14.066  -4.064  1.00  0.00    -0.266 OA
ENDBRANCH  25  26
ENDBRANCH  16  25
BRANCH   1  29
HETATM   29  O2  UNL     1     -15.461  12.663  -0.781  1.00  0.00    -0.314 OA
BRANCH  29  30
HETATM   30  C2  UNL     1     -15.759  13.634   0.165  1.00  0.00     0.255 C 
HETATM   31  C1  UNL     1     -16.412  14.919  -0.196  1.00  0.00     0.126 C 
HETATM   32  O1  UNL     1     -15.448  13.381   1.358  1.00  0.00    -0.266 OA
ENDBRANCH  29  30
ENDBRANCH   1  29
TORSDOF 9
ENDMDL
MODEL 3
REMARK VINA RESULT: -6.866916891      3.098      8.059
REMARK  9 active torsions:
REMARK  status: ('A' for Active; 'I' for Inactive)
REMARK    1  A    between atoms: C2_2  and  O2_4 
REMARK    2  A    between atoms: O2_4  and  C3_5 
REMARK    3  A    between atoms: C10_12  and  N1_13 
REMARK    4  A    between atoms: N1_13  and  C11_16 
REMARK    5  A    between atoms: C11_16  and  C12_17 
REMARK    6  A    between atoms: C12_17  and  C13_18 
REMARK    7  A    between atoms: C13_18  and  O3_19 
REMARK    8  A    between atoms: C21_28  and  O4_29 
REMARK    9  A    between atoms: O4_29  and  C22_30 
ROOT
HETATM    1  C3  UNL     1     -18.090   4.933  -2.742  1.00  0.00     0.161 C 
HETATM    2  C4  UNL     1     -17.427   5.638  -3.889  1.00  0.00     0.040 C 
HETATM    3  C5  UNL     1     -17.003   7.032  -3.437  1.00  0.00    -0.003 C 
HETATM    4  C6  UNL     1     -15.808   6.948  -2.557  1.00  0.00     0.010 C 
HETATM    5  C7  UNL     1     -15.965   7.474  -1.184  1.00  0.00     0.035 C 
HETATM    6  C8  UNL     1     -16.862   8.645  -1.074  1.00  0.00    -0.073 C 
HETATM    7  C9  UNL     1     -16.861   9.313   0.067  1.00  0.00     0.009 C 
HETATM    8  C10 UNL     1     -17.697  10.507   0.346  1.00  0.00     0.209 C 
HETATM    9  C14 UNL     1     -18.316  11.014  -0.917  1.00  0.00     0.038 C 
HETATM   10  C15 UNL     1     -18.909   9.792  -1.633  1.00  0.00     0.017 C 
HETATM   11  C16 UNL     1     -17.715   9.044  -2.186  1.00  0.00    -0.013 C 
HETATM   12  C17 UNL     1     -17.001  10.007  -3.123  1.00  0.00     0.021 C 
HETATM   13  C18 UNL     1     -18.157   7.787  -2.909  1.00  0.00    -0.027 C 
HETATM   14  C19 UNL     1     -18.996   8.263  -4.095  1.00  0.00     0.016 C 
HETATM   15  C20 UNL     1     -19.069   7.026  -1.993  1.00  0.00     0.045 C 
HETATM   16  C21 UNL     1     -19.428   5.651  -2.515  1.00  0.00     0.162 C 
ENDROOT
BRANCH   8  17
HETATM   17  N1  UNL     1     -16.839  11.487   0.984  1.00  0.00    -0.068 N 
ATOM     18  H12 UNL     1     -16.658  11.244   1.957  1.00  0.00     0.277 HD
ATOM     19  H11 UNL     1     -15.886  11.434   0.625  1.00  0.00     0.277 HD
BRANCH  17  20
HETATM   20  C11 UNL     1     -17.371  12.829   0.867  1.00  0.00     0.235 C 
BRANCH  20  21
HETATM   21  C12 UNL     1     -16.251  13.721   0.375  1.00  0.00     0.053 C 
BRANCH  21  22
HETATM   22  C13 UNL     1     -14.899  13.131   0.732  1.00  0.00     0.165 C 
BRANCH  22  23
HETATM   23  O3  UNL     1     -14.631  13.354   2.075  1.00  0.00    -0.401 OA
ATOM     24  H3  UNL     1     -15.042  14.163   2.354  1.00  0.00     0.209 HD
ENDBRANCH  22  23
ENDBRANCH  21  22
ENDBRANCH  20  21
ENDBRANCH  17  20
ENDBRANCH   8  17
BRANCH  16  25
HETATM   25  O4  UNL     1     -20.024   5.770  -3.791  1.00  0.00    -0.314 OA
BRANCH  25  26
HETATM   26  C22 UNL     1     -20.896   4.874  -4.338  1.00  0.00     0.255 C 
HETATM   27  C23 UNL     1     -22.205   4.528  -3.720  1.00  0.00     0.126 C 
HETATM   28  O5  UNL     1     -20.588   4.309  -5.415  1.00  0.00    -0.266 OA
ENDBRANCH  25  26
ENDBRANCH  16  25
BRANCH   1  29
HETATM   29  O2  UNL     1     -18.355   3.590  -2.997  1.00  0.00    -0.314 OA
BRANCH  29  30
HETATM   30  C2  UNL     1     -17.746   2.532  -2.336  1.00  0.00     0.255 C 
HETATM   31  C1  UNL     1     -16.497   2.703  -1.547  1.00  0.00     0.126 C 
HETATM   32  O1  UNL     1     -18.299   1.406  -2.434  1.00  0.00    -0.266 OA
ENDBRANCH  29  30
ENDBRANCH   1  29
TORSDOF 9
ENDMDL
MODEL 4
REMARK VINA RESULT: -6.848916063      1.370      1.642
REMARK  9 active torsions:
REMARK  status: ('A' for Active; 'I' for Inactive)
REMARK    1  A    between atoms: C2_2  and  O2_4 
REMARK    2  A    between atoms: O2_4  and  C3_5 
REMARK    3  A    between atoms: C10_12  and  N1_13 
REMARK    4  A    between atoms: N1_13  and  C11_16 
REMARK    5  A    between atoms: C11_16  and  C12_17 
REMARK    6  A    between atoms: C12_17  and  C13_18 
REMARK    7  A    between atoms: C13_18  and  O3_19 
REMARK    8  A    between atoms: C21_28  and  O4_29 
REMARK    9  A    between atoms: O4_29  and  C22_30 
ROOT
HETATM    1  C3  UNL     1     -16.560  10.893  -0.898  1.00  0.00     0.161 C 
HETATM    2  C4  UNL     1     -17.848  10.620  -0.177  1.00  0.00     0.040 C 
HETATM    3  C5  UNL     1     -18.523   9.407  -0.808  1.00  0.00    -0.003 C 
HETATM    4  C6  UNL     1     -17.820   8.159  -0.407  1.00  0.00     0.010 C 
HETATM    5  C7  UNL     1     -17.246   7.349  -1.502  1.00  0.00     0.035 C 
HETATM    6  C8  UNL     1     -18.031   7.364  -2.756  1.00  0.00    -0.073 C 
HETATM    7  C9  UNL     1     -17.716   6.481  -3.688  1.00  0.00     0.009 C 
HETATM    8  C10 UNL     1     -18.400   6.360  -5.000  1.00  0.00     0.209 C 
HETATM    9  C14 UNL     1     -19.658   7.167  -5.006  1.00  0.00     0.038 C 
HETATM   10  C15 UNL     1     -19.294   8.546  -4.437  1.00  0.00     0.017 C 
HETATM   11  C16 UNL     1     -19.113   8.321  -2.952  1.00  0.00    -0.013 C 
HETATM   12  C17 UNL     1     -20.438   7.783  -2.433  1.00  0.00     0.021 C 
HETATM   13  C18 UNL     1     -18.726   9.611  -2.256  1.00  0.00    -0.027 C 
HETATM   14  C19 UNL     1     -19.914  10.555  -2.441  1.00  0.00     0.016 C 
HETATM   15  C20 UNL     1     -17.564  10.203  -2.999  1.00  0.00     0.045 C 
HETATM   16  C21 UNL     1     -16.950  11.394  -2.295  1.00  0.00     0.162 C 
ENDROOT
BRANCH   8  17
HETATM   17  N1  UNL     1     -18.637   4.947  -5.226  1.00  0.00    -0.068 N 
ATOM     18  H12 UNL     1     -18.443   4.689  -6.193  1.00  0.00     0.277 HD
ATOM     19  H11 UNL     1     -17.933   4.374  -4.762  1.00  0.00     0.277 HD
BRANCH  17  20
HETATM   20  C11 UNL     1     -19.976   4.555  -4.836  1.00  0.00     0.235 C 
BRANCH  20  21
HETATM   21  C12 UNL     1     -19.857   3.723  -3.576  1.00  0.00     0.053 C 
BRANCH  21  22
HETATM   22  C13 UNL     1     -18.730   2.715  -3.705  1.00  0.00     0.165 C 
BRANCH  22  23
HETATM   23  O3  UNL     1     -18.942   1.914  -4.817  1.00  0.00    -0.401 OA
ATOM     24  H3  UNL     1     -18.281   2.096  -5.474  1.00  0.00     0.209 HD
ENDBRANCH  22  23
ENDBRANCH  21  22
ENDBRANCH  20  21
ENDBRANCH  17  20
ENDBRANCH   8  17
BRANCH  16  25
HETATM   25  O4  UNL     1     -17.939  12.383  -2.089  1.00  0.00    -0.314 OA
BRANCH  25  26
HETATM   26  C22 UNL     1     -17.917  13.640  -2.622  1.00  0.00     0.255 C 
HETATM   27  C23 UNL     1     -17.132  14.761  -2.037  1.00  0.00     0.126 C 
HETATM   28  O5  UNL     1     -18.588  13.871  -3.657  1.00  0.00    -0.266 OA
ENDBRANCH  25  26
ENDBRANCH  16  25
BRANCH   1  29
HETATM   29  O2  UNL     1     -15.780  11.871  -0.287  1.00  0.00    -0.314 OA
BRANCH  29  30
HETATM   30  C2  UNL     1     -14.545  11.635   0.302  1.00  0.00     0.255 C 
HETATM   31  C1  UNL     1     -13.976  10.268   0.429  1.00  0.00     0.126 C 
HETATM   32  O1  UNL     1     -13.919  12.638   0.732  1.00  0.00    -0.266 OA
ENDBRANCH  29  30
ENDBRANCH   1  29
TORSDOF 9
ENDMDL
MODEL 5
REMARK VINA RESULT: -6.782319578      3.074      7.288
REMARK  9 active torsions:
REMARK  status: ('A' for Active; 'I' for Inactive)
REMARK    1  A    between atoms: C2_2  and  O2_4 
REMARK    2  A    between atoms: O2_4  and  C3_5 
REMARK    3  A    between atoms: C10_12  and  N1_13 
REMARK    4  A    between atoms: N1_13  and  C11_16 
REMARK    5  A    between atoms: C11_16  and  C12_17 
REMARK    6  A    between atoms: C12_17  and  C13_18 
REMARK    7  A    between atoms: C13_18  and  O3_19 
REMARK    8  A    between atoms: C21_28  and  O4_29 
REMARK    9  A    between atoms: O4_29  and  C22_30 
ROOT
HETATM    1  C3  UNL     1     -19.821   9.070  -5.055  1.00  0.00     0.161 C 
HETATM    2  C4  UNL     1     -20.692   8.633  -3.914  1.00  0.00     0.040 C 
HETATM    3  C5  UNL     1     -19.958   8.892  -2.601  1.00  0.00    -0.003 C 
HETATM    4  C6  UNL     1     -19.960  10.346  -2.288  1.00  0.00     0.010 C 
HETATM    5  C7  UNL     1     -18.636  10.994  -2.176  1.00  0.00     0.035 C 
HETATM    6  C8  UNL     1     -17.576  10.134  -1.605  1.00  0.00    -0.073 C 
HETATM    7  C9  UNL     1     -16.442  10.712  -1.251  1.00  0.00     0.009 C 
HETATM    8  C10 UNL     1     -15.279   9.998  -0.665  1.00  0.00     0.209 C 
HETATM    9  C14 UNL     1     -15.667   8.609  -0.271  1.00  0.00     0.038 C 
HETATM   10  C15 UNL     1     -16.432   8.015  -1.462  1.00  0.00     0.017 C 
HETATM   11  C16 UNL     1     -17.781   8.700  -1.443  1.00  0.00    -0.013 C 
HETATM   12  C17 UNL     1     -18.410   8.373  -0.096  1.00  0.00     0.021 C 
HETATM   13  C18 UNL     1     -18.645   8.218  -2.591  1.00  0.00    -0.027 C 
HETATM   14  C19 UNL     1     -18.877   6.728  -2.340  1.00  0.00     0.016 C 
HETATM   15  C20 UNL     1     -17.841   8.340  -3.853  1.00  0.00     0.045 C 
HETATM   16  C21 UNL     1     -18.651   8.077  -5.104  1.00  0.00     0.162 C 
ENDROOT
BRANCH   8  17
HETATM   17  N1  UNL     1     -14.814  10.792   0.456  1.00  0.00    -0.068 N 
ATOM     18  H12 UNL     1     -15.582  11.033   1.082  1.00  0.00     0.277 HD
ATOM     19  H11 UNL     1     -14.251  10.234   1.097  1.00  0.00     0.277 HD
BRANCH  17  20
HETATM   20  C11 UNL     1     -14.100  11.975   0.021  1.00  0.00     0.235 C 
BRANCH  20  21
HETATM   21  C12 UNL     1     -14.442  13.092   0.984  1.00  0.00     0.053 C 
BRANCH  21  22
HETATM   22  C13 UNL     1     -15.861  13.579   0.758  1.00  0.00     0.165 C 
BRANCH  22  23
HETATM   23  O3  UNL     1     -16.741  12.832   1.527  1.00  0.00    -0.401 OA
ATOM     24  H3  UNL     1     -16.993  13.326   2.298  1.00  0.00     0.209 HD
ENDBRANCH  22  23
ENDBRANCH  21  22
ENDBRANCH  20  21
ENDBRANCH  17  20
ENDBRANCH   8  17
BRANCH  16  25
HETATM   25  O4  UNL     1     -19.232   6.791  -5.030  1.00  0.00    -0.314 OA
BRANCH  25  26
HETATM   26  C22 UNL     1     -18.702   5.657  -5.574  1.00  0.00     0.255 C 
HETATM   27  C23 UNL     1     -19.127   4.286  -5.179  1.00  0.00     0.126 C 
HETATM   28  O5  UNL     1     -17.812   5.765  -6.453  1.00  0.00    -0.266 OA
ENDBRANCH  25  26
ENDBRANCH  16  25
BRANCH   1  29
HETATM   29  O2  UNL     1     -20.468   9.040  -6.287  1.00  0.00    -0.314 OA
BRANCH  29  30
HETATM   30  C2  UNL     1     -21.059  10.143  -6.889  1.00  0.00     0.255 C 
HETATM   31  C1  UNL     1     -21.050  11.490  -6.259  1.00  0.00     0.126 C 
HETATM   32  O1  UNL     1     -21.613   9.955  -8.003  1.00  0.00    -0.266 OA
ENDBRANCH  29  30
ENDBRANCH   1  29
TORSDOF 9
ENDMDL
