MODEL 1
REMARK VINA RESULT: -4.939503838      0.000      0.000
REMARK  2 active torsions:
REMARK  status: ('A' for Active; 'I' for Inactive)
REMARK    1  A    between atoms: N1_1  and  C1_4 
REMARK    2  A    between atoms: N5_14  and  O1_15 
ROOT
HETATM    1  C1  UNL     1      19.552  10.506 -18.782  1.00  0.00     0.694 A 
HETATM    2  N2  UNL     1      20.316  11.178 -19.672  1.00  0.00    -0.172 N 
ATOM      3  H2  UNL     1      19.913  11.431 -20.575  1.00  0.00     0.186 HD
HETATM    4  C2  UNL     1      21.587  11.523 -19.410  1.00  0.00     0.170 A 
HETATM    5  N3  UNL     1      22.585  12.160 -20.030  1.00  0.00    -0.335 N 
ATOM      6  H3  UNL     1      22.525  12.555 -20.968  1.00  0.00     0.168 HD
HETATM    7  C3  UNL     1      23.681  12.210 -19.246  1.00  0.00     0.183 A 
HETATM    8  N4  UNL     1      23.388  11.590 -18.089  1.00  0.00    -0.332 N 
ATOM      9  H4  UNL     1      24.035  11.480 -17.308  1.00  0.00     0.168 HD
HETATM   10  C4  UNL     1      22.117  11.135 -18.104  1.00  0.00     0.198 A 
HETATM   11  N5  UNL     1      21.334  10.471 -17.247  1.00  0.00    -0.128 N 
HETATM   12  N6  UNL     1      20.097  10.178 -17.596  1.00  0.00    -0.104 N 
ATOM     13  H6  UNL     1      19.517   9.671 -16.926  1.00  0.00     0.208 HD
ENDROOT
BRANCH   1  14
HETATM   14  N1  UNL     1      18.321  10.187 -19.069  1.00  0.00    -0.233 N 
ATOM     15  H12 UNL     1      18.017  10.075 -20.037  1.00  0.00     0.174 HD
ATOM     16  H11 UNL     1      17.634  10.042 -18.329  1.00  0.00     0.174 HD
ENDBRANCH   1  14
BRANCH  11  17
HETATM   17  O1  UNL     1      21.824  10.104 -16.016  1.00  0.00    -0.266 OA
ATOM     18  H1  UNL     1      22.222   9.248 -15.902  1.00  0.00     0.247 HD
ENDBRANCH  11  17
TORSDOF 2
ENDMDL
MODEL 2
REMARK VINA RESULT: -4.747946886      1.030      3.354
REMARK  2 active torsions:
REMARK  status: ('A' for Active; 'I' for Inactive)
REMARK    1  A    between atoms: N1_1  and  C1_4 
REMARK    2  A    between atoms: N5_14  and  O1_15 
ROOT
HETATM    1  C1  UNL     1      22.726  11.827 -19.270  1.00  0.00     0.694 A 
HETATM    2  N2  UNL     1      21.533  11.822 -19.907  1.00  0.00    -0.172 N 
ATOM      3  H2  UNL     1      21.466  12.252 -20.830  1.00  0.00     0.186 HD
HETATM    4  C2  UNL     1      20.433  11.271 -19.367  1.00  0.00     0.170 A 
HETATM    5  N3  UNL     1      19.153  11.096 -19.701  1.00  0.00    -0.335 N 
ATOM      6  H3  UNL     1      18.734  11.409 -20.577  1.00  0.00     0.168 HD
HETATM    7  C3  UNL     1      18.487  10.448 -18.724  1.00  0.00     0.183 A 
HETATM    8  N4  UNL     1      19.358  10.196 -17.731  1.00  0.00    -0.332 N 
ATOM      9  H4  UNL     1      19.126   9.713 -16.863  1.00  0.00     0.168 HD
HETATM   10  C4  UNL     1      20.582  10.670 -18.043  1.00  0.00     0.198 A 
HETATM   11  N5  UNL     1      21.777  10.692 -17.441  1.00  0.00    -0.128 N 
HETATM   12  N6  UNL     1      22.799  11.256 -18.053  1.00  0.00    -0.104 N 
ATOM     13  H6  UNL     1      23.700  11.261 -17.575  1.00  0.00     0.208 HD
ENDROOT
BRANCH   1  14
HETATM   14  N1  UNL     1      23.774  12.370 -19.823  1.00  0.00    -0.233 N 
ATOM     15  H12 UNL     1      24.615  11.823 -20.009  1.00  0.00     0.174 HD
ATOM     16  H11 UNL     1      23.774  13.356 -20.082  1.00  0.00     0.174 HD
ENDBRANCH   1  14
BRANCH  11  17
HETATM   17  O1  UNL     1      21.925  10.127 -16.195  1.00  0.00    -0.266 OA
ATOM     18  H1  UNL     1      22.211   9.225 -16.116  1.00  0.00     0.247 HD
ENDBRANCH  11  17
TORSDOF 2
ENDMDL
MODEL 3
REMARK VINA RESULT: -4.603745162      2.209      2.770
REMARK  2 active torsions:
REMARK  status: ('A' for Active; 'I' for Inactive)
REMARK    1  A    between atoms: N1_1  and  C1_4 
REMARK    2  A    between atoms: N5_14  and  O1_15 
ROOT
HETATM    1  C1  UNL     1      19.063  11.814 -17.809  1.00  0.00     0.694 A 
HETATM    2  N2  UNL     1      20.173  11.404 -17.156  1.00  0.00    -0.172 N 
ATOM      3  H2  UNL     1      20.077  11.017 -16.217  1.00  0.00     0.186 HD
HETATM    4  C2  UNL     1      21.399  11.490 -17.699  1.00  0.00     0.170 A 
HETATM    5  N3  UNL     1      22.654  11.194 -17.353  1.00  0.00    -0.335 N 
ATOM      6  H3  UNL     1      22.927  10.781 -16.462  1.00  0.00     0.168 HD
HETATM    7  C3  UNL     1      23.512  11.515 -18.343  1.00  0.00     0.183 A 
HETATM    8  N4  UNL     1      22.795  12.032 -19.357  1.00  0.00    -0.332 N 
ATOM      9  H4  UNL     1      23.188  12.360 -20.239  1.00  0.00     0.168 HD
HETATM   10  C4  UNL     1      21.482  12.055 -19.045  1.00  0.00     0.198 A 
HETATM   11  N5  UNL     1      20.364  12.451 -19.663  1.00  0.00    -0.128 N 
HETATM   12  N6  UNL     1      19.205  12.325 -19.047  1.00  0.00    -0.104 N 
ATOM     13  H6  UNL     1      18.365  12.633 -19.537  1.00  0.00     0.208 HD
ENDROOT
BRANCH   1  14
HETATM   14  N1  UNL     1      17.888  11.716 -17.252  1.00  0.00    -0.233 N 
ATOM     15  H12 UNL     1      17.786  11.695 -16.237  1.00  0.00     0.174 HD
ATOM     16  H11 UNL     1      17.044  11.657 -17.822  1.00  0.00     0.174 HD
ENDBRANCH   1  14
BRANCH  11  17
HETATM   17  O1  UNL     1      20.433  12.982 -20.930  1.00  0.00    -0.266 OA
ATOM     18  H1  UNL     1      19.768  13.593 -21.224  1.00  0.00     0.247 HD
ENDBRANCH  11  17
TORSDOF 2
ENDMDL
MODEL 4
REMARK VINA RESULT: -4.599970394      2.157      3.494
REMARK  2 active torsions:
REMARK  status: ('A' for Active; 'I' for Inactive)
REMARK    1  A    between atoms: N1_1  and  C1_4 
REMARK    2  A    between atoms: N5_14  and  O1_15 
ROOT
HETATM    1  C1  UNL     1      21.739  10.984 -17.949  1.00  0.00     0.694 A 
HETATM    2  N2  UNL     1      20.594  10.827 -18.651  1.00  0.00    -0.172 N 
ATOM      3  H2  UNL     1      19.798  10.374 -18.200  1.00  0.00     0.186 HD
HETATM    4  C2  UNL     1      20.468  11.243 -19.922  1.00  0.00     0.170 A 
HETATM    5  N3  UNL     1      19.528  11.249 -20.870  1.00  0.00    -0.335 N 
ATOM      6  H3  UNL     1      18.588  10.869 -20.755  1.00  0.00     0.168 HD
HETATM    7  C3  UNL     1      19.988  11.825 -21.999  1.00  0.00     0.183 A 
HETATM    8  N4  UNL     1      21.260  12.204 -21.777  1.00  0.00    -0.332 N 
ATOM      9  H4  UNL     1      21.855  12.669 -22.462  1.00  0.00     0.168 HD
HETATM   10  C4  UNL     1      21.638  11.883 -20.522  1.00  0.00     0.198 A 
HETATM   11  N5  UNL     1      22.755  12.023 -19.799  1.00  0.00    -0.128 N 
HETATM   12  N6  UNL     1      22.781  11.581 -18.557  1.00  0.00    -0.104 N 
ATOM     13  H6  UNL     1      23.643  11.699 -18.025  1.00  0.00     0.208 HD
ENDROOT
BRANCH   1  14
HETATM   14  N1  UNL     1      21.827  10.568 -16.717  1.00  0.00    -0.233 N 
ATOM     15  H12 UNL     1      21.368  11.071 -15.957  1.00  0.00     0.174 HD
ATOM     16  H11 UNL     1      22.358   9.728 -16.487  1.00  0.00     0.174 HD
ENDBRANCH   1  14
BRANCH  11  17
HETATM   17  O1  UNL     1      23.859  12.624 -20.356  1.00  0.00    -0.266 OA
ATOM     18  H1  UNL     1      24.569  12.090 -20.694  1.00  0.00     0.247 HD
ENDBRANCH  11  17
TORSDOF 2
ENDMDL
MODEL 5
REMARK VINA RESULT: -4.529482975      2.310      4.191
REMARK  2 active torsions:
REMARK  status: ('A' for Active; 'I' for Inactive)
REMARK    1  A    between atoms: N1_1  and  C1_4 
REMARK    2  A    between atoms: N5_14  and  O1_15 
ROOT
HETATM    1  C1  UNL     1      22.241  11.427 -17.949  1.00  0.00     0.694 A 
HETATM    2  N2  UNL     1      21.112  11.397 -17.206  1.00  0.00    -0.172 N 
ATOM      3  H2  UNL     1      21.172  11.101 -16.231  1.00  0.00     0.186 HD
HETATM    4  C2  UNL     1      19.914  11.742 -17.706  1.00  0.00     0.170 A 
HETATM    5  N3  UNL     1      18.653  11.826 -17.276  1.00  0.00    -0.335 N 
ATOM      6  H3  UNL     1      18.347  11.601 -16.330  1.00  0.00     0.168 HD
HETATM    7  C3  UNL     1      17.837  12.249 -18.263  1.00  0.00     0.183 A 
HETATM    8  N4  UNL     1      18.589  12.446 -19.361  1.00  0.00    -0.332 N 
ATOM      9  H4  UNL     1      18.231  12.769 -20.260  1.00  0.00     0.168 HD
HETATM   10  C4  UNL     1      19.882  12.157 -19.108  1.00  0.00     0.198 A 
HETATM   11  N5  UNL     1      21.018  12.175 -19.814  1.00  0.00    -0.128 N 
HETATM   12  N6  UNL     1      22.146  11.818 -19.233  1.00  0.00    -0.104 N 
ATOM     13  H6  UNL     1      23.000  11.840 -19.791  1.00  0.00     0.208 HD
ENDROOT
BRANCH   1  14
HETATM   14  N1  UNL     1      23.387  11.085 -17.432  1.00  0.00    -0.233 N 
ATOM     15  H12 UNL     1      23.553  11.151 -16.427  1.00  0.00     0.174 HD
ATOM     16  H11 UNL     1      24.145  10.745 -18.023  1.00  0.00     0.174 HD
ENDBRANCH   1  14
BRANCH  11  17
HETATM   17  O1  UNL     1      20.997  12.564 -21.133  1.00  0.00    -0.266 OA
ATOM     18  H1  UNL     1      21.770  12.954 -21.523  1.00  0.00     0.247 HD
ENDBRANCH  11  17
TORSDOF 2
ENDMDL
