MODEL 1
REMARK VINA RESULT: -7.224536144      0.000      0.000
REMARK  6 active torsions:
REMARK  status: ('A' for Active; 'I' for Inactive)
REMARK       I    between atoms: N1_2  and  C2_4 
REMARK    1  A    between atoms: C2_4  and  C3_6 
REMARK    2  A    between atoms: C5_10  and  N3_11 
REMARK    3  A    between atoms: N3_11  and  N4_13 
REMARK       I    between atoms: N4_13  and  C6_15 
REMARK    4  A    between atoms: C6_15  and  C7_17 
REMARK    5  A    between atoms: C7_17  and  N5_18 
REMARK    6  A    between atoms: C7_17  and  C8_22 
ROOT
HETATM    1  N3  UNL     1      19.142  19.440  38.772  1.00  0.00    -0.129 N 
ATOM      2  H3  UNL     1      18.917  18.519  39.146  1.00  0.00     0.205 HD
ENDROOT
BRANCH   1   3
HETATM    3  C5  UNL     1      19.070  20.487  39.542  1.00  0.00     0.697 A 
HETATM    4  N2  UNL     1      18.101  20.736  40.438  1.00  0.00    -0.198 N 
HETATM    5  C4  UNL     1      18.340  21.906  41.057  1.00  0.00     0.142 A 
ATOM      6  H2  UNL     1      17.302  20.128  40.621  1.00  0.00     0.183 HD
HETATM    7  C3  UNL     1      19.510  22.430  40.538  1.00  0.00     0.132 A 
HETATM    8  N6  UNL     1      19.918  21.526  39.614  1.00  0.00    -0.183 N 
ATOM      9  H6  UNL     1      20.761  21.622  39.047  1.00  0.00     0.184 HD
BRANCH   7  10
HETATM   10  C2  UNL     1      20.177  23.676  40.889  1.00  0.00     0.269 C 
HETATM   11  N1  UNL     1      19.447  24.753  41.446  1.00  0.00    -0.360 N 
HETATM   12  C1  UNL     1      20.056  26.013  41.814  1.00  0.00     0.149 C 
ATOM     13  H1  UNL     1      18.444  24.635  41.594  1.00  0.00     0.162 HD
HETATM   14  O1  UNL     1      21.406  23.781  40.692  1.00  0.00    -0.266 OA
ENDBRANCH   7  10
ENDBRANCH   1   3
BRANCH   1  15
HETATM   15  N4  UNL     1      19.523  19.572  37.454  1.00  0.00    -0.254 N 
HETATM   16  C6  UNL     1      18.512  19.698  36.460  1.00  0.00     0.267 C 
HETATM   17  O2  UNL     1      17.294  19.690  36.764  1.00  0.00    -0.269 OA
ATOM     18  H4  UNL     1      20.509  19.579  37.196  1.00  0.00     0.190 HD
BRANCH  16  19
HETATM   19  C7  UNL     1      18.866  19.842  35.028  1.00  0.00     0.279 C 
BRANCH  19  20
HETATM   20  N5  UNL     1      19.042  18.561  34.384  1.00  0.00    -0.066 N 
ATOM     21  H53 UNL     1      19.992  18.211  34.508  1.00  0.00     0.275 HD
ATOM     22  H52 UNL     1      18.535  17.825  34.877  1.00  0.00     0.275 HD
ATOM     23  H51 UNL     1      18.784  18.592  33.398  1.00  0.00     0.275 HD
ENDBRANCH  19  20
BRANCH  19  24
HETATM   24  C8  UNL     1      17.859  20.709  34.323  1.00  0.00     0.017 C 
HETATM   25  C9  UNL     1      17.630  20.308  32.895  1.00  0.00     0.012 C 
HETATM   26  C10 UNL     1      18.304  22.150  34.389  1.00  0.00     0.012 C 
ENDBRANCH  19  24
ENDBRANCH  16  19
ENDBRANCH   1  15
TORSDOF 6
ENDMDL
MODEL 2
REMARK VINA RESULT: -7.221356807      1.163      1.408
REMARK  6 active torsions:
REMARK  status: ('A' for Active; 'I' for Inactive)
REMARK       I    between atoms: N1_2  and  C2_4 
REMARK    1  A    between atoms: C2_4  and  C3_6 
REMARK    2  A    between atoms: C5_10  and  N3_11 
REMARK    3  A    between atoms: N3_11  and  N4_13 
REMARK       I    between atoms: N4_13  and  C6_15 
REMARK    4  A    between atoms: C6_15  and  C7_17 
REMARK    5  A    between atoms: C7_17  and  N5_18 
REMARK    6  A    between atoms: C7_17  and  C8_22 
ROOT
HETATM    1  N3  UNL     1      19.495  19.498  38.830  1.00  0.00    -0.129 N 
ATOM      2  H3  UNL     1      18.856  18.771  39.150  1.00  0.00     0.205 HD
ENDROOT
BRANCH   1   3
HETATM    3  C5  UNL     1      20.026  20.317  39.689  1.00  0.00     0.697 A 
HETATM    4  N2  UNL     1      21.274  20.235  40.182  1.00  0.00    -0.198 N 
HETATM    5  C4  UNL     1      21.490  21.243  41.046  1.00  0.00     0.142 A 
ATOM      6  H2  UNL     1      21.954  19.517  39.937  1.00  0.00     0.183 HD
HETATM    7  C3  UNL     1      20.336  22.003  41.112  1.00  0.00     0.132 A 
HETATM    8  N6  UNL     1      19.470  21.395  40.264  1.00  0.00    -0.183 N 
ATOM      9  H6  UNL     1      18.518  21.716  40.087  1.00  0.00     0.184 HD
BRANCH   7  10
HETATM   10  C2  UNL     1      20.082  23.196  41.907  1.00  0.00     0.269 C 
HETATM   11  N1  UNL     1      20.325  24.484  41.373  1.00  0.00    -0.360 N 
HETATM   12  C1  UNL     1      20.092  25.703  42.116  1.00  0.00     0.149 C 
ATOM     13  H1  UNL     1      20.682  24.556  40.420  1.00  0.00     0.162 HD
HETATM   14  O1  UNL     1      19.644  23.067  43.070  1.00  0.00    -0.266 OA
ENDBRANCH   7  10
ENDBRANCH   1   3
BRANCH   1  15
HETATM   15  N4  UNL     1      19.791  19.610  37.489  1.00  0.00    -0.254 N 
HETATM   16  C6  UNL     1      18.722  19.779  36.563  1.00  0.00     0.267 C 
HETATM   17  O2  UNL     1      17.528  19.826  36.948  1.00  0.00    -0.269 OA
ATOM     18  H4  UNL     1      20.757  19.572  37.165  1.00  0.00     0.190 HD
BRANCH  16  19
HETATM   19  C7  UNL     1      18.985  19.904  35.111  1.00  0.00     0.279 C 
BRANCH  19  20
HETATM   20  N5  UNL     1      19.064  18.615  34.463  1.00  0.00    -0.066 N 
ATOM     21  H53 UNL     1      18.693  17.876  35.062  1.00  0.00     0.275 HD
ATOM     22  H52 UNL     1      18.398  18.545  33.693  1.00  0.00     0.275 HD
ATOM     23  H51 UNL     1      20.012  18.401  34.155  1.00  0.00     0.275 HD
ENDBRANCH  19  20
BRANCH  19  24
HETATM   24  C8  UNL     1      17.970  20.811  34.469  1.00  0.00     0.017 C 
HETATM   25  C9  UNL     1      17.684  20.460  33.039  1.00  0.00     0.012 C 
HETATM   26  C10 UNL     1      18.444  22.241  34.565  1.00  0.00     0.012 C 
ENDBRANCH  19  24
ENDBRANCH  16  19
ENDBRANCH   1  15
TORSDOF 6
ENDMDL
MODEL 3
REMARK VINA RESULT: -7.180649907      1.608      2.150
REMARK  6 active torsions:
REMARK  status: ('A' for Active; 'I' for Inactive)
REMARK       I    between atoms: N1_2  and  C2_4 
REMARK    1  A    between atoms: C2_4  and  C3_6 
REMARK    2  A    between atoms: C5_10  and  N3_11 
REMARK    3  A    between atoms: N3_11  and  N4_13 
REMARK       I    between atoms: N4_13  and  C6_15 
REMARK    4  A    between atoms: C6_15  and  C7_17 
REMARK    5  A    between atoms: C7_17  and  N5_18 
REMARK    6  A    between atoms: C7_17  and  C8_22 
ROOT
HETATM    1  N3  UNL     1      20.547  19.759  37.694  1.00  0.00    -0.129 N 
ATOM      2  H3  UNL     1      20.907  18.859  38.009  1.00  0.00     0.205 HD
ENDROOT
BRANCH   1   3
HETATM    3  C5  UNL     1      20.783  20.831  38.392  1.00  0.00     0.697 A 
HETATM    4  N2  UNL     1      21.988  21.391  38.586  1.00  0.00    -0.198 N 
HETATM    5  C4  UNL     1      21.864  22.486  39.358  1.00  0.00     0.142 A 
ATOM      6  H2  UNL     1      22.866  21.039  38.205  1.00  0.00     0.183 HD
HETATM    7  C3  UNL     1      20.526  22.635  39.672  1.00  0.00     0.132 A 
HETATM    8  N6  UNL     1      19.905  21.598  39.059  1.00  0.00    -0.183 N 
ATOM      9  H6  UNL     1      18.901  21.423  39.099  1.00  0.00     0.184 HD
BRANCH   7  10
HETATM   10  C2  UNL     1      19.897  23.670  40.482  1.00  0.00     0.269 C 
HETATM   11  N1  UNL     1      20.683  24.627  41.166  1.00  0.00    -0.360 N 
HETATM   12  C1  UNL     1      20.113  25.676  41.984  1.00  0.00     0.149 C 
ATOM     13  H1  UNL     1      21.698  24.575  41.079  1.00  0.00     0.162 HD
HETATM   14  O1  UNL     1      18.651  23.701  40.563  1.00  0.00    -0.266 OA
ENDBRANCH   7  10
ENDBRANCH   1   3
BRANCH   1  15
HETATM   15  N4  UNL     1      19.814  19.835  36.530  1.00  0.00    -0.254 N 
HETATM   16  C6  UNL     1      18.394  19.762  36.609  1.00  0.00     0.267 C 
HETATM   17  O2  UNL     1      17.809  19.631  37.712  1.00  0.00    -0.269 OA
ATOM     18  H4  UNL     1      20.279  19.941  35.628  1.00  0.00     0.190 HD
BRANCH  16  19
HETATM   19  C7  UNL     1      17.558  19.840  35.389  1.00  0.00     0.279 C 
BRANCH  19  20
HETATM   20  N5  UNL     1      16.266  20.428  35.657  1.00  0.00    -0.066 N 
ATOM     21  H53 UNL     1      15.926  20.170  36.584  1.00  0.00     0.275 HD
ATOM     22  H52 UNL     1      16.337  21.437  35.788  1.00  0.00     0.275 HD
ATOM     23  H51 UNL     1      15.584  20.194  34.935  1.00  0.00     0.275 HD
ENDBRANCH  19  20
BRANCH  19  24
HETATM   24  C8  UNL     1      18.297  20.550  34.288  1.00  0.00     0.017 C 
HETATM   25  C9  UNL     1      18.118  22.039  34.320  1.00  0.00     0.012 C 
HETATM   26  C10 UNL     1      17.853  20.005  32.952  1.00  0.00     0.012 C 
ENDBRANCH  19  24
ENDBRANCH  16  19
ENDBRANCH   1  15
TORSDOF 6
ENDMDL
MODEL 4
REMARK VINA RESULT: -7.162570553      1.182      1.362
REMARK  6 active torsions:
REMARK  status: ('A' for Active; 'I' for Inactive)
REMARK       I    between atoms: N1_2  and  C2_4 
REMARK    1  A    between atoms: C2_4  and  C3_6 
REMARK    2  A    between atoms: C5_10  and  N3_11 
REMARK    3  A    between atoms: N3_11  and  N4_13 
REMARK       I    between atoms: N4_13  and  C6_15 
REMARK    4  A    between atoms: C6_15  and  C7_17 
REMARK    5  A    between atoms: C7_17  and  N5_18 
REMARK    6  A    between atoms: C7_17  and  C8_22 
ROOT
HETATM    1  N3  UNL     1      18.857  19.656  38.109  1.00  0.00    -0.129 N 
ATOM      2  H3  UNL     1      18.028  19.174  38.455  1.00  0.00     0.205 HD
ENDROOT
BRANCH   1   3
HETATM    3  C5  UNL     1      19.609  20.325  38.933  1.00  0.00     0.697 A 
HETATM    4  N2  UNL     1      20.534  19.800  39.753  1.00  0.00    -0.198 N 
HETATM    5  C4  UNL     1      21.122  20.779  40.465  1.00  0.00     0.142 A 
ATOM      6  H2  UNL     1      20.757  18.807  39.826  1.00  0.00     0.183 HD
HETATM    7  C3  UNL     1      20.552  21.981  40.087  1.00  0.00     0.132 A 
HETATM    8  N6  UNL     1      19.632  21.651  39.148  1.00  0.00    -0.183 N 
ATOM      9  H6  UNL     1      19.034  22.323  38.667  1.00  0.00     0.184 HD
BRANCH   7  10
HETATM   10  C2  UNL     1      20.856  23.319  40.574  1.00  0.00     0.269 C 
HETATM   11  N1  UNL     1      19.834  24.145  41.098  1.00  0.00    -0.360 N 
HETATM   12  C1  UNL     1      20.077  25.482  41.596  1.00  0.00     0.149 C 
ATOM     13  H1  UNL     1      18.881  23.781  41.125  1.00  0.00     0.162 HD
HETATM   14  O1  UNL     1      22.036  23.728  40.525  1.00  0.00    -0.266 OA
ENDBRANCH   7  10
ENDBRANCH   1   3
BRANCH   1  15
HETATM   15  N4  UNL     1      19.176  19.596  36.770  1.00  0.00    -0.254 N 
HETATM   16  C6  UNL     1      18.128  19.420  35.823  1.00  0.00     0.267 C 
HETATM   17  O2  UNL     1      16.931  19.320  36.188  1.00  0.00    -0.269 OA
ATOM     18  H4  UNL     1      20.146  19.676  36.463  1.00  0.00     0.190 HD
BRANCH  16  19
HETATM   19  C7  UNL     1      18.416  19.349  34.372  1.00  0.00     0.279 C 
BRANCH  19  20
HETATM   20  N5  UNL     1      18.784  18.014  33.960  1.00  0.00    -0.066 N 
ATOM     21  H53 UNL     1      17.960  17.427  33.823  1.00  0.00     0.275 HD
ATOM     22  H52 UNL     1      19.146  18.006  33.005  1.00  0.00     0.275 HD
ATOM     23  H51 UNL     1      19.441  17.583  34.609  1.00  0.00     0.275 HD
ENDBRANCH  19  20
BRANCH  19  24
HETATM   24  C8  UNL     1      17.262  19.899  33.579  1.00  0.00     0.017 C 
HETATM   25  C9  UNL     1      16.667  18.903  32.629  1.00  0.00     0.012 C 
HETATM   26  C10 UNL     1      17.713  21.127  32.824  1.00  0.00     0.012 C 
ENDBRANCH  19  24
ENDBRANCH  16  19
ENDBRANCH   1  15
TORSDOF 6
ENDMDL
MODEL 5
REMARK VINA RESULT: -7.146913496      3.192      3.990
REMARK  6 active torsions:
REMARK  status: ('A' for Active; 'I' for Inactive)
REMARK       I    between atoms: N1_2  and  C2_4 
REMARK    1  A    between atoms: C2_4  and  C3_6 
REMARK    2  A    between atoms: C5_10  and  N3_11 
REMARK    3  A    between atoms: N3_11  and  N4_13 
REMARK       I    between atoms: N4_13  and  C6_15 
REMARK    4  A    between atoms: C6_15  and  C7_17 
REMARK    5  A    between atoms: C7_17  and  N5_18 
REMARK    6  A    between atoms: C7_17  and  C8_22 
ROOT
HETATM    1  N3  UNL     1      17.857  19.747  38.107  1.00  0.00    -0.129 N 
ATOM      2  H3  UNL     1      18.318  19.190  38.827  1.00  0.00     0.205 HD
ENDROOT
BRANCH   1   3
HETATM    3  C5  UNL     1      17.299  20.878  38.423  1.00  0.00     0.697 A 
HETATM    4  N2  UNL     1      17.947  22.011  38.742  1.00  0.00    -0.198 N 
HETATM    5  C4  UNL     1      17.060  22.985  39.013  1.00  0.00     0.142 A 
ATOM      6  H2  UNL     1      18.961  22.116  38.775  1.00  0.00     0.183 HD
HETATM    7  C3  UNL     1      15.790  22.458  38.862  1.00  0.00     0.132 A 
HETATM    8  N6  UNL     1      15.989  21.166  38.501  1.00  0.00    -0.183 N 
ATOM      9  H6  UNL     1      15.240  20.499  38.313  1.00  0.00     0.184 HD
BRANCH   7  10
HETATM   10  C2  UNL     1      14.508  23.122  39.045  1.00  0.00     0.269 C 
HETATM   11  N1  UNL     1      13.296  22.409  38.876  1.00  0.00    -0.360 N 
HETATM   12  C1  UNL     1      11.994  23.017  39.045  1.00  0.00     0.149 C 
ATOM     13  H1  UNL     1      13.344  21.422  38.624  1.00  0.00     0.162 HD
HETATM   14  O1  UNL     1      14.490  24.332  39.354  1.00  0.00    -0.266 OA
ENDBRANCH   7  10
ENDBRANCH   1   3
BRANCH   1  15
HETATM   15  N4  UNL     1      17.828  19.297  36.806  1.00  0.00    -0.254 N 
HETATM   16  C6  UNL     1      18.648  19.945  35.839  1.00  0.00     0.267 C 
HETATM   17  O2  UNL     1      19.388  20.909  36.153  1.00  0.00    -0.269 OA
ATOM     18  H4  UNL     1      17.230  18.514  36.539  1.00  0.00     0.190 HD
BRANCH  16  19
HETATM   19  C7  UNL     1      18.656  19.500  34.426  1.00  0.00     0.279 C 
BRANCH  19  20
HETATM   20  N5  UNL     1      18.792  18.066  34.312  1.00  0.00    -0.066 N 
ATOM     21  H53 UNL     1      19.748  17.802  34.073  1.00  0.00     0.275 HD
ATOM     22  H52 UNL     1      18.724  17.614  35.224  1.00  0.00     0.275 HD
ATOM     23  H51 UNL     1      18.122  17.672  33.651  1.00  0.00     0.275 HD
ENDBRANCH  19  20
BRANCH  19  24
HETATM   24  C8  UNL     1      17.445  20.024  33.703  1.00  0.00     0.017 C 
HETATM   25  C9  UNL     1      16.806  19.007  32.805  1.00  0.00     0.012 C 
HETATM   26  C10 UNL     1      17.826  21.248  32.906  1.00  0.00     0.012 C 
ENDBRANCH  19  24
ENDBRANCH  16  19
ENDBRANCH   1  15
TORSDOF 6
ENDMDL
