MODEL 1
REMARK VINA RESULT: -9.094757530      0.000      0.000
REMARK  5 active torsions:
REMARK  status: ('A' for Active; 'I' for Inactive)
REMARK    1  A    between atoms: O1_2  and  C2_3 
REMARK    2  A    between atoms: C4_5  and  C5_6 
REMARK    3  A    between atoms: C8_10  and  C9_11 
REMARK    4  A    between atoms: C20_24  and  O2_25 
REMARK    5  A    between atoms: C22_27  and  O3_28 
ROOT
HETATM    1  C5  UNL     1     -21.645 -14.538  14.291  1.00  0.00     0.022 C 
HETATM    2  C6  UNL     1     -22.182 -15.684  14.609  1.00  0.00    -0.011 C 
HETATM    3  C7  UNL     1     -22.980 -15.815  15.882  1.00  0.00     0.042 A 
HETATM    4  S1  UNL     1     -23.284 -15.177  17.434  1.00  0.00    -0.089 SA
HETATM    5  C8  UNL     1     -24.487 -16.276  17.949  1.00  0.00     0.017 A 
HETATM    6  C13 UNL     1     -24.616 -17.117  16.876  1.00  0.00     0.088 A 
HETATM    7  N1  UNL     1     -25.581 -18.189  16.988  1.00  0.00    -0.099 NA
HETATM    8  C14 UNL     1     -23.828 -16.864  15.813  1.00  0.00     0.074 A 
HETATM    9  N2  UNL     1     -23.590 -17.427  14.501  1.00  0.00    -0.369 N 
HETATM   10  C15 UNL     1     -24.456 -18.226  13.677  1.00  0.00     0.151 C 
HETATM   11  C16 UNL     1     -22.218 -17.033  14.101  1.00  0.00     0.054 C 
HETATM   12  C17 UNL     1     -21.238 -17.886  14.919  1.00  0.00     0.044 C 
HETATM   13  C18 UNL     1     -22.027 -17.339  12.682  1.00  0.00     0.044 C 
ENDROOT
BRANCH   1  14
HETATM   14  C4  UNL     1     -20.865 -14.179  13.153  1.00  0.00    -0.030 A 
HETATM   15  C3  UNL     1     -21.080 -14.631  11.896  1.00  0.00     0.051 A 
HETATM   16  C2  UNL     1     -20.266 -14.262  10.847  1.00  0.00     0.105 A 
HETATM   17  C22 UNL     1     -19.211 -13.409  11.110  1.00  0.00     0.135 A 
HETATM   18  C20 UNL     1     -18.945 -12.916  12.370  1.00  0.00     0.105 A 
HETATM   19  C19 UNL     1     -19.787 -13.317  13.372  1.00  0.00     0.051 A 
BRANCH  16  20
HETATM   20  O1  UNL     1     -20.490 -14.734   9.537  1.00  0.00    -0.353 OA
HETATM   21  C1  UNL     1     -20.108 -16.068   9.272  1.00  0.00     0.210 C 
ENDBRANCH  16  20
BRANCH  17  22
HETATM   22  O3  UNL     1     -18.411 -13.063  10.007  1.00  0.00    -0.351 OA
HETATM   23  C23 UNL     1     -17.187 -13.752   9.861  1.00  0.00     0.210 C 
ENDBRANCH  17  22
BRANCH  18  24
HETATM   24  O2  UNL     1     -17.868 -12.069  12.521  1.00  0.00    -0.353 OA
HETATM   25  C21 UNL     1     -17.541 -11.365  13.678  1.00  0.00     0.210 C 
ENDBRANCH  18  24
ENDBRANCH   1  14
BRANCH   5  26
HETATM   26  C9  UNL     1     -25.168 -16.237  19.267  1.00  0.00    -0.016 C 
HETATM   27  C10 UNL     1     -25.706 -17.591  19.668  1.00  0.00     0.020 C 
HETATM   28  C11 UNL     1     -26.289 -15.212  19.267  1.00  0.00     0.020 C 
HETATM   29  C12 UNL     1     -24.142 -15.804  20.294  1.00  0.00     0.020 C 
ENDBRANCH   5  26
TORSDOF 5
ENDMDL
MODEL 2
REMARK VINA RESULT: -8.694708630      0.149      2.387
REMARK  5 active torsions:
REMARK  status: ('A' for Active; 'I' for Inactive)
REMARK    1  A    between atoms: O1_2  and  C2_3 
REMARK    2  A    between atoms: C4_5  and  C5_6 
REMARK    3  A    between atoms: C8_10  and  C9_11 
REMARK    4  A    between atoms: C20_24  and  O2_25 
REMARK    5  A    between atoms: C22_27  and  O3_28 
ROOT
HETATM    1  C5  UNL     1     -21.535 -14.450  14.450  1.00  0.00     0.022 C 
HETATM    2  C6  UNL     1     -22.097 -15.598  14.715  1.00  0.00    -0.011 C 
HETATM    3  C7  UNL     1     -22.939 -15.757  15.955  1.00  0.00     0.042 A 
HETATM    4  S1  UNL     1     -23.287 -15.163  17.516  1.00  0.00    -0.089 SA
HETATM    5  C8  UNL     1     -24.521 -16.260  17.956  1.00  0.00     0.017 A 
HETATM    6  C13 UNL     1     -24.624 -17.067  16.854  1.00  0.00     0.088 A 
HETATM    7  N1  UNL     1     -25.606 -18.128  16.901  1.00  0.00    -0.099 NA
HETATM    8  C14 UNL     1     -23.797 -16.792  15.826  1.00  0.00     0.074 A 
HETATM    9  N2  UNL     1     -23.523 -17.318  14.506  1.00  0.00    -0.369 N 
HETATM   10  C15 UNL     1     -24.371 -18.079  13.629  1.00  0.00     0.151 C 
HETATM   11  C16 UNL     1     -22.133 -16.930  14.164  1.00  0.00     0.054 C 
HETATM   12  C17 UNL     1     -21.192 -17.821  14.987  1.00  0.00     0.044 C 
HETATM   13  C18 UNL     1     -21.899 -17.195  12.743  1.00  0.00     0.044 C 
ENDROOT
BRANCH   1  14
HETATM   14  C4  UNL     1     -20.713 -14.067  13.351  1.00  0.00    -0.030 A 
HETATM   15  C3  UNL     1     -19.644 -13.241  13.438  1.00  0.00     0.051 A 
HETATM   16  C2  UNL     1     -18.910 -12.891  12.326  1.00  0.00     0.105 A 
HETATM   17  C22 UNL     1     -19.294 -13.408  11.103  1.00  0.00     0.135 A 
HETATM   18  C20 UNL     1     -20.372 -14.255  10.954  1.00  0.00     0.105 A 
HETATM   19  C19 UNL     1     -21.063 -14.567  12.094  1.00  0.00     0.051 A 
BRANCH  16  20
HETATM   20  O1  UNL     1     -17.797 -12.030  12.416  1.00  0.00    -0.353 OA
HETATM   21  C1  UNL     1     -17.586 -11.399  13.662  1.00  0.00     0.210 C 
ENDBRANCH  16  20
BRANCH  17  22
HETATM   22  O3  UNL     1     -18.512 -13.022  10.000  1.00  0.00    -0.351 OA
HETATM   23  C23 UNL     1     -17.339 -13.768   9.752  1.00  0.00     0.210 C 
ENDBRANCH  17  22
BRANCH  18  24
HETATM   24  O2  UNL     1     -20.667 -14.714   9.689  1.00  0.00    -0.353 OA
HETATM   25  C21 UNL     1     -20.266 -15.936   9.153  1.00  0.00     0.210 C 
ENDBRANCH  18  24
ENDBRANCH   1  14
BRANCH   5  26
HETATM   26  C9  UNL     1     -25.245 -16.253  19.251  1.00  0.00    -0.016 C 
HETATM   27  C10 UNL     1     -25.817 -17.610  19.590  1.00  0.00     0.020 C 
HETATM   28  C11 UNL     1     -26.350 -15.210  19.247  1.00  0.00     0.020 C 
HETATM   29  C12 UNL     1     -24.248 -15.870  20.325  1.00  0.00     0.020 C 
ENDBRANCH   5  26
TORSDOF 5
ENDMDL
MODEL 3
REMARK VINA RESULT: -8.285848514      1.268      1.868
REMARK  5 active torsions:
REMARK  status: ('A' for Active; 'I' for Inactive)
REMARK    1  A    between atoms: O1_2  and  C2_3 
REMARK    2  A    between atoms: C4_5  and  C5_6 
REMARK    3  A    between atoms: C8_10  and  C9_11 
REMARK    4  A    between atoms: C20_24  and  O2_25 
REMARK    5  A    between atoms: C22_27  and  O3_28 
ROOT
HETATM    1  C5  UNL     1     -22.248 -15.671  13.847  1.00  0.00     0.022 C 
HETATM    2  C6  UNL     1     -22.876 -16.659  14.425  1.00  0.00    -0.011 C 
HETATM    3  C7  UNL     1     -23.489 -16.466  15.788  1.00  0.00     0.042 A 
HETATM    4  S1  UNL     1     -23.478 -15.555  17.231  1.00  0.00    -0.089 SA
HETATM    5  C8  UNL     1     -24.725 -16.365  18.073  1.00  0.00     0.017 A 
HETATM    6  C13 UNL     1     -25.117 -17.334  17.189  1.00  0.00     0.088 A 
HETATM    7  N1  UNL     1     -26.185 -18.217  17.605  1.00  0.00    -0.099 NA
HETATM    8  C14 UNL     1     -24.466 -17.373  16.010  1.00  0.00     0.074 A 
HETATM    9  N2  UNL     1     -24.497 -18.164  14.798  1.00  0.00    -0.369 N 
HETATM   10  C15 UNL     1     -25.571 -18.941  14.239  1.00  0.00     0.151 C 
HETATM   11  C16 UNL     1     -23.160 -18.049  14.169  1.00  0.00     0.054 C 
HETATM   12  C17 UNL     1     -22.188 -18.903  14.998  1.00  0.00     0.044 C 
HETATM   13  C18 UNL     1     -23.220 -18.598  12.814  1.00  0.00     0.044 C 
ENDROOT
BRANCH   1  14
HETATM   14  C4  UNL     1     -21.603 -15.617  12.577  1.00  0.00    -0.030 A 
HETATM   15  C3  UNL     1     -21.584 -16.627  11.677  1.00  0.00     0.051 A 
HETATM   16  C2  UNL     1     -20.915 -16.513  10.478  1.00  0.00     0.105 A 
HETATM   17  C22 UNL     1     -20.255 -15.329  10.210  1.00  0.00     0.135 A 
HETATM   18  C20 UNL     1     -20.241 -14.266  11.088  1.00  0.00     0.105 A 
HETATM   19  C19 UNL     1     -20.923 -14.437  12.263  1.00  0.00     0.051 A 
BRANCH  16  20
HETATM   20  O1  UNL     1     -20.894 -17.567   9.541  1.00  0.00    -0.353 OA
HETATM   21  C1  UNL     1     -20.572 -18.849  10.038  1.00  0.00     0.210 C 
ENDBRANCH  16  20
BRANCH  17  22
HETATM   22  O3  UNL     1     -19.589 -15.263   8.974  1.00  0.00    -0.351 OA
HETATM   23  C23 UNL     1     -20.371 -14.952   7.840  1.00  0.00     0.210 C 
ENDBRANCH  17  22
BRANCH  18  24
HETATM   24  O2  UNL     1     -19.554 -13.130  10.720  1.00  0.00    -0.353 OA
HETATM   25  C21 UNL     1     -18.222 -12.851  11.021  1.00  0.00     0.210 C 
ENDBRANCH  18  24
ENDBRANCH   1  14
BRANCH   5  26
HETATM   26  C9  UNL     1     -25.195 -16.018  19.438  1.00  0.00    -0.016 C 
HETATM   27  C10 UNL     1     -25.785 -17.209  20.155  1.00  0.00     0.020 C 
HETATM   28  C11 UNL     1     -26.207 -14.886  19.390  1.00  0.00     0.020 C 
HETATM   29  C12 UNL     1     -23.992 -15.533  20.221  1.00  0.00     0.020 C 
ENDBRANCH   5  26
TORSDOF 5
ENDMDL
MODEL 4
REMARK VINA RESULT: -8.084130120      1.195      2.749
REMARK  5 active torsions:
REMARK  status: ('A' for Active; 'I' for Inactive)
REMARK    1  A    between atoms: O1_2  and  C2_3 
REMARK    2  A    between atoms: C4_5  and  C5_6 
REMARK    3  A    between atoms: C8_10  and  C9_11 
REMARK    4  A    between atoms: C20_24  and  O2_25 
REMARK    5  A    between atoms: C22_27  and  O3_28 
ROOT
HETATM    1  C5  UNL     1     -22.104 -15.398  13.876  1.00  0.00     0.022 C 
HETATM    2  C6  UNL     1     -22.495 -16.464  14.520  1.00  0.00    -0.011 C 
HETATM    3  C7  UNL     1     -23.211 -16.326  15.839  1.00  0.00     0.042 A 
HETATM    4  S1  UNL     1     -23.508 -15.331  17.193  1.00  0.00    -0.089 SA
HETATM    5  C8  UNL     1     -24.556 -16.362  18.063  1.00  0.00     0.017 A 
HETATM    6  C13 UNL     1     -24.643 -17.466  17.258  1.00  0.00     0.088 A 
HETATM    7  N1  UNL     1     -25.477 -18.556  17.717  1.00  0.00    -0.099 NA
HETATM    8  C14 UNL     1     -23.939 -17.431  16.109  1.00  0.00     0.074 A 
HETATM    9  N2  UNL     1     -23.705 -18.297  14.974  1.00  0.00    -0.369 N 
HETATM   10  C15 UNL     1     -24.517 -19.364  14.453  1.00  0.00     0.151 C 
HETATM   11  C16 UNL     1     -22.406 -17.896  14.382  1.00  0.00     0.054 C 
HETATM   12  C17 UNL     1     -21.299 -18.406  15.317  1.00  0.00     0.044 C 
HETATM   13  C18 UNL     1     -22.252 -18.548  13.081  1.00  0.00     0.044 C 
ENDROOT
BRANCH   1  14
HETATM   14  C4  UNL     1     -21.424 -15.282  12.628  1.00  0.00    -0.030 A 
HETATM   15  C3  UNL     1     -20.745 -14.185  12.219  1.00  0.00     0.051 A 
HETATM   16  C2  UNL     1     -20.134 -14.134  10.985  1.00  0.00     0.105 A 
HETATM   17  C22 UNL     1     -20.232 -15.241  10.163  1.00  0.00     0.135 A 
HETATM   18  C20 UNL     1     -20.909 -16.385  10.527  1.00  0.00     0.105 A 
HETATM   19  C19 UNL     1     -21.495 -16.378  11.765  1.00  0.00     0.051 A 
BRANCH  16  20
HETATM   20  O1  UNL     1     -19.427 -12.991  10.558  1.00  0.00    -0.353 OA
HETATM   21  C1  UNL     1     -18.134 -12.810  11.098  1.00  0.00     0.210 C 
ENDBRANCH  16  20
BRANCH  17  22
HETATM   22  O3  UNL     1     -19.591 -15.138   8.916  1.00  0.00    -0.351 OA
HETATM   23  C23 UNL     1     -20.413 -14.912   7.790  1.00  0.00     0.210 C 
ENDBRANCH  17  22
BRANCH  18  24
HETATM   24  O2  UNL     1     -20.942 -17.432   9.632  1.00  0.00    -0.353 OA
HETATM   25  C21 UNL     1     -20.170 -18.590   9.704  1.00  0.00     0.210 C 
ENDBRANCH  18  24
ENDBRANCH   1  14
BRANCH   5  26
HETATM   26  C9  UNL     1     -25.172 -16.039  19.375  1.00  0.00    -0.016 C 
HETATM   27  C10 UNL     1     -25.823 -17.246  20.009  1.00  0.00     0.020 C 
HETATM   28  C11 UNL     1     -26.186 -14.916  19.234  1.00  0.00     0.020 C 
HETATM   29  C12 UNL     1     -24.066 -15.554  20.288  1.00  0.00     0.020 C 
ENDBRANCH   5  26
TORSDOF 5
ENDMDL
MODEL 5
REMARK VINA RESULT: -7.459610924      2.916      3.998
REMARK  5 active torsions:
REMARK  status: ('A' for Active; 'I' for Inactive)
REMARK    1  A    between atoms: O1_2  and  C2_3 
REMARK    2  A    between atoms: C4_5  and  C5_6 
REMARK    3  A    between atoms: C8_10  and  C9_11 
REMARK    4  A    between atoms: C20_24  and  O2_25 
REMARK    5  A    between atoms: C22_27  and  O3_28 
ROOT
HETATM    1  C5  UNL     1     -21.920 -17.641  13.439  1.00  0.00     0.022 C 
HETATM    2  C6  UNL     1     -22.813 -18.284  14.142  1.00  0.00    -0.011 C 
HETATM    3  C7  UNL     1     -23.393 -17.652  15.381  1.00  0.00     0.042 A 
HETATM    4  S1  UNL     1     -23.178 -16.490  16.612  1.00  0.00    -0.089 SA
HETATM    5  C8  UNL     1     -24.626 -16.747  17.483  1.00  0.00     0.017 A 
HETATM    6  C13 UNL     1     -25.240 -17.745  16.776  1.00  0.00     0.088 A 
HETATM    7  N1  UNL     1     -26.522 -18.208  17.261  1.00  0.00    -0.099 NA
HETATM    8  C14 UNL     1     -24.587 -18.203  15.689  1.00  0.00     0.074 A 
HETATM    9  N2  UNL     1     -24.795 -19.197  14.658  1.00  0.00    -0.369 N 
HETATM   10  C15 UNL     1     -26.022 -19.767  14.170  1.00  0.00     0.151 C 
HETATM   11  C16 UNL     1     -23.458 -19.573  14.140  1.00  0.00     0.054 C 
HETATM   12  C17 UNL     1     -22.785 -20.454  15.203  1.00  0.00     0.044 C 
HETATM   13  C18 UNL     1     -23.623 -20.363  12.919  1.00  0.00     0.044 C 
ENDROOT
BRANCH   1  14
HETATM   14  C4  UNL     1     -21.244 -18.029  12.245  1.00  0.00    -0.030 A 
HETATM   15  C3  UNL     1     -20.510 -19.157  12.106  1.00  0.00     0.051 A 
HETATM   16  C2  UNL     1     -19.859 -19.454  10.928  1.00  0.00     0.105 A 
HETATM   17  C22 UNL     1     -19.976 -18.563   9.877  1.00  0.00     0.135 A 
HETATM   18  C20 UNL     1     -20.711 -17.400   9.961  1.00  0.00     0.105 A 
HETATM   19  C19 UNL     1     -21.334 -17.158  11.156  1.00  0.00     0.051 A 
BRANCH  16  20
HETATM   20  O1  UNL     1     -19.093 -20.629  10.783  1.00  0.00    -0.353 OA
HETATM   21  C1  UNL     1     -19.770 -21.853  10.982  1.00  0.00     0.210 C 
ENDBRANCH  16  20
BRANCH  17  22
HETATM   22  O3  UNL     1     -19.294 -18.913   8.698  1.00  0.00    -0.351 OA
HETATM   23  C23 UNL     1     -19.973 -19.756   7.792  1.00  0.00     0.210 C 
ENDBRANCH  17  22
BRANCH  18  24
HETATM   24  O2  UNL     1     -20.762 -16.583   8.853  1.00  0.00    -0.353 OA
HETATM   25  C21 UNL     1     -19.996 -15.437   8.651  1.00  0.00     0.210 C 
ENDBRANCH  18  24
ENDBRANCH   1  14
BRANCH   5  26
HETATM   26  C9  UNL     1     -25.026 -16.007  18.707  1.00  0.00    -0.016 C 
HETATM   27  C10 UNL     1     -25.666 -16.911  19.733  1.00  0.00     0.020 C 
HETATM   28  C11 UNL     1     -25.966 -14.863  18.363  1.00  0.00     0.020 C 
HETATM   29  C12 UNL     1     -23.769 -15.411  19.306  1.00  0.00     0.020 C 
ENDBRANCH   5  26
TORSDOF 5
ENDMDL
