MODEL 1
REMARK VINA RESULT: -7.680064971      0.000      0.000
REMARK  13 active torsions:
REMARK  status: ('A' for Active; 'I' for Inactive)
REMARK    1  A    between atoms: C2_2  and  C4_4 
REMARK    2  A    between atoms: C4_4  and  C5_5 
REMARK    3  A    between atoms: C4_4  and  O6_27 
REMARK    4  A    between atoms: C5_5  and  C6_6 
REMARK    5  A    between atoms: C6_6  and  C7_11 
REMARK    6  A    between atoms: N1_7  and  O1_9 
REMARK       I    between atoms: C7_11  and  N2_13 
REMARK    7  A    between atoms: N2_13  and  O3_15 
REMARK    8  A    between atoms: O3_15  and  C8_16 
REMARK    9  A    between atoms: C8_16  and  N3_17 
REMARK   10  A    between atoms: C8_16  and  C11_23 
REMARK       I    between atoms: N3_17  and  C9_19 
REMARK   11  A    between atoms: C9_19  and  O5_21 
REMARK   12  A    between atoms: C11_23  and  C13_25 
REMARK   13  A    between atoms: O6_27  and  C15_28 
ROOT
HETATM    1  C4  UNL     1     -11.049 -12.129 -49.438  1.00  0.00     0.155 C 
ENDROOT
BRANCH   1   2
HETATM    2  C2  UNL     1     -10.700 -10.652 -49.294  1.00  0.00    -0.064 C 
HETATM    3  C1  UNL     1     -11.199  -9.862 -48.381  1.00  0.00     0.016 C 
HETATM    4  C3  UNL     1      -9.736 -10.003 -50.258  1.00  0.00     0.045 C 
ENDBRANCH   1   2
BRANCH   1   5
HETATM    5  C5  UNL     1     -12.582 -12.105 -49.493  1.00  0.00     0.101 C 
BRANCH   5   6
HETATM    6  C6  UNL     1     -13.212 -13.419 -49.604  1.00  0.00     0.104 C 
HETATM    7  N1  UNL     1     -13.354 -13.986 -50.737  1.00  0.00    -0.268 N 
ATOM      8  H1  UNL     1     -13.023 -13.503 -51.573  1.00  0.00     0.194 HD
BRANCH   7   9
HETATM    9  O1  UNL     1     -13.947 -15.243 -50.877  1.00  0.00    -0.290 OA
ATOM     10  H1  UNL     1     -14.135 -15.626 -51.725  1.00  0.00     0.244 HD
ENDBRANCH   7   9
BRANCH   6  11
HETATM   11  C7  UNL     1     -13.611 -14.146 -48.424  1.00  0.00     0.289 C 
HETATM   12  O2  UNL     1     -12.902 -15.078 -47.981  1.00  0.00    -0.264 OA
HETATM   13  N2  UNL     1     -14.801 -13.813 -47.760  1.00  0.00    -0.227 N 
ATOM     14  H2  UNL     1     -15.356 -13.052 -48.151  1.00  0.00     0.198 HD
BRANCH  13  15
HETATM   15  O3  UNL     1     -15.279 -14.419 -46.636  1.00  0.00    -0.251 OA
BRANCH  15  16
HETATM   16  C8  UNL     1     -16.462 -15.142 -46.985  1.00  0.00     0.259 C 
BRANCH  16  17
HETATM   17  N3  UNL     1     -16.138 -16.566 -46.815  1.00  0.00    -0.308 N 
HETATM   18  C9  UNL     1     -15.704 -17.286 -47.948  1.00  0.00     0.362 C 
HETATM   19  O4  UNL     1     -15.611 -16.687 -49.077  1.00  0.00    -0.238 OA
ATOM     20  H3  UNL     1     -16.224 -17.020 -45.906  1.00  0.00     0.167 HD
BRANCH  18  21
HETATM   21  O5  UNL     1     -15.372 -18.631 -47.865  1.00  0.00    -0.309 OA
HETATM   22  C10 UNL     1     -14.054 -18.989 -48.297  1.00  0.00     0.215 C 
ENDBRANCH  18  21
ENDBRANCH  16  17
BRANCH  16  23
HETATM   23  C11 UNL     1     -17.558 -14.664 -46.116  1.00  0.00     0.033 C 
HETATM   24  C12 UNL     1     -18.532 -15.793 -45.782  1.00  0.00     0.014 C 
BRANCH  23  25
HETATM   25  C13 UNL     1     -18.316 -13.467 -46.570  1.00  0.00     0.004 C 
HETATM   26  C14 UNL     1     -19.769 -13.444 -46.217  1.00  0.00     0.005 C 
ENDBRANCH  23  25
ENDBRANCH  16  23
ENDBRANCH  15  16
ENDBRANCH  13  15
ENDBRANCH   6  11
ENDBRANCH   5   6
ENDBRANCH   1   5
BRANCH   1  27
HETATM   27  O6  UNL     1     -10.487 -12.436 -50.627  1.00  0.00    -0.375 OA
BRANCH  27  28
HETATM   28  C15 UNL     1      -9.864 -13.530 -50.991  1.00  0.00     0.131 C 
HETATM   29  C16 UNL     1      -9.761 -14.591 -49.840  1.00  0.00     0.034 C 
HETATM   30  C17 UNL     1      -8.693 -15.546 -50.308  1.00  0.00     0.013 C 
HETATM   31  C18 UNL     1      -8.025 -14.926 -51.440  1.00  0.00    -0.030 C 
HETATM   32  C19 UNL     1      -8.673 -15.508 -52.707  1.00  0.00     0.016 C 
HETATM   33  C20 UNL     1      -6.587 -15.040 -51.632  1.00  0.00     0.004 C 
HETATM   34  C32 UNL     1      -8.413 -13.476 -51.371  1.00  0.00    -0.010 C 
HETATM   35  C21 UNL     1      -5.943 -16.351 -51.771  1.00  0.00     0.007 C 
HETATM   36  C29 UNL     1      -5.631 -14.331 -50.707  1.00  0.00    -0.029 C 
HETATM   37  C22 UNL     1      -4.477 -15.951 -51.897  1.00  0.00     0.010 C 
HETATM   38  C23 UNL     1      -4.377 -14.482 -51.501  1.00  0.00    -0.036 C 
HETATM   39  C24 UNL     1      -4.187 -13.595 -52.684  1.00  0.00     0.016 C 
HETATM   40  C25 UNL     1      -3.112 -14.217 -50.693  1.00  0.00     0.010 C 
HETATM   41  C26 UNL     1      -2.981 -15.000 -49.460  1.00  0.00     0.001 C 
HETATM   42  C27 UNL     1      -4.212 -14.898 -48.629  1.00  0.00     0.001 C 
HETATM   43  C28 UNL     1      -5.506 -14.901 -49.358  1.00  0.00     0.011 C 
HETATM   44  C30 UNL     1      -6.137 -12.908 -50.617  1.00  0.00     0.011 C 
HETATM   45  C31 UNL     1      -7.588 -12.833 -50.267  1.00  0.00     0.013 C 
HETATM   46  C33 UNL     1      -8.196 -12.692 -52.591  1.00  0.00     0.018 C 
ENDBRANCH  27  28
ENDBRANCH   1  27
TORSDOF 13
ENDMDL
MODEL 2
REMARK VINA RESULT: -7.566802323      3.254      5.103
REMARK  13 active torsions:
REMARK  status: ('A' for Active; 'I' for Inactive)
REMARK    1  A    between atoms: C2_2  and  C4_4 
REMARK    2  A    between atoms: C4_4  and  C5_5 
REMARK    3  A    between atoms: C4_4  and  O6_27 
REMARK    4  A    between atoms: C5_5  and  C6_6 
REMARK    5  A    between atoms: C6_6  and  C7_11 
REMARK    6  A    between atoms: N1_7  and  O1_9 
REMARK       I    between atoms: C7_11  and  N2_13 
REMARK    7  A    between atoms: N2_13  and  O3_15 
REMARK    8  A    between atoms: O3_15  and  C8_16 
REMARK    9  A    between atoms: C8_16  and  N3_17 
REMARK   10  A    between atoms: C8_16  and  C11_23 
REMARK       I    between atoms: N3_17  and  C9_19 
REMARK   11  A    between atoms: C9_19  and  O5_21 
REMARK   12  A    between atoms: C11_23  and  C13_25 
REMARK   13  A    between atoms: O6_27  and  C15_28 
ROOT
HETATM    1  C4  UNL     1     -10.122 -11.721 -49.455  1.00  0.00     0.155 C 
ENDROOT
BRANCH   1   2
HETATM    2  C2  UNL     1     -11.299 -10.855 -49.021  1.00  0.00    -0.064 C 
HETATM    3  C1  UNL     1     -11.568  -9.675 -49.515  1.00  0.00     0.016 C 
HETATM    4  C3  UNL     1     -12.235 -11.333 -47.938  1.00  0.00     0.045 C 
ENDBRANCH   1   2
BRANCH   1   5
HETATM    5  C5  UNL     1     -10.816 -12.939 -50.078  1.00  0.00     0.101 C 
BRANCH   5   6
HETATM    6  C6  UNL     1     -10.228 -14.228 -49.722  1.00  0.00     0.104 C 
HETATM    7  N1  UNL     1      -8.964 -14.394 -49.717  1.00  0.00    -0.268 N 
ATOM      8  H1  UNL     1      -8.364 -13.609 -49.972  1.00  0.00     0.194 HD
BRANCH   7   9
HETATM    9  O1  UNL     1      -8.370 -15.612 -49.377  1.00  0.00    -0.290 OA
ATOM     10  H1  UNL     1      -7.912 -16.150 -50.011  1.00  0.00     0.244 HD
ENDBRANCH   7   9
BRANCH   6  11
HETATM   11  C7  UNL     1     -11.061 -15.321 -49.283  1.00  0.00     0.289 C 
HETATM   12  O2  UNL     1     -10.934 -16.459 -49.789  1.00  0.00    -0.264 OA
HETATM   13  N2  UNL     1     -12.020 -15.118 -48.281  1.00  0.00    -0.227 N 
ATOM     14  H2  UNL     1     -12.099 -14.178 -47.894  1.00  0.00     0.198 HD
BRANCH  13  15
HETATM   15  O3  UNL     1     -12.857 -16.070 -47.779  1.00  0.00    -0.251 OA
BRANCH  15  16
HETATM   16  C8  UNL     1     -14.177 -15.810 -48.264  1.00  0.00     0.259 C 
BRANCH  16  17
HETATM   17  N3  UNL     1     -15.093 -16.539 -47.376  1.00  0.00    -0.308 N 
HETATM   18  C9  UNL     1     -15.935 -17.514 -47.948  1.00  0.00     0.362 C 
HETATM   19  O4  UNL     1     -15.882 -17.730 -49.210  1.00  0.00    -0.238 OA
ATOM     20  H3  UNL     1     -15.118 -16.345 -46.375  1.00  0.00     0.167 HD
BRANCH  18  21
HETATM   21  O5  UNL     1     -16.821 -18.249 -47.172  1.00  0.00    -0.309 OA
HETATM   22  C10 UNL     1     -17.936 -17.534 -46.629  1.00  0.00     0.215 C 
ENDBRANCH  18  21
ENDBRANCH  16  17
BRANCH  16  23
HETATM   23  C11 UNL     1     -14.377 -14.346 -48.270  1.00  0.00     0.033 C 
HETATM   24  C12 UNL     1     -15.351 -13.917 -47.173  1.00  0.00     0.014 C 
BRANCH  23  25
HETATM   25  C13 UNL     1     -14.766 -13.714 -49.560  1.00  0.00     0.004 C 
HETATM   26  C14 UNL     1     -14.580 -14.558 -50.780  1.00  0.00     0.005 C 
ENDBRANCH  23  25
ENDBRANCH  16  23
ENDBRANCH  15  16
ENDBRANCH  13  15
ENDBRANCH   6  11
ENDBRANCH   5   6
ENDBRANCH   1   5
BRANCH   1  27
HETATM   27  O6  UNL     1      -9.519 -10.935 -50.374  1.00  0.00    -0.375 OA
BRANCH  27  28
HETATM   28  C15 UNL     1      -8.284 -10.498 -50.408  1.00  0.00     0.131 C 
HETATM   29  C16 UNL     1      -8.166  -8.965 -50.099  1.00  0.00     0.034 C 
HETATM   30  C17 UNL     1      -6.790  -8.591 -50.585  1.00  0.00     0.013 C 
HETATM   31  C18 UNL     1      -6.296  -9.702 -51.383  1.00  0.00    -0.030 C 
HETATM   32  C19 UNL     1      -5.408 -10.548 -50.457  1.00  0.00     0.016 C 
HETATM   33  C20 UNL     1      -5.525  -9.485 -52.597  1.00  0.00     0.004 C 
HETATM   34  C32 UNL     1      -7.516 -10.522 -51.698  1.00  0.00    -0.010 C 
HETATM   35  C21 UNL     1      -4.260  -8.742 -52.568  1.00  0.00     0.007 C 
HETATM   36  C29 UNL     1      -6.179  -8.918 -53.831  1.00  0.00    -0.029 C 
HETATM   37  C22 UNL     1      -3.878  -8.747 -54.044  1.00  0.00     0.010 C 
HETATM   38  C23 UNL     1      -5.104  -9.208 -54.824  1.00  0.00    -0.036 C 
HETATM   39  C24 UNL     1      -4.963 -10.608 -55.313  1.00  0.00     0.016 C 
HETATM   40  C25 UNL     1      -5.253  -8.426 -56.124  1.00  0.00     0.010 C 
HETATM   41  C26 UNL     1      -5.367  -6.971 -55.971  1.00  0.00     0.001 C 
HETATM   42  C27 UNL     1      -6.420  -6.620 -54.978  1.00  0.00     0.001 C 
HETATM   43  C28 UNL     1      -6.514  -7.488 -53.777  1.00  0.00     0.011 C 
HETATM   44  C30 UNL     1      -7.439  -9.731 -54.031  1.00  0.00     0.011 C 
HETATM   45  C31 UNL     1      -8.281  -9.802 -52.798  1.00  0.00     0.013 C 
HETATM   46  C33 UNL     1      -7.269 -11.891 -52.162  1.00  0.00     0.018 C 
ENDBRANCH  27  28
ENDBRANCH   1  27
TORSDOF 13
ENDMDL
MODEL 3
REMARK VINA RESULT: -7.458638558      2.704      4.509
REMARK  13 active torsions:
REMARK  status: ('A' for Active; 'I' for Inactive)
REMARK    1  A    between atoms: C2_2  and  C4_4 
REMARK    2  A    between atoms: C4_4  and  C5_5 
REMARK    3  A    between atoms: C4_4  and  O6_27 
REMARK    4  A    between atoms: C5_5  and  C6_6 
REMARK    5  A    between atoms: C6_6  and  C7_11 
REMARK    6  A    between atoms: N1_7  and  O1_9 
REMARK       I    between atoms: C7_11  and  N2_13 
REMARK    7  A    between atoms: N2_13  and  O3_15 
REMARK    8  A    between atoms: O3_15  and  C8_16 
REMARK    9  A    between atoms: C8_16  and  N3_17 
REMARK   10  A    between atoms: C8_16  and  C11_23 
REMARK       I    between atoms: N3_17  and  C9_19 
REMARK   11  A    between atoms: C9_19  and  O5_21 
REMARK   12  A    between atoms: C11_23  and  C13_25 
REMARK   13  A    between atoms: O6_27  and  C15_28 
ROOT
HETATM    1  C4  UNL     1      -9.273 -14.737 -49.910  1.00  0.00     0.155 C 
ENDROOT
BRANCH   1   2
HETATM    2  C2  UNL     1     -10.527 -13.897 -50.128  1.00  0.00    -0.064 C 
HETATM    3  C1  UNL     1     -11.254 -13.927 -51.214  1.00  0.00     0.016 C 
HETATM    4  C3  UNL     1     -10.992 -12.935 -49.062  1.00  0.00     0.045 C 
ENDBRANCH   1   2
BRANCH   1   5
HETATM    5  C5  UNL     1      -9.848 -16.143 -49.695  1.00  0.00     0.101 C 
BRANCH   5   6
HETATM    6  C6  UNL     1     -10.102 -16.494 -48.299  1.00  0.00     0.104 C 
HETATM    7  N1  UNL     1      -9.210 -16.320 -47.405  1.00  0.00    -0.268 N 
ATOM      8  H1  UNL     1      -8.307 -15.932 -47.680  1.00  0.00     0.194 HD
BRANCH   7   9
HETATM    9  O1  UNL     1      -9.423 -16.641 -46.062  1.00  0.00    -0.290 OA
ATOM     10  H1  UNL     1      -9.714 -15.999 -45.425  1.00  0.00     0.244 HD
ENDBRANCH   7   9
BRANCH   6  11
HETATM   11  C7  UNL     1     -11.400 -16.967 -47.883  1.00  0.00     0.289 C 
HETATM   12  O2  UNL     1     -11.682 -18.186 -47.945  1.00  0.00    -0.264 OA
HETATM   13  N2  UNL     1     -12.359 -16.064 -47.405  1.00  0.00    -0.227 N 
ATOM     14  H2  UNL     1     -12.098 -15.079 -47.373  1.00  0.00     0.198 HD
BRANCH  13  15
HETATM   15  O3  UNL     1     -13.612 -16.389 -46.977  1.00  0.00    -0.251 OA
BRANCH  15  16
HETATM   16  C8  UNL     1     -14.550 -15.971 -47.973  1.00  0.00     0.259 C 
BRANCH  16  17
HETATM   17  N3  UNL     1     -15.847 -16.536 -47.578  1.00  0.00    -0.308 N 
HETATM   18  C9  UNL     1     -15.980 -17.940 -47.559  1.00  0.00     0.362 C 
HETATM   19  O4  UNL     1     -14.981 -18.671 -47.887  1.00  0.00    -0.238 OA
ATOM     20  H3  UNL     1     -16.629 -15.931 -47.326  1.00  0.00     0.167 HD
BRANCH  18  21
HETATM   21  O5  UNL     1     -17.172 -18.548 -47.190  1.00  0.00    -0.309 OA
HETATM   22  C10 UNL     1     -18.139 -17.713 -46.541  1.00  0.00     0.215 C 
ENDBRANCH  18  21
ENDBRANCH  16  17
BRANCH  16  23
HETATM   23  C11 UNL     1     -14.524 -14.494 -48.028  1.00  0.00     0.033 C 
HETATM   24  C12 UNL     1     -15.518 -13.888 -47.036  1.00  0.00     0.014 C 
BRANCH  23  25
HETATM   25  C13 UNL     1     -14.695 -13.857 -49.360  1.00  0.00     0.004 C 
HETATM   26  C14 UNL     1     -14.618 -14.776 -50.537  1.00  0.00     0.005 C 
ENDBRANCH  23  25
ENDBRANCH  16  23
ENDBRANCH  15  16
ENDBRANCH  13  15
ENDBRANCH   6  11
ENDBRANCH   5   6
ENDBRANCH   1   5
BRANCH   1  27
HETATM   27  O6  UNL     1      -8.637 -14.606 -51.094  1.00  0.00    -0.375 OA
BRANCH  27  28
HETATM   28  C15 UNL     1      -7.461 -14.090 -51.350  1.00  0.00     0.131 C 
HETATM   29  C16 UNL     1      -6.644 -13.750 -50.056  1.00  0.00     0.034 C 
HETATM   30  C17 UNL     1      -5.558 -12.820 -50.533  1.00  0.00     0.013 C 
HETATM   31  C18 UNL     1      -5.904 -12.409 -51.884  1.00  0.00    -0.030 C 
HETATM   32  C19 UNL     1      -5.120 -13.324 -52.838  1.00  0.00     0.016 C 
HETATM   33  C20 UNL     1      -5.676 -11.049 -52.348  1.00  0.00     0.004 C 
HETATM   34  C32 UNL     1      -7.359 -12.757 -52.032  1.00  0.00    -0.010 C 
HETATM   35  C21 UNL     1      -4.330 -10.465 -52.349  1.00  0.00     0.007 C 
HETATM   36  C29 UNL     1      -6.499  -9.906 -51.812  1.00  0.00    -0.029 C 
HETATM   37  C22 UNL     1      -4.615  -9.058 -52.862  1.00  0.00     0.010 C 
HETATM   38  C23 UNL     1      -6.126  -8.858 -52.805  1.00  0.00    -0.036 C 
HETATM   39  C24 UNL     1      -6.750  -8.921 -54.157  1.00  0.00     0.016 C 
HETATM   40  C25 UNL     1      -6.475  -7.444 -52.355  1.00  0.00     0.010 C 
HETATM   41  C26 UNL     1      -5.944  -7.055 -51.044  1.00  0.00     0.001 C 
HETATM   42  C27 UNL     1      -6.276  -8.074 -50.011  1.00  0.00     0.001 C 
HETATM   43  C28 UNL     1      -6.201  -9.495 -50.433  1.00  0.00     0.011 C 
HETATM   44  C30 UNL     1      -7.938 -10.364 -51.909  1.00  0.00     0.011 C 
HETATM   45  C31 UNL     1      -8.161 -11.703 -51.283  1.00  0.00     0.013 C 
HETATM   46  C33 UNL     1      -7.873 -12.803 -53.405  1.00  0.00     0.018 C 
ENDBRANCH  27  28
ENDBRANCH   1  27
TORSDOF 13
ENDMDL
MODEL 4
REMARK VINA RESULT: -7.434889527      3.370      5.091
REMARK  13 active torsions:
REMARK  status: ('A' for Active; 'I' for Inactive)
REMARK    1  A    between atoms: C2_2  and  C4_4 
REMARK    2  A    between atoms: C4_4  and  C5_5 
REMARK    3  A    between atoms: C4_4  and  O6_27 
REMARK    4  A    between atoms: C5_5  and  C6_6 
REMARK    5  A    between atoms: C6_6  and  C7_11 
REMARK    6  A    between atoms: N1_7  and  O1_9 
REMARK       I    between atoms: C7_11  and  N2_13 
REMARK    7  A    between atoms: N2_13  and  O3_15 
REMARK    8  A    between atoms: O3_15  and  C8_16 
REMARK    9  A    between atoms: C8_16  and  N3_17 
REMARK   10  A    between atoms: C8_16  and  C11_23 
REMARK       I    between atoms: N3_17  and  C9_19 
REMARK   11  A    between atoms: C9_19  and  O5_21 
REMARK   12  A    between atoms: C11_23  and  C13_25 
REMARK   13  A    between atoms: O6_27  and  C15_28 
ROOT
HETATM    1  C4  UNL     1     -10.167 -11.850 -49.663  1.00  0.00     0.155 C 
ENDROOT
BRANCH   1   2
HETATM    2  C2  UNL     1     -11.486 -11.187 -49.283  1.00  0.00    -0.064 C 
HETATM    3  C1  UNL     1     -12.660 -11.739 -49.436  1.00  0.00     0.016 C 
HETATM    4  C3  UNL     1     -11.495  -9.790 -48.710  1.00  0.00     0.045 C 
ENDBRANCH   1   2
BRANCH   1   5
HETATM    5  C5  UNL     1     -10.629 -13.078 -50.458  1.00  0.00     0.101 C 
BRANCH   5   6
HETATM    6  C6  UNL     1     -10.226 -14.362 -49.891  1.00  0.00     0.104 C 
HETATM    7  N1  UNL     1      -8.999 -14.619 -49.650  1.00  0.00    -0.268 N 
ATOM      8  H1  UNL     1      -8.298 -13.909 -49.864  1.00  0.00     0.194 HD
BRANCH   7   9
HETATM    9  O1  UNL     1      -8.582 -15.835 -49.103  1.00  0.00    -0.290 OA
ATOM     10  H1  UNL     1      -7.892 -15.891 -48.454  1.00  0.00     0.244 HD
ENDBRANCH   7   9
BRANCH   6  11
HETATM   11  C7  UNL     1     -11.214 -15.342 -49.509  1.00  0.00     0.289 C 
HETATM   12  O2  UNL     1     -11.239 -16.467 -50.058  1.00  0.00    -0.264 OA
HETATM   13  N2  UNL     1     -12.156 -15.042 -48.514  1.00  0.00    -0.227 N 
ATOM     14  H2  UNL     1     -12.108 -14.115 -48.092  1.00  0.00     0.198 HD
BRANCH  13  15
HETATM   15  O3  UNL     1     -13.129 -15.882 -48.064  1.00  0.00    -0.251 OA
BRANCH  15  16
HETATM   16  C8  UNL     1     -14.400 -15.326 -48.411  1.00  0.00     0.259 C 
BRANCH  16  17
HETATM   17  N3  UNL     1     -14.920 -16.147 -49.513  1.00  0.00    -0.308 N 
HETATM   18  C9  UNL     1     -14.780 -15.657 -50.828  1.00  0.00     0.362 C 
HETATM   19  O4  UNL     1     -14.215 -14.523 -51.020  1.00  0.00    -0.238 OA
ATOM     20  H3  UNL     1     -15.370 -17.044 -49.333  1.00  0.00     0.167 HD
BRANCH  18  21
HETATM   21  O5  UNL     1     -15.239 -16.379 -51.921  1.00  0.00    -0.309 OA
HETATM   22  C10 UNL     1     -16.028 -15.658 -52.875  1.00  0.00     0.215 C 
ENDBRANCH  18  21
ENDBRANCH  16  17
BRANCH  16  23
HETATM   23  C11 UNL     1     -15.244 -15.334 -47.198  1.00  0.00     0.033 C 
HETATM   24  C12 UNL     1     -16.258 -16.478 -47.240  1.00  0.00     0.014 C 
BRANCH  23  25
HETATM   25  C13 UNL     1     -15.934 -14.067 -46.837  1.00  0.00     0.004 C 
HETATM   26  C14 UNL     1     -17.379 -14.193 -46.473  1.00  0.00     0.005 C 
ENDBRANCH  23  25
ENDBRANCH  16  23
ENDBRANCH  15  16
ENDBRANCH  13  15
ENDBRANCH   6  11
ENDBRANCH   5   6
ENDBRANCH   1   5
BRANCH   1  27
HETATM   27  O6  UNL     1      -9.592 -10.907 -50.441  1.00  0.00    -0.375 OA
BRANCH  27  28
HETATM   28  C15 UNL     1      -8.358 -10.468 -50.436  1.00  0.00     0.131 C 
HETATM   29  C16 UNL     1      -8.251  -8.941 -50.092  1.00  0.00     0.034 C 
HETATM   30  C17 UNL     1      -6.864  -8.555 -50.536  1.00  0.00     0.013 C 
HETATM   31  C18 UNL     1      -6.348  -9.648 -51.344  1.00  0.00    -0.030 C 
HETATM   32  C19 UNL     1      -5.482 -10.512 -50.415  1.00  0.00     0.016 C 
HETATM   33  C20 UNL     1      -5.548  -9.404 -52.534  1.00  0.00     0.004 C 
HETATM   34  C32 UNL     1      -7.558 -10.464 -51.706  1.00  0.00    -0.010 C 
HETATM   35  C21 UNL     1      -4.286  -8.659 -52.458  1.00  0.00     0.007 C 
HETATM   36  C29 UNL     1      -6.172  -8.812 -53.771  1.00  0.00    -0.029 C 
HETATM   37  C22 UNL     1      -3.867  -8.632 -53.923  1.00  0.00     0.010 C 
HETATM   38  C23 UNL     1      -5.073  -9.079 -54.743  1.00  0.00    -0.036 C 
HETATM   39  C24 UNL     1      -4.916 -10.468 -55.258  1.00  0.00     0.016 C 
HETATM   40  C25 UNL     1      -5.191  -8.270 -56.030  1.00  0.00     0.010 C 
HETATM   41  C26 UNL     1      -5.312  -6.819 -55.849  1.00  0.00     0.001 C 
HETATM   42  C27 UNL     1      -6.390  -6.491 -54.876  1.00  0.00     0.001 C 
HETATM   43  C28 UNL     1      -6.512  -7.384 -53.695  1.00  0.00     0.011 C 
HETATM   44  C30 UNL     1      -7.425  -9.623 -54.019  1.00  0.00     0.011 C 
HETATM   45  C31 UNL     1      -8.297  -9.722 -52.809  1.00  0.00     0.013 C 
HETATM   46  C33 UNL     1      -7.296 -11.822 -52.193  1.00  0.00     0.018 C 
ENDBRANCH  27  28
ENDBRANCH   1  27
TORSDOF 13
ENDMDL
MODEL 5
REMARK VINA RESULT: -7.233898789      3.089      6.228
REMARK  13 active torsions:
REMARK  status: ('A' for Active; 'I' for Inactive)
REMARK    1  A    between atoms: C2_2  and  C4_4 
REMARK    2  A    between atoms: C4_4  and  C5_5 
REMARK    3  A    between atoms: C4_4  and  O6_27 
REMARK    4  A    between atoms: C5_5  and  C6_6 
REMARK    5  A    between atoms: C6_6  and  C7_11 
REMARK    6  A    between atoms: N1_7  and  O1_9 
REMARK       I    between atoms: C7_11  and  N2_13 
REMARK    7  A    between atoms: N2_13  and  O3_15 
REMARK    8  A    between atoms: O3_15  and  C8_16 
REMARK    9  A    between atoms: C8_16  and  N3_17 
REMARK   10  A    between atoms: C8_16  and  C11_23 
REMARK       I    between atoms: N3_17  and  C9_19 
REMARK   11  A    between atoms: C9_19  and  O5_21 
REMARK   12  A    between atoms: C11_23  and  C13_25 
REMARK   13  A    between atoms: O6_27  and  C15_28 
ROOT
HETATM    1  C4  UNL     1      -5.842 -15.712 -50.139  1.00  0.00     0.155 C 
ENDROOT
BRANCH   1   2
HETATM    2  C2  UNL     1      -5.165 -15.570 -48.780  1.00  0.00    -0.064 C 
HETATM    3  C1  UNL     1      -4.143 -14.793 -48.543  1.00  0.00     0.016 C 
HETATM    4  C3  UNL     1      -5.655 -16.376 -47.601  1.00  0.00     0.045 C 
ENDBRANCH   1   2
BRANCH   1   5
HETATM    5  C5  UNL     1      -7.021 -16.643 -49.829  1.00  0.00     0.101 C 
BRANCH   5   6
HETATM    6  C6  UNL     1      -8.306 -16.205 -50.369  1.00  0.00     0.104 C 
HETATM    7  N1  UNL     1      -8.622 -16.437 -51.583  1.00  0.00    -0.268 N 
ATOM      8  H1  UNL     1      -7.957 -16.934 -52.177  1.00  0.00     0.194 HD
BRANCH   7   9
HETATM    9  O1  UNL     1      -9.843 -16.036 -52.129  1.00  0.00    -0.290 OA
ATOM     10  H1  UNL     1     -10.001 -15.149 -52.428  1.00  0.00     0.244 HD
ENDBRANCH   7   9
BRANCH   6  11
HETATM   11  C7  UNL     1      -9.285 -15.574 -49.519  1.00  0.00     0.289 C 
HETATM   12  O2  UNL     1     -10.097 -16.265 -48.863  1.00  0.00    -0.264 OA
HETATM   13  N2  UNL     1      -9.336 -14.177 -49.419  1.00  0.00    -0.227 N 
ATOM     14  H2  UNL     1      -8.664 -13.645 -49.971  1.00  0.00     0.198 HD
BRANCH  13  15
HETATM   15  O3  UNL     1     -10.207 -13.467 -48.648  1.00  0.00    -0.251 OA
BRANCH  15  16
HETATM   16  C8  UNL     1     -10.867 -12.508 -49.480  1.00  0.00     0.259 C 
BRANCH  16  17
HETATM   17  N3  UNL     1     -12.269 -12.939 -49.571  1.00  0.00    -0.308 N 
HETATM   18  C9  UNL     1     -12.631 -13.797 -50.631  1.00  0.00     0.362 C 
HETATM   19  O4  UNL     1     -11.741 -14.167 -51.474  1.00  0.00    -0.238 OA
ATOM     20  H3  UNL     1     -12.960 -12.627 -48.889  1.00  0.00     0.167 HD
BRANCH  18  21
HETATM   21  O5  UNL     1     -13.934 -14.253 -50.778  1.00  0.00    -0.309 OA
HETATM   22  C10 UNL     1     -14.895 -13.748 -49.843  1.00  0.00     0.215 C 
ENDBRANCH  18  21
ENDBRANCH  16  17
BRANCH  16  23
HETATM   23  C11 UNL     1     -10.681 -11.176 -48.870  1.00  0.00     0.033 C 
HETATM   24  C12 UNL     1     -11.839 -10.832 -47.932  1.00  0.00     0.014 C 
BRANCH  23  25
HETATM   25  C13 UNL     1     -10.425 -10.033 -49.787  1.00  0.00     0.004 C 
HETATM   26  C14 UNL     1      -9.396  -9.050 -49.332  1.00  0.00     0.005 C 
ENDBRANCH  23  25
ENDBRANCH  16  23
ENDBRANCH  15  16
ENDBRANCH  13  15
ENDBRANCH   6  11
ENDBRANCH   5   6
ENDBRANCH   1   5
BRANCH   1  27
HETATM   27  O6  UNL     1      -6.229 -14.443 -50.394  1.00  0.00    -0.375 OA
BRANCH  27  28
HETATM   28  C15 UNL     1      -6.043 -13.720 -51.470  1.00  0.00     0.131 C 
HETATM   29  C16 UNL     1      -4.577 -13.804 -52.021  1.00  0.00     0.034 C 
HETATM   30  C17 UNL     1      -4.462 -12.629 -52.957  1.00  0.00     0.013 C 
HETATM   31  C18 UNL     1      -5.616 -11.775 -52.723  1.00  0.00    -0.030 C 
HETATM   32  C19 UNL     1      -6.657 -12.139 -53.793  1.00  0.00     0.016 C 
HETATM   33  C20 UNL     1      -5.506 -10.325 -52.741  1.00  0.00     0.004 C 
HETATM   34  C32 UNL     1      -6.166 -12.225 -51.399  1.00  0.00    -0.010 C 
HETATM   35  C21 UNL     1      -5.029  -9.615 -53.934  1.00  0.00     0.007 C 
HETATM   36  C29 UNL     1      -4.772  -9.597 -51.644  1.00  0.00    -0.029 C 
HETATM   37  C22 UNL     1      -5.049  -8.170 -53.450  1.00  0.00     0.010 C 
HETATM   38  C23 UNL     1      -5.228  -8.207 -51.935  1.00  0.00    -0.036 C 
HETATM   39  C24 UNL     1      -6.608  -7.822 -51.525  1.00  0.00     0.016 C 
HETATM   40  C25 UNL     1      -4.380  -7.136 -51.258  1.00  0.00     0.010 C 
HETATM   41  C26 UNL     1      -2.939  -7.219 -51.519  1.00  0.00     0.001 C 
HETATM   42  C27 UNL     1      -2.428  -8.593 -51.257  1.00  0.00     0.001 C 
HETATM   43  C28 UNL     1      -3.307  -9.717 -51.666  1.00  0.00     0.011 C 
HETATM   44  C30 UNL     1      -5.313 -10.165 -50.350  1.00  0.00     0.011 C 
HETATM   45  C31 UNL     1      -5.266 -11.658 -50.312  1.00  0.00     0.013 C 
HETATM   46  C33 UNL     1      -7.537 -11.803 -51.095  1.00  0.00     0.018 C 
ENDBRANCH  27  28
ENDBRANCH   1  27
TORSDOF 13
ENDMDL
