MODEL 1
REMARK VINA RESULT: -8.723046633      0.000      0.000
REMARK  16 active torsions:
REMARK  status: ('A' for Active; 'I' for Inactive)
REMARK    1  A    between atoms: C3_3  and  C4_4 
REMARK    2  A    between atoms: C3_3  and  C31_39 
REMARK    3  A    between atoms: C4_4  and  O2_6 
REMARK    4  A    between atoms: O2_6  and  C5_7 
REMARK    5  A    between atoms: C6_8  and  O3_9 
REMARK    6  A    between atoms: C8_12  and  C10_14 
REMARK    7  A    between atoms: C11_15  and  C12_16 
REMARK    8  A    between atoms: C14_18  and  C15_19 
REMARK    9  A    between atoms: C15_19  and  C16_20 
REMARK   10  A    between atoms: C16_20  and  C17_21 
REMARK   11  A    between atoms: C17_21  and  O5_23 
REMARK   12  A    between atoms: O5_23  and  C18_24 
REMARK   13  A    between atoms: C18_24  and  C19_25 
REMARK   14  A    between atoms: C27_33  and  O6_35 
REMARK   15  A    between atoms: O6_35  and  C29_36 
REMARK   16  A    between atoms: C31_39  and  O8_42 
ROOT
HETATM    1  C5  UNL     1     -11.757 -15.081 -49.936  1.00  0.00     0.196 C 
HETATM    2  C6  UNL     1     -12.556 -15.604 -51.129  1.00  0.00     0.151 C 
HETATM    3  C7  UNL     1     -13.997 -15.257 -50.707  1.00  0.00     0.050 C 
HETATM    4  C8  UNL     1     -13.963 -15.856 -49.313  1.00  0.00     0.010 C 
HETATM    5  C9  UNL     1     -13.891 -17.375 -49.510  1.00  0.00     0.023 C 
HETATM    6  C27 UNL     1     -12.621 -15.356 -48.758  1.00  0.00     0.106 C 
HETATM    7  C28 UNL     1     -12.822 -14.054 -48.013  1.00  0.00     0.050 C 
ENDROOT
BRANCH   4   8
HETATM    8  C10 UNL     1     -15.114 -15.556 -48.496  1.00  0.00    -0.014 C 
HETATM    9  C11 UNL     1     -15.648 -16.409 -47.661  1.00  0.00     0.003 C 
BRANCH   9  10
HETATM   10  C12 UNL     1     -16.830 -16.075 -46.832  1.00  0.00    -0.066 C 
HETATM   11  C13 UNL     1     -17.725 -17.205 -46.526  1.00  0.00     0.048 C 
HETATM   12  C14 UNL     1     -17.042 -14.866 -46.415  1.00  0.00    -0.020 C 
BRANCH  12  13
HETATM   13  C15 UNL     1     -18.160 -14.408 -45.601  1.00  0.00     0.037 C 
BRANCH  13  14
HETATM   14  C16 UNL     1     -19.199 -13.640 -46.411  1.00  0.00     0.115 C 
BRANCH  14  15
HETATM   15  C17 UNL     1     -20.585 -14.049 -45.987  1.00  0.00     0.259 C 
HETATM   16  O4  UNL     1     -20.880 -15.257 -46.027  1.00  0.00    -0.265 OA
BRANCH  15  17
HETATM   17  O5  UNL     1     -21.508 -13.159 -45.570  1.00  0.00    -0.320 OA
BRANCH  17  18
HETATM   18  C18 UNL     1     -22.071 -12.043 -46.067  1.00  0.00     0.192 C 
BRANCH  18  19
HETATM   19  C19 UNL     1     -21.391 -10.731 -46.126  1.00  0.00    -0.004 C 
HETATM   20  C20 UNL     1     -20.918 -10.640 -47.630  1.00  0.00     0.021 C 
HETATM   21  C21 UNL     1     -22.389  -9.593 -46.074  1.00  0.00    -0.013 C 
HETATM   22  C22 UNL     1     -22.546  -8.889 -44.980  1.00  0.00    -0.087 C 
HETATM   23  C23 UNL     1     -23.552  -7.746 -44.934  1.00  0.00     0.043 C 
HETATM   24  C24 UNL     1     -21.740  -9.217 -43.781  1.00  0.00     0.033 C 
HETATM   25  C25 UNL     1     -20.366  -9.709 -44.050  1.00  0.00     0.005 C 
HETATM   26  C26 UNL     1     -20.182 -10.460 -45.341  1.00  0.00     0.015 C 
ENDBRANCH  18  19
ENDBRANCH  17  18
ENDBRANCH  15  17
ENDBRANCH  14  15
ENDBRANCH  13  14
ENDBRANCH  12  13
ENDBRANCH   9  10
ENDBRANCH   4   8
BRANCH   6  27
HETATM   27  O6  UNL     1     -12.154 -16.382 -47.940  1.00  0.00    -0.307 OA
BRANCH  27  28
HETATM   28  C29 UNL     1     -10.873 -16.845 -47.814  1.00  0.00     0.255 C 
HETATM   29  C30 UNL     1     -10.517 -18.132 -48.468  1.00  0.00     0.126 C 
HETATM   30  O7  UNL     1     -10.069 -16.151 -47.152  1.00  0.00    -0.266 OA
ENDBRANCH  27  28
ENDBRANCH   6  27
BRANCH   2  31
HETATM   31  O3  UNL     1     -12.200 -14.996 -52.310  1.00  0.00    -0.393 OA
ATOM     32  H3  UNL     1     -11.651 -15.549 -52.855  1.00  0.00     0.210 HD
ENDBRANCH   2  31
BRANCH   1  33
HETATM   33  O2  UNL     1     -11.573 -13.678 -50.198  1.00  0.00    -0.306 OA
BRANCH  33  34
HETATM   34  C4  UNL     1     -10.344 -13.131 -49.927  1.00  0.00     0.292 C 
HETATM   35  O1  UNL     1      -9.435 -13.882 -49.507  1.00  0.00    -0.259 OA
BRANCH  34  36
HETATM   36  C3  UNL     1     -10.014 -11.691 -50.104  1.00  0.00     0.046 C 
HETATM   37  C2  UNL     1      -9.226 -11.401 -51.100  1.00  0.00    -0.015 C 
HETATM   38  C1  UNL     1      -8.705 -10.119 -51.565  1.00  0.00     0.037 C 
BRANCH  36  39
HETATM   39  C31 UNL     1     -10.612 -10.782 -49.135  1.00  0.00     0.083 C 
HETATM   40  C32 UNL     1     -12.052 -10.411 -49.549  1.00  0.00     0.051 C 
HETATM   41  C33 UNL     1      -9.896  -9.516 -48.824  1.00  0.00     0.051 C 
BRANCH  39  42
HETATM   42  O8  UNL     1     -10.693 -11.493 -47.907  1.00  0.00    -0.386 OA
ATOM     43  H8  UNL     1     -11.246 -12.249 -48.066  1.00  0.00     0.211 HD
ENDBRANCH  39  42
ENDBRANCH  36  39
ENDBRANCH  34  36
ENDBRANCH  33  34
ENDBRANCH   1  33
TORSDOF 16
ENDMDL
MODEL 2
REMARK VINA RESULT: -8.701287295      1.958      3.768
REMARK  16 active torsions:
REMARK  status: ('A' for Active; 'I' for Inactive)
REMARK    1  A    between atoms: C3_3  and  C4_4 
REMARK    2  A    between atoms: C3_3  and  C31_39 
REMARK    3  A    between atoms: C4_4  and  O2_6 
REMARK    4  A    between atoms: O2_6  and  C5_7 
REMARK    5  A    between atoms: C6_8  and  O3_9 
REMARK    6  A    between atoms: C8_12  and  C10_14 
REMARK    7  A    between atoms: C11_15  and  C12_16 
REMARK    8  A    between atoms: C14_18  and  C15_19 
REMARK    9  A    between atoms: C15_19  and  C16_20 
REMARK   10  A    between atoms: C16_20  and  C17_21 
REMARK   11  A    between atoms: C17_21  and  O5_23 
REMARK   12  A    between atoms: O5_23  and  C18_24 
REMARK   13  A    between atoms: C18_24  and  C19_25 
REMARK   14  A    between atoms: C27_33  and  O6_35 
REMARK   15  A    between atoms: O6_35  and  C29_36 
REMARK   16  A    between atoms: C31_39  and  O8_42 
ROOT
HETATM    1  C5  UNL     1     -11.966 -14.620 -49.541  1.00  0.00     0.196 C 
HETATM    2  C6  UNL     1     -12.229 -13.122 -49.684  1.00  0.00     0.151 C 
HETATM    3  C7  UNL     1     -13.056 -12.836 -48.416  1.00  0.00     0.050 C 
HETATM    4  C8  UNL     1     -14.078 -13.948 -48.569  1.00  0.00     0.010 C 
HETATM    5  C9  UNL     1     -14.936 -13.566 -49.781  1.00  0.00     0.023 C 
HETATM    6  C27 UNL     1     -13.209 -15.162 -48.932  1.00  0.00     0.106 C 
HETATM    7  C28 UNL     1     -12.822 -15.916 -47.677  1.00  0.00     0.050 C 
ENDROOT
BRANCH   4   8
HETATM    8  C10 UNL     1     -14.946 -14.134 -47.433  1.00  0.00    -0.014 C 
HETATM    9  C11 UNL     1     -16.223 -14.400 -47.538  1.00  0.00     0.003 C 
BRANCH   9  10
HETATM   10  C12 UNL     1     -17.094 -14.587 -46.354  1.00  0.00    -0.066 C 
HETATM   11  C13 UNL     1     -16.764 -13.749 -45.188  1.00  0.00     0.048 C 
HETATM   12  C14 UNL     1     -18.076 -15.435 -46.366  1.00  0.00    -0.020 C 
BRANCH  12  13
HETATM   13  C15 UNL     1     -18.999 -15.714 -45.274  1.00  0.00     0.037 C 
BRANCH  13  14
HETATM   14  C16 UNL     1     -20.355 -16.210 -45.766  1.00  0.00     0.115 C 
BRANCH  14  15
HETATM   15  C17 UNL     1     -21.441 -15.271 -45.311  1.00  0.00     0.259 C 
HETATM   16  O4  UNL     1     -22.167 -15.626 -44.364  1.00  0.00    -0.265 OA
BRANCH  15  17
HETATM   17  O5  UNL     1     -21.651 -14.071 -45.887  1.00  0.00    -0.320 OA
BRANCH  17  18
HETATM   18  C18 UNL     1     -22.000 -12.842 -45.465  1.00  0.00     0.192 C 
BRANCH  18  19
HETATM   19  C19 UNL     1     -21.222 -11.618 -45.757  1.00  0.00    -0.004 C 
HETATM   20  C20 UNL     1     -20.002 -12.160 -46.599  1.00  0.00     0.021 C 
HETATM   21  C21 UNL     1     -21.920 -10.758 -46.789  1.00  0.00    -0.013 C 
HETATM   22  C22 UNL     1     -22.546  -9.662 -46.438  1.00  0.00    -0.087 C 
HETATM   23  C23 UNL     1     -23.246  -8.801 -47.482  1.00  0.00     0.043 C 
HETATM   24  C24 UNL     1     -22.573  -9.266 -45.010  1.00  0.00     0.033 C 
HETATM   25  C25 UNL     1     -21.358  -9.603 -44.230  1.00  0.00     0.005 C 
HETATM   26  C26 UNL     1     -20.609 -10.827 -44.684  1.00  0.00     0.015 C 
ENDBRANCH  18  19
ENDBRANCH  17  18
ENDBRANCH  15  17
ENDBRANCH  14  15
ENDBRANCH  13  14
ENDBRANCH  12  13
ENDBRANCH   9  10
ENDBRANCH   4   8
BRANCH   6  27
HETATM   27  O6  UNL     1     -13.983 -15.923 -49.805  1.00  0.00    -0.307 OA
BRANCH  27  28
HETATM   28  C29 UNL     1     -13.561 -16.703 -50.846  1.00  0.00     0.255 C 
HETATM   29  C30 UNL     1     -13.780 -16.214 -52.233  1.00  0.00     0.126 C 
HETATM   30  O7  UNL     1     -13.009 -17.792 -50.568  1.00  0.00    -0.266 OA
ENDBRANCH  27  28
ENDBRANCH   6  27
BRANCH   2  31
HETATM   31  O3  UNL     1     -11.069 -12.384 -49.725  1.00  0.00    -0.393 OA
ATOM     32  H3  UNL     1     -10.449 -12.640 -49.051  1.00  0.00     0.210 HD
ENDBRANCH   2  31
BRANCH   1  33
HETATM   33  O2  UNL     1     -10.816 -14.716 -48.681  1.00  0.00    -0.306 OA
BRANCH  33  34
HETATM   34  C4  UNL     1      -9.676 -15.281 -49.196  1.00  0.00     0.292 C 
HETATM   35  O1  UNL     1      -8.819 -14.532 -49.717  1.00  0.00    -0.259 OA
BRANCH  34  36
HETATM   36  C3  UNL     1      -9.384 -16.741 -49.172  1.00  0.00     0.046 C 
HETATM   37  C2  UNL     1      -9.539 -17.375 -50.299  1.00  0.00    -0.015 C 
HETATM   38  C1  UNL     1      -9.344 -18.782 -50.638  1.00  0.00     0.037 C 
BRANCH  36  39
HETATM   39  C31 UNL     1      -8.966 -17.280 -47.885  1.00  0.00     0.083 C 
HETATM   40  C32 UNL     1      -7.426 -17.333 -47.788  1.00  0.00     0.051 C 
HETATM   41  C33 UNL     1      -9.486 -18.613 -47.478  1.00  0.00     0.051 C 
BRANCH  39  42
HETATM   42  O8  UNL     1      -9.422 -16.368 -46.894  1.00  0.00    -0.386 OA
ATOM     43  H8  UNL     1      -8.670 -15.848 -46.636  1.00  0.00     0.211 HD
ENDBRANCH  39  42
ENDBRANCH  36  39
ENDBRANCH  34  36
ENDBRANCH  33  34
ENDBRANCH   1  33
TORSDOF 16
ENDMDL
MODEL 3
REMARK VINA RESULT: -8.309721508      2.311      4.643
REMARK  16 active torsions:
REMARK  status: ('A' for Active; 'I' for Inactive)
REMARK    1  A    between atoms: C3_3  and  C4_4 
REMARK    2  A    between atoms: C3_3  and  C31_39 
REMARK    3  A    between atoms: C4_4  and  O2_6 
REMARK    4  A    between atoms: O2_6  and  C5_7 
REMARK    5  A    between atoms: C6_8  and  O3_9 
REMARK    6  A    between atoms: C8_12  and  C10_14 
REMARK    7  A    between atoms: C11_15  and  C12_16 
REMARK    8  A    between atoms: C14_18  and  C15_19 
REMARK    9  A    between atoms: C15_19  and  C16_20 
REMARK   10  A    between atoms: C16_20  and  C17_21 
REMARK   11  A    between atoms: C17_21  and  O5_23 
REMARK   12  A    between atoms: O5_23  and  C18_24 
REMARK   13  A    between atoms: C18_24  and  C19_25 
REMARK   14  A    between atoms: C27_33  and  O6_35 
REMARK   15  A    between atoms: O6_35  and  C29_36 
REMARK   16  A    between atoms: C31_39  and  O8_42 
ROOT
HETATM    1  C5  UNL     1     -13.125 -16.048 -50.466  1.00  0.00     0.196 C 
HETATM    2  C6  UNL     1     -13.200 -17.418 -49.796  1.00  0.00     0.151 C 
HETATM    3  C7  UNL     1     -14.513 -17.297 -48.999  1.00  0.00     0.050 C 
HETATM    4  C8  UNL     1     -14.227 -15.973 -48.313  1.00  0.00     0.010 C 
HETATM    5  C9  UNL     1     -13.100 -16.254 -47.312  1.00  0.00     0.023 C 
HETATM    6  C27 UNL     1     -13.679 -15.107 -49.457  1.00  0.00     0.106 C 
HETATM    7  C28 UNL     1     -14.807 -14.336 -50.109  1.00  0.00     0.050 C 
ENDROOT
BRANCH   4   8
HETATM    8  C10 UNL     1     -15.344 -15.408 -47.597  1.00  0.00    -0.014 C 
HETATM    9  C11 UNL     1     -16.351 -16.117 -47.156  1.00  0.00     0.003 C 
BRANCH   9  10
HETATM   10  C12 UNL     1     -17.487 -15.512 -46.422  1.00  0.00    -0.066 C 
HETATM   11  C13 UNL     1     -17.489 -14.039 -46.365  1.00  0.00     0.048 C 
HETATM   12  C14 UNL     1     -18.406 -16.246 -45.876  1.00  0.00    -0.020 C 
BRANCH  12  13
HETATM   13  C15 UNL     1     -19.566 -15.779 -45.129  1.00  0.00     0.037 C 
BRANCH  13  14
HETATM   14  C16 UNL     1     -20.884 -16.223 -45.755  1.00  0.00     0.115 C 
BRANCH  14  15
HETATM   15  C17 UNL     1     -21.842 -15.062 -45.811  1.00  0.00     0.259 C 
HETATM   16  O4  UNL     1     -23.062 -15.304 -45.764  1.00  0.00    -0.265 OA
BRANCH  15  17
HETATM   17  O5  UNL     1     -21.428 -13.783 -45.908  1.00  0.00    -0.320 OA
BRANCH  17  18
HETATM   18  C18 UNL     1     -21.957 -12.572 -45.656  1.00  0.00     0.192 C 
BRANCH  18  19
HETATM   19  C19 UNL     1     -21.231 -11.297 -45.851  1.00  0.00    -0.004 C 
HETATM   20  C20 UNL     1     -20.060 -11.699 -46.831  1.00  0.00     0.021 C 
HETATM   21  C21 UNL     1     -22.019 -10.346 -46.726  1.00  0.00    -0.013 C 
HETATM   22  C22 UNL     1     -22.646  -9.319 -46.207  1.00  0.00    -0.087 C 
HETATM   23  C23 UNL     1     -23.437  -8.366 -47.093  1.00  0.00     0.043 C 
HETATM   24  C24 UNL     1     -22.583  -9.093 -44.744  1.00  0.00     0.033 C 
HETATM   25  C25 UNL     1     -21.308  -9.480 -44.091  1.00  0.00     0.005 C 
HETATM   26  C26 UNL     1     -20.563 -10.618 -44.735  1.00  0.00     0.015 C 
ENDBRANCH  18  19
ENDBRANCH  17  18
ENDBRANCH  15  17
ENDBRANCH  14  15
ENDBRANCH  13  14
ENDBRANCH  12  13
ENDBRANCH   9  10
ENDBRANCH   4   8
BRANCH   6  27
HETATM   27  O6  UNL     1     -12.725 -14.280 -48.870  1.00  0.00    -0.307 OA
BRANCH  27  28
HETATM   28  C29 UNL     1     -12.328 -13.033 -49.269  1.00  0.00     0.255 C 
HETATM   29  C30 UNL     1     -12.608 -11.879 -48.375  1.00  0.00     0.126 C 
HETATM   30  O7  UNL     1     -11.745 -12.936 -50.374  1.00  0.00    -0.266 OA
ENDBRANCH  27  28
ENDBRANCH   6  27
BRANCH   2  31
HETATM   31  O3  UNL     1     -13.239 -18.450 -50.706  1.00  0.00    -0.393 OA
ATOM     32  H3  UNL     1     -13.637 -19.236 -50.350  1.00  0.00     0.210 HD
ENDBRANCH   2  31
BRANCH   1  33
HETATM   33  O2  UNL     1     -13.939 -16.166 -51.648  1.00  0.00    -0.306 OA
BRANCH  33  34
HETATM   34  C4  UNL     1     -13.316 -16.068 -52.867  1.00  0.00     0.292 C 
HETATM   35  O1  UNL     1     -12.184 -15.536 -52.919  1.00  0.00    -0.259 OA
BRANCH  34  36
HETATM   36  C3  UNL     1     -13.901 -16.560 -54.145  1.00  0.00     0.046 C 
HETATM   37  C2  UNL     1     -14.672 -15.725 -54.781  1.00  0.00    -0.015 C 
HETATM   38  C1  UNL     1     -15.398 -15.864 -56.040  1.00  0.00     0.037 C 
BRANCH  36  39
HETATM   39  C31 UNL     1     -13.541 -17.920 -54.521  1.00  0.00     0.083 C 
HETATM   40  C32 UNL     1     -12.694 -17.923 -55.813  1.00  0.00     0.051 C 
HETATM   41  C33 UNL     1     -14.634 -18.913 -54.701  1.00  0.00     0.051 C 
BRANCH  39  42
HETATM   42  O8  UNL     1     -12.723 -18.428 -53.476  1.00  0.00    -0.386 OA
ATOM     43  H8  UNL     1     -12.731 -19.374 -53.560  1.00  0.00     0.211 HD
ENDBRANCH  39  42
ENDBRANCH  36  39
ENDBRANCH  34  36
ENDBRANCH  33  34
ENDBRANCH   1  33
TORSDOF 16
ENDMDL
MODEL 4
REMARK VINA RESULT: -8.262459543      1.988      4.042
REMARK  16 active torsions:
REMARK  status: ('A' for Active; 'I' for Inactive)
REMARK    1  A    between atoms: C3_3  and  C4_4 
REMARK    2  A    between atoms: C3_3  and  C31_39 
REMARK    3  A    between atoms: C4_4  and  O2_6 
REMARK    4  A    between atoms: O2_6  and  C5_7 
REMARK    5  A    between atoms: C6_8  and  O3_9 
REMARK    6  A    between atoms: C8_12  and  C10_14 
REMARK    7  A    between atoms: C11_15  and  C12_16 
REMARK    8  A    between atoms: C14_18  and  C15_19 
REMARK    9  A    between atoms: C15_19  and  C16_20 
REMARK   10  A    between atoms: C16_20  and  C17_21 
REMARK   11  A    between atoms: C17_21  and  O5_23 
REMARK   12  A    between atoms: O5_23  and  C18_24 
REMARK   13  A    between atoms: C18_24  and  C19_25 
REMARK   14  A    between atoms: C27_33  and  O6_35 
REMARK   15  A    between atoms: O6_35  and  C29_36 
REMARK   16  A    between atoms: C31_39  and  O8_42 
ROOT
HETATM    1  C5  UNL     1     -13.099 -16.276 -50.408  1.00  0.00     0.196 C 
HETATM    2  C6  UNL     1     -13.250 -17.619 -49.695  1.00  0.00     0.151 C 
HETATM    3  C7  UNL     1     -14.576 -17.413 -48.937  1.00  0.00     0.050 C 
HETATM    4  C8  UNL     1     -14.249 -16.081 -48.289  1.00  0.00     0.010 C 
HETATM    5  C9  UNL     1     -13.161 -16.375 -47.250  1.00  0.00     0.023 C 
HETATM    6  C27 UNL     1     -13.636 -15.279 -49.446  1.00  0.00     0.106 C 
HETATM    7  C28 UNL     1     -14.713 -14.483 -50.153  1.00  0.00     0.050 C 
ENDROOT
BRANCH   4   8
HETATM    8  C10 UNL     1     -15.358 -15.443 -47.622  1.00  0.00    -0.014 C 
HETATM    9  C11 UNL     1     -16.385 -16.098 -47.144  1.00  0.00     0.003 C 
BRANCH   9  10
HETATM   10  C12 UNL     1     -17.512 -15.420 -46.462  1.00  0.00    -0.066 C 
HETATM   11  C13 UNL     1     -17.442 -13.948 -46.440  1.00  0.00     0.048 C 
HETATM   12  C14 UNL     1     -18.482 -16.094 -45.928  1.00  0.00    -0.020 C 
BRANCH  12  13
HETATM   13  C15 UNL     1     -19.641 -15.552 -45.231  1.00  0.00     0.037 C 
BRANCH  13  14
HETATM   14  C16 UNL     1     -20.958 -16.099 -45.769  1.00  0.00     0.115 C 
BRANCH  14  15
HETATM   15  C17 UNL     1     -21.968 -14.987 -45.883  1.00  0.00     0.259 C 
HETATM   16  O4  UNL     1     -23.062 -15.238 -46.421  1.00  0.00    -0.265 OA
BRANCH  15  17
HETATM   17  O5  UNL     1     -21.730 -13.742 -45.426  1.00  0.00    -0.320 OA
BRANCH  17  18
HETATM   18  C18 UNL     1     -22.249 -12.518 -45.633  1.00  0.00     0.192 C 
BRANCH  18  19
HETATM   19  C19 UNL     1     -21.435 -11.298 -45.828  1.00  0.00    -0.004 C 
HETATM   20  C20 UNL     1     -20.256 -11.798 -46.751  1.00  0.00     0.021 C 
HETATM   21  C21 UNL     1     -22.126 -10.320 -46.755  1.00  0.00    -0.013 C 
HETATM   22  C22 UNL     1     -22.704  -9.242 -46.283  1.00  0.00    -0.087 C 
HETATM   23  C23 UNL     1     -23.397  -8.263 -47.221  1.00  0.00     0.043 C 
HETATM   24  C24 UNL     1     -22.682  -8.985 -44.824  1.00  0.00     0.033 C 
HETATM   25  C25 UNL     1     -21.461  -9.436 -44.113  1.00  0.00     0.005 C 
HETATM   26  C26 UNL     1     -20.768 -10.635 -44.702  1.00  0.00     0.015 C 
ENDBRANCH  18  19
ENDBRANCH  17  18
ENDBRANCH  15  17
ENDBRANCH  14  15
ENDBRANCH  13  14
ENDBRANCH  12  13
ENDBRANCH   9  10
ENDBRANCH   4   8
BRANCH   6  27
HETATM   27  O6  UNL     1     -12.661 -14.473 -48.863  1.00  0.00    -0.307 OA
BRANCH  27  28
HETATM   28  C29 UNL     1     -12.482 -13.125 -49.008  1.00  0.00     0.255 C 
HETATM   29  C30 UNL     1     -11.649 -12.638 -50.138  1.00  0.00     0.126 C 
HETATM   30  O7  UNL     1     -13.036 -12.374 -48.173  1.00  0.00    -0.266 OA
ENDBRANCH  27  28
ENDBRANCH   6  27
BRANCH   2  31
HETATM   31  O3  UNL     1     -13.312 -18.678 -50.571  1.00  0.00    -0.393 OA
ATOM     32  H3  UNL     1     -12.742 -19.395 -50.317  1.00  0.00     0.210 HD
ENDBRANCH   2  31
BRANCH   1  33
HETATM   33  O2  UNL     1     -13.887 -16.401 -51.606  1.00  0.00    -0.306 OA
BRANCH  33  34
HETATM   34  C4  UNL     1     -13.269 -16.163 -52.809  1.00  0.00     0.292 C 
HETATM   35  O1  UNL     1     -13.975 -15.844 -53.792  1.00  0.00    -0.259 OA
BRANCH  34  36
HETATM   36  C3  UNL     1     -11.799 -16.256 -53.024  1.00  0.00     0.046 C 
HETATM   37  C2  UNL     1     -11.128 -15.148 -52.890  1.00  0.00    -0.015 C 
HETATM   38  C1  UNL     1      -9.701 -14.872 -53.021  1.00  0.00     0.037 C 
BRANCH  36  39
HETATM   39  C31 UNL     1     -11.293 -17.579 -53.364  1.00  0.00     0.083 C 
HETATM   40  C32 UNL     1     -10.256 -18.052 -52.323  1.00  0.00     0.051 C 
HETATM   41  C33 UNL     1     -10.697 -17.779 -54.712  1.00  0.00     0.051 C 
BRANCH  39  42
HETATM   42  O8  UNL     1     -12.400 -18.468 -53.294  1.00  0.00    -0.386 OA
ATOM     43  H8  UNL     1     -13.051 -18.139 -53.903  1.00  0.00     0.211 HD
ENDBRANCH  39  42
ENDBRANCH  36  39
ENDBRANCH  34  36
ENDBRANCH  33  34
ENDBRANCH   1  33
TORSDOF 16
ENDMDL
MODEL 5
REMARK VINA RESULT: -8.228595512      1.851      4.176
REMARK  16 active torsions:
REMARK  status: ('A' for Active; 'I' for Inactive)
REMARK    1  A    between atoms: C3_3  and  C4_4 
REMARK    2  A    between atoms: C3_3  and  C31_39 
REMARK    3  A    between atoms: C4_4  and  O2_6 
REMARK    4  A    between atoms: O2_6  and  C5_7 
REMARK    5  A    between atoms: C6_8  and  O3_9 
REMARK    6  A    between atoms: C8_12  and  C10_14 
REMARK    7  A    between atoms: C11_15  and  C12_16 
REMARK    8  A    between atoms: C14_18  and  C15_19 
REMARK    9  A    between atoms: C15_19  and  C16_20 
REMARK   10  A    between atoms: C16_20  and  C17_21 
REMARK   11  A    between atoms: C17_21  and  O5_23 
REMARK   12  A    between atoms: O5_23  and  C18_24 
REMARK   13  A    between atoms: C18_24  and  C19_25 
REMARK   14  A    between atoms: C27_33  and  O6_35 
REMARK   15  A    between atoms: O6_35  and  C29_36 
REMARK   16  A    between atoms: C31_39  and  O8_42 
ROOT
HETATM    1  C5  UNL     1     -10.721 -15.660 -49.511  1.00  0.00     0.196 C 
HETATM    2  C6  UNL     1     -10.954 -14.152 -49.566  1.00  0.00     0.151 C 
HETATM    3  C7  UNL     1     -12.238 -14.010 -48.726  1.00  0.00     0.050 C 
HETATM    4  C8  UNL     1     -13.067 -15.076 -49.419  1.00  0.00     0.010 C 
HETATM    5  C9  UNL     1     -13.367 -14.530 -50.820  1.00  0.00     0.023 C 
HETATM    6  C27 UNL     1     -12.085 -16.251 -49.536  1.00  0.00     0.106 C 
HETATM    7  C28 UNL     1     -12.221 -17.162 -48.335  1.00  0.00     0.050 C 
ENDROOT
BRANCH   4   8
HETATM    8  C10 UNL     1     -14.319 -15.386 -48.772  1.00  0.00    -0.014 C 
HETATM    9  C11 UNL     1     -14.773 -14.735 -47.732  1.00  0.00     0.003 C 
BRANCH   9  10
HETATM   10  C12 UNL     1     -16.063 -15.073 -47.086  1.00  0.00    -0.066 C 
HETATM   11  C13 UNL     1     -16.464 -16.488 -47.178  1.00  0.00     0.048 C 
HETATM   12  C14 UNL     1     -16.774 -14.169 -46.485  1.00  0.00    -0.020 C 
BRANCH  12  13
HETATM   13  C15 UNL     1     -18.053 -14.369 -45.816  1.00  0.00     0.037 C 
BRANCH  13  14
HETATM   14  C16 UNL     1     -19.182 -13.572 -46.461  1.00  0.00     0.115 C 
BRANCH  14  15
HETATM   15  C17 UNL     1     -20.510 -14.038 -45.924  1.00  0.00     0.259 C 
HETATM   16  O4  UNL     1     -20.700 -15.262 -45.805  1.00  0.00    -0.265 OA
BRANCH  15  17
HETATM   17  O5  UNL     1     -21.489 -13.182 -45.569  1.00  0.00    -0.320 OA
BRANCH  17  18
HETATM   18  C18 UNL     1     -22.052 -12.081 -46.100  1.00  0.00     0.192 C 
BRANCH  18  19
HETATM   19  C19 UNL     1     -21.390 -10.759 -46.154  1.00  0.00    -0.004 C 
HETATM   20  C20 UNL     1     -20.923 -10.654 -47.658  1.00  0.00     0.021 C 
HETATM   21  C21 UNL     1     -22.402  -9.635 -46.092  1.00  0.00    -0.013 C 
HETATM   22  C22 UNL     1     -22.566  -8.939 -44.994  1.00  0.00    -0.087 C 
HETATM   23  C23 UNL     1     -23.587  -7.810 -44.938  1.00  0.00     0.043 C 
HETATM   24  C24 UNL     1     -21.751  -9.263 -43.799  1.00  0.00     0.033 C 
HETATM   25  C25 UNL     1     -20.372  -9.735 -44.075  1.00  0.00     0.005 C 
HETATM   26  C26 UNL     1     -20.182 -10.476 -45.371  1.00  0.00     0.015 C 
ENDBRANCH  18  19
ENDBRANCH  17  18
ENDBRANCH  15  17
ENDBRANCH  14  15
ENDBRANCH  13  14
ENDBRANCH  12  13
ENDBRANCH   9  10
ENDBRANCH   4   8
BRANCH   6  27
HETATM   27  O6  UNL     1     -12.406 -16.883 -50.735  1.00  0.00    -0.307 OA
BRANCH  27  28
HETATM   28  C29 UNL     1     -12.415 -18.223 -51.007  1.00  0.00     0.255 C 
HETATM   29  C30 UNL     1     -13.724 -18.923 -51.080  1.00  0.00     0.126 C 
HETATM   30  O7  UNL     1     -11.310 -18.787 -51.182  1.00  0.00    -0.266 OA
ENDBRANCH  27  28
ENDBRANCH   6  27
BRANCH   2  31
HETATM   31  O3  UNL     1      -9.906 -13.435 -49.036  1.00  0.00    -0.393 OA
ATOM     32  H3  UNL     1      -9.094 -13.572 -49.510  1.00  0.00     0.210 HD
ENDBRANCH   2  31
BRANCH   1  33
HETATM   33  O2  UNL     1     -10.022 -15.884 -48.272  1.00  0.00    -0.306 OA
BRANCH  33  34
HETATM   34  C4  UNL     1      -8.763 -16.426 -48.335  1.00  0.00     0.292 C 
HETATM   35  O1  UNL     1      -7.943 -15.941 -49.147  1.00  0.00    -0.259 OA
BRANCH  34  36
HETATM   36  C3  UNL     1      -8.301 -17.563 -47.492  1.00  0.00     0.046 C 
HETATM   37  C2  UNL     1      -7.847 -17.253 -46.311  1.00  0.00    -0.015 C 
HETATM   38  C1  UNL     1      -7.325 -18.094 -45.238  1.00  0.00     0.037 C 
BRANCH  36  39
HETATM   39  C31 UNL     1      -8.409 -18.883 -48.098  1.00  0.00     0.083 C 
HETATM   40  C32 UNL     1      -9.305 -19.805 -47.244  1.00  0.00     0.051 C 
HETATM   41  C33 UNL     1      -7.154 -19.626 -48.393  1.00  0.00     0.051 C 
BRANCH  39  42
HETATM   42  O8  UNL     1      -9.056 -18.704 -49.351  1.00  0.00    -0.386 OA
ATOM     43  H8  UNL     1      -8.384 -18.773 -50.017  1.00  0.00     0.211 HD
ENDBRANCH  39  42
ENDBRANCH  36  39
ENDBRANCH  34  36
ENDBRANCH  33  34
ENDBRANCH   1  33
TORSDOF 16
ENDMDL
