MODEL 1
REMARK VINA RESULT: -8.421037307      0.000      0.000
REMARK  13 active torsions:
REMARK  status: ('A' for Active; 'I' for Inactive)
REMARK    1  A    between atoms: C2_2  and  C4_4 
REMARK    2  A    between atoms: C2_2  and  O4_39 
REMARK    3  A    between atoms: C4_4  and  N1_5 
REMARK    4  A    between atoms: N1_5  and  C5_8 
REMARK    5  A    between atoms: C7_10  and  C8_11 
REMARK    6  A    between atoms: C9_12  and  C10_13 
REMARK    7  A    between atoms: C10_13  and  C11_14 
REMARK    8  A    between atoms: C11_14  and  C12_15 
REMARK    9  A    between atoms: C16_22  and  C17_23 
REMARK   10  A    between atoms: C17_23  and  O1_24 
REMARK   11  A    between atoms: C17_23  and  N2_26 
REMARK   12  A    between atoms: C20_29  and  O2_30 
REMARK   13  A    between atoms: O4_39  and  C27_40 
ROOT
HETATM    1  C27 UNL     1      -8.531   0.987 -14.325  1.00  0.00     0.292 C 
HETATM    2  C28 UNL     1      -7.510   0.239 -13.599  1.00  0.00     0.085 C 
HETATM    3  N3  UNL     1      -6.697  -0.369 -13.042  1.00  0.00    -0.195 NA
ENDROOT
BRANCH   1   4
HETATM    4  O4  UNL     1      -9.567   1.453 -13.590  1.00  0.00    -0.366 OA
BRANCH   4   5
HETATM    5  C2  UNL     1     -10.224   2.571 -13.966  1.00  0.00     0.078 C 
HETATM    6  C1  UNL     1     -11.004   2.188 -15.242  1.00  0.00     0.047 C 
HETATM    7  C3  UNL     1     -11.251   3.119 -13.029  1.00  0.00     0.047 C 
BRANCH   5   8
HETATM    8  C4  UNL     1      -9.330   3.720 -14.382  1.00  0.00     0.269 C 
BRANCH   8   9
HETATM    9  N1  UNL     1     -10.016   4.675 -15.206  1.00  0.00    -0.068 N 
ATOM     10  H12 UNL     1     -10.913   4.311 -15.525  1.00  0.00     0.277 HD
ATOM     11  H11 UNL     1     -10.349   5.466 -14.656  1.00  0.00     0.277 HD
BRANCH   9  12
HETATM   12  C5  UNL     1      -9.197   5.116 -16.323  1.00  0.00     0.194 C 
HETATM   13  C6  UNL     1      -7.769   4.975 -15.943  1.00  0.00     0.085 C 
HETATM   14  C7  UNL     1      -6.829   5.609 -16.945  1.00  0.00     0.127 C 
HETATM   15  C13 UNL     1      -7.314   5.477 -18.332  1.00  0.00     0.056 C 
HETATM   16  O3  UNL     1      -6.384   6.840 -16.581  1.00  0.00    -0.358 OA
HETATM   17  C14 UNL     1      -8.288   6.406 -18.894  1.00  0.00    -0.006 C 
HETATM   18  C15 UNL     1      -7.669   7.604 -19.657  1.00  0.00     0.047 C 
HETATM   19  C26 UNL     1      -9.497   6.785 -18.154  1.00  0.00     0.011 C 
HETATM   20  C16 UNL     1      -7.346   8.734 -18.750  1.00  0.00    -0.008 C 
HETATM   21  C22 UNL     1      -7.190   8.811 -17.409  1.00  0.00     0.016 C 
HETATM   22  C23 UNL     1      -7.271   7.820 -16.315  1.00  0.00     0.147 C 
HETATM   23  C24 UNL     1      -8.638   7.550 -15.929  1.00  0.00     0.042 C 
HETATM   24  C25 UNL     1      -9.461   6.580 -16.668  1.00  0.00     0.019 C 
BRANCH  14  25
HETATM   25  C8  UNL     1      -5.606   4.747 -16.865  1.00  0.00    -0.068 C 
HETATM   26  C9  UNL     1      -4.621   4.031 -16.812  1.00  0.00    -0.103 C 
BRANCH  26  27
HETATM   27  C10 UNL     1      -3.434   3.194 -16.763  1.00  0.00     0.103 C 
BRANCH  27  28
HETATM   28  C11 UNL     1      -3.166   2.776 -15.326  1.00  0.00     0.129 C 
BRANCH  28  29
HETATM   29  C12 UNL     1      -1.993   3.514 -14.747  1.00  0.00     0.388 C 
HETATM   30  F1  UNL     1      -2.510   4.390 -13.788  1.00  0.00    -0.171 F 
HETATM   31  F2  UNL     1      -1.397   4.243 -15.783  1.00  0.00    -0.171 F 
HETATM   32  F3  UNL     1      -1.105   2.688 -14.124  1.00  0.00    -0.171 F 
ENDBRANCH  28  29
ENDBRANCH  27  28
ENDBRANCH  26  27
ENDBRANCH  14  25
BRANCH  20  33
HETATM   33  C17 UNL     1      -7.149  10.014 -19.376  1.00  0.00     0.144 C 
BRANCH  33  34
HETATM   34  O1  UNL     1      -8.200  10.790 -19.412  1.00  0.00    -0.346 OA
ATOM     35  H1  UNL     1      -8.326  11.343 -18.649  1.00  0.00     0.219 HD
ENDBRANCH  33  34
BRANCH  33  36
HETATM   36  N2  UNL     1      -6.014  10.571 -19.952  1.00  0.00    -0.359 N 
HETATM   37  C18 UNL     1      -5.729  11.059 -21.249  1.00  0.00     0.127 C 
HETATM   38  C19 UNL     1      -4.214  11.129 -21.423  1.00  0.00     0.053 C 
HETATM   39  C20 UNL     1      -3.653  10.651 -20.101  1.00  0.00     0.137 C 
HETATM   40  C21 UNL     1      -4.776  10.751 -19.116  1.00  0.00     0.156 C 
BRANCH  39  41
HETATM   41  O2  UNL     1      -3.203   9.345 -20.249  1.00  0.00    -0.394 OA
ATOM     42  H2  UNL     1      -3.912   8.812 -20.590  1.00  0.00     0.210 HD
ENDBRANCH  39  41
ENDBRANCH  33  36
ENDBRANCH  20  33
ENDBRANCH   9  12
ENDBRANCH   8   9
ENDBRANCH   5   8
ENDBRANCH   4   5
ENDBRANCH   1   4
TORSDOF 13
ENDMDL
MODEL 2
REMARK VINA RESULT: -8.400902038      2.316      2.671
REMARK  13 active torsions:
REMARK  status: ('A' for Active; 'I' for Inactive)
REMARK    1  A    between atoms: C2_2  and  C4_4 
REMARK    2  A    between atoms: C2_2  and  O4_39 
REMARK    3  A    between atoms: C4_4  and  N1_5 
REMARK    4  A    between atoms: N1_5  and  C5_8 
REMARK    5  A    between atoms: C7_10  and  C8_11 
REMARK    6  A    between atoms: C9_12  and  C10_13 
REMARK    7  A    between atoms: C10_13  and  C11_14 
REMARK    8  A    between atoms: C11_14  and  C12_15 
REMARK    9  A    between atoms: C16_22  and  C17_23 
REMARK   10  A    between atoms: C17_23  and  O1_24 
REMARK   11  A    between atoms: C17_23  and  N2_26 
REMARK   12  A    between atoms: C20_29  and  O2_30 
REMARK   13  A    between atoms: O4_39  and  C27_40 
ROOT
HETATM    1  C27 UNL     1      -8.072   1.057 -14.142  1.00  0.00     0.292 C 
HETATM    2  C28 UNL     1      -7.194   0.255 -13.297  1.00  0.00     0.085 C 
HETATM    3  N3  UNL     1      -6.478  -0.373 -12.639  1.00  0.00    -0.195 NA
ENDROOT
BRANCH   1   4
HETATM    4  O4  UNL     1      -9.285   0.525 -14.421  1.00  0.00    -0.366 OA
BRANCH   4   5
HETATM    5  C2  UNL     1      -9.902   0.804 -15.588  1.00  0.00     0.078 C 
HETATM    6  C1  UNL     1     -10.090  -0.555 -16.296  1.00  0.00     0.047 C 
HETATM    7  C3  UNL     1     -11.269   1.404 -15.523  1.00  0.00     0.047 C 
BRANCH   5   8
HETATM    8  C4  UNL     1      -9.086   1.639 -16.551  1.00  0.00     0.269 C 
BRANCH   8   9
HETATM    9  N1  UNL     1      -9.890   2.585 -17.272  1.00  0.00    -0.068 N 
ATOM     10  H12 UNL     1     -10.297   2.163 -18.107  1.00  0.00     0.277 HD
ATOM     11  H11 UNL     1     -10.749   2.802 -16.766  1.00  0.00     0.277 HD
BRANCH   9  12
HETATM   12  C5  UNL     1      -9.150   3.793 -17.597  1.00  0.00     0.194 C 
HETATM   13  C6  UNL     1      -7.930   3.837 -16.753  1.00  0.00     0.085 C 
HETATM   14  C7  UNL     1      -7.197   5.158 -16.849  1.00  0.00     0.127 C 
HETATM   15  C13 UNL     1      -7.266   5.741 -18.202  1.00  0.00     0.056 C 
HETATM   16  O3  UNL     1      -7.450   6.004 -15.817  1.00  0.00    -0.358 OA
HETATM   17  C14 UNL     1      -8.415   6.527 -18.638  1.00  0.00    -0.006 C 
HETATM   18  C15 UNL     1      -8.267   8.056 -18.429  1.00  0.00     0.047 C 
HETATM   19  C26 UNL     1      -9.789   6.066 -18.405  1.00  0.00     0.011 C 
HETATM   20  C16 UNL     1      -8.694   8.475 -17.071  1.00  0.00    -0.008 C 
HETATM   21  C22 UNL     1      -8.874   7.788 -15.919  1.00  0.00     0.016 C 
HETATM   22  C23 UNL     1      -8.719   6.366 -15.545  1.00  0.00     0.147 C 
HETATM   23  C24 UNL     1      -9.860   5.575 -15.950  1.00  0.00     0.042 C 
HETATM   24  C25 UNL     1      -9.975   5.047 -17.319  1.00  0.00     0.019 C 
BRANCH  14  25
HETATM   25  C8  UNL     1      -5.763   4.772 -16.653  1.00  0.00    -0.068 C 
HETATM   26  C9  UNL     1      -4.602   4.447 -16.475  1.00  0.00    -0.103 C 
BRANCH  26  27
HETATM   27  C10 UNL     1      -3.218   4.044 -16.284  1.00  0.00     0.103 C 
BRANCH  27  28
HETATM   28  C11 UNL     1      -3.095   2.541 -16.475  1.00  0.00     0.129 C 
BRANCH  28  29
HETATM   29  C12 UNL     1      -3.159   1.812 -15.164  1.00  0.00     0.388 C 
HETATM   30  F1  UNL     1      -2.619   0.542 -15.389  1.00  0.00    -0.171 F 
HETATM   31  F2  UNL     1      -4.508   1.698 -14.808  1.00  0.00    -0.171 F 
HETATM   32  F3  UNL     1      -2.419   2.414 -14.188  1.00  0.00    -0.171 F 
ENDBRANCH  28  29
ENDBRANCH  27  28
ENDBRANCH  26  27
ENDBRANCH  14  25
BRANCH  20  33
HETATM   33  C17 UNL     1      -8.976   9.874 -16.898  1.00  0.00     0.144 C 
BRANCH  33  34
HETATM   34  O1  UNL     1     -10.230  10.216 -17.042  1.00  0.00    -0.346 OA
ATOM     35  H1  UNL     1     -10.648  10.571 -16.266  1.00  0.00     0.219 HD
ENDBRANCH  33  34
BRANCH  33  36
HETATM   36  N2  UNL     1      -8.130  10.935 -16.596  1.00  0.00    -0.359 N 
HETATM   37  C18 UNL     1      -8.117  12.298 -16.975  1.00  0.00     0.127 C 
HETATM   38  C19 UNL     1      -6.725  12.865 -16.710  1.00  0.00     0.053 C 
HETATM   39  C20 UNL     1      -5.942  11.708 -16.129  1.00  0.00     0.137 C 
HETATM   40  C21 UNL     1      -6.960  10.706 -15.679  1.00  0.00     0.156 C 
BRANCH  39  41
HETATM   41  O2  UNL     1      -5.104  11.193 -17.111  1.00  0.00    -0.394 OA
ATOM     42  H2  UNL     1      -5.517  10.431 -17.501  1.00  0.00     0.210 HD
ENDBRANCH  39  41
ENDBRANCH  33  36
ENDBRANCH  20  33
ENDBRANCH   9  12
ENDBRANCH   8   9
ENDBRANCH   5   8
ENDBRANCH   4   5
ENDBRANCH   1   4
TORSDOF 13
ENDMDL
MODEL 3
REMARK VINA RESULT: -8.265210185      1.134      1.588
REMARK  13 active torsions:
REMARK  status: ('A' for Active; 'I' for Inactive)
REMARK    1  A    between atoms: C2_2  and  C4_4 
REMARK    2  A    between atoms: C2_2  and  O4_39 
REMARK    3  A    between atoms: C4_4  and  N1_5 
REMARK    4  A    between atoms: N1_5  and  C5_8 
REMARK    5  A    between atoms: C7_10  and  C8_11 
REMARK    6  A    between atoms: C9_12  and  C10_13 
REMARK    7  A    between atoms: C10_13  and  C11_14 
REMARK    8  A    between atoms: C11_14  and  C12_15 
REMARK    9  A    between atoms: C16_22  and  C17_23 
REMARK   10  A    between atoms: C17_23  and  O1_24 
REMARK   11  A    between atoms: C17_23  and  N2_26 
REMARK   12  A    between atoms: C20_29  and  O2_30 
REMARK   13  A    between atoms: O4_39  and  C27_40 
ROOT
HETATM    1  C27 UNL     1      -8.277   1.239 -14.205  1.00  0.00     0.292 C 
HETATM    2  C28 UNL     1      -7.341   0.369 -13.503  1.00  0.00     0.085 C 
HETATM    3  N3  UNL     1      -6.591  -0.331 -12.967  1.00  0.00    -0.195 NA
ENDROOT
BRANCH   1   4
HETATM    4  O4  UNL     1      -9.423   1.539 -13.550  1.00  0.00    -0.366 OA
BRANCH   4   5
HETATM    5  C2  UNL     1     -10.142   2.628 -13.893  1.00  0.00     0.078 C 
HETATM    6  C1  UNL     1     -10.899   2.241 -15.181  1.00  0.00     0.047 C 
HETATM    7  C3  UNL     1     -11.199   3.088 -12.942  1.00  0.00     0.047 C 
BRANCH   5   8
HETATM    8  C4  UNL     1      -9.316   3.839 -14.272  1.00  0.00     0.269 C 
BRANCH   8   9
HETATM    9  N1  UNL     1     -10.024   4.733 -15.144  1.00  0.00    -0.068 N 
ATOM     10  H12 UNL     1     -10.908   4.328 -15.450  1.00  0.00     0.277 HD
ATOM     11  H11 UNL     1     -10.384   5.539 -14.633  1.00  0.00     0.277 HD
BRANCH   9  12
HETATM   12  C5  UNL     1      -9.211   5.146 -16.276  1.00  0.00     0.194 C 
HETATM   13  C6  UNL     1      -7.781   4.993 -15.908  1.00  0.00     0.085 C 
HETATM   14  C7  UNL     1      -6.843   5.599 -16.930  1.00  0.00     0.127 C 
HETATM   15  C13 UNL     1      -7.344   5.452 -18.309  1.00  0.00     0.056 C 
HETATM   16  O3  UNL     1      -6.379   6.830 -16.588  1.00  0.00    -0.358 OA
HETATM   17  C14 UNL     1      -8.312   6.385 -18.875  1.00  0.00    -0.006 C 
HETATM   18  C15 UNL     1      -7.686   7.564 -19.663  1.00  0.00     0.047 C 
HETATM   19  C26 UNL     1      -9.509   6.791 -18.129  1.00  0.00     0.011 C 
HETATM   20  C16 UNL     1      -7.340   8.703 -18.777  1.00  0.00    -0.008 C 
HETATM   21  C22 UNL     1      -7.169   8.798 -17.439  1.00  0.00     0.016 C 
HETATM   22  C23 UNL     1      -7.250   7.825 -16.329  1.00  0.00     0.147 C 
HETATM   23  C24 UNL     1      -8.617   7.579 -15.926  1.00  0.00     0.042 C 
HETATM   24  C25 UNL     1      -9.460   6.608 -16.641  1.00  0.00     0.019 C 
BRANCH  14  25
HETATM   25  C8  UNL     1      -5.631   4.723 -16.849  1.00  0.00    -0.068 C 
HETATM   26  C9  UNL     1      -4.641   4.014 -16.804  1.00  0.00    -0.103 C 
BRANCH  26  27
HETATM   27  C10 UNL     1      -3.449   3.186 -16.737  1.00  0.00     0.103 C 
BRANCH  27  28
HETATM   28  C11 UNL     1      -3.183   2.794 -15.292  1.00  0.00     0.129 C 
BRANCH  28  29
HETATM   29  C12 UNL     1      -2.046   3.581 -14.707  1.00  0.00     0.388 C 
HETATM   30  F1  UNL     1      -1.180   2.652 -14.122  1.00  0.00    -0.171 F 
HETATM   31  F2  UNL     1      -2.575   4.422 -13.722  1.00  0.00    -0.171 F 
HETATM   32  F3  UNL     1      -1.342   4.271 -15.650  1.00  0.00    -0.171 F 
ENDBRANCH  28  29
ENDBRANCH  27  28
ENDBRANCH  26  27
ENDBRANCH  14  25
BRANCH  20  33
HETATM   33  C17 UNL     1      -7.133   9.971 -19.425  1.00  0.00     0.144 C 
BRANCH  33  34
HETATM   34  O1  UNL     1      -6.670  10.924 -18.659  1.00  0.00    -0.346 OA
ATOM     35  H1  UNL     1      -5.895  10.703 -18.156  1.00  0.00     0.219 HD
ENDBRANCH  33  34
BRANCH  33  36
HETATM   36  N2  UNL     1      -7.341  10.354 -20.744  1.00  0.00    -0.359 N 
HETATM   37  C18 UNL     1      -8.500  10.690 -21.480  1.00  0.00     0.127 C 
HETATM   38  C19 UNL     1      -8.180  10.589 -22.969  1.00  0.00     0.053 C 
HETATM   39  C20 UNL     1      -6.725  10.179 -23.023  1.00  0.00     0.137 C 
HETATM   40  C21 UNL     1      -6.161  10.482 -21.669  1.00  0.00     0.156 C 
BRANCH  39  41
HETATM   41  O2  UNL     1      -6.649   8.826 -23.328  1.00  0.00    -0.394 OA
ATOM     42  H2  UNL     1      -7.137   8.335 -22.677  1.00  0.00     0.210 HD
ENDBRANCH  39  41
ENDBRANCH  33  36
ENDBRANCH  20  33
ENDBRANCH   9  12
ENDBRANCH   8   9
ENDBRANCH   5   8
ENDBRANCH   4   5
ENDBRANCH   1   4
TORSDOF 13
ENDMDL
MODEL 4
REMARK VINA RESULT: -8.253910744      3.572      5.524
REMARK  13 active torsions:
REMARK  status: ('A' for Active; 'I' for Inactive)
REMARK    1  A    between atoms: C2_2  and  C4_4 
REMARK    2  A    between atoms: C2_2  and  O4_39 
REMARK    3  A    between atoms: C4_4  and  N1_5 
REMARK    4  A    between atoms: N1_5  and  C5_8 
REMARK    5  A    between atoms: C7_10  and  C8_11 
REMARK    6  A    between atoms: C9_12  and  C10_13 
REMARK    7  A    between atoms: C10_13  and  C11_14 
REMARK    8  A    between atoms: C11_14  and  C12_15 
REMARK    9  A    between atoms: C16_22  and  C17_23 
REMARK   10  A    between atoms: C17_23  and  O1_24 
REMARK   11  A    between atoms: C17_23  and  N2_26 
REMARK   12  A    between atoms: C20_29  and  O2_30 
REMARK   13  A    between atoms: O4_39  and  C27_40 
ROOT
HETATM    1  C27 UNL     1      -3.873   2.323 -13.121  1.00  0.00     0.292 C 
HETATM    2  C28 UNL     1      -4.495   1.102 -12.622  1.00  0.00     0.085 C 
HETATM    3  N3  UNL     1      -4.967   0.125 -12.217  1.00  0.00    -0.195 NA
ENDROOT
BRANCH   1   4
HETATM    4  O4  UNL     1      -4.378   2.825 -14.272  1.00  0.00    -0.366 OA
BRANCH   4   5
HETATM    5  C2  UNL     1      -3.573   3.450 -15.157  1.00  0.00     0.078 C 
HETATM    6  C1  UNL     1      -2.190   3.532 -14.478  1.00  0.00     0.047 C 
HETATM    7  C3  UNL     1      -3.327   2.772 -16.466  1.00  0.00     0.047 C 
BRANCH   5   8
HETATM    8  C4  UNL     1      -3.952   4.885 -15.453  1.00  0.00     0.269 C 
BRANCH   8   9
HETATM    9  N1  UNL     1      -4.746   5.006 -16.642  1.00  0.00    -0.068 N 
ATOM     10  H12 UNL     1      -4.338   5.676 -17.294  1.00  0.00     0.277 HD
ATOM     11  H11 UNL     1      -4.684   4.166 -17.216  1.00  0.00     0.277 HD
BRANCH   9  12
HETATM   12  C5  UNL     1      -6.129   5.339 -16.342  1.00  0.00     0.194 C 
HETATM   13  C6  UNL     1      -6.984   4.190 -16.732  1.00  0.00     0.085 C 
HETATM   14  C7  UNL     1      -8.462   4.507 -16.668  1.00  0.00     0.127 C 
HETATM   15  C13 UNL     1      -8.792   5.420 -15.557  1.00  0.00     0.056 C 
HETATM   16  O3  UNL     1      -9.014   4.806 -17.873  1.00  0.00    -0.358 OA
HETATM   17  C14 UNL     1      -8.646   6.866 -15.685  1.00  0.00    -0.006 C 
HETATM   18  C15 UNL     1      -9.933   7.605 -16.135  1.00  0.00     0.047 C 
HETATM   19  C26 UNL     1      -7.435   7.464 -16.257  1.00  0.00     0.011 C 
HETATM   20  C16 UNL     1     -10.064   7.643 -17.613  1.00  0.00    -0.008 C 
HETATM   21  C22 UNL     1      -9.485   6.920 -18.599  1.00  0.00     0.016 C 
HETATM   22  C23 UNL     1      -8.506   5.812 -18.610  1.00  0.00     0.147 C 
HETATM   23  C24 UNL     1      -7.150   6.289 -18.451  1.00  0.00     0.042 C 
HETATM   24  C25 UNL     1      -6.592   6.569 -17.118  1.00  0.00     0.019 C 
BRANCH  14  25
HETATM   25  C8  UNL     1      -9.083   3.193 -16.304  1.00  0.00    -0.068 C 
HETATM   26  C9  UNL     1      -9.567   2.116 -16.005  1.00  0.00    -0.103 C 
BRANCH  26  27
HETATM   27  C10 UNL     1     -10.156   0.843 -15.626  1.00  0.00     0.103 C 
BRANCH  27  28
HETATM   28  C11 UNL     1      -9.064  -0.208 -15.510  1.00  0.00     0.129 C 
BRANCH  28  29
HETATM   29  C12 UNL     1      -8.194   0.031 -14.310  1.00  0.00     0.388 C 
HETATM   30  F1  UNL     1      -7.598  -1.195 -14.000  1.00  0.00    -0.171 F 
HETATM   31  F2  UNL     1      -9.025   0.433 -13.257  1.00  0.00    -0.171 F 
HETATM   32  F3  UNL     1      -7.198   0.931 -14.551  1.00  0.00    -0.171 F 
ENDBRANCH  28  29
ENDBRANCH  27  28
ENDBRANCH  26  27
ENDBRANCH  14  25
BRANCH  20  33
HETATM   33  C17 UNL     1     -10.975   8.621 -18.144  1.00  0.00     0.144 C 
BRANCH  33  34
HETATM   34  O1  UNL     1     -12.084   8.142 -18.644  1.00  0.00    -0.346 OA
ATOM     35  H1  UNL     1     -12.402   7.342 -18.240  1.00  0.00     0.219 HD
ENDBRANCH  33  34
BRANCH  33  36
HETATM   36  N2  UNL     1     -10.875  10.005 -18.212  1.00  0.00    -0.359 N 
HETATM   37  C18 UNL     1      -9.967  10.876 -18.857  1.00  0.00     0.127 C 
HETATM   38  C19 UNL     1     -10.080  12.259 -18.220  1.00  0.00     0.053 C 
HETATM   39  C20 UNL     1     -11.148  12.107 -17.159  1.00  0.00     0.137 C 
HETATM   40  C21 UNL     1     -11.892  10.854 -17.500  1.00  0.00     0.156 C 
BRANCH  39  41
HETATM   41  O2  UNL     1     -10.537  12.029 -15.913  1.00  0.00    -0.394 OA
ATOM     42  H2  UNL     1     -11.181  12.223 -15.242  1.00  0.00     0.210 HD
ENDBRANCH  39  41
ENDBRANCH  33  36
ENDBRANCH  20  33
ENDBRANCH   9  12
ENDBRANCH   8   9
ENDBRANCH   5   8
ENDBRANCH   4   5
ENDBRANCH   1   4
TORSDOF 13
ENDMDL
MODEL 5
REMARK VINA RESULT: -8.200555699      2.721      3.532
REMARK  13 active torsions:
REMARK  status: ('A' for Active; 'I' for Inactive)
REMARK    1  A    between atoms: C2_2  and  C4_4 
REMARK    2  A    between atoms: C2_2  and  O4_39 
REMARK    3  A    between atoms: C4_4  and  N1_5 
REMARK    4  A    between atoms: N1_5  and  C5_8 
REMARK    5  A    between atoms: C7_10  and  C8_11 
REMARK    6  A    between atoms: C9_12  and  C10_13 
REMARK    7  A    between atoms: C10_13  and  C11_14 
REMARK    8  A    between atoms: C11_14  and  C12_15 
REMARK    9  A    between atoms: C16_22  and  C17_23 
REMARK   10  A    between atoms: C17_23  and  O1_24 
REMARK   11  A    between atoms: C17_23  and  N2_26 
REMARK   12  A    between atoms: C20_29  and  O2_30 
REMARK   13  A    between atoms: O4_39  and  C27_40 
ROOT
HETATM    1  C27 UNL     1      -8.584   1.535 -14.204  1.00  0.00     0.292 C 
HETATM    2  C28 UNL     1      -7.764   0.464 -13.649  1.00  0.00     0.085 C 
HETATM    3  N3  UNL     1      -7.104  -0.390 -13.230  1.00  0.00    -0.195 NA
ENDROOT
BRANCH   1   4
HETATM    4  O4  UNL     1      -9.818   1.684 -13.669  1.00  0.00    -0.366 OA
BRANCH   4   5
HETATM    5  C2  UNL     1     -10.474   2.858 -13.779  1.00  0.00     0.078 C 
HETATM    6  C1  UNL     1     -11.468   2.674 -14.945  1.00  0.00     0.047 C 
HETATM    7  C3  UNL     1     -11.308   3.297 -12.619  1.00  0.00     0.047 C 
BRANCH   5   8
HETATM    8  C4  UNL     1      -9.607   4.032 -14.183  1.00  0.00     0.269 C 
BRANCH   8   9
HETATM    9  N1  UNL     1     -10.131   4.732 -15.322  1.00  0.00    -0.068 N 
ATOM     10  H12 UNL     1     -11.093   4.453 -15.517  1.00  0.00     0.277 HD
ATOM     11  H11 UNL     1     -10.289   5.717 -15.110  1.00  0.00     0.277 HD
BRANCH   9  12
HETATM   12  C5  UNL     1      -9.287   4.573 -16.494  1.00  0.00     0.194 C 
HETATM   13  C6  UNL     1      -7.899   4.948 -16.127  1.00  0.00     0.085 C 
HETATM   14  C7  UNL     1      -6.976   5.031 -17.324  1.00  0.00     0.127 C 
HETATM   15  C13 UNL     1      -7.297   4.023 -18.351  1.00  0.00     0.056 C 
HETATM   16  O3  UNL     1      -6.767   6.297 -17.771  1.00  0.00    -0.358 OA
HETATM   17  C14 UNL     1      -8.345   4.245 -19.341  1.00  0.00    -0.006 C 
HETATM   18  C15 UNL     1      -7.850   4.855 -20.677  1.00  0.00     0.047 C 
HETATM   19  C26 UNL     1      -9.665   4.757 -18.954  1.00  0.00     0.011 C 
HETATM   20  C16 UNL     1      -7.798   6.338 -20.627  1.00  0.00    -0.008 C 
HETATM   21  C22 UNL     1      -7.787   7.215 -19.597  1.00  0.00     0.016 C 
HETATM   22  C23 UNL     1      -7.817   7.062 -18.127  1.00  0.00     0.147 C 
HETATM   23  C24 UNL     1      -9.157   6.825 -17.636  1.00  0.00     0.042 C 
HETATM   24  C25 UNL     1      -9.742   5.475 -17.639  1.00  0.00     0.019 C 
BRANCH  14  25
HETATM   25  C8  UNL     1      -5.647   4.624 -16.765  1.00  0.00    -0.068 C 
HETATM   26  C9  UNL     1      -4.575   4.275 -16.302  1.00  0.00    -0.103 C 
BRANCH  26  27
HETATM   27  C10 UNL     1      -3.288   3.854 -15.773  1.00  0.00     0.103 C 
BRANCH  27  28
HETATM   28  C11 UNL     1      -3.045   2.396 -16.128  1.00  0.00     0.129 C 
BRANCH  28  29
HETATM   29  C12 UNL     1      -3.176   1.507 -14.926  1.00  0.00     0.388 C 
HETATM   30  F1  UNL     1      -2.771   0.230 -15.330  1.00  0.00    -0.171 F 
HETATM   31  F2  UNL     1      -4.527   1.483 -14.562  1.00  0.00    -0.171 F 
HETATM   32  F3  UNL     1      -2.372   1.892 -13.893  1.00  0.00    -0.171 F 
ENDBRANCH  28  29
ENDBRANCH  27  28
ENDBRANCH  26  27
ENDBRANCH  14  25
BRANCH  20  33
HETATM   33  C17 UNL     1      -7.744   7.015 -21.895  1.00  0.00     0.144 C 
BRANCH  33  34
HETATM   34  O1  UNL     1      -6.652   7.698 -22.120  1.00  0.00    -0.346 OA
ATOM     35  H1  UNL     1      -6.580   8.519 -21.648  1.00  0.00     0.219 HD
ENDBRANCH  33  34
BRANCH  33  36
HETATM   36  N2  UNL     1      -8.666   7.061 -22.933  1.00  0.00    -0.359 N 
HETATM   37  C18 UNL     1     -10.080   7.046 -22.970  1.00  0.00     0.127 C 
HETATM   38  C19 UNL     1     -10.528   6.668 -24.379  1.00  0.00     0.053 C 
HETATM   39  C20 UNL     1      -9.242   6.483 -25.155  1.00  0.00     0.137 C 
HETATM   40  C21 UNL     1      -8.175   7.159 -24.352  1.00  0.00     0.156 C 
BRANCH  39  41
HETATM   41  O2  UNL     1      -8.998   5.123 -25.305  1.00  0.00    -0.394 OA
ATOM     42  H2  UNL     1      -9.452   4.651 -24.615  1.00  0.00     0.210 HD
ENDBRANCH  39  41
ENDBRANCH  33  36
ENDBRANCH  20  33
ENDBRANCH   9  12
ENDBRANCH   8   9
ENDBRANCH   5   8
ENDBRANCH   4   5
ENDBRANCH   1   4
TORSDOF 13
ENDMDL
