MODEL 1
REMARK VINA RESULT: -8.276824209      0.000      0.000
REMARK  6 active torsions:
REMARK  status: ('A' for Active; 'I' for Inactive)
REMARK    1  A    between atoms: C2_2  and  C3_3 
REMARK    2  A    between atoms: C4_4  and  C5_5 
REMARK    3  A    between atoms: N1_6  and  N2_8 
REMARK    4  A    between atoms: N2_8  and  C6_10 
REMARK    5  A    between atoms: C16_24  and  C17_25 
REMARK    6  A    between atoms: C21_29  and  N5_30 
ROOT
HETATM    1  C3  UNL     1       5.093  15.110   6.473  1.00  0.00    -0.018 A 
HETATM    2  C4  UNL     1       5.174  15.968   7.539  1.00  0.00     0.057 A 
HETATM    3  N4  UNL     1       6.492  16.144   7.890  1.00  0.00    -0.353 N 
ATOM      4  H4  UNL     1       6.825  16.733   8.653  1.00  0.00     0.166 HD
HETATM    5  C15 UNL     1       7.273  15.418   7.072  1.00  0.00     0.056 A 
HETATM    6  C16 UNL     1       8.640  15.256   7.053  1.00  0.00     0.018 A 
HETATM    7  C22 UNL     1       9.128  14.375   6.073  1.00  0.00     0.016 A 
HETATM    8  C23 UNL     1       8.284  13.734   5.201  1.00  0.00     0.002 A 
HETATM    9  C24 UNL     1       6.923  13.912   5.235  1.00  0.00     0.014 A 
HETATM   10  C25 UNL     1       6.426  14.774   6.195  1.00  0.00     0.000 A 
ENDROOT
BRANCH   2  11
HETATM   11  C5  UNL     1       4.037  16.604   8.206  1.00  0.00     0.137 C 
HETATM   12  N1  UNL     1       3.703  16.379   9.415  1.00  0.00    -0.309 N 
ATOM     13  H1  UNL     1       4.248  15.719   9.971  1.00  0.00     0.186 HD
BRANCH  12  14
HETATM   14  N2  UNL     1       2.614  17.014   9.986  1.00  0.00    -0.300 N 
ATOM     15  H2  UNL     1       1.809  17.218   9.394  1.00  0.00     0.187 HD
BRANCH  14  16
HETATM   16  C6  UNL     1       2.562  17.363  11.227  1.00  0.00     0.061 A 
HETATM   17  C7  UNL     1       3.750  17.503  11.935  1.00  0.00     0.049 A 
HETATM   18  C8  UNL     1       3.637  17.880  13.266  1.00  0.00     0.090 A 
HETATM   19  N3  UNL     1       2.439  18.097  13.838  1.00  0.00    -0.365 N 
HETATM   20  C9  UNL     1       1.275  17.969  13.175  1.00  0.00     0.044 A 
ATOM     21  H3  UNL     1       2.411  18.371  14.820  1.00  0.00     0.165 HD
HETATM   22  C10 UNL     1       0.054  18.193  13.767  1.00  0.00     0.030 A 
HETATM   23  C14 UNL     1       1.355  17.592  11.839  1.00  0.00     0.019 A 
HETATM   24  C11 UNL     1      -1.130  18.057  13.074  1.00  0.00     0.002 A 
HETATM   25  C12 UNL     1      -1.034  17.683  11.750  1.00  0.00     0.001 A 
HETATM   26  C13 UNL     1       0.171  17.452  11.131  1.00  0.00     0.016 A 
ENDBRANCH  14  16
ENDBRANCH  12  14
ENDBRANCH   2  11
BRANCH   1  27
HETATM   27  C2  UNL     1       3.900  14.612   5.739  1.00  0.00     0.037 C 
HETATM   28  C1  UNL     1       3.708  15.327   4.401  1.00  0.00     0.010 C 
ENDBRANCH   1  27
BRANCH   6  29
HETATM   29  C17 UNL     1       9.594  15.986   7.870  1.00  0.00     0.046 A 
HETATM   30  C18 UNL     1      10.236  17.149   7.552  1.00  0.00     0.030 A 
HETATM   31  C19 UNL     1      11.204  17.766   8.347  1.00  0.00     0.006 A 
HETATM   32  C20 UNL     1      11.540  17.165   9.536  1.00  0.00     0.048 A 
HETATM   33  C21 UNL     1      10.891  15.992   9.854  1.00  0.00     0.099 A 
HETATM   34  N6  UNL     1       9.964  15.429   9.062  1.00  0.00    -0.342 N 
ATOM     35  H6  UNL     1       9.523  14.559   9.359  1.00  0.00     0.167 HD
BRANCH  33  36
HETATM   36  N5  UNL     1      11.211  15.430  10.974  1.00  0.00    -0.385 N 
ATOM     37  H52 UNL     1      11.400  16.004  11.796  1.00  0.00     0.157 HD
ATOM     38  H51 UNL     1      11.262  14.411  10.982  1.00  0.00     0.157 HD
ENDBRANCH  33  36
ENDBRANCH   6  29
TORSDOF 6
ENDMDL
MODEL 2
REMARK VINA RESULT: -8.216878988      3.530     10.477
REMARK  6 active torsions:
REMARK  status: ('A' for Active; 'I' for Inactive)
REMARK    1  A    between atoms: C2_2  and  C3_3 
REMARK    2  A    between atoms: C4_4  and  C5_5 
REMARK    3  A    between atoms: N1_6  and  N2_8 
REMARK    4  A    between atoms: N2_8  and  C6_10 
REMARK    5  A    between atoms: C16_24  and  C17_25 
REMARK    6  A    between atoms: C21_29  and  N5_30 
ROOT
HETATM    1  C3  UNL     1       3.429  19.425  13.623  1.00  0.00    -0.018 A 
HETATM    2  C4  UNL     1       2.739  18.403  13.022  1.00  0.00     0.057 A 
HETATM    3  N4  UNL     1       1.484  18.307  13.577  1.00  0.00    -0.353 N 
ATOM      4  H4  UNL     1       0.772  17.628  13.309  1.00  0.00     0.166 HD
HETATM    5  C15 UNL     1       1.342  19.247  14.527  1.00  0.00     0.056 A 
HETATM    6  C16 UNL     1       0.283  19.518  15.364  1.00  0.00     0.018 A 
HETATM    7  C22 UNL     1       0.494  20.561  16.282  1.00  0.00     0.016 A 
HETATM    8  C23 UNL     1       1.680  21.252  16.324  1.00  0.00     0.002 A 
HETATM    9  C24 UNL     1       2.723  20.966  15.477  1.00  0.00     0.014 A 
HETATM   10  C25 UNL     1       2.532  19.942  14.568  1.00  0.00     0.000 A 
ENDROOT
BRANCH   2  11
HETATM   11  C5  UNL     1       3.252  17.545  11.954  1.00  0.00     0.137 C 
HETATM   12  N1  UNL     1       2.796  17.539  10.764  1.00  0.00    -0.309 N 
ATOM     13  H1  UNL     1       2.026  18.162  10.519  1.00  0.00     0.186 HD
BRANCH  12  14
HETATM   14  N2  UNL     1       3.326  16.700   9.799  1.00  0.00    -0.300 N 
ATOM     15  H2  UNL     1       3.984  15.979  10.095  1.00  0.00     0.187 HD
BRANCH  14  16
HETATM   16  C6  UNL     1       3.034  16.781   8.546  1.00  0.00     0.061 A 
HETATM   17  C7  UNL     1       1.941  17.548   8.159  1.00  0.00     0.049 A 
HETATM   18  C8  UNL     1       1.671  17.601   6.799  1.00  0.00     0.090 A 
HETATM   19  N3  UNL     1       2.429  16.942   5.903  1.00  0.00    -0.365 N 
HETATM   20  C9  UNL     1       3.491  16.194   6.251  1.00  0.00     0.044 A 
ATOM     21  H3  UNL     1       2.187  17.013   4.915  1.00  0.00     0.165 HD
HETATM   22  C10 UNL     1       4.262  15.524   5.329  1.00  0.00     0.030 A 
HETATM   23  C14 UNL     1       3.788  16.121   7.608  1.00  0.00     0.019 A 
HETATM   24  C11 UNL     1       5.348  14.761   5.702  1.00  0.00     0.002 A 
HETATM   25  C12 UNL     1       5.630  14.699   7.051  1.00  0.00     0.001 A 
HETATM   26  C13 UNL     1       4.879  15.357   7.995  1.00  0.00     0.016 A 
ENDBRANCH  14  16
ENDBRANCH  12  14
ENDBRANCH   2  11
BRANCH   1  27
HETATM   27  C2  UNL     1       4.810  19.917  13.375  1.00  0.00     0.037 C 
HETATM   28  C1  UNL     1       4.828  21.149  12.470  1.00  0.00     0.010 C 
ENDBRANCH   1  27
BRANCH   6  29
HETATM   29  C17 UNL     1      -1.031  18.904  15.298  1.00  0.00     0.046 A 
HETATM   30  C18 UNL     1      -2.232  19.534  15.141  1.00  0.00     0.030 A 
HETATM   31  C19 UNL     1      -3.474  18.896  15.163  1.00  0.00     0.006 A 
HETATM   32  C20 UNL     1      -3.497  17.536  15.357  1.00  0.00     0.048 A 
HETATM   33  C21 UNL     1      -2.283  16.903  15.516  1.00  0.00     0.099 A 
HETATM   34  N6  UNL     1      -1.109  17.552  15.488  1.00  0.00    -0.342 N 
ATOM     35  H6  UNL     1      -0.247  17.021  15.613  1.00  0.00     0.167 HD
BRANCH  33  36
HETATM   36  N5  UNL     1      -2.310  15.623  15.699  1.00  0.00    -0.385 N 
ATOM     37  H52 UNL     1      -2.525  15.245  16.622  1.00  0.00     0.157 HD
ATOM     38  H51 UNL     1      -2.107  15.036  14.890  1.00  0.00     0.157 HD
ENDBRANCH  33  36
ENDBRANCH   6  29
TORSDOF 6
ENDMDL
MODEL 3
REMARK VINA RESULT: -8.197893067      2.646      4.259
REMARK  6 active torsions:
REMARK  status: ('A' for Active; 'I' for Inactive)
REMARK    1  A    between atoms: C2_2  and  C3_3 
REMARK    2  A    between atoms: C4_4  and  C5_5 
REMARK    3  A    between atoms: N1_6  and  N2_8 
REMARK    4  A    between atoms: N2_8  and  C6_10 
REMARK    5  A    between atoms: C16_24  and  C17_25 
REMARK    6  A    between atoms: C21_29  and  N5_30 
ROOT
HETATM    1  C3  UNL     1       2.738  17.416   9.110  1.00  0.00    -0.018 A 
HETATM    2  C4  UNL     1       3.808  17.571   9.954  1.00  0.00     0.057 A 
HETATM    3  N4  UNL     1       4.937  17.050   9.367  1.00  0.00    -0.353 N 
ATOM      4  H4  UNL     1       5.866  17.038   9.786  1.00  0.00     0.166 HD
HETATM    5  C15 UNL     1       4.625  16.559   8.155  1.00  0.00     0.056 A 
HETATM    6  C16 UNL     1       5.410  15.923   7.220  1.00  0.00     0.018 A 
HETATM    7  C22 UNL     1       4.738  15.495   6.062  1.00  0.00     0.016 A 
HETATM    8  C23 UNL     1       3.393  15.710   5.892  1.00  0.00     0.002 A 
HETATM    9  C24 UNL     1       2.629  16.349   6.838  1.00  0.00     0.014 A 
HETATM   10  C25 UNL     1       3.274  16.775   7.984  1.00  0.00     0.000 A 
ENDROOT
BRANCH   2  11
HETATM   11  C5  UNL     1       3.762  18.196  11.277  1.00  0.00     0.137 C 
HETATM   12  N1  UNL     1       4.790  18.611  11.904  1.00  0.00    -0.309 N 
ATOM     13  H1  UNL     1       5.711  18.513  11.477  1.00  0.00     0.186 HD
BRANCH  12  14
HETATM   14  N2  UNL     1       4.678  19.193  13.155  1.00  0.00    -0.300 N 
ATOM     15  H2  UNL     1       4.937  18.637  13.970  1.00  0.00     0.187 HD
BRANCH  14  16
HETATM   16  C6  UNL     1       4.264  20.399  13.346  1.00  0.00     0.061 A 
HETATM   17  C7  UNL     1       4.809  21.425  12.583  1.00  0.00     0.049 A 
HETATM   18  C8  UNL     1       4.328  22.704  12.829  1.00  0.00     0.090 A 
HETATM   19  N3  UNL     1       3.384  22.935  13.759  1.00  0.00    -0.365 N 
HETATM   20  C9  UNL     1       2.840  21.960  14.510  1.00  0.00     0.044 A 
ATOM     21  H3  UNL     1       3.066  23.893  13.901  1.00  0.00     0.165 HD
HETATM   22  C10 UNL     1       1.875  22.205  15.459  1.00  0.00     0.030 A 
HETATM   23  C14 UNL     1       3.302  20.668  14.287  1.00  0.00     0.019 A 
HETATM   24  C11 UNL     1       1.328  21.195  16.222  1.00  0.00     0.002 A 
HETATM   25  C12 UNL     1       1.795  19.918  15.989  1.00  0.00     0.001 A 
HETATM   26  C13 UNL     1       2.758  19.643  15.048  1.00  0.00     0.016 A 
ENDBRANCH  14  16
ENDBRANCH  12  14
ENDBRANCH   2  11
BRANCH   1  27
HETATM   27  C2  UNL     1       1.316  17.812   9.290  1.00  0.00     0.037 C 
HETATM   28  C1  UNL     1       1.027  19.197   8.711  1.00  0.00     0.010 C 
ENDBRANCH   1  27
BRANCH   6  29
HETATM   29  C17 UNL     1       6.852  15.765   7.287  1.00  0.00     0.046 A 
HETATM   30  C18 UNL     1       7.802  16.672   6.915  1.00  0.00     0.030 A 
HETATM   31  C19 UNL     1       9.178  16.433   6.930  1.00  0.00     0.006 A 
HETATM   32  C20 UNL     1       9.614  15.199   7.347  1.00  0.00     0.048 A 
HETATM   33  C21 UNL     1       8.653  14.286   7.721  1.00  0.00     0.099 A 
HETATM   34  N6  UNL     1       7.337  14.553   7.693  1.00  0.00    -0.342 N 
ATOM     35  H6  UNL     1       6.680  13.830   7.985  1.00  0.00     0.167 HD
BRANCH  33  36
HETATM   36  N5  UNL     1       9.068  13.125   8.112  1.00  0.00    -0.385 N 
ATOM     37  H52 UNL     1       8.522  12.591   8.789  1.00  0.00     0.157 HD
ATOM     38  H51 UNL     1       9.946  12.790   7.715  1.00  0.00     0.157 HD
ENDBRANCH  33  36
ENDBRANCH   6  29
TORSDOF 6
ENDMDL
MODEL 4
REMARK VINA RESULT: -8.141280929      2.380      4.015
REMARK  6 active torsions:
REMARK  status: ('A' for Active; 'I' for Inactive)
REMARK    1  A    between atoms: C2_2  and  C3_3 
REMARK    2  A    between atoms: C4_4  and  C5_5 
REMARK    3  A    between atoms: N1_6  and  N2_8 
REMARK    4  A    between atoms: N2_8  and  C6_10 
REMARK    5  A    between atoms: C16_24  and  C17_25 
REMARK    6  A    between atoms: C21_29  and  N5_30 
ROOT
HETATM    1  C3  UNL     1       3.437  17.875   9.327  1.00  0.00    -0.018 A 
HETATM    2  C4  UNL     1       4.283  18.219  10.350  1.00  0.00     0.057 A 
HETATM    3  N4  UNL     1       5.578  18.249   9.887  1.00  0.00    -0.353 N 
ATOM      4  H4  UNL     1       6.398  18.476  10.448  1.00  0.00     0.166 HD
HETATM    5  C15 UNL     1       5.593  17.931   8.581  1.00  0.00     0.056 A 
HETATM    6  C16 UNL     1       6.647  17.805   7.704  1.00  0.00     0.018 A 
HETATM    7  C22 UNL     1       6.301  17.411   6.400  1.00  0.00     0.016 A 
HETATM    8  C23 UNL     1       4.996  17.177   6.044  1.00  0.00     0.002 A 
HETATM    9  C24 UNL     1       3.959  17.311   6.935  1.00  0.00     0.014 A 
HETATM   10  C25 UNL     1       4.282  17.697   8.222  1.00  0.00     0.000 A 
ENDROOT
BRANCH   2  11
HETATM   11  C5  UNL     1       3.877  18.513  11.725  1.00  0.00     0.137 C 
HETATM   12  N1  UNL     1       3.588  17.621  12.588  1.00  0.00    -0.309 N 
ATOM     13  H1  UNL     1       3.636  16.636  12.326  1.00  0.00     0.186 HD
BRANCH  12  14
HETATM   14  N2  UNL     1       3.211  17.966  13.874  1.00  0.00    -0.300 N 
ATOM     15  H2  UNL     1       3.888  17.840  14.626  1.00  0.00     0.187 HD
BRANCH  14  16
HETATM   16  C6  UNL     1       2.048  18.439  14.174  1.00  0.00     0.061 A 
HETATM   17  C7  UNL     1       0.920  17.856  13.608  1.00  0.00     0.049 A 
HETATM   18  C8  UNL     1      -0.305  18.403  13.963  1.00  0.00     0.090 A 
HETATM   19  N3  UNL     1      -0.392  19.443  14.812  1.00  0.00    -0.365 N 
HETATM   20  C9  UNL     1       0.683  20.025  15.373  1.00  0.00     0.044 A 
ATOM     21  H3  UNL     1      -1.317  19.808  15.040  1.00  0.00     0.165 HD
HETATM   22  C10 UNL     1       0.584  21.088  16.240  1.00  0.00     0.030 A 
HETATM   23  C14 UNL     1       1.925  19.499  15.036  1.00  0.00     0.019 A 
HETATM   24  C11 UNL     1       1.697  21.674  16.808  1.00  0.00     0.002 A 
HETATM   25  C12 UNL     1       2.922  21.141  16.464  1.00  0.00     0.001 A 
HETATM   26  C13 UNL     1       3.052  20.079  15.601  1.00  0.00     0.016 A 
ENDBRANCH  14  16
ENDBRANCH  12  14
ENDBRANCH   2  11
BRANCH   1  27
HETATM   27  C2  UNL     1       1.960  17.711   9.327  1.00  0.00     0.037 C 
HETATM   28  C1  UNL     1       1.235  19.028   9.050  1.00  0.00     0.010 C 
ENDBRANCH   1  27
BRANCH   6  29
HETATM   29  C17 UNL     1       8.031  18.145   7.985  1.00  0.00     0.046 A 
HETATM   30  C18 UNL     1       8.638  19.355   7.807  1.00  0.00     0.030 A 
HETATM   31  C19 UNL     1       9.995  19.602   8.023  1.00  0.00     0.006 A 
HETATM   32  C20 UNL     1      10.783  18.558   8.442  1.00  0.00     0.048 A 
HETATM   33  C21 UNL     1      10.167  17.338   8.619  1.00  0.00     0.099 A 
HETATM   34  N6  UNL     1       8.858  17.139   8.403  1.00  0.00    -0.342 N 
ATOM     35  H6  UNL     1       8.467  16.210   8.554  1.00  0.00     0.167 HD
BRANCH  33  36
HETATM   36  N5  UNL     1      10.913  16.357   9.014  1.00  0.00    -0.385 N 
ATOM     37  H52 UNL     1      11.838  16.224   8.604  1.00  0.00     0.157 HD
ATOM     38  H51 UNL     1      10.530  15.746   9.735  1.00  0.00     0.157 HD
ENDBRANCH  33  36
ENDBRANCH   6  29
TORSDOF 6
ENDMDL
MODEL 5
REMARK VINA RESULT: -8.003778410      3.263     10.478
REMARK  6 active torsions:
REMARK  status: ('A' for Active; 'I' for Inactive)
REMARK    1  A    between atoms: C2_2  and  C3_3 
REMARK    2  A    between atoms: C4_4  and  C5_5 
REMARK    3  A    between atoms: N1_6  and  N2_8 
REMARK    4  A    between atoms: N2_8  and  C6_10 
REMARK    5  A    between atoms: C16_24  and  C17_25 
REMARK    6  A    between atoms: C21_29  and  N5_30 
ROOT
HETATM    1  C3  UNL     1       3.372  19.493  13.741  1.00  0.00    -0.018 A 
HETATM    2  C4  UNL     1       2.683  18.446  13.183  1.00  0.00     0.057 A 
HETATM    3  N4  UNL     1       1.435  18.360  13.754  1.00  0.00    -0.353 N 
ATOM      4  H4  UNL     1       0.725  17.667  13.518  1.00  0.00     0.166 HD
HETATM    5  C15 UNL     1       1.295  19.331  14.673  1.00  0.00     0.056 A 
HETATM    6  C16 UNL     1       0.243  19.624  15.512  1.00  0.00     0.018 A 
HETATM    7  C22 UNL     1       0.457  20.699  16.391  1.00  0.00     0.016 A 
HETATM    8  C23 UNL     1       1.637  21.399  16.396  1.00  0.00     0.002 A 
HETATM    9  C24 UNL     1       2.674  21.092  15.548  1.00  0.00     0.014 A 
HETATM   10  C25 UNL     1       2.481  20.035  14.677  1.00  0.00     0.000 A 
ENDROOT
BRANCH   2  11
HETATM   11  C5  UNL     1       3.190  17.555  12.139  1.00  0.00     0.137 C 
HETATM   12  N1  UNL     1       3.041  17.762  10.891  1.00  0.00    -0.309 N 
ATOM     13  H1  UNL     1       2.540  18.593  10.577  1.00  0.00     0.186 HD
BRANCH  12  14
HETATM   14  N2  UNL     1       3.546  16.877   9.954  1.00  0.00    -0.300 N 
ATOM     15  H2  UNL     1       3.261  15.900  10.010  1.00  0.00     0.187 HD
BRANCH  14  16
HETATM   16  C6  UNL     1       4.358  17.222   9.013  1.00  0.00     0.061 A 
HETATM   17  C7  UNL     1       5.205  18.305   9.220  1.00  0.00     0.049 A 
HETATM   18  C8  UNL     1       6.058  18.633   8.176  1.00  0.00     0.090 A 
HETATM   19  N3  UNL     1       6.062  17.938   7.024  1.00  0.00    -0.365 N 
HETATM   20  C9  UNL     1       5.253  16.887   6.798  1.00  0.00     0.044 A 
ATOM     21  H3  UNL     1       6.708  18.222   6.287  1.00  0.00     0.165 HD
HETATM   22  C10 UNL     1       5.264  16.182   5.617  1.00  0.00     0.030 A 
HETATM   23  C14 UNL     1       4.386  16.533   7.826  1.00  0.00     0.019 A 
HETATM   24  C11 UNL     1       4.428  15.107   5.401  1.00  0.00     0.002 A 
HETATM   25  C12 UNL     1       3.574  14.767   6.430  1.00  0.00     0.001 A 
HETATM   26  C13 UNL     1       3.541  15.453   7.621  1.00  0.00     0.016 A 
ENDBRANCH  14  16
ENDBRANCH  12  14
ENDBRANCH   2  11
BRANCH   1  27
HETATM   27  C2  UNL     1       4.746  19.985  13.461  1.00  0.00     0.037 C 
HETATM   28  C1  UNL     1       4.751  21.134  12.451  1.00  0.00     0.010 C 
ENDBRANCH   1  27
BRANCH   6  29
HETATM   29  C17 UNL     1      -1.067  18.998  15.481  1.00  0.00     0.046 A 
HETATM   30  C18 UNL     1      -2.281  19.622  15.450  1.00  0.00     0.030 A 
HETATM   31  C19 UNL     1      -3.513  18.966  15.500  1.00  0.00     0.006 A 
HETATM   32  C20 UNL     1      -3.511  17.596  15.588  1.00  0.00     0.048 A 
HETATM   33  C21 UNL     1      -2.284  16.969  15.620  1.00  0.00     0.099 A 
HETATM   34  N6  UNL     1      -1.120  17.635  15.569  1.00  0.00    -0.342 N 
ATOM     35  H6  UNL     1      -0.247  17.107  15.596  1.00  0.00     0.167 HD
BRANCH  33  36
HETATM   36  N5  UNL     1      -2.288  15.678  15.703  1.00  0.00    -0.385 N 
ATOM     37  H52 UNL     1      -1.477  15.191  16.086  1.00  0.00     0.157 HD
ATOM     38  H51 UNL     1      -3.123  15.196  15.373  1.00  0.00     0.157 HD
ENDBRANCH  33  36
ENDBRANCH   6  29
TORSDOF 6
ENDMDL
