MODEL 1
REMARK VINA RESULT: -7.631803097      0.000      0.000
REMARK  16 active torsions:
REMARK  status: ('A' for Active; 'I' for Inactive)
REMARK    1  A    between atoms: C2_2  and  C4_4 
REMARK    2  A    between atoms: C13_13  and  O1_14 
REMARK    3  A    between atoms: O1_14  and  C14_15 
REMARK    4  A    between atoms: C14_15  and  C15_17 
REMARK    5  A    between atoms: C15_17  and  N1_18 
REMARK    6  A    between atoms: C19_22  and  C20_23 
REMARK    7  A    between atoms: C20_23  and  O3_24 
REMARK    8  A    between atoms: O3_24  and  N2_25 
REMARK    9  A    between atoms: C21_27  and  C22_28 
REMARK       I    between atoms: C22_28  and  N3_30 
REMARK   10  A    between atoms: N3_30  and  C23_32 
REMARK   11  A    between atoms: C23_32  and  C24_33 
REMARK   12  A    between atoms: C24_33  and  C25_34 
REMARK   13  A    between atoms: C25_34  and  C26_35 
REMARK   14  A    between atoms: C26_35  and  C27_36 
REMARK   15  A    between atoms: C27_36  and  N4_37 
REMARK   16  A    between atoms: C28_41  and  O5_42 
ROOT
HETATM    1  C4  UNL     1      -8.359  42.401  -0.135  1.00  0.00    -0.003 C 
HETATM    2  C5  UNL     1      -7.214  42.065   0.849  1.00  0.00     0.006 C 
HETATM    3  C6  UNL     1      -6.656  43.405   1.278  1.00  0.00     0.006 C 
HETATM    4  C7  UNL     1      -7.450  44.382   0.517  1.00  0.00    -0.002 C 
HETATM    5  C8  UNL     1      -7.662  45.711   1.092  1.00  0.00    -0.005 C 
HETATM    6  C9  UNL     1      -6.429  46.510   1.368  1.00  0.00     0.006 C 
HETATM    7  C10 UNL     1      -6.898  47.660   2.271  1.00  0.00     0.005 C 
HETATM    8  C11 UNL     1      -7.995  48.433   1.637  1.00  0.00    -0.005 C 
HETATM    9  C12 UNL     1      -9.208  48.637   2.550  1.00  0.00     0.038 C 
HETATM   10  C13 UNL     1     -10.046  49.685   1.869  1.00  0.00     0.141 C 
HETATM   11  C19 UNL     1     -10.640  49.007   0.655  1.00  0.00     0.070 C 
HETATM   12  C28 UNL     1      -9.524  48.739  -0.293  1.00  0.00     0.131 C 
HETATM   13  C29 UNL     1      -8.371  47.973   0.256  1.00  0.00     0.023 C 
HETATM   14  C30 UNL     1      -8.489  46.513   0.077  1.00  0.00    -0.003 C 
HETATM   15  C31 UNL     1      -9.863  45.921   0.156  1.00  0.00     0.006 C 
HETATM   16  C32 UNL     1      -9.756  44.496  -0.379  1.00  0.00     0.010 C 
HETATM   17  C33 UNL     1      -8.827  43.673   0.459  1.00  0.00    -0.036 C 
HETATM   18  C34 UNL     1      -9.375  43.481   1.831  1.00  0.00     0.016 C 
ENDROOT
BRANCH  11  19
HETATM   19  C20 UNL     1     -11.673  49.849  -0.030  1.00  0.00     0.211 C 
BRANCH  19  20
HETATM   20  O3  UNL     1     -12.916  49.192  -0.158  1.00  0.00    -0.280 OA
BRANCH  20  21
HETATM   21  N2  UNL     1     -13.092  48.016  -0.816  1.00  0.00    -0.273 N 
HETATM   22  C21 UNL     1     -13.581  46.952  -0.287  1.00  0.00     0.188 C 
ATOM     23  H2  UNL     1     -12.817  47.976  -1.797  1.00  0.00     0.193 HD
BRANCH  22  24
HETATM   24  C22 UNL     1     -13.728  45.750  -1.076  1.00  0.00     0.258 C 
HETATM   25  O4  UNL     1     -13.370  44.630  -0.594  1.00  0.00    -0.267 OA
HETATM   26  N3  UNL     1     -14.267  45.774  -2.393  1.00  0.00    -0.356 N 
ATOM     27  H3  UNL     1     -14.561  46.662  -2.800  1.00  0.00     0.162 HD
BRANCH  26  28
HETATM   28  C23 UNL     1     -14.402  44.559  -3.160  1.00  0.00     0.123 C 
BRANCH  28  29
HETATM   29  C24 UNL     1     -15.855  44.305  -3.523  1.00  0.00     0.020 C 
BRANCH  29  30
HETATM   30  C25 UNL     1     -16.070  44.309  -5.003  1.00  0.00     0.003 C 
BRANCH  30  31
HETATM   31  C26 UNL     1     -16.010  45.706  -5.563  1.00  0.00     0.027 C 
BRANCH  31  32
HETATM   32  C27 UNL     1     -17.233  46.495  -5.210  1.00  0.00     0.229 C 
BRANCH  32  33
HETATM   33  N4  UNL     1     -18.454  45.836  -5.667  1.00  0.00    -0.079 N 
ATOM     34  H43 UNL     1     -18.269  45.219  -6.458  1.00  0.00     0.274 HD
ATOM     35  H42 UNL     1     -18.776  45.141  -4.994  1.00  0.00     0.274 HD
ATOM     36  H41 UNL     1     -19.188  46.510  -5.886  1.00  0.00     0.274 HD
ENDBRANCH  32  33
ENDBRANCH  31  32
ENDBRANCH  30  31
ENDBRANCH  29  30
ENDBRANCH  28  29
ENDBRANCH  26  28
ENDBRANCH  22  24
ENDBRANCH  20  21
ENDBRANCH  19  20
ENDBRANCH  11  19
BRANCH  10  37
HETATM   37  O1  UNL     1     -10.936  50.367   2.659  1.00  0.00    -0.314 OA
BRANCH  37  38
HETATM   38  C14 UNL     1     -11.613  49.823   3.740  1.00  0.00     0.285 C 
HETATM   39  O2  UNL     1     -12.387  48.889   3.420  1.00  0.00    -0.263 OA
BRANCH  38  40
HETATM   40  C15 UNL     1     -11.383  50.351   5.082  1.00  0.00     0.346 C 
BRANCH  40  41
HETATM   41  N1  UNL     1     -12.527  50.942   5.710  1.00  0.00    -0.070 N 
HETATM   42  C16 UNL     1     -13.282  49.971   6.453  1.00  0.00     0.272 C 
HETATM   43  C17 UNL     1     -11.999  51.897   6.700  1.00  0.00     0.272 C 
HETATM   44  C18 UNL     1     -13.335  51.717   4.785  1.00  0.00     0.272 C 
ENDBRANCH  40  41
ENDBRANCH  38  40
ENDBRANCH  37  38
ENDBRANCH  10  37
BRANCH  12  45
HETATM   45  O5  UNL     1      -9.058  50.009  -0.717  1.00  0.00    -0.395 OA
ATOM     46  H5  UNL     1      -9.228  50.051  -1.651  1.00  0.00     0.210 HD
ENDBRANCH  12  45
BRANCH   1  47
HETATM   47  C2  UNL     1      -9.311  41.275  -0.257  1.00  0.00    -0.018 C 
HETATM   48  C1  UNL     1      -8.605  39.925  -0.074  1.00  0.00     0.010 C 
HETATM   49  C3  UNL     1      -9.872  41.232  -1.664  1.00  0.00     0.010 C 
ENDBRANCH   1  47
TORSDOF 16
ENDMDL
MODEL 2
REMARK VINA RESULT: -7.493204886      3.653      7.317
REMARK  16 active torsions:
REMARK  status: ('A' for Active; 'I' for Inactive)
REMARK    1  A    between atoms: C2_2  and  C4_4 
REMARK    2  A    between atoms: C13_13  and  O1_14 
REMARK    3  A    between atoms: O1_14  and  C14_15 
REMARK    4  A    between atoms: C14_15  and  C15_17 
REMARK    5  A    between atoms: C15_17  and  N1_18 
REMARK    6  A    between atoms: C19_22  and  C20_23 
REMARK    7  A    between atoms: C20_23  and  O3_24 
REMARK    8  A    between atoms: O3_24  and  N2_25 
REMARK    9  A    between atoms: C21_27  and  C22_28 
REMARK       I    between atoms: C22_28  and  N3_30 
REMARK   10  A    between atoms: N3_30  and  C23_32 
REMARK   11  A    between atoms: C23_32  and  C24_33 
REMARK   12  A    between atoms: C24_33  and  C25_34 
REMARK   13  A    between atoms: C25_34  and  C26_35 
REMARK   14  A    between atoms: C26_35  and  C27_36 
REMARK   15  A    between atoms: C27_36  and  N4_37 
REMARK   16  A    between atoms: C28_41  and  O5_42 
ROOT
HETATM    1  C4  UNL     1      -9.624  41.542  -0.356  1.00  0.00    -0.003 C 
HETATM    2  C5  UNL     1     -10.281  41.177  -1.708  1.00  0.00     0.006 C 
HETATM    3  C6  UNL     1     -11.341  42.234  -1.930  1.00  0.00     0.006 C 
HETATM    4  C7  UNL     1     -11.260  43.079  -0.727  1.00  0.00    -0.002 C 
HETATM    5  C8  UNL     1     -11.629  44.490  -0.838  1.00  0.00    -0.005 C 
HETATM    6  C9  UNL     1     -13.030  44.769  -1.278  1.00  0.00     0.006 C 
HETATM    7  C10 UNL     1     -13.038  46.258  -1.650  1.00  0.00     0.005 C 
HETATM    8  C11 UNL     1     -12.576  47.102  -0.520  1.00  0.00    -0.005 C 
HETATM    9  C12 UNL     1     -11.484  48.103  -0.908  1.00  0.00     0.038 C 
HETATM   10  C13 UNL     1     -11.387  49.054   0.254  1.00  0.00     0.141 C 
HETATM   11  C19 UNL     1     -10.746  48.266   1.374  1.00  0.00     0.070 C 
HETATM   12  C28 UNL     1     -11.730  47.236   1.809  1.00  0.00     0.131 C 
HETATM   13  C29 UNL     1     -12.257  46.345   0.739  1.00  0.00     0.023 C 
HETATM   14  C30 UNL     1     -11.475  45.105   0.560  1.00  0.00    -0.003 C 
HETATM   15  C31 UNL     1      -9.996  45.191   0.777  1.00  0.00     0.006 C 
HETATM   16  C32 UNL     1      -9.483  43.756   0.860  1.00  0.00     0.010 C 
HETATM   17  C33 UNL     1      -9.742  43.016  -0.416  1.00  0.00    -0.036 C 
HETATM   18  C34 UNL     1      -8.953  43.596  -1.539  1.00  0.00     0.016 C 
ENDROOT
BRANCH  11  19
HETATM   19  C20 UNL     1     -10.382  49.122   2.549  1.00  0.00     0.211 C 
BRANCH  19  20
HETATM   20  O3  UNL     1     -10.398  48.410   3.768  1.00  0.00    -0.280 OA
BRANCH  20  21
HETATM   21  N2  UNL     1      -9.368  47.649   4.219  1.00  0.00    -0.273 N 
HETATM   22  C21 UNL     1      -8.129  47.982   4.143  1.00  0.00     0.188 C 
ATOM     23  H2  UNL     1      -9.593  46.751   4.648  1.00  0.00     0.193 HD
BRANCH  22  24
HETATM   24  C22 UNL     1      -7.106  47.098   4.655  1.00  0.00     0.258 C 
HETATM   25  O4  UNL     1      -5.922  47.529   4.818  1.00  0.00    -0.267 OA
HETATM   26  N3  UNL     1      -7.381  45.742   4.990  1.00  0.00    -0.356 N 
ATOM     27  H3  UNL     1      -8.324  45.375   4.868  1.00  0.00     0.162 HD
BRANCH  26  28
HETATM   28  C23 UNL     1      -6.341  44.880   5.500  1.00  0.00     0.123 C 
BRANCH  28  29
HETATM   29  C24 UNL     1      -6.201  43.633   4.644  1.00  0.00     0.020 C 
BRANCH  29  30
HETATM   30  C25 UNL     1      -6.281  43.946   3.184  1.00  0.00     0.003 C 
BRANCH  30  31
HETATM   31  C26 UNL     1      -4.962  43.707   2.498  1.00  0.00     0.027 C 
BRANCH  31  32
HETATM   32  C27 UNL     1      -3.994  44.819   2.758  1.00  0.00     0.229 C 
BRANCH  32  33
HETATM   33  N4  UNL     1      -4.542  46.116   2.370  1.00  0.00    -0.079 N 
ATOM     34  H43 UNL     1      -4.260  46.849   3.021  1.00  0.00     0.274 HD
ATOM     35  H42 UNL     1      -4.093  46.472   1.525  1.00  0.00     0.274 HD
ATOM     36  H41 UNL     1      -5.556  46.083   2.265  1.00  0.00     0.274 HD
ENDBRANCH  32  33
ENDBRANCH  31  32
ENDBRANCH  30  31
ENDBRANCH  29  30
ENDBRANCH  28  29
ENDBRANCH  26  28
ENDBRANCH  22  24
ENDBRANCH  20  21
ENDBRANCH  19  20
ENDBRANCH  11  19
BRANCH  10  37
HETATM   37  O1  UNL     1     -10.823  50.279  -0.002  1.00  0.00    -0.314 OA
BRANCH  37  38
HETATM   38  C14 UNL     1     -10.219  50.638  -1.197  1.00  0.00     0.285 C 
HETATM   39  O2  UNL     1     -10.972  51.297  -1.953  1.00  0.00    -0.263 OA
BRANCH  38  40
HETATM   40  C15 UNL     1      -8.837  50.244  -1.461  1.00  0.00     0.346 C 
BRANCH  40  41
HETATM   41  N1  UNL     1      -7.847  50.937  -0.692  1.00  0.00    -0.070 N 
HETATM   42  C16 UNL     1      -7.439  50.173   0.455  1.00  0.00     0.272 C 
HETATM   43  C17 UNL     1      -6.661  51.044  -1.559  1.00  0.00     0.272 C 
HETATM   44  C18 UNL     1      -8.240  52.297  -0.368  1.00  0.00     0.272 C 
ENDBRANCH  40  41
ENDBRANCH  38  40
ENDBRANCH  37  38
ENDBRANCH  10  37
BRANCH  12  45
HETATM   45  O5  UNL     1     -12.817  47.949   2.375  1.00  0.00    -0.395 OA
ATOM     46  H5  UNL     1     -12.468  48.396   3.137  1.00  0.00     0.210 HD
ENDBRANCH  12  45
BRANCH   1  47
HETATM   47  C2  UNL     1      -8.279  40.937  -0.231  1.00  0.00    -0.018 C 
HETATM   48  C1  UNL     1      -8.369  39.435   0.071  1.00  0.00     0.010 C 
HETATM   49  C3  UNL     1      -7.562  41.531   0.965  1.00  0.00     0.010 C 
ENDBRANCH   1  47
TORSDOF 16
ENDMDL
MODEL 3
REMARK VINA RESULT: -7.453430917      1.378      1.753
REMARK  16 active torsions:
REMARK  status: ('A' for Active; 'I' for Inactive)
REMARK    1  A    between atoms: C2_2  and  C4_4 
REMARK    2  A    between atoms: C13_13  and  O1_14 
REMARK    3  A    between atoms: O1_14  and  C14_15 
REMARK    4  A    between atoms: C14_15  and  C15_17 
REMARK    5  A    between atoms: C15_17  and  N1_18 
REMARK    6  A    between atoms: C19_22  and  C20_23 
REMARK    7  A    between atoms: C20_23  and  O3_24 
REMARK    8  A    between atoms: O3_24  and  N2_25 
REMARK    9  A    between atoms: C21_27  and  C22_28 
REMARK       I    between atoms: C22_28  and  N3_30 
REMARK   10  A    between atoms: N3_30  and  C23_32 
REMARK   11  A    between atoms: C23_32  and  C24_33 
REMARK   12  A    between atoms: C24_33  and  C25_34 
REMARK   13  A    between atoms: C25_34  and  C26_35 
REMARK   14  A    between atoms: C26_35  and  C27_36 
REMARK   15  A    between atoms: C27_36  and  N4_37 
REMARK   16  A    between atoms: C28_41  and  O5_42 
ROOT
HETATM    1  C4  UNL     1      -8.781  42.565  -0.390  1.00  0.00    -0.003 C 
HETATM    2  C5  UNL     1      -7.458  42.507   0.410  1.00  0.00     0.006 C 
HETATM    3  C6  UNL     1      -7.136  43.947   0.746  1.00  0.00     0.006 C 
HETATM    4  C7  UNL     1      -8.221  44.712   0.111  1.00  0.00    -0.002 C 
HETATM    5  C8  UNL     1      -8.619  45.987   0.708  1.00  0.00    -0.005 C 
HETATM    6  C9  UNL     1      -7.554  47.033   0.792  1.00  0.00     0.006 C 
HETATM    7  C10 UNL     1      -8.114  48.091   1.753  1.00  0.00     0.005 C 
HETATM    8  C11 UNL     1      -9.430  48.599   1.291  1.00  0.00    -0.005 C 
HETATM    9  C12 UNL     1     -10.510  48.580   2.376  1.00  0.00     0.038 C 
HETATM   10  C13 UNL     1     -11.640  49.408   1.828  1.00  0.00     0.141 C 
HETATM   11  C19 UNL     1     -12.252  48.580   0.719  1.00  0.00     0.070 C 
HETATM   12  C28 UNL     1     -11.258  48.516  -0.386  1.00  0.00     0.131 C 
HETATM   13  C29 UNL     1      -9.901  48.024  -0.016  1.00  0.00     0.023 C 
HETATM   14  C30 UNL     1      -9.736  46.566  -0.171  1.00  0.00    -0.003 C 
HETATM   15  C31 UNL     1     -10.928  45.706   0.117  1.00  0.00     0.006 C 
HETATM   16  C32 UNL     1     -10.606  44.316  -0.424  1.00  0.00     0.010 C 
HETATM   17  C33 UNL     1      -9.412  43.732   0.265  1.00  0.00    -0.036 C 
HETATM   18  C34 UNL     1      -9.699  43.479   1.705  1.00  0.00     0.016 C 
ENDROOT
BRANCH  11  19
HETATM   19  C20 UNL     1     -13.529  49.167   0.197  1.00  0.00     0.211 C 
BRANCH  19  20
HETATM   20  O3  UNL     1     -14.550  48.204   0.046  1.00  0.00    -0.280 OA
BRANCH  20  21
HETATM   21  N2  UNL     1     -14.611  47.312  -0.977  1.00  0.00    -0.273 N 
HETATM   22  C21 UNL     1     -14.455  46.043  -0.845  1.00  0.00     0.188 C 
ATOM     23  H2  UNL     1     -14.794  47.674  -1.912  1.00  0.00     0.193 HD
BRANCH  22  24
HETATM   24  C22 UNL     1     -14.539  45.178  -2.000  1.00  0.00     0.258 C 
HETATM   25  O4  UNL     1     -14.042  44.009  -1.952  1.00  0.00    -0.267 OA
HETATM   26  N3  UNL     1     -15.169  45.591  -3.207  1.00  0.00    -0.356 N 
ATOM     27  H3  UNL     1     -15.576  46.525  -3.268  1.00  0.00     0.162 HD
BRANCH  26  28
HETATM   28  C23 UNL     1     -15.241  44.707  -4.347  1.00  0.00     0.123 C 
BRANCH  28  29
HETATM   29  C24 UNL     1     -15.979  45.365  -5.499  1.00  0.00     0.020 C 
BRANCH  29  30
HETATM   30  C25 UNL     1     -16.464  46.735  -5.143  1.00  0.00     0.003 C 
BRANCH  30  31
HETATM   31  C26 UNL     1     -16.421  47.659  -6.332  1.00  0.00     0.027 C 
BRANCH  31  32
HETATM   32  C27 UNL     1     -16.544  49.093  -5.921  1.00  0.00     0.229 C 
BRANCH  32  33
HETATM   33  N4  UNL     1     -16.928  49.224  -4.518  1.00  0.00    -0.079 N 
ATOM     34  H43 UNL     1     -16.887  50.195  -4.210  1.00  0.00     0.274 HD
ATOM     35  H42 UNL     1     -17.926  49.057  -4.389  1.00  0.00     0.274 HD
ATOM     36  H41 UNL     1     -16.370  48.620  -3.914  1.00  0.00     0.274 HD
ENDBRANCH  32  33
ENDBRANCH  31  32
ENDBRANCH  30  31
ENDBRANCH  29  30
ENDBRANCH  28  29
ENDBRANCH  26  28
ENDBRANCH  22  24
ENDBRANCH  20  21
ENDBRANCH  19  20
ENDBRANCH  11  19
BRANCH  10  37
HETATM   37  O1  UNL     1     -12.528  49.917   2.741  1.00  0.00    -0.314 OA
BRANCH  37  38
HETATM   38  C14 UNL     1     -12.173  50.636   3.873  1.00  0.00     0.285 C 
HETATM   39  O2  UNL     1     -11.224  51.432   3.676  1.00  0.00    -0.263 OA
BRANCH  38  40
HETATM   40  C15 UNL     1     -12.891  50.420   5.127  1.00  0.00     0.346 C 
BRANCH  40  41
HETATM   41  N1  UNL     1     -12.113  49.848   6.185  1.00  0.00    -0.070 N 
HETATM   42  C16 UNL     1     -11.363  50.852   6.889  1.00  0.00     0.272 C 
HETATM   43  C17 UNL     1     -13.082  49.304   7.153  1.00  0.00     0.272 C 
HETATM   44  C18 UNL     1     -11.303  48.728   5.742  1.00  0.00     0.272 C 
ENDBRANCH  40  41
ENDBRANCH  38  40
ENDBRANCH  37  38
ENDBRANCH  10  37
BRANCH  12  45
HETATM   45  O5  UNL     1     -11.136  49.839  -0.879  1.00  0.00    -0.395 OA
ATOM     46  H5  UNL     1     -10.798  49.759  -1.764  1.00  0.00     0.210 HD
ENDBRANCH  12  45
BRANCH   1  47
HETATM   47  C2  UNL     1      -9.484  41.263  -0.363  1.00  0.00    -0.018 C 
HETATM   48  C1  UNL     1      -8.510  40.109  -0.087  1.00  0.00     0.010 C 
HETATM   49  C3  UNL     1     -10.059  40.966  -1.733  1.00  0.00     0.010 C 
ENDBRANCH   1  47
TORSDOF 16
ENDMDL
MODEL 4
REMARK VINA RESULT: -7.415159603      3.255      6.900
REMARK  16 active torsions:
REMARK  status: ('A' for Active; 'I' for Inactive)
REMARK    1  A    between atoms: C2_2  and  C4_4 
REMARK    2  A    between atoms: C13_13  and  O1_14 
REMARK    3  A    between atoms: O1_14  and  C14_15 
REMARK    4  A    between atoms: C14_15  and  C15_17 
REMARK    5  A    between atoms: C15_17  and  N1_18 
REMARK    6  A    between atoms: C19_22  and  C20_23 
REMARK    7  A    between atoms: C20_23  and  O3_24 
REMARK    8  A    between atoms: O3_24  and  N2_25 
REMARK    9  A    between atoms: C21_27  and  C22_28 
REMARK       I    between atoms: C22_28  and  N3_30 
REMARK   10  A    between atoms: N3_30  and  C23_32 
REMARK   11  A    between atoms: C23_32  and  C24_33 
REMARK   12  A    between atoms: C24_33  and  C25_34 
REMARK   13  A    between atoms: C25_34  and  C26_35 
REMARK   14  A    between atoms: C26_35  and  C27_36 
REMARK   15  A    between atoms: C27_36  and  N4_37 
REMARK   16  A    between atoms: C28_41  and  O5_42 
ROOT
HETATM    1  C4  UNL     1      -9.539  41.528  -0.362  1.00  0.00    -0.003 C 
HETATM    2  C5  UNL     1     -10.173  41.189  -1.731  1.00  0.00     0.006 C 
HETATM    3  C6  UNL     1     -11.220  42.258  -1.957  1.00  0.00     0.006 C 
HETATM    4  C7  UNL     1     -11.156  43.083  -0.741  1.00  0.00    -0.002 C 
HETATM    5  C8  UNL     1     -11.511  44.500  -0.837  1.00  0.00    -0.005 C 
HETATM    6  C9  UNL     1     -12.902  44.797  -1.300  1.00  0.00     0.006 C 
HETATM    7  C10 UNL     1     -12.890  46.291  -1.649  1.00  0.00     0.005 C 
HETATM    8  C11 UNL     1     -12.444  47.113  -0.497  1.00  0.00    -0.005 C 
HETATM    9  C12 UNL     1     -11.337  48.112  -0.848  1.00  0.00     0.038 C 
HETATM   10  C13 UNL     1     -11.254  49.044   0.329  1.00  0.00     0.141 C 
HETATM   11  C19 UNL     1     -10.642  48.234   1.450  1.00  0.00     0.070 C 
HETATM   12  C28 UNL     1     -11.642  47.206   1.850  1.00  0.00     0.131 C 
HETATM   13  C29 UNL     1     -12.156  46.335   0.756  1.00  0.00     0.023 C 
HETATM   14  C30 UNL     1     -11.380  45.092   0.573  1.00  0.00    -0.003 C 
HETATM   15  C31 UNL     1      -9.904  45.162   0.820  1.00  0.00     0.006 C 
HETATM   16  C32 UNL     1      -9.404  43.722   0.890  1.00  0.00     0.010 C 
HETATM   17  C33 UNL     1      -9.645  43.004  -0.401  1.00  0.00    -0.036 C 
HETATM   18  C34 UNL     1      -8.829  43.594  -1.500  1.00  0.00     0.016 C 
ENDROOT
BRANCH  11  19
HETATM   19  C20 UNL     1     -10.294  49.069   2.645  1.00  0.00     0.211 C 
BRANCH  19  20
HETATM   20  O3  UNL     1     -10.065  48.295   3.803  1.00  0.00    -0.280 OA
BRANCH  20  21
HETATM   21  N2  UNL     1      -8.939  47.568   4.023  1.00  0.00    -0.273 N 
HETATM   22  C21 UNL     1      -8.273  47.573   5.123  1.00  0.00     0.188 C 
ATOM     23  H2  UNL     1      -8.598  46.978   3.264  1.00  0.00     0.193 HD
BRANCH  22  24
HETATM   24  C22 UNL     1      -7.085  46.761   5.255  1.00  0.00     0.258 C 
HETATM   25  O4  UNL     1      -5.939  47.312   5.254  1.00  0.00    -0.267 OA
HETATM   26  N3  UNL     1      -7.150  45.346   5.391  1.00  0.00    -0.356 N 
ATOM     27  H3  UNL     1      -8.058  44.882   5.396  1.00  0.00     0.162 HD
BRANCH  26  28
HETATM   28  C23 UNL     1      -5.947  44.558   5.523  1.00  0.00     0.123 C 
BRANCH  28  29
HETATM   29  C24 UNL     1      -5.804  43.588   4.363  1.00  0.00     0.020 C 
BRANCH  29  30
HETATM   30  C25 UNL     1      -5.068  44.198   3.212  1.00  0.00     0.003 C 
BRANCH  30  31
HETATM   31  C26 UNL     1      -6.011  44.597   2.108  1.00  0.00     0.027 C 
BRANCH  31  32
HETATM   32  C27 UNL     1      -6.018  46.080   1.897  1.00  0.00     0.229 C 
BRANCH  32  33
HETATM   33  N4  UNL     1      -4.816  46.710   2.437  1.00  0.00    -0.079 N 
ATOM     34  H43 UNL     1      -5.028  47.615   2.858  1.00  0.00     0.274 HD
ATOM     35  H42 UNL     1      -4.482  46.222   3.269  1.00  0.00     0.274 HD
ATOM     36  H41 UNL     1      -4.081  46.790   1.734  1.00  0.00     0.274 HD
ENDBRANCH  32  33
ENDBRANCH  31  32
ENDBRANCH  30  31
ENDBRANCH  29  30
ENDBRANCH  28  29
ENDBRANCH  26  28
ENDBRANCH  22  24
ENDBRANCH  20  21
ENDBRANCH  19  20
ENDBRANCH  11  19
BRANCH  10  37
HETATM   37  O1  UNL     1     -10.677  50.268   0.104  1.00  0.00    -0.314 OA
BRANCH  37  38
HETATM   38  C14 UNL     1     -11.323  51.356  -0.462  1.00  0.00     0.285 C 
HETATM   39  O2  UNL     1     -11.327  51.332  -1.716  1.00  0.00    -0.263 OA
BRANCH  38  40
HETATM   40  C15 UNL     1     -11.911  52.381   0.398  1.00  0.00     0.346 C 
BRANCH  40  41
HETATM   41  N1  UNL     1     -13.224  52.086   0.888  1.00  0.00    -0.070 N 
HETATM   42  C16 UNL     1     -13.177  51.487   2.195  1.00  0.00     0.272 C 
HETATM   43  C17 UNL     1     -13.897  53.386   1.055  1.00  0.00     0.272 C 
HETATM   44  C18 UNL     1     -14.021  51.332  -0.063  1.00  0.00     0.272 C 
ENDBRANCH  40  41
ENDBRANCH  38  40
ENDBRANCH  37  38
ENDBRANCH  10  37
BRANCH  12  45
HETATM   45  O5  UNL     1     -12.734  47.918   2.405  1.00  0.00    -0.395 OA
ATOM     46  H5  UNL     1     -13.468  47.315   2.403  1.00  0.00     0.210 HD
ENDBRANCH  12  45
BRANCH   1  47
HETATM   47  C2  UNL     1      -8.202  40.910  -0.220  1.00  0.00    -0.018 C 
HETATM   48  C1  UNL     1      -8.310  39.421   0.134  1.00  0.00     0.010 C 
HETATM   49  C3  UNL     1      -7.474  41.535   0.952  1.00  0.00     0.010 C 
ENDBRANCH   1  47
TORSDOF 16
ENDMDL
MODEL 5
REMARK VINA RESULT: -7.357112128      3.526      7.385
REMARK  16 active torsions:
REMARK  status: ('A' for Active; 'I' for Inactive)
REMARK    1  A    between atoms: C2_2  and  C4_4 
REMARK    2  A    between atoms: C13_13  and  O1_14 
REMARK    3  A    between atoms: O1_14  and  C14_15 
REMARK    4  A    between atoms: C14_15  and  C15_17 
REMARK    5  A    between atoms: C15_17  and  N1_18 
REMARK    6  A    between atoms: C19_22  and  C20_23 
REMARK    7  A    between atoms: C20_23  and  O3_24 
REMARK    8  A    between atoms: O3_24  and  N2_25 
REMARK    9  A    between atoms: C21_27  and  C22_28 
REMARK       I    between atoms: C22_28  and  N3_30 
REMARK   10  A    between atoms: N3_30  and  C23_32 
REMARK   11  A    between atoms: C23_32  and  C24_33 
REMARK   12  A    between atoms: C24_33  and  C25_34 
REMARK   13  A    between atoms: C25_34  and  C26_35 
REMARK   14  A    between atoms: C26_35  and  C27_36 
REMARK   15  A    between atoms: C27_36  and  N4_37 
REMARK   16  A    between atoms: C28_41  and  O5_42 
ROOT
HETATM    1  C4  UNL     1      -9.602  41.537  -0.356  1.00  0.00    -0.003 C 
HETATM    2  C5  UNL     1     -10.238  41.186  -1.721  1.00  0.00     0.006 C 
HETATM    3  C6  UNL     1     -11.289  42.250  -1.952  1.00  0.00     0.006 C 
HETATM    4  C7  UNL     1     -11.225  43.085  -0.742  1.00  0.00    -0.002 C 
HETATM    5  C8  UNL     1     -11.585  44.499  -0.848  1.00  0.00    -0.005 C 
HETATM    6  C9  UNL     1     -12.978  44.787  -1.310  1.00  0.00     0.006 C 
HETATM    7  C10 UNL     1     -12.973  46.279  -1.670  1.00  0.00     0.005 C 
HETATM    8  C11 UNL     1     -12.527  47.112  -0.526  1.00  0.00    -0.005 C 
HETATM    9  C12 UNL     1     -11.424  48.111  -0.887  1.00  0.00     0.038 C 
HETATM   10  C13 UNL     1     -11.342  49.053   0.284  1.00  0.00     0.141 C 
HETATM   11  C19 UNL     1     -10.724  48.253   1.409  1.00  0.00     0.070 C 
HETATM   12  C28 UNL     1     -11.720  47.224   1.819  1.00  0.00     0.131 C 
HETATM   13  C29 UNL     1     -12.233  46.343   0.732  1.00  0.00     0.023 C 
HETATM   14  C30 UNL     1     -11.453  45.102   0.557  1.00  0.00    -0.003 C 
HETATM   15  C31 UNL     1      -9.977  45.179   0.800  1.00  0.00     0.006 C 
HETATM   16  C32 UNL     1      -9.472  43.741   0.880  1.00  0.00     0.010 C 
HETATM   17  C33 UNL     1      -9.713  43.012  -0.406  1.00  0.00    -0.036 C 
HETATM   18  C34 UNL     1      -8.902  43.597  -1.510  1.00  0.00     0.016 C 
ENDROOT
BRANCH  11  19
HETATM   19  C20 UNL     1     -10.376  49.098   2.597  1.00  0.00     0.211 C 
BRANCH  19  20
HETATM   20  O3  UNL     1     -10.375  48.367   3.804  1.00  0.00    -0.280 OA
BRANCH  20  21
HETATM   21  N2  UNL     1      -9.344  47.588   4.222  1.00  0.00    -0.273 N 
HETATM   22  C21 UNL     1      -8.123  47.980   4.308  1.00  0.00     0.188 C 
ATOM     23  H2  UNL     1      -9.553  46.625   4.487  1.00  0.00     0.193 HD
BRANCH  22  24
HETATM   24  C22 UNL     1      -7.098  47.070   4.766  1.00  0.00     0.258 C 
HETATM   25  O4  UNL     1      -5.908  47.487   4.923  1.00  0.00    -0.267 OA
HETATM   26  N3  UNL     1      -7.377  45.704   5.053  1.00  0.00    -0.356 N 
ATOM     27  H3  UNL     1      -8.325  45.348   4.935  1.00  0.00     0.162 HD
BRANCH  26  28
HETATM   28  C23 UNL     1      -6.334  44.816   5.510  1.00  0.00     0.123 C 
BRANCH  28  29
HETATM   29  C24 UNL     1      -6.229  43.595   4.613  1.00  0.00     0.020 C 
BRANCH  29  30
HETATM   30  C25 UNL     1      -6.267  43.962   3.164  1.00  0.00     0.003 C 
BRANCH  30  31
HETATM   31  C26 UNL     1      -4.949  43.683   2.491  1.00  0.00     0.027 C 
BRANCH  31  32
HETATM   32  C27 UNL     1      -3.961  44.780   2.737  1.00  0.00     0.229 C 
BRANCH  32  33
HETATM   33  N4  UNL     1      -4.525  46.094   2.438  1.00  0.00    -0.079 N 
ATOM     34  H43 UNL     1      -4.781  46.174   1.454  1.00  0.00     0.274 HD
ATOM     35  H42 UNL     1      -5.450  46.204   2.853  1.00  0.00     0.274 HD
ATOM     36  H41 UNL     1      -3.899  46.848   2.721  1.00  0.00     0.274 HD
ENDBRANCH  32  33
ENDBRANCH  31  32
ENDBRANCH  30  31
ENDBRANCH  29  30
ENDBRANCH  28  29
ENDBRANCH  26  28
ENDBRANCH  22  24
ENDBRANCH  20  21
ENDBRANCH  19  20
ENDBRANCH  11  19
BRANCH  10  37
HETATM   37  O1  UNL     1     -10.769  50.277   0.048  1.00  0.00    -0.314 OA
BRANCH  37  38
HETATM   38  C14 UNL     1     -11.279  51.237  -0.812  1.00  0.00     0.285 C 
HETATM   39  O2  UNL     1     -12.484  51.049  -1.105  1.00  0.00    -0.263 OA
BRANCH  38  40
HETATM   40  C15 UNL     1     -10.422  52.324  -1.280  1.00  0.00     0.346 C 
BRANCH  40  41
HETATM   41  N1  UNL     1      -9.307  51.920  -2.083  1.00  0.00    -0.070 N 
HETATM   42  C16 UNL     1      -9.655  50.839  -2.965  1.00  0.00     0.272 C 
HETATM   43  C17 UNL     1      -8.990  53.070  -2.947  1.00  0.00     0.272 C 
HETATM   44  C18 UNL     1      -8.115  51.659  -1.295  1.00  0.00     0.272 C 
ENDBRANCH  40  41
ENDBRANCH  38  40
ENDBRANCH  37  38
ENDBRANCH  10  37
BRANCH  12  45
HETATM   45  O5  UNL     1     -12.813  47.937   2.372  1.00  0.00    -0.395 OA
ATOM     46  H5  UNL     1     -13.365  47.287   2.790  1.00  0.00     0.210 HD
ENDBRANCH  12  45
BRANCH   1  47
HETATM   47  C2  UNL     1      -8.263  40.925  -0.212  1.00  0.00    -0.018 C 
HETATM   48  C1  UNL     1      -8.364  39.426   0.097  1.00  0.00     0.010 C 
HETATM   49  C3  UNL     1      -7.556  41.521   0.988  1.00  0.00     0.010 C 
ENDBRANCH   1  47
TORSDOF 16
ENDMDL
