MODEL 1
REMARK VINA RESULT: -7.255176466      0.000      0.000
REMARK  15 active torsions:
REMARK  status: ('A' for Active; 'I' for Inactive)
REMARK    1  A    between atoms: C2_2  and  C3_3 
REMARK    2  A    between atoms: C3_3  and  C4_4 
REMARK    3  A    between atoms: C3_3  and  N3_19 
REMARK    4  A    between atoms: C4_4  and  C5_5 
REMARK    5  A    between atoms: C5_5  and  C6_6 
REMARK    6  A    between atoms: C6_6  and  C7_7 
REMARK    7  A    between atoms: C7_7  and  C8_8 
REMARK    8  A    between atoms: C8_8  and  N1_9 
REMARK    9  A    between atoms: N1_9  and  C9_11 
REMARK       I    between atoms: N3_19  and  C15_21 
REMARK   10  A    between atoms: C15_21  and  O2_23 
REMARK   11  A    between atoms: O2_23  and  C16_24 
REMARK   12  A    between atoms: C21_29  and  N4_30 
REMARK       I    between atoms: N4_30  and  C22_32 
REMARK   13  A    between atoms: C22_32  and  C23_34 
REMARK   14  A    between atoms: C23_34  and  S1_35 
REMARK   15  A    between atoms: S1_35  and  C24_38 
ROOT
HETATM    1  O2  UNL     1      -9.764  45.591  -1.082  1.00  0.00    -0.297 OA
ENDROOT
BRANCH   1   2
HETATM    2  C15 UNL     1      -8.946  44.463  -0.905  1.00  0.00     0.361 C 
HETATM    3  N3  UNL     1      -9.316  43.320  -0.158  1.00  0.00    -0.332 N 
ATOM      4  H3  UNL     1     -10.226  43.265   0.299  1.00  0.00     0.165 HD
HETATM    5  O1  UNL     1      -7.820  44.539  -1.478  1.00  0.00    -0.238 OA
BRANCH   3   6
HETATM    6  C3  UNL     1      -8.373  42.233  -0.062  1.00  0.00     0.086 C 
BRANCH   6   7
HETATM    7  C2  UNL     1      -9.157  40.923  -0.252  1.00  0.00     0.021 C 
HETATM    8  C1  UNL     1      -8.289  39.720   0.058  1.00  0.00     0.007 C 
ENDBRANCH   6   7
BRANCH   6   9
HETATM    9  C4  UNL     1      -7.642  42.188   1.276  1.00  0.00     0.025 C 
BRANCH   9  10
HETATM   10  C5  UNL     1      -6.364  42.945   1.235  1.00  0.00     0.002 C 
BRANCH  10  11
HETATM   11  C6  UNL     1      -5.659  43.063   2.512  1.00  0.00     0.002 C 
BRANCH  11  12
HETATM   12  C7  UNL     1      -6.287  43.553   3.741  1.00  0.00     0.020 C 
BRANCH  12  13
HETATM   13  C8  UNL     1      -6.413  45.006   3.995  1.00  0.00     0.121 C 
BRANCH  13  14
HETATM   14  N1  UNL     1      -7.739  45.418   3.453  1.00  0.00    -0.376 N 
ATOM     15  H1  UNL     1      -8.593  44.892   3.642  1.00  0.00     0.161 HD
BRANCH  14  16
HETATM   16  C9  UNL     1      -7.730  46.491   2.723  1.00  0.00     0.101 A 
HETATM   17  C10 UNL     1      -7.169  46.568   1.469  1.00  0.00     0.054 A 
HETATM   18  C11 UNL     1      -7.180  47.727   0.697  1.00  0.00    -0.057 A 
HETATM   19  C12 UNL     1      -6.562  47.736  -0.650  1.00  0.00     0.048 C 
HETATM   20  C13 UNL     1      -7.780  48.839   1.219  1.00  0.00     0.024 A 
HETATM   21  C14 UNL     1      -8.338  48.747   2.484  1.00  0.00     0.090 A 
HETATM   22  N2  UNL     1      -8.319  47.622   3.210  1.00  0.00    -0.353 N 
ATOM     23  H2  UNL     1      -8.748  47.611   4.135  1.00  0.00     0.166 HD
ENDBRANCH  14  16
ENDBRANCH  13  14
ENDBRANCH  12  13
ENDBRANCH  11  12
ENDBRANCH  10  11
ENDBRANCH   9  10
ENDBRANCH   6   9
ENDBRANCH   3   6
ENDBRANCH   1   2
BRANCH   1  24
HETATM   24  C16 UNL     1     -10.299  46.289   0.001  1.00  0.00     0.146 C 
HETATM   25  C17 UNL     1     -11.139  45.522   0.954  1.00  0.00     0.019 C 
HETATM   26  C18 UNL     1     -11.466  46.499   2.104  1.00  0.00     0.012 C 
HETATM   27  C27 UNL     1     -12.440  45.034   0.420  1.00  0.00     0.038 C 
HETATM   28  C19 UNL     1     -12.235  47.674   1.599  1.00  0.00    -0.011 C 
HETATM   29  C20 UNL     1     -13.518  47.152   0.990  1.00  0.00     0.035 C 
HETATM   30  C31 UNL     1     -11.504  48.413   0.524  1.00  0.00     0.016 C 
HETATM   31  C21 UNL     1     -13.249  46.193  -0.135  1.00  0.00     0.034 C 
HETATM   32  C28 UNL     1     -12.377  46.819  -1.207  1.00  0.00     0.042 C 
HETATM   33  C29 UNL     1     -11.166  47.414  -0.565  1.00  0.00    -0.014 C 
HETATM   34  C30 UNL     1     -10.341  48.070  -1.665  1.00  0.00     0.018 C 
BRANCH  31  35
HETATM   35  N4  UNL     1     -14.523  45.738  -0.631  1.00  0.00    -0.351 N 
HETATM   36  C22 UNL     1     -14.647  44.908  -1.769  1.00  0.00     0.232 C 
HETATM   37  O3  UNL     1     -13.663  44.492  -2.428  1.00  0.00    -0.273 OA
ATOM     38  H4  UNL     1     -15.370  46.027  -0.142  1.00  0.00     0.163 HD
BRANCH  36  39
HETATM   39  C23 UNL     1     -15.981  44.444  -2.296  1.00  0.00     0.243 C 
BRANCH  39  40
HETATM   40  S1  UNL     1     -16.814  45.798  -3.098  1.00  0.00     0.156 S 
HETATM   41  O4  UNL     1     -18.259  45.819  -2.703  1.00  0.00    -0.227 OA
HETATM   42  O5  UNL     1     -16.204  47.101  -2.676  1.00  0.00    -0.227 OA
BRANCH  40  43
HETATM   43  C24 UNL     1     -16.720  45.676  -4.851  1.00  0.00     0.101 C 
HETATM   44  C25 UNL     1     -15.969  44.455  -5.299  1.00  0.00     0.026 C 
HETATM   45  C26 UNL     1     -18.162  45.544  -5.366  1.00  0.00     0.026 C 
ENDBRANCH  40  43
ENDBRANCH  39  40
ENDBRANCH  36  39
ENDBRANCH  31  35
ENDBRANCH   1  24
TORSDOF 15
ENDMDL
MODEL 2
REMARK VINA RESULT: -7.032942214      3.660      6.876
REMARK  15 active torsions:
REMARK  status: ('A' for Active; 'I' for Inactive)
REMARK    1  A    between atoms: C2_2  and  C3_3 
REMARK    2  A    between atoms: C3_3  and  C4_4 
REMARK    3  A    between atoms: C3_3  and  N3_19 
REMARK    4  A    between atoms: C4_4  and  C5_5 
REMARK    5  A    between atoms: C5_5  and  C6_6 
REMARK    6  A    between atoms: C6_6  and  C7_7 
REMARK    7  A    between atoms: C7_7  and  C8_8 
REMARK    8  A    between atoms: C8_8  and  N1_9 
REMARK    9  A    between atoms: N1_9  and  C9_11 
REMARK       I    between atoms: N3_19  and  C15_21 
REMARK   10  A    between atoms: C15_21  and  O2_23 
REMARK   11  A    between atoms: O2_23  and  C16_24 
REMARK   12  A    between atoms: C21_29  and  N4_30 
REMARK       I    between atoms: N4_30  and  C22_32 
REMARK   13  A    between atoms: C22_32  and  C23_34 
REMARK   14  A    between atoms: C23_34  and  S1_35 
REMARK   15  A    between atoms: S1_35  and  C24_38 
ROOT
HETATM    1  O2  UNL     1     -10.057  45.958   0.466  1.00  0.00    -0.297 OA
ENDROOT
BRANCH   1   2
HETATM    2  C15 UNL     1      -9.616  44.740   1.009  1.00  0.00     0.361 C 
HETATM    3  N3  UNL     1      -8.300  44.237   0.874  1.00  0.00    -0.332 N 
ATOM      4  H3  UNL     1      -7.591  44.758   0.358  1.00  0.00     0.165 HD
HETATM    5  O1  UNL     1     -10.501  44.102   1.651  1.00  0.00    -0.238 OA
BRANCH   3   6
HETATM    6  C3  UNL     1      -7.988  42.970   1.487  1.00  0.00     0.086 C 
BRANCH   6   7
HETATM    7  C2  UNL     1      -6.966  43.237   2.606  1.00  0.00     0.021 C 
HETATM    8  C1  UNL     1      -5.547  43.086   2.095  1.00  0.00     0.007 C 
ENDBRANCH   6   7
BRANCH   6   9
HETATM    9  C4  UNL     1      -7.403  41.956   0.509  1.00  0.00     0.025 C 
BRANCH   9  10
HETATM   10  C5  UNL     1      -8.317  40.805   0.291  1.00  0.00     0.002 C 
BRANCH  10  11
HETATM   11  C6  UNL     1      -9.686  41.149  -0.095  1.00  0.00     0.002 C 
BRANCH  11  12
HETATM   12  C7  UNL     1     -10.087  41.450  -1.471  1.00  0.00     0.020 C 
BRANCH  12  13
HETATM   13  C8  UNL     1     -11.406  42.061  -1.754  1.00  0.00     0.121 C 
BRANCH  13  14
HETATM   14  N1  UNL     1     -11.321  43.480  -1.307  1.00  0.00    -0.376 N 
ATOM     15  H1  UNL     1     -10.466  43.881  -0.921  1.00  0.00     0.161 HD
BRANCH  14  16
HETATM   16  C9  UNL     1     -12.412  44.169  -1.445  1.00  0.00     0.101 A 
HETATM   17  C10 UNL     1     -13.176  44.188  -2.590  1.00  0.00     0.054 A 
HETATM   18  C11 UNL     1     -14.350  44.926  -2.713  1.00  0.00    -0.057 A 
HETATM   19  C12 UNL     1     -15.125  44.894  -3.976  1.00  0.00     0.048 C 
HETATM   20  C13 UNL     1     -14.758  45.666  -1.639  1.00  0.00     0.024 A 
HETATM   21  C14 UNL     1     -13.979  45.638  -0.493  1.00  0.00     0.090 A 
HETATM   22  N2  UNL     1     -12.853  44.921  -0.394  1.00  0.00    -0.353 N 
ATOM     23  H2  UNL     1     -12.319  44.935   0.475  1.00  0.00     0.166 HD
ENDBRANCH  14  16
ENDBRANCH  13  14
ENDBRANCH  12  13
ENDBRANCH  11  12
ENDBRANCH  10  11
ENDBRANCH   9  10
ENDBRANCH   6   9
ENDBRANCH   3   6
ENDBRANCH   1   2
BRANCH   1  24
HETATM   24  C16 UNL     1      -9.215  47.066   0.366  1.00  0.00     0.146 C 
HETATM   25  C17 UNL     1      -8.623  47.586   1.623  1.00  0.00     0.019 C 
HETATM   26  C18 UNL     1      -7.643  48.699   1.195  1.00  0.00     0.012 C 
HETATM   27  C27 UNL     1      -9.583  48.201   2.581  1.00  0.00     0.038 C 
HETATM   28  C19 UNL     1      -8.364  49.800   0.493  1.00  0.00    -0.011 C 
HETATM   29  C20 UNL     1      -9.387  50.362   1.455  1.00  0.00     0.035 C 
HETATM   30  C31 UNL     1      -9.108  49.317  -0.711  1.00  0.00     0.016 C 
HETATM   31  C21 UNL     1     -10.365  49.312   1.902  1.00  0.00     0.034 C 
HETATM   32  C28 UNL     1     -11.059  48.656   0.723  1.00  0.00     0.042 C 
HETATM   33  C29 UNL     1     -10.028  48.200  -0.258  1.00  0.00    -0.014 C 
HETATM   34  C30 UNL     1     -10.764  47.591  -1.444  1.00  0.00     0.018 C 
BRANCH  31  35
HETATM   35  N4  UNL     1     -11.279  49.935   2.826  1.00  0.00    -0.351 N 
HETATM   36  C22 UNL     1     -12.278  50.846   2.414  1.00  0.00     0.232 C 
HETATM   37  O3  UNL     1     -12.458  51.176   1.216  1.00  0.00    -0.273 OA
ATOM     38  H4  UNL     1     -11.201  49.709   3.817  1.00  0.00     0.163 HD
BRANCH  36  39
HETATM   39  C23 UNL     1     -13.224  51.508   3.383  1.00  0.00     0.243 C 
BRANCH  39  40
HETATM   40  S1  UNL     1     -12.807  51.035   5.048  1.00  0.00     0.156 S 
HETATM   41  O4  UNL     1     -12.795  49.541   5.171  1.00  0.00    -0.227 OA
HETATM   42  O5  UNL     1     -11.437  51.534   5.399  1.00  0.00    -0.227 OA
BRANCH  40  43
HETATM   43  C24 UNL     1     -13.955  51.678   6.216  1.00  0.00     0.101 C 
HETATM   44  C25 UNL     1     -15.084  52.420   5.560  1.00  0.00     0.026 C 
HETATM   45  C26 UNL     1     -14.564  50.474   6.953  1.00  0.00     0.026 C 
ENDBRANCH  40  43
ENDBRANCH  39  40
ENDBRANCH  36  39
ENDBRANCH  31  35
ENDBRANCH   1  24
TORSDOF 15
ENDMDL
MODEL 3
REMARK VINA RESULT: -7.018498651      4.599      9.558
REMARK  15 active torsions:
REMARK  status: ('A' for Active; 'I' for Inactive)
REMARK    1  A    between atoms: C2_2  and  C3_3 
REMARK    2  A    between atoms: C3_3  and  C4_4 
REMARK    3  A    between atoms: C3_3  and  N3_19 
REMARK    4  A    between atoms: C4_4  and  C5_5 
REMARK    5  A    between atoms: C5_5  and  C6_6 
REMARK    6  A    between atoms: C6_6  and  C7_7 
REMARK    7  A    between atoms: C7_7  and  C8_8 
REMARK    8  A    between atoms: C8_8  and  N1_9 
REMARK    9  A    between atoms: N1_9  and  C9_11 
REMARK       I    between atoms: N3_19  and  C15_21 
REMARK   10  A    between atoms: C15_21  and  O2_23 
REMARK   11  A    between atoms: O2_23  and  C16_24 
REMARK   12  A    between atoms: C21_29  and  N4_30 
REMARK       I    between atoms: N4_30  and  C22_32 
REMARK   13  A    between atoms: C22_32  and  C23_34 
REMARK   14  A    between atoms: C23_34  and  S1_35 
REMARK   15  A    between atoms: S1_35  and  C24_38 
ROOT
HETATM    1  O2  UNL     1      -8.394  44.783   1.473  1.00  0.00    -0.297 OA
ENDROOT
BRANCH   1   2
HETATM    2  C15 UNL     1      -9.279  43.857   0.898  1.00  0.00     0.361 C 
HETATM    3  N3  UNL     1      -8.959  43.025  -0.202  1.00  0.00    -0.332 N 
ATOM      4  H3  UNL     1      -8.038  43.065  -0.637  1.00  0.00     0.165 HD
HETATM    5  O1  UNL     1     -10.419  43.813   1.446  1.00  0.00    -0.238 OA
BRANCH   3   6
HETATM    6  C3  UNL     1      -9.969  42.120  -0.689  1.00  0.00     0.086 C 
BRANCH   6   7
HETATM    7  C2  UNL     1      -9.291  40.761  -0.936  1.00  0.00     0.021 C 
HETATM    8  C1  UNL     1      -8.541  40.296   0.296  1.00  0.00     0.007 C 
ENDBRANCH   6   7
BRANCH   6   9
HETATM    9  C4  UNL     1     -10.629  42.592  -1.981  1.00  0.00     0.025 C 
BRANCH   9  10
HETATM   10  C5  UNL     1     -12.105  42.684  -1.848  1.00  0.00     0.002 C 
BRANCH  10  11
HETATM   11  C6  UNL     1     -12.751  43.709  -2.669  1.00  0.00     0.002 C 
BRANCH  11  12
HETATM   12  C7  UNL     1     -14.046  44.310  -2.342  1.00  0.00     0.020 C 
BRANCH  12  13
HETATM   13  C8  UNL     1     -14.117  45.596  -1.612  1.00  0.00     0.121 C 
BRANCH  13  14
HETATM   14  N1  UNL     1     -13.596  45.334  -0.240  1.00  0.00    -0.376 N 
ATOM     15  H1  UNL     1     -13.983  44.605   0.360  1.00  0.00     0.161 HD
BRANCH  14  16
HETATM   16  C9  UNL     1     -12.618  46.098   0.136  1.00  0.00     0.101 A 
HETATM   17  C10 UNL     1     -11.771  46.753  -0.729  1.00  0.00     0.054 A 
HETATM   18  C11 UNL     1     -10.734  47.579  -0.305  1.00  0.00    -0.057 A 
HETATM   19  C12 UNL     1      -9.864  48.257  -1.296  1.00  0.00     0.048 C 
HETATM   20  C13 UNL     1     -10.554  47.742   1.040  1.00  0.00     0.024 A 
HETATM   21  C14 UNL     1     -11.413  47.076   1.899  1.00  0.00     0.090 A 
HETATM   22  N2  UNL     1     -12.405  46.287   1.471  1.00  0.00    -0.353 N 
ATOM     23  H2  UNL     1     -13.010  45.823   2.149  1.00  0.00     0.166 HD
ENDBRANCH  14  16
ENDBRANCH  13  14
ENDBRANCH  12  13
ENDBRANCH  11  12
ENDBRANCH  10  11
ENDBRANCH   9  10
ENDBRANCH   6   9
ENDBRANCH   3   6
ENDBRANCH   1   2
BRANCH   1  24
HETATM   24  C16 UNL     1      -7.037  44.500   1.635  1.00  0.00     0.146 C 
HETATM   25  C17 UNL     1      -6.682  43.333   2.480  1.00  0.00     0.019 C 
HETATM   26  C18 UNL     1      -5.151  43.179   2.362  1.00  0.00     0.012 C 
HETATM   27  C27 UNL     1      -6.991  43.468   3.930  1.00  0.00     0.038 C 
HETATM   28  C19 UNL     1      -4.455  44.394   2.877  1.00  0.00    -0.011 C 
HETATM   29  C20 UNL     1      -4.841  44.560   4.330  1.00  0.00     0.035 C 
HETATM   30  C31 UNL     1      -4.877  45.638   2.162  1.00  0.00     0.016 C 
HETATM   31  C21 UNL     1      -6.327  44.712   4.495  1.00  0.00     0.034 C 
HETATM   32  C28 UNL     1      -6.867  45.868   3.674  1.00  0.00     0.042 C 
HETATM   33  C29 UNL     1      -6.387  45.732   2.266  1.00  0.00    -0.014 C 
HETATM   34  C30 UNL     1      -6.910  46.931   1.487  1.00  0.00     0.018 C 
BRANCH  31  35
HETATM   35  N4  UNL     1      -6.595  44.841   5.905  1.00  0.00    -0.351 N 
HETATM   36  C22 UNL     1      -6.147  45.942   6.670  1.00  0.00     0.232 C 
HETATM   37  O3  UNL     1      -5.494  46.897   6.184  1.00  0.00    -0.273 OA
ATOM     38  H4  UNL     1      -7.130  44.107   6.370  1.00  0.00     0.163 HD
BRANCH  36  39
HETATM   39  C23 UNL     1      -6.416  46.069   8.148  1.00  0.00     0.243 C 
BRANCH  39  40
HETATM   40  S1  UNL     1      -5.236  45.095   9.059  1.00  0.00     0.156 S 
HETATM   41  O4  UNL     1      -4.821  43.903   8.251  1.00  0.00    -0.227 OA
HETATM   42  O5  UNL     1      -4.007  45.906   9.343  1.00  0.00    -0.227 OA
BRANCH  40  43
HETATM   43  C24 UNL     1      -5.899  44.527  10.586  1.00  0.00     0.101 C 
HETATM   44  C25 UNL     1      -5.513  43.106  10.884  1.00  0.00     0.026 C 
HETATM   45  C26 UNL     1      -5.294  45.409  11.691  1.00  0.00     0.026 C 
ENDBRANCH  40  43
ENDBRANCH  39  40
ENDBRANCH  36  39
ENDBRANCH  31  35
ENDBRANCH   1  24
TORSDOF 15
ENDMDL
MODEL 4
REMARK VINA RESULT: -6.995723601      4.491      9.313
REMARK  15 active torsions:
REMARK  status: ('A' for Active; 'I' for Inactive)
REMARK    1  A    between atoms: C2_2  and  C3_3 
REMARK    2  A    between atoms: C3_3  and  C4_4 
REMARK    3  A    between atoms: C3_3  and  N3_19 
REMARK    4  A    between atoms: C4_4  and  C5_5 
REMARK    5  A    between atoms: C5_5  and  C6_6 
REMARK    6  A    between atoms: C6_6  and  C7_7 
REMARK    7  A    between atoms: C7_7  and  C8_8 
REMARK    8  A    between atoms: C8_8  and  N1_9 
REMARK    9  A    between atoms: N1_9  and  C9_11 
REMARK       I    between atoms: N3_19  and  C15_21 
REMARK   10  A    between atoms: C15_21  and  O2_23 
REMARK   11  A    between atoms: O2_23  and  C16_24 
REMARK   12  A    between atoms: C21_29  and  N4_30 
REMARK       I    between atoms: N4_30  and  C22_32 
REMARK   13  A    between atoms: C22_32  and  C23_34 
REMARK   14  A    between atoms: C23_34  and  S1_35 
REMARK   15  A    between atoms: S1_35  and  C24_38 
ROOT
HETATM    1  O2  UNL     1      -8.402  44.652   1.311  1.00  0.00    -0.297 OA
ENDROOT
BRANCH   1   2
HETATM    2  C15 UNL     1      -9.256  43.648   0.828  1.00  0.00     0.361 C 
HETATM    3  N3  UNL     1      -9.014  42.889  -0.342  1.00  0.00    -0.332 N 
ATOM      4  H3  UNL     1      -8.177  43.045  -0.903  1.00  0.00     0.165 HD
HETATM    5  O1  UNL     1     -10.291  43.458   1.532  1.00  0.00    -0.238 OA
BRANCH   3   6
HETATM    6  C3  UNL     1      -9.981  41.888  -0.718  1.00  0.00     0.086 C 
BRANCH   6   7
HETATM    7  C2  UNL     1      -9.217  40.571  -0.946  1.00  0.00     0.021 C 
HETATM    8  C1  UNL     1      -8.489  40.140   0.311  1.00  0.00     0.007 C 
ENDBRANCH   6   7
BRANCH   6   9
HETATM    9  C4  UNL     1     -10.754  42.243  -1.984  1.00  0.00     0.025 C 
BRANCH   9  10
HETATM   10  C5  UNL     1     -12.200  42.441  -1.713  1.00  0.00     0.002 C 
BRANCH  10  11
HETATM   11  C6  UNL     1     -12.749  43.735  -2.121  1.00  0.00     0.002 C 
BRANCH  11  12
HETATM   12  C7  UNL     1     -12.389  45.004  -1.484  1.00  0.00     0.020 C 
BRANCH  12  13
HETATM   13  C8  UNL     1     -13.222  45.562  -0.395  1.00  0.00     0.121 C 
BRANCH  13  14
HETATM   14  N1  UNL     1     -12.460  45.354   0.870  1.00  0.00    -0.376 N 
ATOM     15  H1  UNL     1     -12.291  44.426   1.259  1.00  0.00     0.161 HD
BRANCH  14  16
HETATM   16  C9  UNL     1     -12.028  46.436   1.440  1.00  0.00     0.101 A 
HETATM   17  C10 UNL     1     -12.655  47.659   1.355  1.00  0.00     0.054 A 
HETATM   18  C11 UNL     1     -12.181  48.807   1.984  1.00  0.00    -0.057 A 
HETATM   19  C12 UNL     1     -12.913  50.089   1.853  1.00  0.00     0.048 C 
HETATM   20  C13 UNL     1     -11.035  48.706   2.722  1.00  0.00     0.024 A 
HETATM   21  C14 UNL     1     -10.413  47.470   2.797  1.00  0.00     0.090 A 
HETATM   22  N2  UNL     1     -10.886  46.377   2.185  1.00  0.00    -0.353 N 
ATOM     23  H2  UNL     1     -10.389  45.491   2.278  1.00  0.00     0.166 HD
ENDBRANCH  14  16
ENDBRANCH  13  14
ENDBRANCH  12  13
ENDBRANCH  11  12
ENDBRANCH  10  11
ENDBRANCH   9  10
ENDBRANCH   6   9
ENDBRANCH   3   6
ENDBRANCH   1   2
BRANCH   1  24
HETATM   24  C16 UNL     1      -7.041  44.423   1.517  1.00  0.00     0.146 C 
HETATM   25  C17 UNL     1      -6.668  43.294   2.405  1.00  0.00     0.019 C 
HETATM   26  C18 UNL     1      -5.130  43.192   2.331  1.00  0.00     0.012 C 
HETATM   27  C27 UNL     1      -7.022  43.460   3.842  1.00  0.00     0.038 C 
HETATM   28  C19 UNL     1      -4.491  44.446   2.828  1.00  0.00    -0.011 C 
HETATM   29  C20 UNL     1      -4.923  44.640   4.265  1.00  0.00     0.035 C 
HETATM   30  C31 UNL     1      -4.938  45.653   2.066  1.00  0.00     0.016 C 
HETATM   31  C21 UNL     1      -6.418  44.743   4.387  1.00  0.00     0.034 C 
HETATM   32  C28 UNL     1      -6.975  45.854   3.518  1.00  0.00     0.042 C 
HETATM   33  C29 UNL     1      -6.452  45.695   2.127  1.00  0.00    -0.014 C 
HETATM   34  C30 UNL     1      -6.995  46.852   1.299  1.00  0.00     0.018 C 
BRANCH  31  35
HETATM   35  N4  UNL     1      -6.729  44.902   5.785  1.00  0.00    -0.351 N 
HETATM   36  C22 UNL     1      -6.407  46.072   6.509  1.00  0.00     0.232 C 
HETATM   37  O3  UNL     1      -5.839  47.066   5.995  1.00  0.00    -0.273 OA
ATOM     38  H4  UNL     1      -7.201  44.140   6.271  1.00  0.00     0.163 HD
BRANCH  36  39
HETATM   39  C23 UNL     1      -6.720  46.233   7.975  1.00  0.00     0.243 C 
BRANCH  39  40
HETATM   40  S1  UNL     1      -5.480  45.405   8.948  1.00  0.00     0.156 S 
HETATM   41  O4  UNL     1      -6.077  44.916  10.233  1.00  0.00    -0.227 OA
HETATM   42  O5  UNL     1      -4.952  44.214   8.206  1.00  0.00    -0.227 OA
BRANCH  40  43
HETATM   43  C24 UNL     1      -4.133  46.469   9.333  1.00  0.00     0.101 C 
HETATM   44  C25 UNL     1      -3.073  46.456   8.270  1.00  0.00     0.026 C 
HETATM   45  C26 UNL     1      -4.698  47.897   9.401  1.00  0.00     0.026 C 
ENDBRANCH  40  43
ENDBRANCH  39  40
ENDBRANCH  36  39
ENDBRANCH  31  35
ENDBRANCH   1  24
TORSDOF 15
ENDMDL
MODEL 5
REMARK VINA RESULT: -6.990749153      3.626      7.959
REMARK  15 active torsions:
REMARK  status: ('A' for Active; 'I' for Inactive)
REMARK    1  A    between atoms: C2_2  and  C3_3 
REMARK    2  A    between atoms: C3_3  and  C4_4 
REMARK    3  A    between atoms: C3_3  and  N3_19 
REMARK    4  A    between atoms: C4_4  and  C5_5 
REMARK    5  A    between atoms: C5_5  and  C6_6 
REMARK    6  A    between atoms: C6_6  and  C7_7 
REMARK    7  A    between atoms: C7_7  and  C8_8 
REMARK    8  A    between atoms: C8_8  and  N1_9 
REMARK    9  A    between atoms: N1_9  and  C9_11 
REMARK       I    between atoms: N3_19  and  C15_21 
REMARK   10  A    between atoms: C15_21  and  O2_23 
REMARK   11  A    between atoms: O2_23  and  C16_24 
REMARK   12  A    between atoms: C21_29  and  N4_30 
REMARK       I    between atoms: N4_30  and  C22_32 
REMARK   13  A    between atoms: C22_32  and  C23_34 
REMARK   14  A    between atoms: C23_34  and  S1_35 
REMARK   15  A    between atoms: S1_35  and  C24_38 
ROOT
HETATM    1  O2  UNL     1      -9.381  46.443   1.787  1.00  0.00    -0.297 OA
ENDROOT
BRANCH   1   2
HETATM    2  C15 UNL     1      -9.066  45.079   1.681  1.00  0.00     0.361 C 
HETATM    3  N3  UNL     1      -7.748  44.567   1.619  1.00  0.00    -0.332 N 
ATOM      4  H3  UNL     1      -6.942  45.191   1.650  1.00  0.00     0.165 HD
HETATM    5  O1  UNL     1     -10.072  44.311   1.647  1.00  0.00    -0.238 OA
BRANCH   3   6
HETATM    6  C3  UNL     1      -7.574  43.140   1.512  1.00  0.00     0.086 C 
BRANCH   6   7
HETATM    7  C2  UNL     1      -6.115  42.823   1.884  1.00  0.00     0.021 C 
HETATM    8  C1  UNL     1      -5.604  43.778   2.943  1.00  0.00     0.007 C 
ENDBRANCH   6   7
BRANCH   6   9
HETATM    9  C4  UNL     1      -7.863  42.601   0.115  1.00  0.00     0.025 C 
BRANCH   9  10
HETATM   10  C5  UNL     1      -8.232  41.162   0.141  1.00  0.00     0.002 C 
BRANCH  10  11
HETATM   11  C6  UNL     1      -9.452  40.809  -0.587  1.00  0.00     0.002 C 
BRANCH  11  12
HETATM   12  C7  UNL     1      -9.954  41.564  -1.738  1.00  0.00     0.020 C 
BRANCH  12  13
HETATM   13  C8  UNL     1     -11.336  42.095  -1.745  1.00  0.00     0.121 C 
BRANCH  13  14
HETATM   14  N1  UNL     1     -11.300  43.380  -0.990  1.00  0.00    -0.376 N 
ATOM     15  H1  UNL     1     -10.516  43.640  -0.391  1.00  0.00     0.161 HD
BRANCH  14  16
HETATM   16  C9  UNL     1     -12.336  44.144  -1.150  1.00  0.00     0.101 A 
HETATM   17  C10 UNL     1     -13.055  44.238  -2.319  1.00  0.00     0.054 A 
HETATM   18  C11 UNL     1     -14.173  45.056  -2.467  1.00  0.00    -0.057 A 
HETATM   19  C12 UNL     1     -14.902  45.102  -3.756  1.00  0.00     0.048 C 
HETATM   20  C13 UNL     1     -14.568  45.800  -1.390  1.00  0.00     0.024 A 
HETATM   21  C14 UNL     1     -13.834  45.697  -0.220  1.00  0.00     0.090 A 
HETATM   22  N2  UNL     1     -12.763  44.903  -0.098  1.00  0.00    -0.353 N 
ATOM     23  H2  UNL     1     -12.261  44.864   0.789  1.00  0.00     0.166 HD
ENDBRANCH  14  16
ENDBRANCH  13  14
ENDBRANCH  12  13
ENDBRANCH  11  12
ENDBRANCH  10  11
ENDBRANCH   9  10
ENDBRANCH   6   9
ENDBRANCH   3   6
ENDBRANCH   1   2
BRANCH   1  24
HETATM   24  C16 UNL     1     -10.107  47.108   0.798  1.00  0.00     0.146 C 
HETATM   25  C17 UNL     1      -9.780  46.793  -0.614  1.00  0.00     0.019 C 
HETATM   26  C18 UNL     1     -10.819  47.553  -1.465  1.00  0.00     0.012 C 
HETATM   27  C27 UNL     1      -8.436  47.234  -1.079  1.00  0.00     0.038 C 
HETATM   28  C19 UNL     1     -10.709  49.025  -1.248  1.00  0.00    -0.011 C 
HETATM   29  C20 UNL     1      -9.312  49.442  -1.653  1.00  0.00     0.035 C 
HETATM   30  C31 UNL     1     -10.884  49.402   0.188  1.00  0.00     0.016 C 
HETATM   31  C21 UNL     1      -8.263  48.725  -0.850  1.00  0.00     0.034 C 
HETATM   32  C28 UNL     1      -8.461  48.931   0.640  1.00  0.00     0.042 C 
HETATM   33  C29 UNL     1      -9.876  48.607   0.994  1.00  0.00    -0.014 C 
HETATM   34  C30 UNL     1     -10.046  48.870   2.485  1.00  0.00     0.018 C 
BRANCH  31  35
HETATM   35  N4  UNL     1      -6.976  49.171  -1.321  1.00  0.00    -0.351 N 
HETATM   36  C22 UNL     1      -5.762  48.596  -0.881  1.00  0.00     0.232 C 
HETATM   37  O3  UNL     1      -5.706  47.650  -0.058  1.00  0.00    -0.273 OA
ATOM     38  H4  UNL     1      -6.941  49.931  -2.000  1.00  0.00     0.163 HD
BRANCH  36  39
HETATM   39  C23 UNL     1      -4.416  49.073  -1.363  1.00  0.00     0.243 C 
BRANCH  39  40
HETATM   40  S1  UNL     1      -4.358  50.852  -1.323  1.00  0.00     0.156 S 
HETATM   41  O4  UNL     1      -5.094  51.417  -2.500  1.00  0.00    -0.227 OA
HETATM   42  O5  UNL     1      -5.022  51.362  -0.080  1.00  0.00    -0.227 OA
BRANCH  40  43
HETATM   43  C24 UNL     1      -2.705  51.452  -1.364  1.00  0.00     0.101 C 
HETATM   44  C25 UNL     1      -2.581  52.736  -2.134  1.00  0.00     0.026 C 
HETATM   45  C26 UNL     1      -2.302  51.748   0.090  1.00  0.00     0.026 C 
ENDBRANCH  40  43
ENDBRANCH  39  40
ENDBRANCH  36  39
ENDBRANCH  31  35
ENDBRANCH   1  24
TORSDOF 15
ENDMDL
