MODEL 1
REMARK VINA RESULT: -6.970172181      0.000      0.000
REMARK  11 active torsions:
REMARK  status: ('A' for Active; 'I' for Inactive)
REMARK    1  A    between atoms: C2_2  and  C4_4 
REMARK    2  A    between atoms: C4_4  and  C5_5 
REMARK    3  A    between atoms: C5_5  and  N1_6 
REMARK    4  A    between atoms: C5_5  and  C12_15 
REMARK       I    between atoms: N1_6  and  C6_8 
REMARK    5  A    between atoms: C6_8  and  C7_10 
REMARK    6  A    between atoms: C7_10  and  C8_11 
REMARK       I    between atoms: C12_15  and  N2_17 
REMARK    7  A    between atoms: N2_17  and  C13_19 
REMARK    8  A    between atoms: C13_19  and  C15_21 
REMARK       I    between atoms: C15_21  and  N3_23 
REMARK    9  A    between atoms: N3_23  and  C16_25 
REMARK   10  A    between atoms: C16_25  and  C17_26 
REMARK   11  A    between atoms: C16_25  and  C22_33 
REMARK       I    between atoms: C17_26  and  N4_28 
ROOT
HETATM    1  C12 UNL     1     -14.359  45.608  -0.713  1.00  0.00     0.241 C 
HETATM    2  O2  UNL     1     -15.028  45.298   0.311  1.00  0.00    -0.271 OA
HETATM    3  N2  UNL     1     -13.710  46.886  -0.690  1.00  0.00    -0.346 N 
ATOM      4  H2  UNL     1     -13.154  47.190  -1.488  1.00  0.00     0.163 HD
ENDROOT
BRANCH   3   5
HETATM    5  C13 UNL     1     -13.845  47.733   0.454  1.00  0.00     0.172 C 
HETATM    6  C14 UNL     1     -13.919  49.204   0.024  1.00  0.00     0.042 C 
BRANCH   5   7
HETATM    7  C15 UNL     1     -12.676  47.602   1.357  1.00  0.00     0.240 C 
HETATM    8  O3  UNL     1     -12.719  46.836   2.335  1.00  0.00    -0.271 OA
HETATM    9  N3  UNL     1     -11.519  48.352   1.099  1.00  0.00    -0.346 N 
ATOM     10  H3  UNL     1     -11.482  48.980   0.297  1.00  0.00     0.163 HD
BRANCH   9  11
HETATM   11  C16 UNL     1     -10.369  48.227   1.985  1.00  0.00     0.180 C 
BRANCH  11  12
HETATM   12  C17 UNL     1      -9.316  47.427   1.344  1.00  0.00     0.243 C 
HETATM   13  O4  UNL     1      -9.358  47.355   0.063  1.00  0.00    -0.271 OA
HETATM   14  N4  UNL     1      -8.275  46.739   1.989  1.00  0.00    -0.350 N 
HETATM   15  C18 UNL     1      -7.216  45.967   1.301  1.00  0.00     0.126 C 
HETATM   16  C21 UNL     1      -7.932  46.558   3.384  1.00  0.00     0.126 C 
HETATM   17  C19 UNL     1      -5.994  46.645   1.930  1.00  0.00     0.021 C 
HETATM   18  C20 UNL     1      -6.462  46.926   3.363  1.00  0.00     0.021 C 
ENDBRANCH  11  12
BRANCH  11  19
HETATM   19  C22 UNL     1      -9.927  49.649   2.278  1.00  0.00     0.009 C 
HETATM   20  C23 UNL     1     -10.405  50.588   1.184  1.00  0.00     0.012 C 
HETATM   21  C24 UNL     1     -10.626  50.075   3.554  1.00  0.00     0.012 C 
ENDBRANCH  11  19
ENDBRANCH   9  11
ENDBRANCH   5   7
ENDBRANCH   3   5
BRANCH   1  22
HETATM   22  C5  UNL     1     -14.232  44.728  -1.885  1.00  0.00     0.177 C 
BRANCH  22  23
HETATM   23  C4  UNL     1     -15.602  44.215  -2.261  1.00  0.00     0.038 C 
BRANCH  23  24
HETATM   24  C2  UNL     1     -16.130  45.006  -3.434  1.00  0.00    -0.020 C 
HETATM   25  C1  UNL     1     -16.485  44.064  -4.583  1.00  0.00     0.009 C 
HETATM   26  C3  UNL     1     -17.387  45.777  -3.045  1.00  0.00     0.009 C 
ENDBRANCH  23  24
ENDBRANCH  22  23
BRANCH  22  27
HETATM   27  N1  UNL     1     -13.237  43.747  -1.653  1.00  0.00    -0.348 N 
HETATM   28  C6  UNL     1     -11.894  43.699  -2.044  1.00  0.00     0.218 C 
HETATM   29  O1  UNL     1     -11.422  44.648  -2.729  1.00  0.00    -0.274 OA
ATOM     30  H1  UNL     1     -13.552  42.942  -1.112  1.00  0.00     0.163 HD
BRANCH  28  31
HETATM   31  C7  UNL     1     -11.036  42.540  -1.654  1.00  0.00     0.111 C 
BRANCH  31  32
HETATM   32  C8  UNL     1     -10.015  42.918  -0.618  1.00  0.00    -0.043 C 
HETATM   33  C9  UNL     1      -9.681  41.651   0.146  1.00  0.00     0.015 C 
HETATM   34  C10 UNL     1      -8.722  43.408  -1.269  1.00  0.00     0.015 C 
HETATM   35  C11 UNL     1     -10.451  43.957   0.353  1.00  0.00     0.015 C 
ENDBRANCH  31  32
ENDBRANCH  28  31
ENDBRANCH  22  27
ENDBRANCH   1  22
TORSDOF 11
ENDMDL
MODEL 2
REMARK VINA RESULT: -6.956407699      1.361      1.617
REMARK  11 active torsions:
REMARK  status: ('A' for Active; 'I' for Inactive)
REMARK    1  A    between atoms: C2_2  and  C4_4 
REMARK    2  A    between atoms: C4_4  and  C5_5 
REMARK    3  A    between atoms: C5_5  and  N1_6 
REMARK    4  A    between atoms: C5_5  and  C12_15 
REMARK       I    between atoms: N1_6  and  C6_8 
REMARK    5  A    between atoms: C6_8  and  C7_10 
REMARK    6  A    between atoms: C7_10  and  C8_11 
REMARK       I    between atoms: C12_15  and  N2_17 
REMARK    7  A    between atoms: N2_17  and  C13_19 
REMARK    8  A    between atoms: C13_19  and  C15_21 
REMARK       I    between atoms: C15_21  and  N3_23 
REMARK    9  A    between atoms: N3_23  and  C16_25 
REMARK   10  A    between atoms: C16_25  and  C17_26 
REMARK   11  A    between atoms: C16_25  and  C22_33 
REMARK       I    between atoms: C17_26  and  N4_28 
ROOT
HETATM    1  C12 UNL     1     -14.360  45.596  -0.681  1.00  0.00     0.241 C 
HETATM    2  O2  UNL     1     -15.090  45.278   0.298  1.00  0.00    -0.271 OA
HETATM    3  N2  UNL     1     -13.690  46.860  -0.595  1.00  0.00    -0.346 N 
ATOM      4  H2  UNL     1     -13.085  47.171  -1.355  1.00  0.00     0.163 HD
ENDROOT
BRANCH   3   5
HETATM    5  C13 UNL     1     -13.870  47.685   0.559  1.00  0.00     0.172 C 
HETATM    6  C14 UNL     1     -14.110  49.142   0.143  1.00  0.00     0.042 C 
BRANCH   5   7
HETATM    7  C15 UNL     1     -12.663  47.672   1.420  1.00  0.00     0.240 C 
HETATM    8  O3  UNL     1     -12.358  46.651   2.061  1.00  0.00    -0.271 OA
HETATM    9  N3  UNL     1     -11.867  48.824   1.507  1.00  0.00    -0.346 N 
ATOM     10  H3  UNL     1     -12.116  49.661   0.982  1.00  0.00     0.163 HD
BRANCH   9  11
HETATM   11  C16 UNL     1     -10.681  48.815   2.354  1.00  0.00     0.180 C 
BRANCH  11  12
HETATM   12  C17 UNL     1      -9.508  49.267   1.592  1.00  0.00     0.243 C 
HETATM   13  O4  UNL     1      -9.014  50.402   1.930  1.00  0.00    -0.271 OA
HETATM   14  N4  UNL     1      -8.878  48.584   0.538  1.00  0.00    -0.350 N 
HETATM   15  C18 UNL     1      -7.679  49.064  -0.184  1.00  0.00     0.126 C 
HETATM   16  C21 UNL     1      -9.163  47.333  -0.133  1.00  0.00     0.126 C 
HETATM   17  C19 UNL     1      -6.793  47.827  -0.003  1.00  0.00     0.021 C 
HETATM   18  C20 UNL     1      -7.800  46.673  -0.089  1.00  0.00     0.021 C 
ENDBRANCH  11  12
BRANCH  11  19
HETATM   19  C22 UNL     1     -11.010  49.728   3.520  1.00  0.00     0.009 C 
HETATM   20  C23 UNL     1     -12.280  50.511   3.238  1.00  0.00     0.012 C 
HETATM   21  C24 UNL     1     -11.302  48.837   4.711  1.00  0.00     0.012 C 
ENDBRANCH  11  19
ENDBRANCH   9  11
ENDBRANCH   5   7
ENDBRANCH   3   5
BRANCH   1  22
HETATM   22  C5  UNL     1     -14.186  44.740  -1.865  1.00  0.00     0.177 C 
BRANCH  22  23
HETATM   23  C4  UNL     1     -15.542  44.254  -2.320  1.00  0.00     0.038 C 
BRANCH  23  24
HETATM   24  C2  UNL     1     -16.012  45.093  -3.483  1.00  0.00    -0.020 C 
HETATM   25  C1  UNL     1     -16.240  44.208  -4.707  1.00  0.00     0.009 C 
HETATM   26  C3  UNL     1     -17.325  45.794  -3.151  1.00  0.00     0.009 C 
ENDBRANCH  23  24
ENDBRANCH  22  23
BRANCH  22  27
HETATM   27  N1  UNL     1     -13.217  43.740  -1.605  1.00  0.00    -0.348 N 
HETATM   28  C6  UNL     1     -11.880  43.639  -2.008  1.00  0.00     0.218 C 
HETATM   29  O1  UNL     1     -11.389  44.546  -2.734  1.00  0.00    -0.274 OA
ATOM     30  H1  UNL     1     -13.548  42.966  -1.030  1.00  0.00     0.163 HD
BRANCH  28  31
HETATM   31  C7  UNL     1     -11.051  42.471  -1.582  1.00  0.00     0.111 C 
BRANCH  31  32
HETATM   32  C8  UNL     1     -10.006  42.859  -0.573  1.00  0.00    -0.043 C 
HETATM   33  C9  UNL     1      -9.656  41.601   0.197  1.00  0.00     0.015 C 
HETATM   34  C10 UNL     1      -8.728  43.340  -1.260  1.00  0.00     0.015 C 
HETATM   35  C11 UNL     1     -10.419  43.910   0.396  1.00  0.00     0.015 C 
ENDBRANCH  31  32
ENDBRANCH  28  31
ENDBRANCH  22  27
ENDBRANCH   1  22
TORSDOF 11
ENDMDL
MODEL 3
REMARK VINA RESULT: -6.955038047      1.247      1.712
REMARK  11 active torsions:
REMARK  status: ('A' for Active; 'I' for Inactive)
REMARK    1  A    between atoms: C2_2  and  C4_4 
REMARK    2  A    between atoms: C4_4  and  C5_5 
REMARK    3  A    between atoms: C5_5  and  N1_6 
REMARK    4  A    between atoms: C5_5  and  C12_15 
REMARK       I    between atoms: N1_6  and  C6_8 
REMARK    5  A    between atoms: C6_8  and  C7_10 
REMARK    6  A    between atoms: C7_10  and  C8_11 
REMARK       I    between atoms: C12_15  and  N2_17 
REMARK    7  A    between atoms: N2_17  and  C13_19 
REMARK    8  A    between atoms: C13_19  and  C15_21 
REMARK       I    between atoms: C15_21  and  N3_23 
REMARK    9  A    between atoms: N3_23  and  C16_25 
REMARK   10  A    between atoms: C16_25  and  C17_26 
REMARK   11  A    between atoms: C16_25  and  C22_33 
REMARK       I    between atoms: C17_26  and  N4_28 
ROOT
HETATM    1  C12 UNL     1     -14.358  45.568  -1.100  1.00  0.00     0.241 C 
HETATM    2  O2  UNL     1     -15.307  45.376  -0.291  1.00  0.00    -0.271 OA
HETATM    3  N2  UNL     1     -13.476  46.659  -0.805  1.00  0.00    -0.346 N 
ATOM      4  H2  UNL     1     -12.690  46.861  -1.423  1.00  0.00     0.163 HD
ENDROOT
BRANCH   3   5
HETATM    5  C13 UNL     1     -13.700  47.462   0.356  1.00  0.00     0.172 C 
HETATM    6  C14 UNL     1     -13.420  48.939   0.047  1.00  0.00     0.042 C 
BRANCH   5   7
HETATM    7  C15 UNL     1     -12.792  47.069   1.461  1.00  0.00     0.240 C 
HETATM    8  O3  UNL     1     -12.966  45.999   2.067  1.00  0.00    -0.271 OA
HETATM    9  N3  UNL     1     -11.735  47.919   1.818  1.00  0.00    -0.346 N 
ATOM     10  H3  UNL     1     -11.592  48.798   1.321  1.00  0.00     0.163 HD
BRANCH   9  11
HETATM   11  C16 UNL     1     -10.842  47.538   2.905  1.00  0.00     0.180 C 
BRANCH  11  12
HETATM   12  C17 UNL     1      -9.515  47.190   2.376  1.00  0.00     0.243 C 
HETATM   13  O4  UNL     1      -9.038  46.055   2.737  1.00  0.00    -0.271 OA
HETATM   14  N4  UNL     1      -8.724  47.973   1.518  1.00  0.00    -0.350 N 
HETATM   15  C18 UNL     1      -7.403  47.571   0.985  1.00  0.00     0.126 C 
HETATM   16  C21 UNL     1      -8.901  49.290   0.944  1.00  0.00     0.126 C 
HETATM   17  C19 UNL     1      -7.688  47.773  -0.508  1.00  0.00     0.021 C 
HETATM   18  C20 UNL     1      -8.603  49.004  -0.514  1.00  0.00     0.021 C 
ENDBRANCH  11  12
BRANCH  11  19
HETATM   19  C22 UNL     1     -10.805  48.734   3.837  1.00  0.00     0.009 C 
HETATM   20  C23 UNL     1     -12.025  49.612   3.620  1.00  0.00     0.012 C 
HETATM   21  C24 UNL     1     -10.901  48.197   5.251  1.00  0.00     0.012 C 
ENDBRANCH  11  19
ENDBRANCH   9  11
ENDBRANCH   5   7
ENDBRANCH   3   5
BRANCH   1  22
HETATM   22  C5  UNL     1     -14.141  44.736  -2.294  1.00  0.00     0.177 C 
BRANCH  22  23
HETATM   23  C4  UNL     1     -15.477  44.224  -2.782  1.00  0.00     0.038 C 
BRANCH  23  24
HETATM   24  C2  UNL     1     -15.637  44.557  -4.246  1.00  0.00    -0.020 C 
HETATM   25  C1  UNL     1     -16.739  43.695  -4.860  1.00  0.00     0.009 C 
HETATM   26  C3  UNL     1     -16.020  46.022  -4.429  1.00  0.00     0.009 C 
ENDBRANCH  23  24
ENDBRANCH  22  23
BRANCH  22  27
HETATM   27  N1  UNL     1     -13.152  43.756  -2.032  1.00  0.00    -0.348 N 
HETATM   28  C6  UNL     1     -11.760  43.805  -2.167  1.00  0.00     0.218 C 
HETATM   29  O1  UNL     1     -11.225  44.863  -2.599  1.00  0.00    -0.274 OA
ATOM     30  H1  UNL     1     -13.515  42.867  -1.689  1.00  0.00     0.163 HD
BRANCH  28  31
HETATM   31  C7  UNL     1     -10.925  42.621  -1.805  1.00  0.00     0.111 C 
BRANCH  31  32
HETATM   32  C8  UNL     1      -9.970  42.926  -0.685  1.00  0.00    -0.043 C 
HETATM   33  C9  UNL     1      -9.714  41.617   0.037  1.00  0.00     0.015 C 
HETATM   34  C10 UNL     1      -8.626  43.416  -1.223  1.00  0.00     0.015 C 
HETATM   35  C11 UNL     1     -10.451  43.928   0.304  1.00  0.00     0.015 C 
ENDBRANCH  31  32
ENDBRANCH  28  31
ENDBRANCH  22  27
ENDBRANCH   1  22
TORSDOF 11
ENDMDL
MODEL 4
REMARK VINA RESULT: -6.944605048      2.101      5.221
REMARK  11 active torsions:
REMARK  status: ('A' for Active; 'I' for Inactive)
REMARK    1  A    between atoms: C2_2  and  C4_4 
REMARK    2  A    between atoms: C4_4  and  C5_5 
REMARK    3  A    between atoms: C5_5  and  N1_6 
REMARK    4  A    between atoms: C5_5  and  C12_15 
REMARK       I    between atoms: N1_6  and  C6_8 
REMARK    5  A    between atoms: C6_8  and  C7_10 
REMARK    6  A    between atoms: C7_10  and  C8_11 
REMARK       I    between atoms: C12_15  and  N2_17 
REMARK    7  A    between atoms: N2_17  and  C13_19 
REMARK    8  A    between atoms: C13_19  and  C15_21 
REMARK       I    between atoms: C15_21  and  N3_23 
REMARK    9  A    between atoms: N3_23  and  C16_25 
REMARK   10  A    between atoms: C16_25  and  C17_26 
REMARK   11  A    between atoms: C16_25  and  C22_33 
REMARK       I    between atoms: C17_26  and  N4_28 
ROOT
HETATM    1  C12 UNL     1     -11.747  43.613  -1.350  1.00  0.00     0.241 C 
HETATM    2  O2  UNL     1     -11.593  42.809  -2.311  1.00  0.00    -0.271 OA
HETATM    3  N2  UNL     1     -10.695  43.657  -0.378  1.00  0.00    -0.346 N 
ATOM      4  H2  UNL     1     -10.762  44.289   0.419  1.00  0.00     0.163 HD
ENDROOT
BRANCH   3   5
HETATM    5  C13 UNL     1      -9.550  42.813  -0.529  1.00  0.00     0.172 C 
HETATM    6  C14 UNL     1      -9.683  41.568   0.358  1.00  0.00     0.042 C 
BRANCH   5   7
HETATM    7  C15 UNL     1      -8.311  43.514  -0.113  1.00  0.00     0.240 C 
HETATM    8  O3  UNL     1      -7.370  43.655  -0.913  1.00  0.00    -0.271 OA
HETATM    9  N3  UNL     1      -8.209  44.015   1.193  1.00  0.00    -0.346 N 
ATOM     10  H3  UNL     1      -8.981  43.900   1.849  1.00  0.00     0.163 HD
BRANCH   9  11
HETATM   11  C16 UNL     1      -6.992  44.703   1.606  1.00  0.00     0.180 C 
BRANCH  11  12
HETATM   12  C17 UNL     1      -7.278  46.116   1.894  1.00  0.00     0.243 C 
HETATM   13  O4  UNL     1      -7.370  46.435   3.133  1.00  0.00    -0.271 OA
HETATM   14  N4  UNL     1      -7.457  47.143   0.953  1.00  0.00    -0.350 N 
HETATM   15  C18 UNL     1      -7.715  48.561   1.288  1.00  0.00     0.126 C 
HETATM   16  C21 UNL     1      -7.466  47.161  -0.495  1.00  0.00     0.126 C 
HETATM   17  C19 UNL     1      -6.581  49.198   0.478  1.00  0.00     0.021 C 
HETATM   18  C20 UNL     1      -6.512  48.307  -0.768  1.00  0.00     0.021 C 
ENDBRANCH  11  12
BRANCH  11  19
HETATM   19  C22 UNL     1      -6.493  43.946   2.822  1.00  0.00     0.009 C 
HETATM   20  C23 UNL     1      -7.521  42.920   3.267  1.00  0.00     0.012 C 
HETATM   21  C24 UNL     1      -5.263  43.172   2.389  1.00  0.00     0.012 C 
ENDBRANCH  11  19
ENDBRANCH   9  11
ENDBRANCH   5   7
ENDBRANCH   3   5
BRANCH   1  22
HETATM   22  C5  UNL     1     -12.932  44.473  -1.205  1.00  0.00     0.177 C 
BRANCH  22  23
HETATM   23  C4  UNL     1     -13.378  44.925  -2.576  1.00  0.00     0.038 C 
BRANCH  23  24
HETATM   24  C2  UNL     1     -14.873  45.133  -2.574  1.00  0.00    -0.020 C 
HETATM   25  C1  UNL     1     -15.359  45.450  -3.988  1.00  0.00     0.009 C 
HETATM   26  C3  UNL     1     -15.594  43.878  -2.094  1.00  0.00     0.009 C 
ENDBRANCH  23  24
ENDBRANCH  22  23
BRANCH  22  27
HETATM   27  N1  UNL     1     -12.678  45.497  -0.260  1.00  0.00    -0.348 N 
HETATM   28  C6  UNL     1     -13.482  46.015   0.762  1.00  0.00     0.218 C 
HETATM   29  O1  UNL     1     -14.644  45.549   0.922  1.00  0.00    -0.274 OA
ATOM     30  H1  UNL     1     -11.757  45.929  -0.337  1.00  0.00     0.163 HD
BRANCH  28  31
HETATM   31  C7  UNL     1     -12.969  47.103   1.647  1.00  0.00     0.111 C 
BRANCH  31  32
HETATM   32  C8  UNL     1     -12.878  48.419   0.927  1.00  0.00    -0.043 C 
HETATM   33  C9  UNL     1     -12.598  49.473   1.981  1.00  0.00     0.015 C 
HETATM   34  C10 UNL     1     -11.703  48.434  -0.051  1.00  0.00     0.015 C 
HETATM   35  C11 UNL     1     -14.097  48.815   0.173  1.00  0.00     0.015 C 
ENDBRANCH  31  32
ENDBRANCH  28  31
ENDBRANCH  22  27
ENDBRANCH   1  22
TORSDOF 11
ENDMDL
MODEL 5
REMARK VINA RESULT: -6.943845986      2.040      4.667
REMARK  11 active torsions:
REMARK  status: ('A' for Active; 'I' for Inactive)
REMARK    1  A    between atoms: C2_2  and  C4_4 
REMARK    2  A    between atoms: C4_4  and  C5_5 
REMARK    3  A    between atoms: C5_5  and  N1_6 
REMARK    4  A    between atoms: C5_5  and  C12_15 
REMARK       I    between atoms: N1_6  and  C6_8 
REMARK    5  A    between atoms: C6_8  and  C7_10 
REMARK    6  A    between atoms: C7_10  and  C8_11 
REMARK       I    between atoms: C12_15  and  N2_17 
REMARK    7  A    between atoms: N2_17  and  C13_19 
REMARK    8  A    between atoms: C13_19  and  C15_21 
REMARK       I    between atoms: C15_21  and  N3_23 
REMARK    9  A    between atoms: N3_23  and  C16_25 
REMARK   10  A    between atoms: C16_25  and  C17_26 
REMARK   11  A    between atoms: C16_25  and  C22_33 
REMARK       I    between atoms: C17_26  and  N4_28 
ROOT
HETATM    1  C12 UNL     1     -13.587  45.854  -0.032  1.00  0.00     0.241 C 
HETATM    2  O2  UNL     1     -14.519  45.739   0.810  1.00  0.00    -0.271 OA
HETATM    3  N2  UNL     1     -12.450  46.627   0.373  1.00  0.00    -0.346 N 
ATOM      4  H2  UNL     1     -11.665  46.754  -0.266  1.00  0.00     0.163 HD
ENDROOT
BRANCH   3   5
HETATM    5  C13 UNL     1     -12.419  47.221   1.673  1.00  0.00     0.172 C 
HETATM    6  C14 UNL     1     -12.691  48.729   1.579  1.00  0.00     0.042 C 
BRANCH   5   7
HETATM    7  C15 UNL     1     -11.087  47.058   2.304  1.00  0.00     0.240 C 
HETATM    8  O3  UNL     1     -10.914  47.365   3.495  1.00  0.00    -0.271 OA
HETATM    9  N3  UNL     1     -10.022  46.553   1.543  1.00  0.00    -0.346 N 
ATOM     10  H3  UNL     1     -10.164  46.300   0.565  1.00  0.00     0.163 HD
BRANCH   9  11
HETATM   11  C16 UNL     1      -8.711  46.392   2.160  1.00  0.00     0.180 C 
BRANCH  11  12
HETATM   12  C17 UNL     1      -8.389  44.966   2.306  1.00  0.00     0.243 C 
HETATM   13  O4  UNL     1      -9.225  44.139   1.794  1.00  0.00    -0.271 OA
HETATM   14  N4  UNL     1      -7.262  44.422   2.945  1.00  0.00    -0.350 N 
HETATM   15  C18 UNL     1      -6.960  42.977   3.044  1.00  0.00     0.126 C 
HETATM   16  C21 UNL     1      -6.150  45.020   3.655  1.00  0.00     0.126 C 
HETATM   17  C19 UNL     1      -5.543  42.998   2.461  1.00  0.00     0.021 C 
HETATM   18  C20 UNL     1      -4.982  44.327   2.983  1.00  0.00     0.021 C 
ENDBRANCH  11  12
BRANCH  11  19
HETATM   19  C22 UNL     1      -7.743  47.121   1.247  1.00  0.00     0.009 C 
HETATM   20  C23 UNL     1      -8.271  47.142  -0.177  1.00  0.00     0.012 C 
HETATM   21  C24 UNL     1      -7.693  48.562   1.714  1.00  0.00     0.012 C 
ENDBRANCH  11  19
ENDBRANCH   9  11
ENDBRANCH   5   7
ENDBRANCH   3   5
BRANCH   1  22
HETATM   22  C5  UNL     1     -13.633  45.240  -1.369  1.00  0.00     0.177 C 
BRANCH  22  23
HETATM   23  C4  UNL     1     -12.308  45.473  -2.059  1.00  0.00     0.038 C 
BRANCH  23  24
HETATM   24  C2  UNL     1     -11.599  44.153  -2.241  1.00  0.00    -0.020 C 
HETATM   25  C1  UNL     1     -10.271  44.165  -1.485  1.00  0.00     0.009 C 
HETATM   26  C3  UNL     1     -12.444  43.004  -1.702  1.00  0.00     0.009 C 
ENDBRANCH  23  24
ENDBRANCH  22  23
BRANCH  22  27
HETATM   27  N1  UNL     1     -14.787  45.675  -2.065  1.00  0.00    -0.348 N 
HETATM   28  C6  UNL     1     -16.059  45.101  -2.170  1.00  0.00     0.218 C 
HETATM   29  O1  UNL     1     -16.288  44.008  -1.582  1.00  0.00    -0.274 OA
ATOM     30  H1  UNL     1     -14.672  46.551  -2.575  1.00  0.00     0.163 HD
BRANCH  28  31
HETATM   31  C7  UNL     1     -17.127  45.775  -2.968  1.00  0.00     0.111 C 
BRANCH  31  32
HETATM   32  C8  UNL     1     -17.058  45.411  -4.424  1.00  0.00    -0.043 C 
HETATM   33  C9  UNL     1     -18.473  45.496  -4.962  1.00  0.00     0.015 C 
HETATM   34  C10 UNL     1     -16.215  46.419  -5.206  1.00  0.00     0.015 C 
HETATM   35  C11 UNL     1     -16.520  44.055  -4.714  1.00  0.00     0.015 C 
ENDBRANCH  31  32
ENDBRANCH  28  31
ENDBRANCH  22  27
ENDBRANCH   1  22
TORSDOF 11
ENDMDL
