MODEL 1
REMARK VINA RESULT: -6.875977734      0.000      0.000
REMARK  11 active torsions:
REMARK  status: ('A' for Active; 'I' for Inactive)
REMARK    1  A    between atoms: C2_2  and  O1_4 
REMARK    2  A    between atoms: O1_4  and  C4_5 
REMARK    3  A    between atoms: C4_5  and  C5_6 
REMARK    4  A    between atoms: C6_7  and  N1_8 
REMARK    5  A    between atoms: N1_8  and  C7_10 
REMARK    6  A    between atoms: C7_10  and  O2_11 
REMARK    7  A    between atoms: C7_10  and  N2_13 
REMARK       I    between atoms: N2_13  and  C8_15 
REMARK    8  A    between atoms: C8_15  and  C9_17 
REMARK    9  A    between atoms: C9_17  and  N3_18 
REMARK   10  A    between atoms: C9_17  and  C20_32 
REMARK       I    between atoms: N3_18  and  C10_20 
REMARK       I    between atoms: C10_20  and  N4_22 
REMARK   11  A    between atoms: C16_28  and  C17_29 
ROOT
HETATM    1  C9  UNL     1     -10.614  48.451   1.360  1.00  0.00     0.186 C 
ENDROOT
BRANCH   1   2
HETATM    2  C8  UNL     1     -11.907  48.299   0.589  1.00  0.00     0.248 C 
HETATM    3  N2  UNL     1     -12.810  47.297   0.940  1.00  0.00    -0.291 N 
ATOM      4  H2  UNL     1     -12.547  46.720   1.739  1.00  0.00     0.172 HD
HETATM    5  O3  UNL     1     -12.080  49.118  -0.344  1.00  0.00    -0.271 OA
BRANCH   3   6
HETATM    6  C7  UNL     1     -14.034  46.984   0.332  1.00  0.00     0.223 C 
BRANCH   6   7
HETATM    7  N1  UNL     1     -14.388  47.330  -0.976  1.00  0.00    -0.333 N 
ATOM      8  H1  UNL     1     -14.076  48.251  -1.284  1.00  0.00     0.168 HD
BRANCH   7   9
HETATM    9  C6  UNL     1     -15.116  46.586  -1.934  1.00  0.00     0.089 C 
HETATM   10  C5  UNL     1     -15.342  45.158  -1.883  1.00  0.00     0.016 C 
BRANCH  10  11
HETATM   11  C4  UNL     1     -14.254  44.195  -1.779  1.00  0.00     0.197 C 
BRANCH  11  12
HETATM   12  O1  UNL     1     -13.374  44.391  -0.752  1.00  0.00    -0.383 OA
BRANCH  12  13
HETATM   13  C2  UNL     1     -12.041  44.230  -1.127  1.00  0.00     0.113 C 
HETATM   14  C1  UNL     1     -11.917  42.995  -2.045  1.00  0.00     0.039 C 
HETATM   15  C3  UNL     1     -11.602  45.390  -1.962  1.00  0.00     0.039 C 
ENDBRANCH  12  13
ENDBRANCH  11  12
ENDBRANCH  10  11
ENDBRANCH   7   9
ENDBRANCH   6   7
BRANCH   6  16
HETATM   16  O2  UNL     1     -14.893  46.320   1.061  1.00  0.00    -0.332 OA
ATOM     17  H2  UNL     1     -15.173  46.691   1.889  1.00  0.00     0.221 HD
ENDBRANCH   6  16
ENDBRANCH   3   6
ENDBRANCH   1   2
BRANCH   1  18
HETATM   18  N3  UNL     1     -10.031  47.107   1.571  1.00  0.00    -0.329 N 
HETATM   19  C10 UNL     1      -9.249  46.508   0.542  1.00  0.00     0.319 C 
HETATM   20  O4  UNL     1      -9.045  47.118  -0.559  1.00  0.00    -0.247 OA
HETATM   21  N4  UNL     1      -8.700  45.229   0.754  1.00  0.00    -0.325 N 
HETATM   22  C11 UNL     1      -7.886  44.502  -0.204  1.00  0.00     0.137 C 
HETATM   23  C14 UNL     1      -8.840  44.424   1.923  1.00  0.00     0.112 C 
HETATM   24  C12 UNL     1      -7.582  43.225   0.530  1.00  0.00     0.035 C 
HETATM   25  C13 UNL     1      -7.436  43.781   1.960  1.00  0.00     0.040 C 
HETATM   26  C16 UNL     1      -8.878  42.501   0.703  1.00  0.00    -0.072 C 
HETATM   27  C15 UNL     1      -9.621  43.224   1.537  1.00  0.00     0.002 C 
ATOM     28  H3  UNL     1     -10.188  46.612   2.450  1.00  0.00     0.165 HD
BRANCH  26  29
HETATM   29  C17 UNL     1      -9.316  41.227   0.101  1.00  0.00     0.006 C 
HETATM   30  C18 UNL     1      -9.392  41.300  -1.409  1.00  0.00     0.014 C 
HETATM   31  C19 UNL     1      -8.331  40.148   0.477  1.00  0.00     0.014 C 
ENDBRANCH  26  29
ENDBRANCH   1  18
BRANCH   1  32
HETATM   32  C20 UNL     1     -10.816  49.101   2.705  1.00  0.00    -0.022 C 
HETATM   33  C21 UNL     1      -9.569  49.960   3.003  1.00  0.00     0.017 C 
HETATM   34  C22 UNL     1     -12.002  50.024   2.788  1.00  0.00     0.017 C 
HETATM   35  C23 UNL     1     -10.959  48.109   3.836  1.00  0.00     0.017 C 
ENDBRANCH   1  32
TORSDOF 11
ENDMDL
MODEL 2
REMARK VINA RESULT: -6.778105504      2.304      6.057
REMARK  11 active torsions:
REMARK  status: ('A' for Active; 'I' for Inactive)
REMARK    1  A    between atoms: C2_2  and  O1_4 
REMARK    2  A    between atoms: O1_4  and  C4_5 
REMARK    3  A    between atoms: C4_5  and  C5_6 
REMARK    4  A    between atoms: C6_7  and  N1_8 
REMARK    5  A    between atoms: N1_8  and  C7_10 
REMARK    6  A    between atoms: C7_10  and  O2_11 
REMARK    7  A    between atoms: C7_10  and  N2_13 
REMARK       I    between atoms: N2_13  and  C8_15 
REMARK    8  A    between atoms: C8_15  and  C9_17 
REMARK    9  A    between atoms: C9_17  and  N3_18 
REMARK   10  A    between atoms: C9_17  and  C20_32 
REMARK       I    between atoms: N3_18  and  C10_20 
REMARK       I    between atoms: C10_20  and  N4_22 
REMARK   11  A    between atoms: C16_28  and  C17_29 
ROOT
HETATM    1  C9  UNL     1      -8.534  46.621   1.228  1.00  0.00     0.186 C 
ENDROOT
BRANCH   1   2
HETATM    2  C8  UNL     1      -7.911  45.307   0.806  1.00  0.00     0.248 C 
HETATM    3  N2  UNL     1      -7.304  44.492   1.758  1.00  0.00    -0.291 N 
ATOM      4  H2  UNL     1      -7.335  44.829   2.721  1.00  0.00     0.172 HD
HETATM    5  O3  UNL     1      -7.994  45.036  -0.414  1.00  0.00    -0.271 OA
BRANCH   3   6
HETATM    6  C7  UNL     1      -6.654  43.265   1.559  1.00  0.00     0.223 C 
BRANCH   6   7
HETATM    7  N1  UNL     1      -7.112  42.247   0.715  1.00  0.00    -0.333 N 
ATOM      8  H1  UNL     1      -6.755  42.279  -0.240  1.00  0.00     0.168 HD
BRANCH   7   9
HETATM    9  C6  UNL     1      -7.998  41.181   0.995  1.00  0.00     0.089 C 
HETATM   10  C5  UNL     1      -8.610  40.323   0.005  1.00  0.00     0.016 C 
BRANCH  10  11
HETATM   11  C4  UNL     1      -9.392  40.845  -1.109  1.00  0.00     0.197 C 
BRANCH  11  12
HETATM   12  O1  UNL     1      -9.378  42.202  -1.269  1.00  0.00    -0.383 OA
BRANCH  12  13
HETATM   13  C2  UNL     1     -10.644  42.780  -1.194  1.00  0.00     0.113 C 
HETATM   14  C1  UNL     1     -10.772  43.869  -2.281  1.00  0.00     0.039 C 
HETATM   15  C3  UNL     1     -11.690  41.765  -1.525  1.00  0.00     0.039 C 
ENDBRANCH  12  13
ENDBRANCH  11  12
ENDBRANCH  10  11
ENDBRANCH   7   9
ENDBRANCH   6   7
BRANCH   6  16
HETATM   16  O2  UNL     1      -5.542  43.080   2.220  1.00  0.00    -0.332 OA
ATOM     17  H2  UNL     1      -4.899  42.475   1.871  1.00  0.00     0.221 HD
ENDBRANCH   6  16
ENDBRANCH   3   6
ENDBRANCH   1   2
BRANCH   1  18
HETATM   18  N3  UNL     1      -9.869  46.733   0.597  1.00  0.00    -0.329 N 
HETATM   19  C10 UNL     1     -10.972  46.026   1.153  1.00  0.00     0.319 C 
HETATM   20  O4  UNL     1     -10.824  45.298   2.190  1.00  0.00    -0.247 OA
HETATM   21  N4  UNL     1     -12.237  46.140   0.544  1.00  0.00    -0.325 N 
HETATM   22  C11 UNL     1     -13.446  45.478   1.004  1.00  0.00     0.137 C 
HETATM   23  C14 UNL     1     -12.561  46.907  -0.613  1.00  0.00     0.112 C 
HETATM   24  C12 UNL     1     -14.470  45.943   0.005  1.00  0.00     0.035 C 
HETATM   25  C13 UNL     1     -13.974  47.386  -0.216  1.00  0.00     0.040 C 
HETATM   26  C16 UNL     1     -14.084  45.368  -1.319  1.00  0.00    -0.072 C 
HETATM   27  C15 UNL     1     -12.943  45.951  -1.679  1.00  0.00     0.002 C 
ATOM     28  H3  UNL     1      -9.997  47.314  -0.233  1.00  0.00     0.165 HD
BRANCH  26  29
HETATM   29  C17 UNL     1     -14.782  44.351  -2.128  1.00  0.00     0.006 C 
HETATM   30  C18 UNL     1     -16.235  44.198  -1.734  1.00  0.00     0.014 C 
HETATM   31  C19 UNL     1     -14.723  44.762  -3.579  1.00  0.00     0.014 C 
ENDBRANCH  26  29
ENDBRANCH   1  18
BRANCH   1  32
HETATM   32  C20 UNL     1      -7.708  47.812   0.813  1.00  0.00    -0.022 C 
HETATM   33  C21 UNL     1      -7.895  48.908   1.883  1.00  0.00     0.017 C 
HETATM   34  C22 UNL     1      -6.228  47.551   0.720  1.00  0.00     0.017 C 
HETATM   35  C23 UNL     1      -8.128  48.401  -0.513  1.00  0.00     0.017 C 
ENDBRANCH   1  32
TORSDOF 11
ENDMDL
MODEL 3
REMARK VINA RESULT: -6.726272649      1.282      2.079
REMARK  11 active torsions:
REMARK  status: ('A' for Active; 'I' for Inactive)
REMARK    1  A    between atoms: C2_2  and  O1_4 
REMARK    2  A    between atoms: O1_4  and  C4_5 
REMARK    3  A    between atoms: C4_5  and  C5_6 
REMARK    4  A    between atoms: C6_7  and  N1_8 
REMARK    5  A    between atoms: N1_8  and  C7_10 
REMARK    6  A    between atoms: C7_10  and  O2_11 
REMARK    7  A    between atoms: C7_10  and  N2_13 
REMARK       I    between atoms: N2_13  and  C8_15 
REMARK    8  A    between atoms: C8_15  and  C9_17 
REMARK    9  A    between atoms: C9_17  and  N3_18 
REMARK   10  A    between atoms: C9_17  and  C20_32 
REMARK       I    between atoms: N3_18  and  C10_20 
REMARK       I    between atoms: C10_20  and  N4_22 
REMARK   11  A    between atoms: C16_28  and  C17_29 
ROOT
HETATM    1  C9  UNL     1     -10.826  48.088   1.978  1.00  0.00     0.186 C 
ENDROOT
BRANCH   1   2
HETATM    2  C8  UNL     1     -12.218  47.782   1.470  1.00  0.00     0.248 C 
HETATM    3  N2  UNL     1     -12.688  46.471   1.484  1.00  0.00    -0.291 N 
ATOM      4  H2  UNL     1     -12.053  45.773   1.870  1.00  0.00     0.172 HD
HETATM    5  O3  UNL     1     -12.873  48.769   1.061  1.00  0.00    -0.271 OA
BRANCH   3   6
HETATM    6  C7  UNL     1     -13.927  45.991   1.033  1.00  0.00     0.223 C 
BRANCH   6   7
HETATM    7  N1  UNL     1     -14.093  45.017   0.043  1.00  0.00    -0.333 N 
ATOM      8  H1  UNL     1     -14.998  44.546   0.040  1.00  0.00     0.168 HD
BRANCH   7   9
HETATM    9  C6  UNL     1     -13.186  44.591  -0.956  1.00  0.00     0.089 C 
HETATM   10  C5  UNL     1     -13.031  45.203  -2.257  1.00  0.00     0.016 C 
BRANCH  10  11
HETATM   11  C4  UNL     1     -14.149  45.388  -3.175  1.00  0.00     0.197 C 
BRANCH  11  12
HETATM   12  O1  UNL     1     -15.362  45.639  -2.600  1.00  0.00    -0.383 OA
BRANCH  12  13
HETATM   13  C2  UNL     1     -16.385  44.830  -3.093  1.00  0.00     0.113 C 
HETATM   14  C1  UNL     1     -16.027  44.372  -4.524  1.00  0.00     0.039 C 
HETATM   15  C3  UNL     1     -16.476  43.574  -2.287  1.00  0.00     0.039 C 
ENDBRANCH  12  13
ENDBRANCH  11  12
ENDBRANCH  10  11
ENDBRANCH   7   9
ENDBRANCH   6   7
BRANCH   6  16
HETATM   16  O2  UNL     1     -14.990  46.506   1.593  1.00  0.00    -0.332 OA
ATOM     17  H2  UNL     1     -15.113  46.395   2.528  1.00  0.00     0.221 HD
ENDBRANCH   6  16
ENDBRANCH   3   6
ENDBRANCH   1   2
BRANCH   1  18
HETATM   18  N3  UNL     1     -10.039  46.833   1.979  1.00  0.00    -0.329 N 
HETATM   19  C10 UNL     1      -9.248  46.497   0.845  1.00  0.00     0.319 C 
HETATM   20  O4  UNL     1      -9.207  47.265  -0.173  1.00  0.00    -0.247 OA
HETATM   21  N4  UNL     1      -8.504  45.300   0.857  1.00  0.00    -0.325 N 
HETATM   22  C11 UNL     1      -7.657  44.835  -0.226  1.00  0.00     0.137 C 
HETATM   23  C14 UNL     1      -8.448  44.343   1.911  1.00  0.00     0.112 C 
HETATM   24  C12 UNL     1      -7.122  43.537   0.314  1.00  0.00     0.035 C 
HETATM   25  C13 UNL     1      -6.966  43.924   1.798  1.00  0.00     0.040 C 
HETATM   26  C16 UNL     1      -8.284  42.606   0.447  1.00  0.00    -0.072 C 
HETATM   27  C15 UNL     1      -9.069  43.096   1.403  1.00  0.00     0.002 C 
ATOM     28  H3  UNL     1     -10.065  46.213   2.789  1.00  0.00     0.165 HD
BRANCH  26  29
HETATM   29  C17 UNL     1      -8.570  41.367  -0.301  1.00  0.00     0.006 C 
HETATM   30  C18 UNL     1      -8.521  40.137   0.579  1.00  0.00     0.014 C 
HETATM   31  C19 UNL     1      -9.951  41.470  -0.899  1.00  0.00     0.014 C 
ENDBRANCH  26  29
ENDBRANCH   1  18
BRANCH   1  32
HETATM   32  C20 UNL     1     -10.830  48.650   3.376  1.00  0.00    -0.022 C 
HETATM   33  C21 UNL     1      -9.768  49.767   3.437  1.00  0.00     0.017 C 
HETATM   34  C22 UNL     1     -12.133  49.275   3.800  1.00  0.00     0.017 C 
HETATM   35  C23 UNL     1     -10.474  47.632   4.434  1.00  0.00     0.017 C 
ENDBRANCH   1  32
TORSDOF 11
ENDMDL
MODEL 4
REMARK VINA RESULT: -6.662612620      2.032      3.252
REMARK  11 active torsions:
REMARK  status: ('A' for Active; 'I' for Inactive)
REMARK    1  A    between atoms: C2_2  and  O1_4 
REMARK    2  A    between atoms: O1_4  and  C4_5 
REMARK    3  A    between atoms: C4_5  and  C5_6 
REMARK    4  A    between atoms: C6_7  and  N1_8 
REMARK    5  A    between atoms: N1_8  and  C7_10 
REMARK    6  A    between atoms: C7_10  and  O2_11 
REMARK    7  A    between atoms: C7_10  and  N2_13 
REMARK       I    between atoms: N2_13  and  C8_15 
REMARK    8  A    between atoms: C8_15  and  C9_17 
REMARK    9  A    between atoms: C9_17  and  N3_18 
REMARK   10  A    between atoms: C9_17  and  C20_32 
REMARK       I    between atoms: N3_18  and  C10_20 
REMARK       I    between atoms: C10_20  and  N4_22 
REMARK   11  A    between atoms: C16_28  and  C17_29 
ROOT
HETATM    1  C9  UNL     1     -11.153  48.003   0.855  1.00  0.00     0.186 C 
ENDROOT
BRANCH   1   2
HETATM    2  C8  UNL     1     -12.175  46.902   1.043  1.00  0.00     0.248 C 
HETATM    3  N2  UNL     1     -12.849  46.387  -0.062  1.00  0.00    -0.291 N 
ATOM      4  H2  UNL     1     -12.589  46.779  -0.967  1.00  0.00     0.172 HD
HETATM    5  O3  UNL     1     -12.344  46.517   2.223  1.00  0.00    -0.271 OA
BRANCH   3   6
HETATM    6  C7  UNL     1     -13.841  45.395  -0.085  1.00  0.00     0.223 C 
BRANCH   6   7
HETATM    7  N1  UNL     1     -13.823  44.267  -0.912  1.00  0.00    -0.333 N 
ATOM      8  H1  UNL     1     -14.335  43.458  -0.559  1.00  0.00     0.168 HD
BRANCH   7   9
HETATM    9  C6  UNL     1     -13.198  44.087  -2.168  1.00  0.00     0.089 C 
HETATM   10  C5  UNL     1     -11.884  43.517  -2.370  1.00  0.00     0.016 C 
BRANCH  10  11
HETATM   11  C4  UNL     1     -10.693  44.039  -1.712  1.00  0.00     0.197 C 
BRANCH  11  12
HETATM   12  O1  UNL     1     -10.708  44.027  -0.346  1.00  0.00    -0.383 OA
BRANCH  12  13
HETATM   13  C2  UNL     1      -9.720  43.216   0.210  1.00  0.00     0.113 C 
HETATM   14  C1  UNL     1      -8.365  43.533  -0.458  1.00  0.00     0.039 C 
HETATM   15  C3  UNL     1      -9.537  43.551   1.656  1.00  0.00     0.039 C 
ENDBRANCH  12  13
ENDBRANCH  11  12
ENDBRANCH  10  11
ENDBRANCH   7   9
ENDBRANCH   6   7
BRANCH   6  16
HETATM   16  O2  UNL     1     -14.847  45.557   0.735  1.00  0.00    -0.332 OA
ATOM     17  H2  UNL     1     -14.768  45.232   1.624  1.00  0.00     0.221 HD
ENDBRANCH   6  16
ENDBRANCH   3   6
ENDBRANCH   1   2
BRANCH   1  18
HETATM   18  N3  UNL     1      -9.940  47.656   1.630  1.00  0.00    -0.329 N 
HETATM   19  C10 UNL     1      -8.785  47.173   0.951  1.00  0.00     0.319 C 
HETATM   20  O4  UNL     1      -8.784  47.038  -0.318  1.00  0.00    -0.247 OA
HETATM   21  N4  UNL     1      -7.637  46.846   1.698  1.00  0.00    -0.325 N 
HETATM   22  C11 UNL     1      -6.394  46.346   1.139  1.00  0.00     0.137 C 
HETATM   23  C14 UNL     1      -7.485  46.940   3.112  1.00  0.00     0.112 C 
HETATM   24  C12 UNL     1      -5.535  46.170   2.361  1.00  0.00     0.035 C 
HETATM   25  C13 UNL     1      -6.008  47.387   3.182  1.00  0.00     0.040 C 
HETATM   26  C16 UNL     1      -6.159  45.090   3.184  1.00  0.00    -0.072 C 
HETATM   27  C15 UNL     1      -7.322  45.559   3.627  1.00  0.00     0.002 C 
ATOM     28  H3  UNL     1      -9.932  47.762   2.645  1.00  0.00     0.165 HD
BRANCH  26  29
HETATM   29  C17 UNL     1      -5.643  43.741   3.488  1.00  0.00     0.006 C 
HETATM   30  C18 UNL     1      -6.345  43.108   4.668  1.00  0.00     0.014 C 
HETATM   31  C19 UNL     1      -5.851  42.859   2.281  1.00  0.00     0.014 C 
ENDBRANCH  26  29
ENDBRANCH   1  18
BRANCH   1  32
HETATM   32  C20 UNL     1     -11.654  49.344   1.327  1.00  0.00    -0.022 C 
HETATM   33  C21 UNL     1     -10.910  50.432   0.525  1.00  0.00     0.017 C 
HETATM   34  C22 UNL     1     -13.125  49.581   1.107  1.00  0.00     0.017 C 
HETATM   35  C23 UNL     1     -11.387  49.603   2.791  1.00  0.00     0.017 C 
ENDBRANCH   1  32
TORSDOF 11
ENDMDL
MODEL 5
REMARK VINA RESULT: -6.541866190      1.168      1.827
REMARK  11 active torsions:
REMARK  status: ('A' for Active; 'I' for Inactive)
REMARK    1  A    between atoms: C2_2  and  O1_4 
REMARK    2  A    between atoms: O1_4  and  C4_5 
REMARK    3  A    between atoms: C4_5  and  C5_6 
REMARK    4  A    between atoms: C6_7  and  N1_8 
REMARK    5  A    between atoms: N1_8  and  C7_10 
REMARK    6  A    between atoms: C7_10  and  O2_11 
REMARK    7  A    between atoms: C7_10  and  N2_13 
REMARK       I    between atoms: N2_13  and  C8_15 
REMARK    8  A    between atoms: C8_15  and  C9_17 
REMARK    9  A    between atoms: C9_17  and  N3_18 
REMARK   10  A    between atoms: C9_17  and  C20_32 
REMARK       I    between atoms: N3_18  and  C10_20 
REMARK       I    between atoms: C10_20  and  N4_22 
REMARK   11  A    between atoms: C16_28  and  C17_29 
ROOT
HETATM    1  C9  UNL     1     -10.302  48.821   1.360  1.00  0.00     0.186 C 
ENDROOT
BRANCH   1   2
HETATM    2  C8  UNL     1     -11.453  48.832   0.377  1.00  0.00     0.248 C 
HETATM    3  N2  UNL     1     -12.529  47.966   0.560  1.00  0.00    -0.291 N 
ATOM      4  H2  UNL     1     -12.487  47.371   1.387  1.00  0.00     0.172 HD
HETATM    5  O3  UNL     1     -11.352  49.653  -0.564  1.00  0.00    -0.271 OA
BRANCH   3   6
HETATM    6  C7  UNL     1     -13.662  47.811  -0.251  1.00  0.00     0.223 C 
BRANCH   6   7
HETATM    7  N1  UNL     1     -14.255  46.584  -0.569  1.00  0.00    -0.333 N 
ATOM      8  H1  UNL     1     -15.125  46.643  -1.098  1.00  0.00     0.168 HD
BRANCH   7   9
HETATM    9  C6  UNL     1     -13.820  45.273  -0.262  1.00  0.00     0.089 C 
HETATM   10  C5  UNL     1     -12.951  44.468  -1.092  1.00  0.00     0.016 C 
BRANCH  10  11
HETATM   11  C4  UNL     1     -13.249  44.176  -2.488  1.00  0.00     0.197 C 
BRANCH  11  12
HETATM   12  O1  UNL     1     -14.219  44.944  -3.068  1.00  0.00    -0.383 OA
BRANCH  12  13
HETATM   13  C2  UNL     1     -15.242  44.196  -3.649  1.00  0.00     0.113 C 
HETATM   14  C1  UNL     1     -16.458  44.172  -2.699  1.00  0.00     0.039 C 
HETATM   15  C3  UNL     1     -15.723  44.870  -4.894  1.00  0.00     0.039 C 
ENDBRANCH  12  13
ENDBRANCH  11  12
ENDBRANCH  10  11
ENDBRANCH   7   9
ENDBRANCH   6   7
BRANCH   6  16
HETATM   16  O2  UNL     1     -14.187  48.906  -0.736  1.00  0.00    -0.332 OA
ATOM     17  H2  UNL     1     -13.641  49.680  -0.808  1.00  0.00     0.221 HD
ENDBRANCH   6  16
ENDBRANCH   3   6
ENDBRANCH   1   2
BRANCH   1  18
HETATM   18  N3  UNL     1      -9.892  47.417   1.588  1.00  0.00    -0.329 N 
HETATM   19  C10 UNL     1      -9.059  46.763   0.636  1.00  0.00     0.319 C 
HETATM   20  O4  UNL     1      -8.663  47.374  -0.412  1.00  0.00    -0.247 OA
HETATM   21  N4  UNL     1      -8.675  45.427   0.863  1.00  0.00    -0.325 N 
HETATM   22  C11 UNL     1      -7.833  44.641  -0.020  1.00  0.00     0.137 C 
HETATM   23  C14 UNL     1      -9.036  44.614   1.977  1.00  0.00     0.112 C 
HETATM   24  C12 UNL     1      -7.753  43.321   0.697  1.00  0.00     0.035 C 
HETATM   25  C13 UNL     1      -7.722  43.824   2.154  1.00  0.00     0.040 C 
HETATM   26  C16 UNL     1      -9.128  42.736   0.692  1.00  0.00    -0.072 C 
HETATM   27  C15 UNL     1      -9.886  43.515   1.459  1.00  0.00     0.002 C 
ATOM     28  H3  UNL     1     -10.203  46.921   2.424  1.00  0.00     0.165 HD
BRANCH  26  29
HETATM   29  C17 UNL     1      -9.622  41.532  -0.004  1.00  0.00     0.006 C 
HETATM   30  C18 UNL     1      -9.949  41.799  -1.457  1.00  0.00     0.014 C 
HETATM   31  C19 UNL     1      -8.555  40.466   0.057  1.00  0.00     0.014 C 
ENDBRANCH  26  29
ENDBRANCH   1  18
BRANCH   1  32
HETATM   32  C20 UNL     1     -10.670  49.433   2.688  1.00  0.00    -0.022 C 
HETATM   33  C21 UNL     1      -9.390  50.045   3.293  1.00  0.00     0.017 C 
HETATM   34  C22 UNL     1     -11.681  50.546   2.611  1.00  0.00     0.017 C 
HETATM   35  C23 UNL     1     -11.204  48.431   3.684  1.00  0.00     0.017 C 
ENDBRANCH   1  32
TORSDOF 11
ENDMDL
