MODEL 1
REMARK VINA RESULT: -7.470429822      0.000      0.000
REMARK  9 active torsions:
REMARK  status: ('A' for Active; 'I' for Inactive)
REMARK    1  A    between atoms: C2_2  and  C4_4 
REMARK    2  A    between atoms: C4_4  and  C5_5 
REMARK    3  A    between atoms: C5_5  and  C6_6 
REMARK    4  A    between atoms: C6_6  and  N1_7 
REMARK    5  A    between atoms: C6_6  and  C7_11 
REMARK       I    between atoms: C7_11  and  N2_13 
REMARK    6  A    between atoms: N2_13  and  C8_15 
REMARK    7  A    between atoms: C8_15  and  C10_17 
REMARK       I    between atoms: C10_17  and  N3_19 
REMARK    8  A    between atoms: C13_22  and  C14_23 
REMARK       I    between atoms: C14_23  and  N4_25 
REMARK    9  A    between atoms: N4_25  and  C15_26 
ROOT
HETATM    1  C10 UNL     1     -10.886  47.848  -0.450  1.00  0.00     0.243 C 
HETATM    2  O2  UNL     1     -10.443  47.902  -1.621  1.00  0.00    -0.271 OA
HETATM    3  N3  UNL     1      -9.981  48.020   0.627  1.00  0.00    -0.336 N 
HETATM    4  C11 UNL     1      -8.603  48.366   0.833  1.00  0.00     0.129 C 
HETATM    5  C12 UNL     1      -8.725  47.951   2.268  1.00  0.00     0.056 C 
HETATM    6  C13 UNL     1     -10.182  47.752   2.066  1.00  0.00     0.195 C 
ENDROOT
BRANCH   1   7
HETATM    7  C8  UNL     1     -12.303  47.615  -0.224  1.00  0.00     0.172 C 
HETATM    8  C9  UNL     1     -13.002  48.990  -0.217  1.00  0.00     0.042 C 
BRANCH   7   9
HETATM    9  N2  UNL     1     -12.821  46.800  -1.345  1.00  0.00    -0.346 N 
HETATM   10  C7  UNL     1     -13.330  45.520  -1.077  1.00  0.00     0.248 C 
HETATM   11  O1  UNL     1     -13.378  45.013   0.068  1.00  0.00    -0.271 OA
ATOM     12  H2  UNL     1     -12.806  47.162  -2.299  1.00  0.00     0.163 HD
BRANCH  10  13
HETATM   13  C6  UNL     1     -13.850  44.721  -2.266  1.00  0.00     0.274 C 
BRANCH  13  14
HETATM   14  C5  UNL     1     -14.765  43.643  -1.851  1.00  0.00     0.043 C 
BRANCH  14  15
HETATM   15  C4  UNL     1     -16.188  43.765  -2.271  1.00  0.00     0.006 C 
BRANCH  15  16
HETATM   16  C2  UNL     1     -16.379  44.647  -3.465  1.00  0.00    -0.023 C 
HETATM   17  C1  UNL     1     -16.586  43.765  -4.697  1.00  0.00     0.009 C 
HETATM   18  C3  UNL     1     -17.662  45.483  -3.266  1.00  0.00     0.009 C 
ENDBRANCH  15  16
ENDBRANCH  14  15
ENDBRANCH  13  14
BRANCH  13  19
HETATM   19  N1  UNL     1     -12.688  44.374  -3.033  1.00  0.00    -0.067 N 
ATOM     20  H13 UNL     1     -12.965  43.751  -3.792  1.00  0.00     0.275 HD
ATOM     21  H12 UNL     1     -12.378  45.194  -3.554  1.00  0.00     0.275 HD
ATOM     22  H11 UNL     1     -11.888  43.969  -2.546  1.00  0.00     0.275 HD
ENDBRANCH  13  19
ENDBRANCH  10  13
ENDBRANCH   7   9
ENDBRANCH   1   7
BRANCH   6  23
HETATM   23  C14 UNL     1     -10.625  46.279   2.236  1.00  0.00     0.310 C 
HETATM   24  O3  UNL     1     -11.808  46.276   2.764  1.00  0.00    -0.255 OA
HETATM   25  N4  UNL     1      -9.860  45.285   1.884  1.00  0.00    -0.407 NA
BRANCH  25  26
HETATM   26  C15 UNL     1      -9.024  44.189   1.499  1.00  0.00     0.178 C 
HETATM   27  C16 UNL     1      -8.005  43.834   2.578  1.00  0.00     0.022 C 
HETATM   28  C17 UNL     1      -7.245  45.006   3.074  1.00  0.00     0.013 C 
HETATM   29  C18 UNL     1      -7.241  42.614   2.235  1.00  0.00    -0.012 C 
HETATM   30  C19 UNL     1      -5.765  42.755   2.071  1.00  0.00     0.010 C 
HETATM   31  C20 UNL     1      -7.788  41.939   0.969  1.00  0.00     0.005 C 
HETATM   32  C21 UNL     1      -7.849  42.871  -0.190  1.00  0.00     0.012 C 
HETATM   33  C22 UNL     1      -8.504  44.204   0.114  1.00  0.00    -0.015 C 
HETATM   34  C23 UNL     1      -9.740  44.246  -0.803  1.00  0.00     0.018 C 
HETATM   35  C24 UNL     1      -7.620  45.326  -0.283  1.00  0.00     0.018 C 
ENDBRANCH  25  26
ENDBRANCH   6  23
TORSDOF 9
ENDMDL
MODEL 2
REMARK VINA RESULT: -7.333457330      2.743      5.789
REMARK  9 active torsions:
REMARK  status: ('A' for Active; 'I' for Inactive)
REMARK    1  A    between atoms: C2_2  and  C4_4 
REMARK    2  A    between atoms: C4_4  and  C5_5 
REMARK    3  A    between atoms: C5_5  and  C6_6 
REMARK    4  A    between atoms: C6_6  and  N1_7 
REMARK    5  A    between atoms: C6_6  and  C7_11 
REMARK       I    between atoms: C7_11  and  N2_13 
REMARK    6  A    between atoms: N2_13  and  C8_15 
REMARK    7  A    between atoms: C8_15  and  C10_17 
REMARK       I    between atoms: C10_17  and  N3_19 
REMARK    8  A    between atoms: C13_22  and  C14_23 
REMARK       I    between atoms: C14_23  and  N4_25 
REMARK    9  A    between atoms: N4_25  and  C15_26 
ROOT
HETATM    1  C10 UNL     1      -7.374  44.375   2.657  1.00  0.00     0.243 C 
HETATM    2  O2  UNL     1      -7.950  43.757   3.583  1.00  0.00    -0.271 OA
HETATM    3  N3  UNL     1      -7.350  45.792   2.699  1.00  0.00    -0.336 N 
HETATM    4  C11 UNL     1      -7.723  46.851   3.594  1.00  0.00     0.129 C 
HETATM    5  C12 UNL     1      -7.510  47.842   2.491  1.00  0.00     0.056 C 
HETATM    6  C13 UNL     1      -6.980  46.750   1.636  1.00  0.00     0.195 C 
ENDROOT
BRANCH   1   7
HETATM    7  C8  UNL     1      -6.750  43.634   1.574  1.00  0.00     0.172 C 
HETATM    8  C9  UNL     1      -5.485  42.961   2.144  1.00  0.00     0.042 C 
BRANCH   7   9
HETATM    9  N2  UNL     1      -7.701  42.597   1.116  1.00  0.00    -0.346 N 
HETATM   10  C7  UNL     1      -8.018  42.521  -0.249  1.00  0.00     0.248 C 
HETATM   11  O1  UNL     1      -7.542  43.284  -1.122  1.00  0.00    -0.271 OA
ATOM     12  H2  UNL     1      -8.121  41.949   1.782  1.00  0.00     0.163 HD
BRANCH  10  13
HETATM   13  C6  UNL     1      -9.003  41.436  -0.669  1.00  0.00     0.274 C 
BRANCH  13  14
HETATM   14  C5  UNL     1     -10.401  41.901  -0.598  1.00  0.00     0.043 C 
BRANCH  14  15
HETATM   15  C4  UNL     1     -10.970  42.516  -1.828  1.00  0.00     0.006 C 
BRANCH  15  16
HETATM   16  C2  UNL     1     -11.799  43.731  -1.554  1.00  0.00    -0.023 C 
HETATM   17  C1  UNL     1     -11.433  44.813  -2.572  1.00  0.00     0.009 C 
HETATM   18  C3  UNL     1     -13.287  43.378  -1.762  1.00  0.00     0.009 C 
ENDBRANCH  15  16
ENDBRANCH  14  15
ENDBRANCH  13  14
BRANCH  13  19
HETATM   19  N1  UNL     1      -8.632  40.270   0.081  1.00  0.00    -0.067 N 
ATOM     20  H13 UNL     1      -7.717  40.426   0.504  1.00  0.00     0.275 HD
ATOM     21  H12 UNL     1      -9.224  40.207   0.909  1.00  0.00     0.275 HD
ATOM     22  H11 UNL     1      -8.629  39.368  -0.395  1.00  0.00     0.275 HD
ENDBRANCH  13  19
ENDBRANCH  10  13
ENDBRANCH   7   9
ENDBRANCH   1   7
BRANCH   6  23
HETATM   23  C14 UNL     1      -7.856  46.469   0.392  1.00  0.00     0.310 C 
HETATM   24  O3  UNL     1      -7.068  46.162  -0.589  1.00  0.00    -0.255 OA
HETATM   25  N4  UNL     1      -9.155  46.562   0.430  1.00  0.00    -0.407 NA
BRANCH  25  26
HETATM   26  C15 UNL     1     -10.582  46.663   0.464  1.00  0.00     0.178 C 
HETATM   27  C16 UNL     1     -11.079  47.998  -0.080  1.00  0.00     0.022 C 
HETATM   28  C17 UNL     1     -10.393  49.167   0.521  1.00  0.00     0.013 C 
HETATM   29  C18 UNL     1     -12.556  48.041  -0.174  1.00  0.00    -0.012 C 
HETATM   30  C19 UNL     1     -13.264  49.066   0.646  1.00  0.00     0.010 C 
HETATM   31  C20 UNL     1     -13.184  46.676   0.144  1.00  0.00     0.005 C 
HETATM   32  C21 UNL     1     -12.751  46.146   1.465  1.00  0.00     0.012 C 
HETATM   33  C22 UNL     1     -11.252  46.189   1.695  1.00  0.00    -0.015 C 
HETATM   34  C23 UNL     1     -10.844  44.713   1.860  1.00  0.00     0.018 C 
HETATM   35  C24 UNL     1     -10.935  46.881   2.968  1.00  0.00     0.018 C 
ENDBRANCH  25  26
ENDBRANCH   6  23
TORSDOF 9
ENDMDL
MODEL 3
REMARK VINA RESULT: -7.004410837      1.432      1.850
REMARK  9 active torsions:
REMARK  status: ('A' for Active; 'I' for Inactive)
REMARK    1  A    between atoms: C2_2  and  C4_4 
REMARK    2  A    between atoms: C4_4  and  C5_5 
REMARK    3  A    between atoms: C5_5  and  C6_6 
REMARK    4  A    between atoms: C6_6  and  N1_7 
REMARK    5  A    between atoms: C6_6  and  C7_11 
REMARK       I    between atoms: C7_11  and  N2_13 
REMARK    6  A    between atoms: N2_13  and  C8_15 
REMARK    7  A    between atoms: C8_15  and  C10_17 
REMARK       I    between atoms: C10_17  and  N3_19 
REMARK    8  A    between atoms: C13_22  and  C14_23 
REMARK       I    between atoms: C14_23  and  N4_25 
REMARK    9  A    between atoms: N4_25  and  C15_26 
ROOT
HETATM    1  C10 UNL     1     -10.550  48.157  -0.315  1.00  0.00     0.243 C 
HETATM    2  O2  UNL     1     -10.209  48.306  -1.511  1.00  0.00    -0.271 OA
HETATM    3  N3  UNL     1      -9.576  47.726   0.620  1.00  0.00    -0.336 N 
HETATM    4  C11 UNL     1      -8.164  47.471   0.666  1.00  0.00     0.129 C 
HETATM    5  C12 UNL     1      -8.337  46.817   2.003  1.00  0.00     0.056 C 
HETATM    6  C13 UNL     1      -9.762  47.231   2.000  1.00  0.00     0.195 C 
ENDROOT
BRANCH   1   7
HETATM    7  C8  UNL     1     -11.921  48.429   0.085  1.00  0.00     0.172 C 
HETATM    8  C9  UNL     1     -12.137  49.953  -0.013  1.00  0.00     0.042 C 
BRANCH   7   9
HETATM    9  N2  UNL     1     -12.823  47.736  -0.862  1.00  0.00    -0.346 N 
HETATM   10  C7  UNL     1     -14.012  47.170  -0.378  1.00  0.00     0.248 C 
HETATM   11  O1  UNL     1     -14.369  47.212   0.823  1.00  0.00    -0.271 OA
ATOM     12  H2  UNL     1     -12.584  47.671  -1.852  1.00  0.00     0.163 HD
BRANCH  10  13
HETATM   13  C6  UNL     1     -14.905  46.467  -1.394  1.00  0.00     0.274 C 
BRANCH  13  14
HETATM   14  C5  UNL     1     -14.232  45.315  -2.019  1.00  0.00     0.043 C 
BRANCH  14  15
HETATM   15  C4  UNL     1     -14.668  44.942  -3.393  1.00  0.00     0.006 C 
BRANCH  15  16
HETATM   16  C2  UNL     1     -16.099  44.510  -3.463  1.00  0.00    -0.023 C 
HETATM   17  C1  UNL     1     -16.341  43.838  -4.815  1.00  0.00     0.009 C 
HETATM   18  C3  UNL     1     -16.356  43.456  -2.364  1.00  0.00     0.009 C 
ENDBRANCH  15  16
ENDBRANCH  14  15
ENDBRANCH  13  14
BRANCH  13  19
HETATM   19  N1  UNL     1     -15.411  47.508  -2.243  1.00  0.00    -0.067 N 
ATOM     20  H13 UNL     1     -14.625  47.993  -2.676  1.00  0.00     0.275 HD
ATOM     21  H12 UNL     1     -15.854  47.083  -3.058  1.00  0.00     0.275 HD
ATOM     22  H11 UNL     1     -16.047  48.196  -1.841  1.00  0.00     0.275 HD
ENDBRANCH  13  19
ENDBRANCH  10  13
ENDBRANCH   7   9
ENDBRANCH   1   7
BRANCH   6  23
HETATM   23  C14 UNL     1     -10.745  46.036   1.968  1.00  0.00     0.310 C 
HETATM   24  O3  UNL     1     -11.770  46.343   2.697  1.00  0.00    -0.255 OA
HETATM   25  N4  UNL     1     -10.484  44.950   1.299  1.00  0.00    -0.407 NA
BRANCH  25  26
HETATM   26  C15 UNL     1     -10.204  43.753   0.565  1.00  0.00     0.178 C 
HETATM   27  C16 UNL     1      -9.478  42.713   1.413  1.00  0.00     0.022 C 
HETATM   28  C17 UNL     1      -8.296  43.257   2.122  1.00  0.00     0.013 C 
HETATM   29  C18 UNL     1      -9.319  41.429   0.695  1.00  0.00    -0.012 C 
HETATM   30  C19 UNL     1      -7.927  40.960   0.434  1.00  0.00     0.010 C 
HETATM   31  C20 UNL     1     -10.068  41.431  -0.645  1.00  0.00     0.005 C 
HETATM   32  C21 UNL     1      -9.678  42.577  -1.511  1.00  0.00     0.012 C 
HETATM   33  C22 UNL     1      -9.689  43.922  -0.811  1.00  0.00    -0.015 C 
HETATM   34  C23 UNL     1     -10.753  44.742  -1.565  1.00  0.00     0.018 C 
HETATM   35  C24 UNL     1      -8.390  44.616  -0.986  1.00  0.00     0.018 C 
ENDBRANCH  25  26
ENDBRANCH   6  23
TORSDOF 9
ENDMDL
MODEL 4
REMARK VINA RESULT: -6.972601865      1.929      3.257
REMARK  9 active torsions:
REMARK  status: ('A' for Active; 'I' for Inactive)
REMARK    1  A    between atoms: C2_2  and  C4_4 
REMARK    2  A    between atoms: C4_4  and  C5_5 
REMARK    3  A    between atoms: C5_5  and  C6_6 
REMARK    4  A    between atoms: C6_6  and  N1_7 
REMARK    5  A    between atoms: C6_6  and  C7_11 
REMARK       I    between atoms: C7_11  and  N2_13 
REMARK    6  A    between atoms: N2_13  and  C8_15 
REMARK    7  A    between atoms: C8_15  and  C10_17 
REMARK       I    between atoms: C10_17  and  N3_19 
REMARK    8  A    between atoms: C13_22  and  C14_23 
REMARK       I    between atoms: C14_23  and  N4_25 
REMARK    9  A    between atoms: N4_25  and  C15_26 
ROOT
HETATM    1  C10 UNL     1     -13.744  47.195  -0.347  1.00  0.00     0.243 C 
HETATM    2  O2  UNL     1     -14.766  47.645  -0.916  1.00  0.00    -0.271 OA
HETATM    3  N3  UNL     1     -12.746  48.108   0.078  1.00  0.00    -0.336 N 
HETATM    4  C11 UNL     1     -12.549  49.527   0.164  1.00  0.00     0.129 C 
HETATM    5  C12 UNL     1     -11.100  49.296   0.464  1.00  0.00     0.056 C 
HETATM    6  C13 UNL     1     -11.364  47.837   0.524  1.00  0.00     0.195 C 
ENDROOT
BRANCH   1   7
HETATM    7  C8  UNL     1     -13.606  45.763  -0.137  1.00  0.00     0.172 C 
HETATM    8  C9  UNL     1     -13.741  45.504   1.377  1.00  0.00     0.042 C 
BRANCH   7   9
HETATM    9  N2  UNL     1     -14.705  45.083  -0.858  1.00  0.00    -0.346 N 
HETATM   10  C7  UNL     1     -14.525  44.744  -2.208  1.00  0.00     0.248 C 
HETATM   11  O1  UNL     1     -13.479  44.981  -2.855  1.00  0.00    -0.271 OA
ATOM     12  H2  UNL     1     -15.581  44.866  -0.381  1.00  0.00     0.163 HD
BRANCH  10  13
HETATM   13  C6  UNL     1     -15.687  44.046  -2.904  1.00  0.00     0.274 C 
BRANCH  13  14
HETATM   14  C5  UNL     1     -15.696  44.300  -4.356  1.00  0.00     0.043 C 
BRANCH  14  15
HETATM   15  C4  UNL     1     -16.609  45.368  -4.848  1.00  0.00     0.006 C 
BRANCH  15  16
HETATM   16  C2  UNL     1     -15.984  46.727  -4.853  1.00  0.00    -0.023 C 
HETATM   17  C1  UNL     1     -16.072  47.302  -6.267  1.00  0.00     0.009 C 
HETATM   18  C3  UNL     1     -16.796  47.652  -3.921  1.00  0.00     0.009 C 
ENDBRANCH  15  16
ENDBRANCH  14  15
ENDBRANCH  13  14
BRANCH  13  19
HETATM   19  N1  UNL     1     -16.854  44.391  -2.142  1.00  0.00    -0.067 N 
ATOM     20  H13 UNL     1     -17.035  45.389  -2.247  1.00  0.00     0.275 HD
ATOM     21  H12 UNL     1     -17.676  43.993  -2.597  1.00  0.00     0.275 HD
ATOM     22  H11 UNL     1     -16.875  44.152  -1.151  1.00  0.00     0.275 HD
ENDBRANCH  13  19
ENDBRANCH  10  13
ENDBRANCH   7   9
ENDBRANCH   1   7
BRANCH   6  23
HETATM   23  C14 UNL     1     -10.635  47.039  -0.583  1.00  0.00     0.310 C 
HETATM   24  O3  UNL     1     -10.855  47.633  -1.713  1.00  0.00    -0.255 OA
HETATM   25  N4  UNL     1      -9.950  45.963  -0.318  1.00  0.00    -0.407 NA
BRANCH  25  26
HETATM   26  C15 UNL     1      -9.197  44.779  -0.034  1.00  0.00     0.178 C 
HETATM   27  C16 UNL     1      -9.440  43.680  -1.063  1.00  0.00     0.022 C 
HETATM   28  C17 UNL     1     -10.877  43.416  -1.310  1.00  0.00     0.013 C 
HETATM   29  C18 UNL     1      -8.553  42.515  -0.845  1.00  0.00    -0.012 C 
HETATM   30  C19 UNL     1      -9.205  41.209  -0.537  1.00  0.00     0.010 C 
HETATM   31  C20 UNL     1      -7.516  42.788   0.253  1.00  0.00     0.005 C 
HETATM   32  C21 UNL     1      -8.143  43.225   1.530  1.00  0.00     0.012 C 
HETATM   33  C22 UNL     1      -9.166  44.334   1.376  1.00  0.00    -0.015 C 
HETATM   34  C23 UNL     1      -8.584  45.511   2.181  1.00  0.00     0.018 C 
HETATM   35  C24 UNL     1     -10.451  43.955   2.013  1.00  0.00     0.018 C 
ENDBRANCH  25  26
ENDBRANCH   6  23
TORSDOF 9
ENDMDL
MODEL 5
REMARK VINA RESULT: -6.941424821      1.763      6.503
REMARK  9 active torsions:
REMARK  status: ('A' for Active; 'I' for Inactive)
REMARK    1  A    between atoms: C2_2  and  C4_4 
REMARK    2  A    between atoms: C4_4  and  C5_5 
REMARK    3  A    between atoms: C5_5  and  C6_6 
REMARK    4  A    between atoms: C6_6  and  N1_7 
REMARK    5  A    between atoms: C6_6  and  C7_11 
REMARK       I    between atoms: C7_11  and  N2_13 
REMARK    6  A    between atoms: N2_13  and  C8_15 
REMARK    7  A    between atoms: C8_15  and  C10_17 
REMARK       I    between atoms: C10_17  and  N3_19 
REMARK    8  A    between atoms: C13_22  and  C14_23 
REMARK       I    between atoms: C14_23  and  N4_25 
REMARK    9  A    between atoms: N4_25  and  C15_26 
ROOT
HETATM    1  C10 UNL     1     -10.283  47.372   2.172  1.00  0.00     0.243 C 
HETATM    2  O2  UNL     1     -10.588  46.529   3.048  1.00  0.00    -0.271 OA
HETATM    3  N3  UNL     1     -11.297  48.223   1.666  1.00  0.00    -0.336 N 
HETATM    4  C11 UNL     1     -12.676  48.529   1.924  1.00  0.00     0.129 C 
HETATM    5  C12 UNL     1     -12.733  49.300   0.640  1.00  0.00     0.056 C 
HETATM    6  C13 UNL     1     -11.271  49.101   0.478  1.00  0.00     0.195 C 
ENDROOT
BRANCH   1   7
HETATM    7  C8  UNL     1      -8.910  47.460   1.701  1.00  0.00     0.172 C 
HETATM    8  C9  UNL     1      -8.248  48.648   2.428  1.00  0.00     0.042 C 
BRANCH   7   9
HETATM    9  N2  UNL     1      -8.217  46.204   2.065  1.00  0.00    -0.346 N 
HETATM   10  C7  UNL     1      -7.549  45.482   1.064  1.00  0.00     0.248 C 
HETATM   11  O1  UNL     1      -7.498  45.834  -0.137  1.00  0.00    -0.271 OA
ATOM     12  H2  UNL     1      -8.226  45.868   3.028  1.00  0.00     0.163 HD
BRANCH  10  13
HETATM   13  C6  UNL     1      -6.852  44.196   1.491  1.00  0.00     0.274 C 
BRANCH  13  14
HETATM   14  C5  UNL     1      -7.760  43.035   1.451  1.00  0.00     0.043 C 
BRANCH  14  15
HETATM   15  C4  UNL     1      -7.883  42.319   0.151  1.00  0.00     0.006 C 
BRANCH  15  16
HETATM   16  C2  UNL     1      -8.954  41.274   0.150  1.00  0.00    -0.023 C 
HETATM   17  C1  UNL     1      -9.634  41.271  -1.220  1.00  0.00     0.009 C 
HETATM   18  C3  UNL     1      -8.299  39.890   0.350  1.00  0.00     0.009 C 
ENDBRANCH  15  16
ENDBRANCH  14  15
ENDBRANCH  13  14
BRANCH  13  19
HETATM   19  N1  UNL     1      -6.195  44.508   2.728  1.00  0.00    -0.067 N 
ATOM     20  H13 UNL     1      -6.560  43.897   3.460  1.00  0.00     0.275 HD
ATOM     21  H12 UNL     1      -5.225  44.196   2.677  1.00  0.00     0.275 HD
ATOM     22  H11 UNL     1      -6.217  45.472   3.059  1.00  0.00     0.275 HD
ENDBRANCH  13  19
ENDBRANCH  10  13
ENDBRANCH   7   9
ENDBRANCH   1   7
BRANCH   6  23
HETATM   23  C14 UNL     1     -10.906  48.247  -0.760  1.00  0.00     0.310 C 
HETATM   24  O3  UNL     1      -9.892  48.803  -1.343  1.00  0.00    -0.255 OA
HETATM   25  N4  UNL     1     -11.573  47.174  -1.077  1.00  0.00    -0.407 NA
BRANCH  25  26
HETATM   26  C15 UNL     1     -12.303  45.995  -1.431  1.00  0.00     0.178 C 
HETATM   27  C16 UNL     1     -13.682  46.318  -1.996  1.00  0.00     0.022 C 
HETATM   28  C17 UNL     1     -14.458  47.256  -1.149  1.00  0.00     0.013 C 
HETATM   29  C18 UNL     1     -14.374  45.107  -2.491  1.00  0.00    -0.012 C 
HETATM   30  C19 UNL     1     -15.657  44.734  -1.829  1.00  0.00     0.010 C 
HETATM   31  C20 UNL     1     -13.457  43.875  -2.455  1.00  0.00     0.005 C 
HETATM   32  C21 UNL     1     -12.874  43.641  -1.106  1.00  0.00     0.012 C 
HETATM   33  C22 UNL     1     -12.258  44.872  -0.469  1.00  0.00    -0.015 C 
HETATM   34  C23 UNL     1     -10.769  44.516  -0.301  1.00  0.00     0.018 C 
HETATM   35  C24 UNL     1     -12.815  45.096   0.887  1.00  0.00     0.018 C 
ENDBRANCH  25  26
ENDBRANCH   6  23
TORSDOF 9
ENDMDL
