MODEL 1
REMARK VINA RESULT: -7.319237688      0.000      0.000
REMARK  3 active torsions:
REMARK  status: ('A' for Active; 'I' for Inactive)
REMARK    1  A    between atoms: N1_7  and  C7_8 
REMARK    2  A    between atoms: C9_12  and  N3_13 
REMARK    3  A    between atoms: N3_13  and  C10_15 
ROOT
HETATM    1  C7  UNL     1     -34.802  33.650  -0.431  1.00  0.00     0.683 A 
HETATM    2  N2  UNL     1     -34.176  32.533   0.047  1.00  0.00    -0.184 N 
ATOM      3  H2  UNL     1     -34.453  31.572  -0.154  1.00  0.00     0.184 HD
HETATM    4  C8  UNL     1     -33.145  32.893   0.817  1.00  0.00     0.137 A 
HETATM    5  C9  UNL     1     -32.220  32.104   1.517  1.00  0.00     0.134 A 
HETATM    6  N4  UNL     1     -31.294  32.768   2.206  1.00  0.00    -0.337 N 
ATOM      7  H4  UNL     1     -30.599  32.236   2.730  1.00  0.00     0.168 HD
HETATM    8  C16 UNL     1     -31.237  34.132   2.240  1.00  0.00     0.183 A 
HETATM    9  N5  UNL     1     -32.133  34.870   1.563  1.00  0.00    -0.336 N 
ATOM     10  H5  UNL     1     -32.082  35.888   1.594  1.00  0.00     0.168 HD
HETATM   11  C17 UNL     1     -33.097  34.268   0.845  1.00  0.00     0.153 A 
HETATM   12  N6  UNL     1     -34.111  34.698   0.080  1.00  0.00    -0.174 N 
ATOM     13  H6  UNL     1     -34.332  35.678  -0.093  1.00  0.00     0.186 HD
ENDROOT
BRANCH   5  14
HETATM   14  N3  UNL     1     -32.318  30.890   1.452  1.00  0.00    -0.370 N 
ATOM     15  H3  UNL     1     -32.475  30.517   2.389  1.00  0.00     0.161 HD
BRANCH  14  16
HETATM   16  C10 UNL     1     -32.291  29.839   0.540  1.00  0.00     0.083 C 
HETATM   17  C11 UNL     1     -33.294  28.762   0.982  1.00  0.00     0.025 C 
HETATM   18  C12 UNL     1     -33.584  27.812  -0.165  1.00  0.00     0.002 C 
HETATM   19  C13 UNL     1     -32.290  27.380  -0.830  1.00  0.00     0.000 C 
HETATM   20  C14 UNL     1     -31.112  27.684   0.053  1.00  0.00     0.002 C 
HETATM   21  C15 UNL     1     -30.960  29.146   0.351  1.00  0.00     0.025 C 
ENDBRANCH  14  16
ENDBRANCH   5  14
BRANCH   1  22
HETATM   22  N1  UNL     1     -35.932  33.721  -1.279  1.00  0.00    -0.209 N 
HETATM   23  C2  UNL     1     -37.309  33.739  -0.853  1.00  0.00     0.042 C 
HETATM   24  C1  UNL     1     -37.991  32.408  -1.091  1.00  0.00     0.039 C 
HETATM   25  C3  UNL     1     -37.446  34.172   0.592  1.00  0.00     0.039 C 
HETATM   26  C4  UNL     1     -37.940  34.746  -1.782  1.00  0.00     0.032 C 
HETATM   27  C5  UNL     1     -37.247  34.401  -3.099  1.00  0.00     0.023 C 
HETATM   28  C6  UNL     1     -35.934  33.787  -2.720  1.00  0.00     0.142 C 
ENDBRANCH   1  22
TORSDOF 3
ENDMDL
MODEL 2
REMARK VINA RESULT: -7.224997908      0.769      1.908
REMARK  3 active torsions:
REMARK  status: ('A' for Active; 'I' for Inactive)
REMARK    1  A    between atoms: N1_7  and  C7_8 
REMARK    2  A    between atoms: C9_12  and  N3_13 
REMARK    3  A    between atoms: N3_13  and  C10_15 
ROOT
HETATM    1  C7  UNL     1     -35.189  33.299   0.271  1.00  0.00     0.683 A 
HETATM    2  N2  UNL     1     -34.605  32.164   0.759  1.00  0.00    -0.184 N 
ATOM      3  H2  UNL     1     -35.031  31.238   0.761  1.00  0.00     0.184 HD
HETATM    4  C8  UNL     1     -33.389  32.455   1.232  1.00  0.00     0.137 A 
HETATM    5  C9  UNL     1     -32.426  31.623   1.824  1.00  0.00     0.134 A 
HETATM    6  N4  UNL     1     -31.295  32.219   2.197  1.00  0.00    -0.337 N 
ATOM      7  H4  UNL     1     -30.565  31.654   2.631  1.00  0.00     0.168 HD
HETATM    8  C16 UNL     1     -31.073  33.555   2.023  1.00  0.00     0.183 A 
HETATM    9  N5  UNL     1     -32.009  34.334   1.454  1.00  0.00    -0.336 N 
ATOM     10  H5  UNL     1     -31.833  35.331   1.327  1.00  0.00     0.168 HD
HETATM   11  C17 UNL     1     -33.175  33.802   1.052  1.00  0.00     0.153 A 
HETATM   12  N6  UNL     1     -34.281  34.286   0.468  1.00  0.00    -0.174 N 
ATOM     13  H6  UNL     1     -34.420  35.263   0.208  1.00  0.00     0.186 HD
ENDROOT
BRANCH   5  14
HETATM   14  N3  UNL     1     -32.678  30.437   1.955  1.00  0.00    -0.370 N 
ATOM     15  H3  UNL     1     -33.128  30.290   2.859  1.00  0.00     0.161 HD
BRANCH  14  16
HETATM   16  C10 UNL     1     -32.563  29.216   1.297  1.00  0.00     0.083 C 
HETATM   17  C11 UNL     1     -31.430  29.306   0.263  1.00  0.00     0.025 C 
HETATM   18  C12 UNL     1     -31.012  27.917  -0.180  1.00  0.00     0.002 C 
HETATM   19  C13 UNL     1     -32.234  27.078  -0.504  1.00  0.00     0.000 C 
HETATM   20  C14 UNL     1     -33.446  27.950  -0.674  1.00  0.00     0.002 C 
HETATM   21  C15 UNL     1     -33.790  28.730   0.560  1.00  0.00     0.025 C 
ENDBRANCH  14  16
ENDBRANCH   5  14
BRANCH   1  22
HETATM   22  N1  UNL     1     -36.467  33.438  -0.318  1.00  0.00    -0.209 N 
HETATM   23  C2  UNL     1     -36.740  33.549  -1.729  1.00  0.00     0.042 C 
HETATM   24  C1  UNL     1     -37.089  34.968  -2.128  1.00  0.00     0.039 C 
HETATM   25  C3  UNL     1     -35.600  33.011  -2.567  1.00  0.00     0.039 C 
HETATM   26  C4  UNL     1     -37.982  32.710  -1.903  1.00  0.00     0.032 C 
HETATM   27  C5  UNL     1     -38.763  33.083  -0.644  1.00  0.00     0.023 C 
HETATM   28  C6  UNL     1     -37.737  33.499   0.364  1.00  0.00     0.142 C 
ENDBRANCH   1  22
TORSDOF 3
ENDMDL
MODEL 3
REMARK VINA RESULT: -7.206471282      0.523      1.140
REMARK  3 active torsions:
REMARK  status: ('A' for Active; 'I' for Inactive)
REMARK    1  A    between atoms: N1_7  and  C7_8 
REMARK    2  A    between atoms: C9_12  and  N3_13 
REMARK    3  A    between atoms: N3_13  and  C10_15 
ROOT
HETATM    1  C7  UNL     1     -34.912  33.378  -0.401  1.00  0.00     0.683 A 
HETATM    2  N2  UNL     1     -34.477  32.246   0.228  1.00  0.00    -0.184 N 
ATOM      3  H2  UNL     1     -34.880  31.316   0.110  1.00  0.00     0.184 HD
HETATM    4  C8  UNL     1     -33.443  32.544   1.021  1.00  0.00     0.137 A 
HETATM    5  C9  UNL     1     -32.676  31.717   1.856  1.00  0.00     0.134 A 
HETATM    6  N4  UNL     1     -31.699  32.320   2.530  1.00  0.00    -0.337 N 
ATOM      7  H4  UNL     1     -31.113  31.759   3.149  1.00  0.00     0.168 HD
HETATM    8  C16 UNL     1     -31.447  33.658   2.426  1.00  0.00     0.183 A 
HETATM    9  N5  UNL     1     -32.194  34.433   1.620  1.00  0.00    -0.336 N 
ATOM     10  H5  UNL     1     -31.999  35.431   1.549  1.00  0.00     0.168 HD
HETATM   11  C17 UNL     1     -33.199  33.893   0.909  1.00  0.00     0.153 A 
HETATM   12  N6  UNL     1     -34.103  34.371   0.041  1.00  0.00    -0.174 N 
ATOM     13  H6  UNL     1     -34.172  35.348  -0.246  1.00  0.00     0.186 HD
ENDROOT
BRANCH   5  14
HETATM   14  N3  UNL     1     -32.946  30.529   1.911  1.00  0.00    -0.370 N 
ATOM     15  H3  UNL     1     -33.667  30.382   2.617  1.00  0.00     0.161 HD
BRANCH  14  16
HETATM   16  C10 UNL     1     -32.607  29.304   1.341  1.00  0.00     0.083 C 
HETATM   17  C11 UNL     1     -31.474  29.518   0.326  1.00  0.00     0.025 C 
HETATM   18  C12 UNL     1     -30.816  28.193  -0.012  1.00  0.00     0.002 C 
HETATM   19  C13 UNL     1     -31.870  27.140  -0.300  1.00  0.00     0.000 C 
HETATM   20  C14 UNL     1     -33.206  27.781  -0.554  1.00  0.00     0.002 C 
HETATM   21  C15 UNL     1     -33.713  28.571   0.617  1.00  0.00     0.025 C 
ENDBRANCH  14  16
ENDBRANCH   5  14
BRANCH   1  22
HETATM   22  N1  UNL     1     -35.977  33.510  -1.322  1.00  0.00    -0.209 N 
HETATM   23  C2  UNL     1     -37.360  33.743  -0.988  1.00  0.00     0.042 C 
HETATM   24  C1  UNL     1     -38.199  32.493  -1.149  1.00  0.00     0.039 C 
HETATM   25  C3  UNL     1     -37.513  34.327   0.401  1.00  0.00     0.039 C 
HETATM   26  C4  UNL     1     -37.805  34.728  -2.041  1.00  0.00     0.032 C 
HETATM   27  C5  UNL     1     -37.097  34.173  -3.275  1.00  0.00     0.023 C 
HETATM   28  C6  UNL     1     -35.897  33.437  -2.760  1.00  0.00     0.142 C 
ENDBRANCH   1  22
TORSDOF 3
ENDMDL
MODEL 4
REMARK VINA RESULT: -7.175478126      0.604      1.559
REMARK  3 active torsions:
REMARK  status: ('A' for Active; 'I' for Inactive)
REMARK    1  A    between atoms: N1_7  and  C7_8 
REMARK    2  A    between atoms: C9_12  and  N3_13 
REMARK    3  A    between atoms: N3_13  and  C10_15 
ROOT
HETATM    1  C7  UNL     1     -35.077  33.351   0.120  1.00  0.00     0.683 A 
HETATM    2  N2  UNL     1     -34.265  32.296   0.426  1.00  0.00    -0.184 N 
ATOM      3  H2  UNL     1     -34.496  31.313   0.278  1.00  0.00     0.184 HD
HETATM    4  C8  UNL     1     -33.121  32.749   0.949  1.00  0.00     0.137 A 
HETATM    5  C9  UNL     1     -31.997  32.047   1.410  1.00  0.00     0.134 A 
HETATM    6  N4  UNL     1     -31.000  32.794   1.881  1.00  0.00    -0.337 N 
ATOM      7  H4  UNL     1     -30.161  32.328   2.226  1.00  0.00     0.168 HD
HETATM    8  C16 UNL     1     -31.056  34.158   1.923  1.00  0.00     0.183 A 
HETATM    9  N5  UNL     1     -32.143  34.810   1.477  1.00  0.00    -0.336 N 
ATOM     10  H5  UNL     1     -32.175  35.829   1.511  1.00  0.00     0.168 HD
HETATM   11  C17 UNL     1     -33.188  34.122   0.986  1.00  0.00     0.153 A 
HETATM   12  N6  UNL     1     -34.383  34.458   0.477  1.00  0.00    -0.174 N 
ATOM     13  H6  UNL     1     -34.721  35.414   0.374  1.00  0.00     0.186 HD
ENDROOT
BRANCH   5  14
HETATM   14  N3  UNL     1     -32.002  30.829   1.350  1.00  0.00    -0.370 N 
ATOM     15  H3  UNL     1     -31.840  30.448   2.282  1.00  0.00     0.161 HD
BRANCH  14  16
HETATM   16  C10 UNL     1     -32.152  29.780   0.447  1.00  0.00     0.083 C 
HETATM   17  C11 UNL     1     -33.191  28.790   0.994  1.00  0.00     0.025 C 
HETATM   18  C12 UNL     1     -33.671  27.868  -0.111  1.00  0.00     0.002 C 
HETATM   19  C13 UNL     1     -32.490  27.331  -0.898  1.00  0.00     0.000 C 
HETATM   20  C14 UNL     1     -31.209  27.536  -0.139  1.00  0.00     0.002 C 
HETATM   21  C15 UNL     1     -30.908  28.980   0.132  1.00  0.00     0.025 C 
ENDBRANCH  14  16
ENDBRANCH   5  14
BRANCH   1  22
HETATM   22  N1  UNL     1     -36.372  33.318  -0.450  1.00  0.00    -0.209 N 
HETATM   23  C2  UNL     1     -36.679  33.408  -1.856  1.00  0.00     0.042 C 
HETATM   24  C1  UNL     1     -37.227  34.770  -2.229  1.00  0.00     0.039 C 
HETATM   25  C3  UNL     1     -35.487  33.045  -2.717  1.00  0.00     0.039 C 
HETATM   26  C4  UNL     1     -37.795  32.407  -2.026  1.00  0.00     0.032 C 
HETATM   27  C5  UNL     1     -38.600  32.652  -0.752  1.00  0.00     0.023 C 
HETATM   28  C6  UNL     1     -37.627  33.194   0.249  1.00  0.00     0.142 C 
ENDBRANCH   1  22
TORSDOF 3
ENDMDL
MODEL 5
REMARK VINA RESULT: -7.139684501      3.131      5.795
REMARK  3 active torsions:
REMARK  status: ('A' for Active; 'I' for Inactive)
REMARK    1  A    between atoms: N1_7  and  C7_8 
REMARK    2  A    between atoms: C9_12  and  N3_13 
REMARK    3  A    between atoms: N3_13  and  C10_15 
ROOT
HETATM    1  C7  UNL     1     -34.582  27.647  -1.371  1.00  0.00     0.683 A 
HETATM    2  N2  UNL     1     -34.346  28.615  -0.437  1.00  0.00    -0.184 N 
ATOM      3  H2  UNL     1     -35.031  29.295  -0.108  1.00  0.00     0.184 HD
HETATM    4  C8  UNL     1     -33.078  28.536  -0.021  1.00  0.00     0.137 A 
HETATM    5  C9  UNL     1     -32.384  29.311   0.921  1.00  0.00     0.134 A 
HETATM    6  N4  UNL     1     -31.110  28.979   1.121  1.00  0.00    -0.337 N 
ATOM      7  H4  UNL     1     -30.566  29.513   1.798  1.00  0.00     0.168 HD
HETATM    8  C16 UNL     1     -30.503  27.952   0.457  1.00  0.00     0.183 A 
HETATM    9  N5  UNL     1     -31.185  27.221  -0.441  1.00  0.00    -0.336 N 
ATOM     10  H5  UNL     1     -30.723  26.455  -0.932  1.00  0.00     0.168 HD
HETATM   11  C17 UNL     1     -32.476  27.498  -0.695  1.00  0.00     0.153 A 
HETATM   12  N6  UNL     1     -33.410  26.980  -1.505  1.00  0.00    -0.174 N 
ATOM     13  H6  UNL     1     -33.260  26.191  -2.134  1.00  0.00     0.186 HD
ENDROOT
BRANCH   5  14
HETATM   14  N3  UNL     1     -32.976  30.217   1.483  1.00  0.00    -0.370 N 
ATOM     15  H3  UNL     1     -33.786  29.834   1.971  1.00  0.00     0.161 HD
BRANCH  14  16
HETATM   16  C10 UNL     1     -32.927  31.593   1.689  1.00  0.00     0.083 C 
HETATM   17  C11 UNL     1     -32.686  32.294   0.343  1.00  0.00     0.025 C 
HETATM   18  C12 UNL     1     -33.020  33.770   0.453  1.00  0.00     0.002 C 
HETATM   19  C13 UNL     1     -32.400  34.358   1.707  1.00  0.00     0.000 C 
HETATM   20  C14 UNL     1     -31.337  33.444   2.252  1.00  0.00     0.002 C 
HETATM   21  C15 UNL     1     -31.863  32.094   2.640  1.00  0.00     0.025 C 
ENDBRANCH  14  16
ENDBRANCH   5  14
BRANCH   1  22
HETATM   22  N1  UNL     1     -35.785  27.380  -2.066  1.00  0.00    -0.209 N 
HETATM   23  C2  UNL     1     -36.761  28.360  -2.474  1.00  0.00     0.042 C 
HETATM   24  C1  UNL     1     -37.993  28.332  -1.593  1.00  0.00     0.039 C 
HETATM   25  C3  UNL     1     -36.168  29.751  -2.540  1.00  0.00     0.039 C 
HETATM   26  C4  UNL     1     -37.172  27.880  -3.845  1.00  0.00     0.032 C 
HETATM   27  C5  UNL     1     -37.222  26.371  -3.621  1.00  0.00     0.023 C 
HETATM   28  C6  UNL     1     -36.273  26.093  -2.496  1.00  0.00     0.142 C 
ENDBRANCH   1  22
TORSDOF 3
ENDMDL
