MODEL 1
REMARK VINA RESULT: -6.525185083      0.000      0.000
REMARK  5 active torsions:
REMARK  status: ('A' for Active; 'I' for Inactive)
REMARK    1  A    between atoms: S1_2  and  C2_3 
REMARK    2  A    between atoms: C2_3  and  C3_7 
REMARK    3  A    between atoms: C3_7  and  C4_8 
REMARK    4  A    between atoms: C4_8  and  O2_10 
REMARK    5  A    between atoms: O2_10  and  C5_11 
ROOT
HETATM    1  C3  UNL     1     -22.810  82.855  12.339  1.00  0.00     0.104 C 
HETATM    2  C8  UNL     1     -22.411  84.249  11.800  1.00  0.00     0.015 C 
HETATM    3  C9  UNL     1     -20.993  84.565  12.204  1.00  0.00     0.007 C 
HETATM    4  C10 UNL     1     -21.094  84.655  13.713  1.00  0.00     0.011 C 
HETATM    5  C11 UNL     1     -22.547  84.493  14.037  1.00  0.00    -0.032 C 
HETATM    6  C12 UNL     1     -23.028  85.112  15.262  1.00  0.00     0.010 C 
HETATM    7  C13 UNL     1     -22.923  84.311  16.510  1.00  0.00     0.001 C 
HETATM    8  C14 UNL     1     -24.244  83.550  16.672  1.00  0.00     0.000 C 
HETATM    9  C15 UNL     1     -24.147  82.337  15.805  1.00  0.00     0.000 C 
HETATM   10  C16 UNL     1     -24.293  82.726  14.350  1.00  0.00     0.007 C 
HETATM   11  C17 UNL     1     -22.904  83.038  13.826  1.00  0.00     0.020 C 
HETATM   12  C18 UNL     1     -23.176  85.110  12.786  1.00  0.00    -0.004 C 
HETATM   13  C19 UNL     1     -22.792  86.566  12.673  1.00  0.00     0.011 C 
ENDROOT
BRANCH   1  14
HETATM   14  C2  UNL     1     -21.737  81.906  11.966  1.00  0.00     0.059 C 
HETATM   15  N1  UNL     1     -21.475  80.876  12.593  1.00  0.00    -0.396 N 
ATOM     16  H12 UNL     1     -20.735  80.222  12.336  1.00  0.00     0.156 HD
ATOM     17  H11 UNL     1     -22.010  80.650  13.432  1.00  0.00     0.156 HD
BRANCH  14  18
HETATM   18  S1  UNL     1     -20.787  82.309  10.476  1.00  0.00    -0.120 SA
HETATM   19  C1  UNL     1     -19.058  81.881  10.798  1.00  0.00     0.097 C 
ENDBRANCH  14  18
ENDBRANCH   1  14
BRANCH   1  20
HETATM   20  C4  UNL     1     -24.090  82.440  11.700  1.00  0.00     0.275 C 
HETATM   21  O1  UNL     1     -24.642  83.253  10.879  1.00  0.00    -0.264 OA
BRANCH  20  22
HETATM   22  O2  UNL     1     -24.764  81.273  11.886  1.00  0.00    -0.316 OA
BRANCH  22  23
HETATM   23  C5  UNL     1     -26.098  81.025  11.557  1.00  0.00     0.123 C 
HETATM   24  C6  UNL     1     -26.775  80.445  12.783  1.00  0.00     0.040 C 
HETATM   25  C7  UNL     1     -26.259  80.020  10.442  1.00  0.00     0.040 C 
ENDBRANCH  22  23
ENDBRANCH  20  22
ENDBRANCH   1  20
TORSDOF 5
ENDMDL
MODEL 2
REMARK VINA RESULT: -6.384336802      1.849      4.071
REMARK  5 active torsions:
REMARK  status: ('A' for Active; 'I' for Inactive)
REMARK    1  A    between atoms: S1_2  and  C2_3 
REMARK    2  A    between atoms: C2_3  and  C3_7 
REMARK    3  A    between atoms: C3_7  and  C4_8 
REMARK    4  A    between atoms: C4_8  and  O2_10 
REMARK    5  A    between atoms: O2_10  and  C5_11 
ROOT
HETATM    1  C3  UNL     1     -22.368  82.943  11.195  1.00  0.00     0.104 C 
HETATM    2  C8  UNL     1     -21.202  82.317  10.395  1.00  0.00     0.015 C 
HETATM    3  C9  UNL     1     -19.968  82.250  11.258  1.00  0.00     0.007 C 
HETATM    4  C10 UNL     1     -19.650  83.714  11.487  1.00  0.00     0.011 C 
HETATM    5  C11 UNL     1     -20.640  84.482  10.668  1.00  0.00    -0.032 C 
HETATM    6  C12 UNL     1     -20.239  85.802  10.206  1.00  0.00     0.010 C 
HETATM    7  C13 UNL     1     -20.495  86.944  11.122  1.00  0.00     0.001 C 
HETATM    8  C14 UNL     1     -21.873  87.512  10.762  1.00  0.00     0.000 C 
HETATM    9  C15 UNL     1     -22.882  86.650  11.448  1.00  0.00     0.000 C 
HETATM   10  C16 UNL     1     -22.998  85.320  10.735  1.00  0.00     0.007 C 
HETATM   11  C17 UNL     1     -21.981  84.383  11.360  1.00  0.00     0.020 C 
HETATM   12  C18 UNL     1     -20.858  83.502   9.514  1.00  0.00    -0.004 C 
HETATM   13  C19 UNL     1     -19.566  83.284   8.763  1.00  0.00     0.011 C 
ENDROOT
BRANCH   1  14
HETATM   14  C2  UNL     1     -22.448  82.240  12.495  1.00  0.00     0.059 C 
HETATM   15  N1  UNL     1     -22.500  81.013  12.617  1.00  0.00    -0.396 N 
ATOM     16  H12 UNL     1     -22.555  80.528  13.513  1.00  0.00     0.156 HD
ATOM     17  H11 UNL     1     -22.503  80.426  11.782  1.00  0.00     0.156 HD
BRANCH  14  18
HETATM   18  S1  UNL     1     -22.443  83.283  13.978  1.00  0.00    -0.120 SA
HETATM   19  C1  UNL     1     -24.165  83.547  14.466  1.00  0.00     0.097 C 
ENDBRANCH  14  18
ENDBRANCH   1  14
BRANCH   1  20
HETATM   20  C4  UNL     1     -23.635  82.741  10.438  1.00  0.00     0.275 C 
HETATM   21  O1  UNL     1     -23.555  82.555   9.174  1.00  0.00    -0.264 OA
BRANCH  20  22
HETATM   22  O2  UNL     1     -24.900  82.730  10.937  1.00  0.00    -0.316 OA
BRANCH  22  23
HETATM   23  C5  UNL     1     -25.770  81.638  10.965  1.00  0.00     0.123 C 
HETATM   24  C6  UNL     1     -26.927  81.946  10.035  1.00  0.00     0.040 C 
HETATM   25  C7  UNL     1     -26.356  81.379  12.332  1.00  0.00     0.040 C 
ENDBRANCH  22  23
ENDBRANCH  20  22
ENDBRANCH   1  20
TORSDOF 5
ENDMDL
MODEL 3
REMARK VINA RESULT: -6.328475689      3.101      5.822
REMARK  5 active torsions:
REMARK  status: ('A' for Active; 'I' for Inactive)
REMARK    1  A    between atoms: S1_2  and  C2_3 
REMARK    2  A    between atoms: C2_3  and  C3_7 
REMARK    3  A    between atoms: C3_7  and  C4_8 
REMARK    4  A    between atoms: C4_8  and  O2_10 
REMARK    5  A    between atoms: O2_10  and  C5_11 
ROOT
HETATM    1  C3  UNL     1     -25.926  81.412  10.591  1.00  0.00     0.104 C 
HETATM    2  C8  UNL     1     -24.869  81.588   9.476  1.00  0.00     0.015 C 
HETATM    3  C9  UNL     1     -24.359  83.007   9.475  1.00  0.00     0.007 C 
HETATM    4  C10 UNL     1     -25.592  83.797   9.084  1.00  0.00     0.011 C 
HETATM    5  C11 UNL     1     -26.655  82.783   8.796  1.00  0.00    -0.032 C 
HETATM    6  C12 UNL     1     -27.699  83.162   7.856  1.00  0.00     0.010 C 
HETATM    7  C13 UNL     1     -28.883  83.869   8.412  1.00  0.00     0.001 C 
HETATM    8  C14 UNL     1     -29.927  82.800   8.754  1.00  0.00     0.000 C 
HETATM    9  C15 UNL     1     -29.549  82.245  10.089  1.00  0.00     0.000 C 
HETATM   10  C16 UNL     1     -28.344  81.340   9.952  1.00  0.00     0.007 C 
HETATM   11  C17 UNL     1     -27.109  82.206  10.118  1.00  0.00     0.020 C 
HETATM   12  C18 UNL     1     -25.796  81.628   8.277  1.00  0.00    -0.004 C 
HETATM   13  C19 UNL     1     -25.068  82.042   7.020  1.00  0.00     0.011 C 
ENDROOT
BRANCH   1  14
HETATM   14  C2  UNL     1     -25.355  81.963  11.841  1.00  0.00     0.059 C 
HETATM   15  N1  UNL     1     -26.030  82.338  12.803  1.00  0.00    -0.396 N 
ATOM     16  H12 UNL     1     -25.637  82.718  13.665  1.00  0.00     0.156 HD
ATOM     17  H11 UNL     1     -27.048  82.286  12.753  1.00  0.00     0.156 HD
BRANCH  14  18
HETATM   18  S1  UNL     1     -23.547  82.055  11.930  1.00  0.00    -0.120 SA
HETATM   19  C1  UNL     1     -23.087  82.098  13.679  1.00  0.00     0.097 C 
ENDBRANCH  14  18
ENDBRANCH   1  14
BRANCH   1  20
HETATM   20  C4  UNL     1     -26.205  79.959  10.766  1.00  0.00     0.275 C 
HETATM   21  O1  UNL     1     -25.882  79.168   9.812  1.00  0.00    -0.264 OA
BRANCH  20  22
HETATM   22  O2  UNL     1     -26.775  79.353  11.842  1.00  0.00    -0.316 OA
BRANCH  22  23
HETATM   23  C5  UNL     1     -26.115  78.598  12.813  1.00  0.00     0.123 C 
HETATM   24  C6  UNL     1     -26.411  79.222  14.162  1.00  0.00     0.040 C 
HETATM   25  C7  UNL     1     -24.614  78.593  12.645  1.00  0.00     0.040 C 
ENDBRANCH  22  23
ENDBRANCH  20  22
ENDBRANCH   1  20
TORSDOF 5
ENDMDL
MODEL 4
REMARK VINA RESULT: -6.293176905      2.395      4.590
REMARK  5 active torsions:
REMARK  status: ('A' for Active; 'I' for Inactive)
REMARK    1  A    between atoms: S1_2  and  C2_3 
REMARK    2  A    between atoms: C2_3  and  C3_7 
REMARK    3  A    between atoms: C3_7  and  C4_8 
REMARK    4  A    between atoms: C4_8  and  O2_10 
REMARK    5  A    between atoms: O2_10  and  C5_11 
ROOT
HETATM    1  C3  UNL     1     -22.195  82.975  11.092  1.00  0.00     0.104 C 
HETATM    2  C8  UNL     1     -21.035  82.293  10.330  1.00  0.00     0.015 C 
HETATM    3  C9  UNL     1     -19.814  82.227  11.213  1.00  0.00     0.007 C 
HETATM    4  C10 UNL     1     -19.463  83.689  11.397  1.00  0.00     0.011 C 
HETATM    5  C11 UNL     1     -20.423  84.452  10.538  1.00  0.00    -0.032 C 
HETATM    6  C12 UNL     1     -19.984  85.745  10.037  1.00  0.00     0.010 C 
HETATM    7  C13 UNL     1     -20.223  86.925  10.909  1.00  0.00     0.001 C 
HETATM    8  C14 UNL     1     -21.582  87.513  10.511  1.00  0.00     0.000 C 
HETATM    9  C15 UNL     1     -22.621  86.700  11.212  1.00  0.00     0.000 C 
HETATM   10  C16 UNL     1     -22.760  85.349  10.543  1.00  0.00     0.007 C 
HETATM   11  C17 UNL     1     -21.775  84.410  11.214  1.00  0.00     0.020 C 
HETATM   12  C18 UNL     1     -20.649  83.438   9.415  1.00  0.00    -0.004 C 
HETATM   13  C19 UNL     1     -19.353  83.164   8.690  1.00  0.00     0.011 C 
ENDROOT
BRANCH   1  14
HETATM   14  C2  UNL     1     -22.309  82.319  12.414  1.00  0.00     0.059 C 
HETATM   15  N1  UNL     1     -22.364  81.097  12.579  1.00  0.00    -0.396 N 
ATOM     16  H12 UNL     1     -22.443  80.645  13.490  1.00  0.00     0.156 HD
ATOM     17  H11 UNL     1     -22.344  80.480  11.766  1.00  0.00     0.156 HD
BRANCH  14  18
HETATM   18  S1  UNL     1     -22.346  83.415  13.858  1.00  0.00    -0.120 SA
HETATM   19  C1  UNL     1     -24.064  83.532  14.412  1.00  0.00     0.097 C 
ENDBRANCH  14  18
ENDBRANCH   1  14
BRANCH   1  20
HETATM   20  C4  UNL     1     -23.456  82.777  10.325  1.00  0.00     0.275 C 
HETATM   21  O1  UNL     1     -24.565  82.879  10.958  1.00  0.00    -0.264 OA
BRANCH  20  22
HETATM   22  O2  UNL     1     -23.580  82.494   9.000  1.00  0.00    -0.316 OA
BRANCH  22  23
HETATM   23  C5  UNL     1     -24.379  83.174   8.079  1.00  0.00     0.123 C 
HETATM   24  C6  UNL     1     -25.073  82.138   7.217  1.00  0.00     0.040 C 
HETATM   25  C7  UNL     1     -23.589  84.066   7.151  1.00  0.00     0.040 C 
ENDBRANCH  22  23
ENDBRANCH  20  22
ENDBRANCH   1  20
TORSDOF 5
ENDMDL
MODEL 5
REMARK VINA RESULT: -6.288054268      5.689      7.472
REMARK  5 active torsions:
REMARK  status: ('A' for Active; 'I' for Inactive)
REMARK    1  A    between atoms: S1_2  and  C2_3 
REMARK    2  A    between atoms: C2_3  and  C3_7 
REMARK    3  A    between atoms: C3_7  and  C4_8 
REMARK    4  A    between atoms: C4_8  and  O2_10 
REMARK    5  A    between atoms: O2_10  and  C5_11 
ROOT
HETATM    1  C3  UNL     1     -25.486  83.802   7.111  1.00  0.00     0.104 C 
HETATM    2  C8  UNL     1     -26.435  83.654   5.899  1.00  0.00     0.015 C 
HETATM    3  C9  UNL     1     -25.634  83.351   4.657  1.00  0.00     0.007 C 
HETATM    4  C10 UNL     1     -24.826  84.618   4.472  1.00  0.00     0.011 C 
HETATM    5  C11 UNL     1     -25.296  85.564   5.533  1.00  0.00    -0.032 C 
HETATM    6  C12 UNL     1     -25.176  86.987   5.256  1.00  0.00     0.010 C 
HETATM    7  C13 UNL     1     -23.886  87.637   5.608  1.00  0.00     0.001 C 
HETATM    8  C14 UNL     1     -24.028  88.181   7.034  1.00  0.00     0.000 C 
HETATM    9  C15 UNL     1     -23.778  87.033   7.957  1.00  0.00     0.000 C 
HETATM   10  C16 UNL     1     -24.969  86.099   7.957  1.00  0.00     0.007 C 
HETATM   11  C17 UNL     1     -24.744  85.081   6.855  1.00  0.00     0.020 C 
HETATM   12  C18 UNL     1     -26.753  85.118   5.669  1.00  0.00    -0.004 C 
HETATM   13  C19 UNL     1     -27.489  85.334   4.368  1.00  0.00     0.011 C 
ENDROOT
BRANCH   1  14
HETATM   14  C2  UNL     1     -24.582  82.630   7.118  1.00  0.00     0.059 C 
HETATM   15  N1  UNL     1     -24.967  81.458   7.141  1.00  0.00    -0.396 N 
ATOM     16  H12 UNL     1     -24.344  80.650   7.146  1.00  0.00     0.156 HD
ATOM     17  H11 UNL     1     -25.968  81.260   7.170  1.00  0.00     0.156 HD
BRANCH  14  18
HETATM   18  S1  UNL     1     -22.804  82.983   7.066  1.00  0.00    -0.120 SA
HETATM   19  C1  UNL     1     -22.190  82.944   8.767  1.00  0.00     0.097 C 
ENDBRANCH  14  18
ENDBRANCH   1  14
BRANCH   1  20
HETATM   20  C4  UNL     1     -26.298  83.815   8.360  1.00  0.00     0.275 C 
HETATM   21  O1  UNL     1     -25.691  83.626   9.471  1.00  0.00    -0.264 OA
BRANCH  20  22
HETATM   22  O2  UNL     1     -27.640  84.007   8.468  1.00  0.00    -0.316 OA
BRANCH  22  23
HETATM   23  C5  UNL     1     -28.628  83.024   8.371  1.00  0.00     0.123 C 
HETATM   24  C6  UNL     1     -29.830  83.645   7.688  1.00  0.00     0.040 C 
HETATM   25  C7  UNL     1     -29.094  82.513   9.713  1.00  0.00     0.040 C 
ENDBRANCH  22  23
ENDBRANCH  20  22
ENDBRANCH   1  20
TORSDOF 5
ENDMDL
