MODEL 1
REMARK VINA RESULT: -8.068600150      0.000      0.000
REMARK  7 active torsions:
REMARK  status: ('A' for Active; 'I' for Inactive)
REMARK    1  A    between atoms: O1_2  and  C2_3 
REMARK    2  A    between atoms: C3_4  and  C4_5 
REMARK    3  A    between atoms: C4_5  and  O2_6 
REMARK    4  A    between atoms: C4_5  and  N1_8 
REMARK    5  A    between atoms: N1_8  and  N2_10 
REMARK    6  A    between atoms: C13_21  and  N3_22 
REMARK    7  A    between atoms: C15_26  and  N4_27 
ROOT
HETATM    1  C4  UNL     1      21.077  84.921   2.999  1.00  0.00     0.168 C 
ENDROOT
BRANCH   1   2
HETATM    2  C3  UNL     1      20.152  84.431   3.971  1.00  0.00     0.054 A 
HETATM    3  C2  UNL     1      20.028  84.906   5.230  1.00  0.00     0.116 A 
HETATM    4  C15 UNL     1      19.188  84.299   6.159  1.00  0.00     0.139 A 
HETATM    5  C14 UNL     1      18.448  83.191   5.804  1.00  0.00     0.075 A 
HETATM    6  C13 UNL     1      18.558  82.703   4.535  1.00  0.00     0.106 A 
HETATM    7  C12 UNL     1      19.390  83.314   3.649  1.00  0.00     0.054 A 
BRANCH   3   8
HETATM    8  O1  UNL     1      20.717  86.026   5.665  1.00  0.00    -0.352 OA
HETATM    9  C1  UNL     1      22.061  85.890   6.159  1.00  0.00     0.210 C 
ENDBRANCH   3   8
BRANCH   4  10
HETATM   10  N4  UNL     1      19.066  84.752   7.479  1.00  0.00    -0.113 N 
HETATM   11  O6  UNL     1      19.748  84.211   8.372  1.00  0.00    -0.532 OA
HETATM   12  O7  UNL     1      18.191  85.789   7.764  1.00  0.00    -0.532 OA
ENDBRANCH   4  10
BRANCH   6  13
HETATM   13  N3  UNL     1      17.795  81.544   4.133  1.00  0.00    -0.116 N 
HETATM   14  O4  UNL     1      17.024  81.001   4.932  1.00  0.00    -0.532 OA
HETATM   15  O5  UNL     1      17.935  81.055   2.863  1.00  0.00    -0.532 OA
ENDBRANCH   6  13
ENDBRANCH   1   2
BRANCH   1  16
HETATM   16  O2  UNL     1      20.898  86.174   2.653  1.00  0.00    -0.344 OA
ATOM     17  H2  UNL     1      21.691  86.698   2.630  1.00  0.00     0.219 HD
ENDBRANCH   1  16
BRANCH   1  18
HETATM   18  N1  UNL     1      22.150  84.269   2.365  1.00  0.00    -0.278 N 
ATOM     19  H1  UNL     1      22.048  83.309   2.035  1.00  0.00     0.189 HD
BRANCH  18  20
HETATM   20  N2  UNL     1      23.381  84.967   2.189  1.00  0.00    -0.281 N 
HETATM   21  C5  UNL     1      24.216  84.593   1.285  1.00  0.00     0.137 C 
HETATM   22  O3  UNL     1      24.146  83.555   0.367  1.00  0.00    -0.332 OA
HETATM   23  C9  UNL     1      25.516  85.259   1.031  1.00  0.00     0.068 C 
HETATM   24  C6  UNL     1      25.360  83.536  -0.403  1.00  0.00     0.135 C 
HETATM   25  C7  UNL     1      26.510  83.150   0.462  1.00  0.00     0.034 C 
HETATM   26  C10 UNL     1      25.587  85.059  -0.496  1.00  0.00     0.023 C 
HETATM   27  C8  UNL     1      26.587  84.292   1.462  1.00  0.00     0.016 C 
HETATM   28  C11 UNL     1      26.917  85.403  -1.062  1.00  0.00     0.013 C 
ATOM     29  H2  UNL     1      23.601  85.765   2.785  1.00  0.00     0.189 HD
ENDBRANCH  18  20
ENDBRANCH   1  18
TORSDOF 7
ENDMDL
MODEL 2
REMARK VINA RESULT: -7.857529263      3.981      7.283
REMARK  7 active torsions:
REMARK  status: ('A' for Active; 'I' for Inactive)
REMARK    1  A    between atoms: O1_2  and  C2_3 
REMARK    2  A    between atoms: C3_4  and  C4_5 
REMARK    3  A    between atoms: C4_5  and  O2_6 
REMARK    4  A    between atoms: C4_5  and  N1_8 
REMARK    5  A    between atoms: N1_8  and  N2_10 
REMARK    6  A    between atoms: C13_21  and  N3_22 
REMARK    7  A    between atoms: C15_26  and  N4_27 
ROOT
HETATM    1  C4  UNL     1      18.283  81.498   3.614  1.00  0.00     0.168 C 
ENDROOT
BRANCH   1   2
HETATM    2  C3  UNL     1      18.125  81.321   2.205  1.00  0.00     0.054 A 
HETATM    3  C2  UNL     1      18.233  82.305   1.284  1.00  0.00     0.116 A 
HETATM    4  C15 UNL     1      17.947  82.081  -0.058  1.00  0.00     0.139 A 
HETATM    5  C14 UNL     1      17.550  80.831  -0.484  1.00  0.00     0.075 A 
HETATM    6  C13 UNL     1      17.441  79.827   0.432  1.00  0.00     0.106 A 
HETATM    7  C12 UNL     1      17.723  80.075   1.739  1.00  0.00     0.054 A 
BRANCH   3   8
HETATM    8  O1  UNL     1      18.646  83.584   1.621  1.00  0.00    -0.352 OA
HETATM    9  C1  UNL     1      20.051  83.880   1.709  1.00  0.00     0.210 C 
ENDBRANCH   3   8
BRANCH   4  10
HETATM   10  N4  UNL     1      18.021  83.092  -1.026  1.00  0.00    -0.113 N 
HETATM   11  O6  UNL     1      19.094  83.271  -1.636  1.00  0.00    -0.532 OA
HETATM   12  O7  UNL     1      16.902  83.870  -1.283  1.00  0.00    -0.532 OA
ENDBRANCH   4  10
BRANCH   6  13
HETATM   13  N3  UNL     1      17.028  78.506   0.017  1.00  0.00    -0.116 N 
HETATM   14  O4  UNL     1      16.051  77.967   0.547  1.00  0.00    -0.532 OA
HETATM   15  O5  UNL     1      17.729  77.860  -0.965  1.00  0.00    -0.532 OA
ENDBRANCH   6  13
ENDBRANCH   1   2
BRANCH   1  16
HETATM   16  O2  UNL     1      18.883  80.504   4.228  1.00  0.00    -0.344 OA
ATOM     17  H2  UNL     1      18.447  80.202   5.016  1.00  0.00     0.219 HD
ENDBRANCH   1  16
BRANCH   1  18
HETATM   18  N1  UNL     1      17.901  82.571   4.438  1.00  0.00    -0.278 N 
ATOM     19  H1  UNL     1      16.989  82.571   4.895  1.00  0.00     0.189 HD
BRANCH  18  20
HETATM   20  N2  UNL     1      18.804  83.657   4.628  1.00  0.00    -0.281 N 
HETATM   21  C5  UNL     1      19.145  84.019   5.814  1.00  0.00     0.137 C 
HETATM   22  O3  UNL     1      18.773  83.515   7.053  1.00  0.00    -0.332 OA
HETATM   23  C9  UNL     1      20.078  85.134   6.105  1.00  0.00     0.068 C 
HETATM   24  C6  UNL     1      19.405  84.298   8.079  1.00  0.00     0.135 C 
HETATM   25  C7  UNL     1      18.843  85.678   8.090  1.00  0.00     0.034 C 
HETATM   26  C10 UNL     1      20.748  84.555   7.367  1.00  0.00     0.023 C 
HETATM   27  C8  UNL     1      19.258  86.229   6.736  1.00  0.00     0.016 C 
HETATM   28  C11 UNL     1      21.591  85.550   8.081  1.00  0.00     0.013 C 
ATOM     29  H2  UNL     1      19.182  84.150   3.819  1.00  0.00     0.189 HD
ENDBRANCH  18  20
ENDBRANCH   1  18
TORSDOF 7
ENDMDL
MODEL 3
REMARK VINA RESULT: -7.840680884      3.948      6.887
REMARK  7 active torsions:
REMARK  status: ('A' for Active; 'I' for Inactive)
REMARK    1  A    between atoms: O1_2  and  C2_3 
REMARK    2  A    between atoms: C3_4  and  C4_5 
REMARK    3  A    between atoms: C4_5  and  O2_6 
REMARK    4  A    between atoms: C4_5  and  N1_8 
REMARK    5  A    between atoms: N1_8  and  N2_10 
REMARK    6  A    between atoms: C13_21  and  N3_22 
REMARK    7  A    between atoms: C15_26  and  N4_27 
ROOT
HETATM    1  C4  UNL     1      19.903  83.324   1.878  1.00  0.00     0.168 C 
ENDROOT
BRANCH   1   2
HETATM    2  C3  UNL     1      18.882  82.577   1.215  1.00  0.00     0.054 A 
HETATM    3  C2  UNL     1      18.345  81.425   1.672  1.00  0.00     0.116 A 
HETATM    4  C15 UNL     1      17.440  80.690   0.913  1.00  0.00     0.139 A 
HETATM    5  C14 UNL     1      17.062  81.134  -0.337  1.00  0.00     0.075 A 
HETATM    6  C13 UNL     1      17.591  82.299  -0.810  1.00  0.00     0.106 A 
HETATM    7  C12 UNL     1      18.477  82.995  -0.047  1.00  0.00     0.054 A 
BRANCH   3   8
HETATM    8  O1  UNL     1      18.652  80.916   2.924  1.00  0.00    -0.352 OA
HETATM    9  C1  UNL     1      18.079  81.518   4.098  1.00  0.00     0.210 C 
ENDBRANCH   3   8
BRANCH   4  10
HETATM   10  N4  UNL     1      16.894  79.477   1.351  1.00  0.00    -0.113 N 
HETATM   11  O6  UNL     1      17.380  78.406   0.934  1.00  0.00    -0.532 OA
HETATM   12  O7  UNL     1      15.826  79.492   2.235  1.00  0.00    -0.532 OA
ENDBRANCH   4  10
BRANCH   6  13
HETATM   13  N3  UNL     1      17.214  82.791  -2.115  1.00  0.00    -0.116 N 
HETATM   14  O4  UNL     1      17.382  82.086  -3.116  1.00  0.00    -0.532 OA
HETATM   15  O5  UNL     1      16.672  84.042  -2.231  1.00  0.00    -0.532 OA
ENDBRANCH   6  13
ENDBRANCH   1   2
BRANCH   1  16
HETATM   16  O2  UNL     1      20.964  82.627   2.214  1.00  0.00    -0.344 OA
ATOM     17  H2  UNL     1      21.666  83.134   2.605  1.00  0.00     0.219 HD
ENDBRANCH   1  16
BRANCH   1  18
HETATM   18  N1  UNL     1      19.948  84.688   2.218  1.00  0.00    -0.278 N 
ATOM     19  H1  UNL     1      19.383  85.366   1.708  1.00  0.00     0.189 HD
BRANCH  18  20
HETATM   20  N2  UNL     1      20.795  85.111   3.285  1.00  0.00    -0.281 N 
HETATM   21  C5  UNL     1      20.341  85.174   4.487  1.00  0.00     0.137 C 
HETATM   22  O3  UNL     1      19.082  84.886   4.992  1.00  0.00    -0.332 OA
HETATM   23  C9  UNL     1      21.149  85.600   5.656  1.00  0.00     0.068 C 
HETATM   24  C6  UNL     1      19.077  85.157   6.404  1.00  0.00     0.135 C 
HETATM   25  C7  UNL     1      19.216  86.620   6.646  1.00  0.00     0.034 C 
HETATM   26  C10 UNL     1      20.511  84.689   6.724  1.00  0.00     0.023 C 
HETATM   27  C8  UNL     1      20.598  86.931   6.098  1.00  0.00     0.016 C 
HETATM   28  C11 UNL     1      20.930  85.041   8.106  1.00  0.00     0.013 C 
ATOM     29  H2  UNL     1      21.764  85.364   3.094  1.00  0.00     0.189 HD
ENDBRANCH  18  20
ENDBRANCH   1  18
TORSDOF 7
ENDMDL
MODEL 4
REMARK VINA RESULT: -7.831940212      3.374      7.220
REMARK  7 active torsions:
REMARK  status: ('A' for Active; 'I' for Inactive)
REMARK    1  A    between atoms: O1_2  and  C2_3 
REMARK    2  A    between atoms: C3_4  and  C4_5 
REMARK    3  A    between atoms: C4_5  and  O2_6 
REMARK    4  A    between atoms: C4_5  and  N1_8 
REMARK    5  A    between atoms: N1_8  and  N2_10 
REMARK    6  A    between atoms: C13_21  and  N3_22 
REMARK    7  A    between atoms: C15_26  and  N4_27 
ROOT
HETATM    1  C4  UNL     1      18.459  81.759   3.167  1.00  0.00     0.168 C 
ENDROOT
BRANCH   1   2
HETATM    2  C3  UNL     1      18.600  81.446   1.780  1.00  0.00     0.054 A 
HETATM    3  C2  UNL     1      19.448  82.065   0.929  1.00  0.00     0.116 A 
HETATM    4  C15 UNL     1      19.444  81.788  -0.434  1.00  0.00     0.139 A 
HETATM    5  C14 UNL     1      18.566  80.858  -0.950  1.00  0.00     0.075 A 
HETATM    6  C13 UNL     1      17.708  80.221  -0.104  1.00  0.00     0.106 A 
HETATM    7  C12 UNL     1      17.732  80.514   1.225  1.00  0.00     0.054 A 
BRANCH   3   8
HETATM    8  O1  UNL     1      20.377  82.997   1.364  1.00  0.00    -0.352 OA
HETATM    9  C1  UNL     1      21.718  82.577   1.672  1.00  0.00     0.210 C 
ENDBRANCH   3   8
BRANCH   4  10
HETATM   10  N4  UNL     1      20.291  82.439  -1.341  1.00  0.00    -0.113 N 
HETATM   11  O6  UNL     1      19.957  83.554  -1.791  1.00  0.00    -0.532 OA
HETATM   12  O7  UNL     1      21.477  81.830  -1.721  1.00  0.00    -0.532 OA
ENDBRANCH   4  10
BRANCH   6  13
HETATM   13  N3  UNL     1      16.777  79.241  -0.613  1.00  0.00    -0.116 N 
HETATM   14  O4  UNL     1      16.207  79.429  -1.694  1.00  0.00    -0.532 OA
HETATM   15  O5  UNL     1      16.533  78.105   0.111  1.00  0.00    -0.532 OA
ENDBRANCH   6  13
ENDBRANCH   1   2
BRANCH   1  16
HETATM   16  O2  UNL     1      18.458  80.717   3.967  1.00  0.00    -0.344 OA
ATOM     17  H2  UNL     1      19.283  80.249   4.011  1.00  0.00     0.219 HD
ENDBRANCH   1  16
BRANCH   1  18
HETATM   18  N1  UNL     1      18.329  83.006   3.803  1.00  0.00    -0.278 N 
ATOM     19  H1  UNL     1      17.405  83.389   4.003  1.00  0.00     0.189 HD
BRANCH  18  20
HETATM   20  N2  UNL     1      19.505  83.727   4.165  1.00  0.00    -0.281 N 
HETATM   21  C5  UNL     1      19.577  84.321   5.303  1.00  0.00     0.137 C 
HETATM   22  O3  UNL     1      18.656  84.404   6.338  1.00  0.00    -0.332 OA
HETATM   23  C9  UNL     1      20.758  85.091   5.763  1.00  0.00     0.068 C 
HETATM   24  C6  UNL     1      19.207  85.221   7.384  1.00  0.00     0.135 C 
HETATM   25  C7  UNL     1      19.329  86.632   6.922  1.00  0.00     0.034 C 
HETATM   26  C10 UNL     1      20.677  84.767   7.268  1.00  0.00     0.023 C 
HETATM   27  C8  UNL     1      20.343  86.539   5.794  1.00  0.00     0.016 C 
HETATM   28  C11 UNL     1      21.596  85.600   8.087  1.00  0.00     0.013 C 
ATOM     29  H2  UNL     1      20.292  83.773   3.518  1.00  0.00     0.189 HD
ENDBRANCH  18  20
ENDBRANCH   1  18
TORSDOF 7
ENDMDL
MODEL 5
REMARK VINA RESULT: -7.782578936      3.815      5.403
REMARK  7 active torsions:
REMARK  status: ('A' for Active; 'I' for Inactive)
REMARK    1  A    between atoms: O1_2  and  C2_3 
REMARK    2  A    between atoms: C3_4  and  C4_5 
REMARK    3  A    between atoms: C4_5  and  O2_6 
REMARK    4  A    between atoms: C4_5  and  N1_8 
REMARK    5  A    between atoms: N1_8  and  N2_10 
REMARK    6  A    between atoms: C13_21  and  N3_22 
REMARK    7  A    between atoms: C15_26  and  N4_27 
ROOT
HETATM    1  C4  UNL     1      19.964  84.811   3.352  1.00  0.00     0.168 C 
ENDROOT
BRANCH   1   2
HETATM    2  C3  UNL     1      20.049  84.578   4.759  1.00  0.00     0.054 A 
HETATM    3  C2  UNL     1      19.124  83.919   5.492  1.00  0.00     0.116 A 
HETATM    4  C15 UNL     1      19.216  83.836   6.877  1.00  0.00     0.139 A 
HETATM    5  C14 UNL     1      20.272  84.425   7.539  1.00  0.00     0.075 A 
HETATM    6  C13 UNL     1      21.217  85.089   6.813  1.00  0.00     0.106 A 
HETATM    7  C12 UNL     1      21.099  85.158   5.459  1.00  0.00     0.054 A 
BRANCH   3   8
HETATM    8  O1  UNL     1      18.042  83.280   4.908  1.00  0.00    -0.352 OA
HETATM    9  C1  UNL     1      18.237  82.032   4.220  1.00  0.00     0.210 C 
ENDBRANCH   3   8
BRANCH   4  10
HETATM   10  N4  UNL     1      18.254  83.186   7.662  1.00  0.00    -0.113 N 
HETATM   11  O6  UNL     1      17.508  83.866   8.395  1.00  0.00    -0.532 OA
HETATM   12  O7  UNL     1      18.152  81.804   7.609  1.00  0.00    -0.532 OA
ENDBRANCH   4  10
BRANCH   6  13
HETATM   13  N3  UNL     1      22.336  85.716   7.476  1.00  0.00    -0.116 N 
HETATM   14  O4  UNL     1      22.227  86.104   8.645  1.00  0.00    -0.532 OA
HETATM   15  O5  UNL     1      23.515  85.875   6.800  1.00  0.00    -0.532 OA
ENDBRANCH   6  13
ENDBRANCH   1   2
BRANCH   1  16
HETATM   16  O2  UNL     1      18.834  85.347   2.952  1.00  0.00    -0.344 OA
ATOM     17  H2  UNL     1      18.649  86.204   3.316  1.00  0.00     0.219 HD
ENDBRANCH   1  16
BRANCH   1  18
HETATM   18  N1  UNL     1      20.904  84.563   2.337  1.00  0.00    -0.278 N 
ATOM     19  H1  UNL     1      21.592  85.273   2.085  1.00  0.00     0.189 HD
BRANCH  18  20
HETATM   20  N2  UNL     1      20.884  83.306   1.663  1.00  0.00    -0.281 N 
HETATM   21  C5  UNL     1      19.924  83.016   0.858  1.00  0.00     0.137 C 
HETATM   22  O3  UNL     1      18.809  83.751   0.483  1.00  0.00    -0.332 OA
HETATM   23  C9  UNL     1      19.824  81.737   0.115  1.00  0.00     0.068 C 
HETATM   24  C6  UNL     1      18.017  82.961  -0.420  1.00  0.00     0.135 C 
HETATM   25  C7  UNL     1      17.432  81.794   0.298  1.00  0.00     0.034 C 
HETATM   26  C10 UNL     1      19.168  82.268  -1.176  1.00  0.00     0.023 C 
HETATM   27  C8  UNL     1      18.655  80.989   0.701  1.00  0.00     0.016 C 
HETATM   28  C11 UNL     1      18.690  81.180  -2.069  1.00  0.00     0.013 C 
ATOM     29  H2  UNL     1      21.634  82.633   1.822  1.00  0.00     0.189 HD
ENDBRANCH  18  20
ENDBRANCH   1  18
TORSDOF 7
ENDMDL
