MODEL 1
REMARK VINA RESULT: -3.702596987      0.000      0.000
REMARK  1 active torsions:
REMARK  status: ('A' for Active; 'I' for Inactive)
REMARK    1  A    between atoms: C4_6  and  N1_7 
ROOT
HETATM    1  C1  UNL     1       9.396  43.496  17.093  1.00  0.00     0.024 C 
HETATM    2  C2  UNL     1       8.313  43.092  18.047  1.00  0.00     0.085 C 
HETATM    3  S1  UNL     1       7.178  41.869  17.346  1.00  0.00    -0.091 SA
HETATM    4  S2  UNL     1       5.531  43.240  17.066  1.00  0.00    -0.095 SA
HETATM    5  C3  UNL     1       6.534  44.707  17.538  1.00  0.00     0.120 C 
HETATM    6  C4  UNL     1       7.518  44.238  18.552  1.00  0.00     0.207 C 
ENDROOT
BRANCH   6   7
HETATM    7  N1  UNL     1       6.855  43.987  19.811  1.00  0.00    -0.073 N 
ATOM      8  H13 UNL     1       5.843  44.013  19.694  1.00  0.00     0.274 HD
ATOM      9  H12 UNL     1       6.972  43.013  20.089  1.00  0.00     0.274 HD
ATOM     10  H11 UNL     1       7.144  44.610  20.565  1.00  0.00     0.274 HD
ENDBRANCH   6   7
TORSDOF 1
ENDMDL
MODEL 2
REMARK VINA RESULT: -3.689451239      2.672      3.021
REMARK  1 active torsions:
REMARK  status: ('A' for Active; 'I' for Inactive)
REMARK    1  A    between atoms: C4_6  and  N1_7 
ROOT
HETATM    1  C1  UNL     1       9.380  40.594  18.843  1.00  0.00     0.024 C 
HETATM    2  C2  UNL     1       8.942  41.231  17.559  1.00  0.00     0.085 C 
HETATM    3  S1  UNL     1       9.838  42.761  17.192  1.00  0.00    -0.091 SA
HETATM    4  S2  UNL     1       8.198  44.088  17.660  1.00  0.00    -0.095 SA
HETATM    5  C3  UNL     1       7.141  42.727  18.302  1.00  0.00     0.120 C 
HETATM    6  C4  UNL     1       7.487  41.514  17.510  1.00  0.00     0.207 C 
ENDROOT
BRANCH   6   7
HETATM    7  N1  UNL     1       6.952  41.621  16.172  1.00  0.00    -0.073 N 
ATOM      8  H13 UNL     1       5.950  41.811  16.202  1.00  0.00     0.274 HD
ATOM      9  H12 UNL     1       7.276  42.478  15.725  1.00  0.00     0.274 HD
ATOM     10  H11 UNL     1       7.145  40.814  15.580  1.00  0.00     0.274 HD
ENDBRANCH   6   7
TORSDOF 1
ENDMDL
MODEL 3
REMARK VINA RESULT: -3.635770644      1.621      2.033
REMARK  1 active torsions:
REMARK  status: ('A' for Active; 'I' for Inactive)
REMARK    1  A    between atoms: C4_6  and  N1_7 
ROOT
HETATM    1  C1  UNL     1       9.305  40.615  17.484  1.00  0.00     0.024 C 
HETATM    2  C2  UNL     1       8.134  41.503  17.779  1.00  0.00     0.085 C 
HETATM    3  S1  UNL     1       6.894  41.494  16.460  1.00  0.00    -0.091 SA
HETATM    4  S2  UNL     1       7.372  43.460  15.702  1.00  0.00    -0.095 SA
HETATM    5  C3  UNL     1       8.836  43.643  16.800  1.00  0.00     0.120 C 
HETATM    6  C4  UNL     1       8.518  42.909  18.055  1.00  0.00     0.207 C 
ENDROOT
BRANCH   6   7
HETATM    7  N1  UNL     1       7.546  43.644  18.831  1.00  0.00    -0.073 N 
ATOM      8  H13 UNL     1       6.658  43.697  18.333  1.00  0.00     0.274 HD
ATOM      9  H12 UNL     1       7.255  43.104  19.645  1.00  0.00     0.274 HD
ATOM     10  H11 UNL     1       7.854  44.575  19.111  1.00  0.00     0.274 HD
ENDBRANCH   6   7
TORSDOF 1
ENDMDL
MODEL 4
REMARK VINA RESULT: -3.618084675      2.365      2.553
REMARK  1 active torsions:
REMARK  status: ('A' for Active; 'I' for Inactive)
REMARK    1  A    between atoms: C4_6  and  N1_7 
ROOT
HETATM    1  C1  UNL     1      10.239  42.767  17.257  1.00  0.00     0.024 C 
HETATM    2  C2  UNL     1       8.894  43.199  16.755  1.00  0.00     0.085 C 
HETATM    3  S1  UNL     1       8.593  44.969  16.985  1.00  0.00    -0.091 SA
HETATM    4  S2  UNL     1       7.194  44.739  18.615  1.00  0.00    -0.095 SA
HETATM    5  C3  UNL     1       7.478  42.926  18.743  1.00  0.00     0.120 C 
HETATM    6  C4  UNL     1       7.770  42.447  17.364  1.00  0.00     0.207 C 
ENDROOT
BRANCH   6   7
HETATM    7  N1  UNL     1       6.563  42.444  16.570  1.00  0.00    -0.073 N 
ATOM      8  H13 UNL     1       5.814  42.935  17.056  1.00  0.00     0.274 HD
ATOM      9  H12 UNL     1       6.669  43.051  15.757  1.00  0.00     0.274 HD
ATOM     10  H11 UNL     1       6.256  41.515  16.284  1.00  0.00     0.274 HD
ENDBRANCH   6   7
TORSDOF 1
ENDMDL
MODEL 5
REMARK VINA RESULT: -3.486904289      2.063      2.724
REMARK  1 active torsions:
REMARK  status: ('A' for Active; 'I' for Inactive)
REMARK    1  A    between atoms: C4_6  and  N1_7 
ROOT
HETATM    1  C1  UNL     1       7.379  45.444  17.373  1.00  0.00     0.024 C 
HETATM    2  C2  UNL     1       8.195  44.385  16.696  1.00  0.00     0.085 C 
HETATM    3  S1  UNL     1       7.229  43.388  15.534  1.00  0.00    -0.091 SA
HETATM    4  S2  UNL     1       7.151  41.623  16.778  1.00  0.00    -0.095 SA
HETATM    5  C3  UNL     1       7.933  42.470  18.211  1.00  0.00     0.120 C 
HETATM    6  C4  UNL     1       8.878  43.472  17.646  1.00  0.00     0.207 C 
ENDROOT
BRANCH   6   7
HETATM    7  N1  UNL     1      10.039  42.811  17.097  1.00  0.00    -0.073 N 
ATOM      8  H13 UNL     1       9.780  41.911  16.694  1.00  0.00     0.274 HD
ATOM      9  H12 UNL     1      10.360  43.291  16.257  1.00  0.00     0.274 HD
ATOM     10  H11 UNL     1      10.806  42.699  17.759  1.00  0.00     0.274 HD
ENDBRANCH   6   7
TORSDOF 1
ENDMDL
