MODEL 1
REMARK VINA RESULT: -9.004595286      0.000      0.000
REMARK  8 active torsions:
REMARK  status: ('A' for Active; 'I' for Inactive)
REMARK    1  A    between atoms: C3_5  and  N2_6 
REMARK    2  A    between atoms: N2_6  and  N3_8 
REMARK    3  A    between atoms: C4_10  and  C5_11 
REMARK    4  A    between atoms: C8_14  and  O1_15 
REMARK    5  A    between atoms: N5_24  and  C13_25 
REMARK    6  A    between atoms: C13_25  and  C14_26 
REMARK    7  A    between atoms: C14_26  and  C15_27 
REMARK    8  A    between atoms: C15_27  and  C16_28 
ROOT
HETATM    1  C1  UNL     1      -7.644  30.503  46.476  1.00  0.00     0.089 C 
HETATM    2  C2  UNL     1      -8.399  29.266  46.862  1.00  0.00     0.080 A 
HETATM    3  N1  UNL     1      -9.287  28.685  46.069  1.00  0.00    -0.329 N 
ATOM      4  H1  UNL     1      -9.461  29.103  45.155  1.00  0.00     0.168 HD
HETATM    5  C3  UNL     1      -9.972  27.575  46.400  1.00  0.00     0.152 A 
HETATM    6  C11 UNL     1      -9.710  27.030  47.654  1.00  0.00     0.124 A 
HETATM    7  N4  UNL     1     -10.186  25.970  48.294  1.00  0.00    -0.346 N 
ATOM      8  H4  UNL     1     -10.888  25.332  47.920  1.00  0.00     0.167 HD
HETATM    9  C12 UNL     1      -9.613  25.854  49.506  1.00  0.00     0.185 A 
HETATM   10  N5  UNL     1      -8.746  26.875  49.633  1.00  0.00    -0.327 N 
HETATM   11  C19 UNL     1      -8.788  27.611  48.508  1.00  0.00     0.141 A 
HETATM   12  N6  UNL     1      -8.163  28.721  48.068  1.00  0.00    -0.330 N 
ATOM     13  H6  UNL     1      -7.479  29.169  48.679  1.00  0.00     0.168 HD
ENDROOT
BRANCH   5  14
HETATM   14  N2  UNL     1     -10.833  27.012  45.630  1.00  0.00    -0.284 N 
ATOM     15  H2  UNL     1     -11.824  27.053  45.867  1.00  0.00     0.188 HD
BRANCH  14  16
HETATM   16  N3  UNL     1     -10.438  26.365  44.507  1.00  0.00    -0.309 N 
HETATM   17  C4  UNL     1     -10.310  26.686  43.305  1.00  0.00     0.119 C 
ATOM     18  H3  UNL     1     -10.187  25.391  44.682  1.00  0.00     0.186 HD
BRANCH  17  19
HETATM   19  C5  UNL     1     -10.553  27.949  42.636  1.00  0.00    -0.002 A 
HETATM   20  C6  UNL     1      -9.883  29.105  42.956  1.00  0.00     0.017 A 
HETATM   21  C7  UNL     1     -10.123  30.330  42.302  1.00  0.00     0.037 A 
HETATM   22  C8  UNL     1     -11.071  30.355  41.303  1.00  0.00     0.067 A 
HETATM   23  C9  UNL     1     -11.766  29.220  40.949  1.00  0.00     0.056 A 
HETATM   24  C10 UNL     1     -11.505  28.048  41.608  1.00  0.00     0.025 A 
HETATM   25 BR1  UNL     1     -12.452  26.434  41.150  1.00  0.00    -0.050 Br
BRANCH  22  26
HETATM   26  O1  UNL     1     -11.332  31.548  40.639  1.00  0.00    -0.361 OA
ATOM     27  H1  UNL     1     -11.204  31.596  39.699  1.00  0.00     0.217 HD
ENDBRANCH  22  26
ENDBRANCH  17  19
ENDBRANCH  14  16
ENDBRANCH   5  14
BRANCH  10  28
HETATM   28  C13 UNL     1      -7.910  27.152  50.764  1.00  0.00     0.131 C 
BRANCH  28  29
HETATM   29  C14 UNL     1      -8.033  26.127  51.869  1.00  0.00     0.021 C 
BRANCH  29  30
HETATM   30  C15 UNL     1      -8.332  26.757  53.200  1.00  0.00     0.005 C 
BRANCH  30  31
HETATM   31  C16 UNL     1      -7.063  27.102  53.905  1.00  0.00    -0.023 C 
HETATM   32  C17 UNL     1      -6.916  28.554  54.222  1.00  0.00     0.009 C 
HETATM   33  C18 UNL     1      -6.914  26.308  55.187  1.00  0.00     0.009 C 
ENDBRANCH  30  31
ENDBRANCH  29  30
ENDBRANCH  28  29
ENDBRANCH  10  28
TORSDOF 8
ENDMDL
MODEL 2
REMARK VINA RESULT: -8.529541865      8.004     12.814
REMARK  8 active torsions:
REMARK  status: ('A' for Active; 'I' for Inactive)
REMARK    1  A    between atoms: C3_5  and  N2_6 
REMARK    2  A    between atoms: N2_6  and  N3_8 
REMARK    3  A    between atoms: C4_10  and  C5_11 
REMARK    4  A    between atoms: C8_14  and  O1_15 
REMARK    5  A    between atoms: N5_24  and  C13_25 
REMARK    6  A    between atoms: C13_25  and  C14_26 
REMARK    7  A    between atoms: C14_26  and  C15_27 
REMARK    8  A    between atoms: C15_27  and  C16_28 
ROOT
HETATM    1  C1  UNL     1      -6.521  31.483  55.258  1.00  0.00     0.089 C 
HETATM    2  C2  UNL     1      -6.276  30.020  55.487  1.00  0.00     0.080 A 
HETATM    3  N1  UNL     1      -5.409  29.564  56.378  1.00  0.00    -0.329 N 
ATOM      4  H1  UNL     1      -4.885  30.243  56.931  1.00  0.00     0.168 HD
HETATM    5  C3  UNL     1      -5.178  28.256  56.595  1.00  0.00     0.152 A 
HETATM    6  C11 UNL     1      -5.909  27.357  55.824  1.00  0.00     0.124 A 
HETATM    7  N4  UNL     1      -5.940  26.032  55.771  1.00  0.00    -0.346 N 
ATOM      8  H4  UNL     1      -5.372  25.414  56.351  1.00  0.00     0.167 HD
HETATM    9  C12 UNL     1      -6.825  25.617  54.847  1.00  0.00     0.185 A 
HETATM   10  N5  UNL     1      -7.371  26.718  54.300  1.00  0.00    -0.327 N 
HETATM   11  C19 UNL     1      -6.824  27.799  54.884  1.00  0.00     0.141 A 
HETATM   12  N6  UNL     1      -6.970  29.133  54.754  1.00  0.00    -0.330 N 
ATOM     13  H6  UNL     1      -7.638  29.484  54.067  1.00  0.00     0.168 HD
ENDROOT
BRANCH   5  14
HETATM   14  N2  UNL     1      -4.336  27.815  57.460  1.00  0.00    -0.284 N 
ATOM     15  H2  UNL     1      -4.597  27.037  58.065  1.00  0.00     0.188 HD
BRANCH  14  16
HETATM   16  N3  UNL     1      -3.106  28.371  57.575  1.00  0.00    -0.309 N 
HETATM   17  C4  UNL     1      -1.936  27.964  57.401  1.00  0.00     0.119 C 
ATOM     18  H3  UNL     1      -3.142  29.347  57.872  1.00  0.00     0.186 HD
BRANCH  17  19
HETATM   19  C5  UNL     1      -1.441  26.667  56.986  1.00  0.00    -0.002 A 
HETATM   20  C6  UNL     1      -2.051  25.910  56.015  1.00  0.00     0.017 A 
HETATM   21  C7  UNL     1      -1.566  24.649  55.615  1.00  0.00     0.037 A 
HETATM   22  C8  UNL     1      -0.433  24.167  56.232  1.00  0.00     0.067 A 
HETATM   23  C9  UNL     1       0.211  24.891  57.211  1.00  0.00     0.056 A 
HETATM   24  C10 UNL     1      -0.292  26.113  57.572  1.00  0.00     0.025 A 
HETATM   25 BR1  UNL     1       0.573  27.163  58.937  1.00  0.00    -0.050 Br
BRANCH  22  26
HETATM   26  O1  UNL     1       0.072  22.926  55.861  1.00  0.00    -0.361 OA
ATOM     27  H1  UNL     1      -0.397  22.138  56.110  1.00  0.00     0.217 HD
ENDBRANCH  22  26
ENDBRANCH  17  19
ENDBRANCH  14  16
ENDBRANCH   5  14
BRANCH  10  28
HETATM   28  C13 UNL     1      -8.367  26.758  53.270  1.00  0.00     0.131 C 
BRANCH  28  29
HETATM   29  C14 UNL     1      -7.796  26.629  51.876  1.00  0.00     0.021 C 
BRANCH  29  30
HETATM   30  C15 UNL     1      -8.749  25.954  50.929  1.00  0.00     0.005 C 
BRANCH  30  31
HETATM   31  C16 UNL     1      -9.129  26.885  49.828  1.00  0.00    -0.023 C 
HETATM   32  C17 UNL     1      -7.986  27.313  48.968  1.00  0.00     0.009 C 
HETATM   33  C18 UNL     1     -10.201  26.279  48.943  1.00  0.00     0.009 C 
ENDBRANCH  30  31
ENDBRANCH  29  30
ENDBRANCH  28  29
ENDBRANCH  10  28
TORSDOF 8
ENDMDL
MODEL 3
REMARK VINA RESULT: -8.468806936      2.205      3.289
REMARK  8 active torsions:
REMARK  status: ('A' for Active; 'I' for Inactive)
REMARK    1  A    between atoms: C3_5  and  N2_6 
REMARK    2  A    between atoms: N2_6  and  N3_8 
REMARK    3  A    between atoms: C4_10  and  C5_11 
REMARK    4  A    between atoms: C8_14  and  O1_15 
REMARK    5  A    between atoms: N5_24  and  C13_25 
REMARK    6  A    between atoms: C13_25  and  C14_26 
REMARK    7  A    between atoms: C14_26  and  C15_27 
REMARK    8  A    between atoms: C15_27  and  C16_28 
ROOT
HETATM    1  C1  UNL     1     -12.050  26.390  45.173  1.00  0.00     0.089 C 
HETATM    2  C2  UNL     1     -10.807  26.962  45.788  1.00  0.00     0.080 A 
HETATM    3  N1  UNL     1      -9.966  27.742  45.124  1.00  0.00    -0.329 N 
ATOM      4  H1  UNL     1     -10.179  27.959  44.150  1.00  0.00     0.168 HD
HETATM    5  C3  UNL     1      -8.848  28.263  45.660  1.00  0.00     0.152 A 
HETATM    6  C11 UNL     1      -8.587  27.948  46.991  1.00  0.00     0.124 A 
HETATM    7  N4  UNL     1      -7.605  28.276  47.820  1.00  0.00    -0.346 N 
ATOM      8  H4  UNL     1      -6.814  28.872  47.576  1.00  0.00     0.167 HD
HETATM    9  C12 UNL     1      -7.799  27.714  49.026  1.00  0.00     0.185 A 
HETATM   10  N5  UNL     1      -8.941  27.008  48.955  1.00  0.00    -0.327 N 
HETATM   11  C19 UNL     1      -9.444  27.136  47.714  1.00  0.00     0.141 A 
HETATM   12  N6  UNL     1     -10.534  26.671  47.071  1.00  0.00    -0.330 N 
ATOM     13  H6  UNL     1     -11.181  26.071  47.583  1.00  0.00     0.168 HD
ENDROOT
BRANCH   5  14
HETATM   14  N2  UNL     1      -8.033  29.019  45.015  1.00  0.00    -0.284 N 
ATOM     15  H2  UNL     1      -7.371  28.604  44.361  1.00  0.00     0.188 HD
BRANCH  14  16
HETATM   16  N3  UNL     1      -8.046  30.363  45.195  1.00  0.00    -0.309 N 
HETATM   17  C4  UNL     1      -8.673  31.314  44.678  1.00  0.00     0.119 C 
ATOM     18  H3  UNL     1      -7.393  30.669  45.918  1.00  0.00     0.186 HD
BRANCH  17  19
HETATM   19  C5  UNL     1      -9.678  31.324  43.635  1.00  0.00    -0.002 A 
HETATM   20  C6  UNL     1      -9.992  30.214  42.888  1.00  0.00     0.017 A 
HETATM   21  C7  UNL     1     -10.970  30.229  41.874  1.00  0.00     0.037 A 
HETATM   22  C8  UNL     1     -11.632  31.413  41.632  1.00  0.00     0.067 A 
HETATM   23  C9  UNL     1     -11.350  32.550  42.356  1.00  0.00     0.056 A 
HETATM   24  C10 UNL     1     -10.392  32.495  43.334  1.00  0.00     0.025 A 
HETATM   25 BR1  UNL     1      -9.962  34.060  44.373  1.00  0.00    -0.050 Br
BRANCH  22  26
HETATM   26  O1  UNL     1     -12.603  31.462  40.639  1.00  0.00    -0.361 OA
ATOM     27  H1  UNL     1     -12.784  32.286  40.204  1.00  0.00     0.217 HD
ENDBRANCH  22  26
ENDBRANCH  17  19
ENDBRANCH  14  16
ENDBRANCH   5  14
BRANCH  10  28
HETATM   28  C13 UNL     1      -9.541  26.242  50.008  1.00  0.00     0.131 C 
BRANCH  28  29
HETATM   29  C14 UNL     1      -8.538  25.679  50.990  1.00  0.00     0.021 C 
BRANCH  29  30
HETATM   30  C15 UNL     1      -8.576  26.389  52.314  1.00  0.00     0.005 C 
BRANCH  30  31
HETATM   31  C16 UNL     1      -7.206  26.464  52.899  1.00  0.00    -0.023 C 
HETATM   32  C17 UNL     1      -6.474  27.726  52.578  1.00  0.00     0.009 C 
HETATM   33  C18 UNL     1      -7.242  26.294  54.405  1.00  0.00     0.009 C 
ENDBRANCH  30  31
ENDBRANCH  29  30
ENDBRANCH  28  29
ENDBRANCH  10  28
TORSDOF 8
ENDMDL
MODEL 4
REMARK VINA RESULT: -8.454463606      0.859      1.183
REMARK  8 active torsions:
REMARK  status: ('A' for Active; 'I' for Inactive)
REMARK    1  A    between atoms: C3_5  and  N2_6 
REMARK    2  A    between atoms: N2_6  and  N3_8 
REMARK    3  A    between atoms: C4_10  and  C5_11 
REMARK    4  A    between atoms: C8_14  and  O1_15 
REMARK    5  A    between atoms: N5_24  and  C13_25 
REMARK    6  A    between atoms: C13_25  and  C14_26 
REMARK    7  A    between atoms: C14_26  and  C15_27 
REMARK    8  A    between atoms: C15_27  and  C16_28 
ROOT
HETATM    1  C1  UNL     1      -7.527  30.912  46.418  1.00  0.00     0.089 C 
HETATM    2  C2  UNL     1      -8.369  29.685  46.610  1.00  0.00     0.080 A 
HETATM    3  N1  UNL     1      -9.180  29.212  45.675  1.00  0.00    -0.329 N 
ATOM      4  H1  UNL     1      -9.230  29.709  44.786  1.00  0.00     0.168 HD
HETATM    5  C3  UNL     1      -9.941  28.114  45.832  1.00  0.00     0.152 A 
HETATM    6  C11 UNL     1      -9.849  27.459  47.057  1.00  0.00     0.124 A 
HETATM    7  N4  UNL     1     -10.438  26.376  47.547  1.00  0.00    -0.346 N 
ATOM      8  H4  UNL     1     -11.115  25.804  47.042  1.00  0.00     0.167 HD
HETATM    9  C12 UNL     1     -10.016  26.137  48.801  1.00  0.00     0.185 A 
HETATM   10  N5  UNL     1      -9.131  27.102  49.112  1.00  0.00    -0.327 N 
HETATM   11  C19 UNL     1      -9.012  27.926  48.056  1.00  0.00     0.141 A 
HETATM   12  N6  UNL     1      -8.297  29.036  47.785  1.00  0.00    -0.330 N 
ATOM     13  H6  UNL     1      -7.674  29.400  48.505  1.00  0.00     0.168 HD
ENDROOT
BRANCH   5  14
HETATM   14  N2  UNL     1     -10.727  27.656  44.924  1.00  0.00    -0.284 N 
ATOM     15  H2  UNL     1     -11.729  27.601  45.105  1.00  0.00     0.188 HD
BRANCH  14  16
HETATM   16  N3  UNL     1     -10.239  27.246  43.728  1.00  0.00    -0.309 N 
HETATM   17  C4  UNL     1     -10.158  27.757  42.589  1.00  0.00     0.119 C 
ATOM     18  H3  UNL     1      -9.847  26.305  43.765  1.00  0.00     0.186 HD
BRANCH  17  19
HETATM   19  C5  UNL     1     -10.583  29.055  42.106  1.00  0.00    -0.002 A 
HETATM   20  C6  UNL     1      -9.983  30.230  42.490  1.00  0.00     0.017 A 
HETATM   21  C7  UNL     1     -10.401  31.490  42.017  1.00  0.00     0.037 A 
HETATM   22  C8  UNL     1     -11.456  31.531  41.133  1.00  0.00     0.067 A 
HETATM   23  C9  UNL     1     -12.088  30.378  40.720  1.00  0.00     0.056 A 
HETATM   24  C10 UNL     1     -11.653  29.173  41.203  1.00  0.00     0.025 A 
HETATM   25 BR1  UNL     1     -12.505  27.533  40.655  1.00  0.00    -0.050 Br
BRANCH  22  26
HETATM   26  O1  UNL     1     -11.894  32.757  40.647  1.00  0.00    -0.361 OA
ATOM     27  H1  UNL     1     -12.410  32.787  39.850  1.00  0.00     0.217 HD
ENDBRANCH  22  26
ENDBRANCH  17  19
ENDBRANCH  14  16
ENDBRANCH   5  14
BRANCH  10  28
HETATM   28  C13 UNL     1      -8.423  27.247  50.350  1.00  0.00     0.131 C 
BRANCH  28  29
HETATM   29  C14 UNL     1      -8.838  26.244  51.402  1.00  0.00     0.021 C 
BRANCH  29  30
HETATM   30  C15 UNL     1      -7.701  25.863  52.308  1.00  0.00     0.005 C 
BRANCH  30  31
HETATM   31  C16 UNL     1      -7.656  26.771  53.490  1.00  0.00    -0.023 C 
HETATM   32  C17 UNL     1      -7.195  26.112  54.748  1.00  0.00     0.009 C 
HETATM   33  C18 UNL     1      -6.776  27.977  53.224  1.00  0.00     0.009 C 
ENDBRANCH  30  31
ENDBRANCH  29  30
ENDBRANCH  28  29
ENDBRANCH  10  28
TORSDOF 8
ENDMDL
MODEL 5
REMARK VINA RESULT: -8.305585200      6.083     11.293
REMARK  8 active torsions:
REMARK  status: ('A' for Active; 'I' for Inactive)
REMARK    1  A    between atoms: C3_5  and  N2_6 
REMARK    2  A    between atoms: N2_6  and  N3_8 
REMARK    3  A    between atoms: C4_10  and  C5_11 
REMARK    4  A    between atoms: C8_14  and  O1_15 
REMARK    5  A    between atoms: N5_24  and  C13_25 
REMARK    6  A    between atoms: C13_25  and  C14_26 
REMARK    7  A    between atoms: C14_26  and  C15_27 
REMARK    8  A    between atoms: C15_27  and  C16_28 
ROOT
HETATM    1  C1  UNL     1      -7.687  25.271  55.637  1.00  0.00     0.089 C 
HETATM    2  C2  UNL     1      -7.232  26.015  54.416  1.00  0.00     0.080 A 
HETATM    3  N1  UNL     1      -6.125  26.743  54.385  1.00  0.00    -0.329 N 
ATOM      4  H1  UNL     1      -5.560  26.796  55.233  1.00  0.00     0.168 HD
HETATM    5  C3  UNL     1      -5.703  27.416  53.299  1.00  0.00     0.152 A 
HETATM    6  C11 UNL     1      -6.496  27.322  52.159  1.00  0.00     0.124 A 
HETATM    7  N4  UNL     1      -6.390  27.838  50.942  1.00  0.00    -0.346 N 
ATOM      8  H4  UNL     1      -5.630  28.443  50.631  1.00  0.00     0.167 HD
HETATM    9  C12 UNL     1      -7.425  27.452  50.174  1.00  0.00     0.185 A 
HETATM   10  N5  UNL     1      -8.210  26.666  50.933  1.00  0.00    -0.327 N 
HETATM   11  C19 UNL     1      -7.659  26.571  52.157  1.00  0.00     0.141 A 
HETATM   12  N6  UNL     1      -7.982  25.940  53.304  1.00  0.00    -0.330 N 
ATOM     13  H6  UNL     1      -8.835  25.381  53.328  1.00  0.00     0.168 HD
ENDROOT
BRANCH   5  14
HETATM   14  N2  UNL     1      -4.629  28.120  53.269  1.00  0.00    -0.284 N 
ATOM     15  H2  UNL     1      -4.527  28.855  52.570  1.00  0.00     0.188 HD
BRANCH  14  16
HETATM   16  N3  UNL     1      -3.631  27.898  54.159  1.00  0.00    -0.309 N 
HETATM   17  C4  UNL     1      -3.369  28.313  55.310  1.00  0.00     0.119 C 
ATOM     18  H3  UNL     1      -2.932  27.242  53.810  1.00  0.00     0.186 HD
BRANCH  17  19
HETATM   19  C5  UNL     1      -4.086  29.240  56.163  1.00  0.00    -0.002 A 
HETATM   20  C6  UNL     1      -5.259  28.915  56.801  1.00  0.00     0.017 A 
HETATM   21  C7  UNL     1      -5.952  29.820  57.630  1.00  0.00     0.037 A 
HETATM   22  C8  UNL     1      -5.419  31.079  57.799  1.00  0.00     0.067 A 
HETATM   23  C9  UNL     1      -4.245  31.448  57.179  1.00  0.00     0.056 A 
HETATM   24  C10 UNL     1      -3.602  30.540  56.381  1.00  0.00     0.025 A 
HETATM   25 BR1  UNL     1      -1.958  31.010  55.492  1.00  0.00    -0.050 Br
BRANCH  22  26
HETATM   26  O1  UNL     1      -6.078  31.996  58.609  1.00  0.00    -0.361 OA
ATOM     27  H1  UNL     1      -6.097  32.912  58.358  1.00  0.00     0.217 HD
ENDBRANCH  22  26
ENDBRANCH  17  19
ENDBRANCH  14  16
ENDBRANCH   5  14
BRANCH  10  28
HETATM   28  C13 UNL     1      -9.427  26.027  50.529  1.00  0.00     0.131 C 
BRANCH  28  29
HETATM   29  C14 UNL     1     -10.175  26.781  49.453  1.00  0.00     0.021 C 
BRANCH  29  30
HETATM   30  C15 UNL     1     -10.131  26.075  48.127  1.00  0.00     0.005 C 
BRANCH  30  31
HETATM   31  C16 UNL     1     -10.155  27.066  47.012  1.00  0.00    -0.023 C 
HETATM   32  C17 UNL     1      -8.809  27.594  46.637  1.00  0.00     0.009 C 
HETATM   33  C18 UNL     1     -10.811  26.486  45.775  1.00  0.00     0.009 C 
ENDBRANCH  30  31
ENDBRANCH  29  30
ENDBRANCH  28  29
ENDBRANCH  10  28
TORSDOF 8
ENDMDL
