MODEL 1
REMARK VINA RESULT: -8.248755292      0.000      0.000
REMARK  13 active torsions:
REMARK  status: ('A' for Active; 'I' for Inactive)
REMARK    1  A    between atoms: C2_2  and  C3_3 
REMARK    2  A    between atoms: C2_2  and  C21_25 
REMARK    3  A    between atoms: C3_3  and  C4_4 
REMARK    4  A    between atoms: C4_4  and  C5_5 
REMARK    5  A    between atoms: C5_5  and  C7_7 
REMARK    6  A    between atoms: C11_11  and  C12_12 
REMARK    7  A    between atoms: C12_12  and  C13_13 
REMARK    8  A    between atoms: C13_13  and  C14_14 
REMARK    9  A    between atoms: C14_14  and  O1_17 
REMARK   10  A    between atoms: C17_19  and  O2_20 
REMARK   11  A    between atoms: C21_25  and  C22_26 
REMARK   12  A    between atoms: C22_26  and  C23_27 
REMARK   13  A    between atoms: C23_27  and  C26_30 
ROOT
HETATM    1  C7  UNL     1     -14.683  17.730 -13.265  1.00  0.00    -0.002 C 
HETATM    2  C8  UNL     1     -14.260  17.336 -11.866  1.00  0.00     0.006 C 
HETATM    3  C9  UNL     1     -12.813  16.874 -11.966  1.00  0.00     0.006 C 
HETATM    4  C10 UNL     1     -12.386  17.274 -13.360  1.00  0.00     0.001 C 
HETATM    5  C11 UNL     1     -11.460  16.241 -13.906  1.00  0.00     0.019 C 
HETATM    6  C17 UNL     1     -12.329  15.040 -14.099  1.00  0.00     0.123 C 
HETATM    7  C18 UNL     1     -13.775  15.556 -14.134  1.00  0.00     0.042 C 
HETATM    8  C19 UNL     1     -13.696  17.039 -14.127  1.00  0.00    -0.034 C 
HETATM    9  C20 UNL     1     -13.535  17.647 -15.494  1.00  0.00     0.016 C 
ENDROOT
BRANCH   1  10
HETATM   10  C5  UNL     1     -16.104  17.335 -13.465  1.00  0.00    -0.014 C 
HETATM   11  C6  UNL     1     -16.726  17.799 -14.729  1.00  0.00     0.010 C 
BRANCH  10  12
HETATM   12  C4  UNL     1     -16.905  17.819 -12.254  1.00  0.00     0.005 C 
BRANCH  12  13
HETATM   13  C3  UNL     1     -16.625  19.239 -11.937  1.00  0.00     0.008 C 
BRANCH  13  14
HETATM   14  C2  UNL     1     -16.433  19.510 -10.424  1.00  0.00     0.004 C 
HETATM   15  C1  UNL     1     -17.194  18.496  -9.641  1.00  0.00     0.014 C 
BRANCH  14  16
HETATM   16  C21 UNL     1     -16.578  20.940 -10.108  1.00  0.00    -0.025 C 
BRANCH  16  17
HETATM   17  C22 UNL     1     -15.556  21.935 -10.384  1.00  0.00    -0.015 C 
BRANCH  17  18
HETATM   18  C23 UNL     1     -14.401  22.243  -9.549  1.00  0.00     0.023 C 
HETATM   19  C24 UNL     1     -14.698  22.908  -8.216  1.00  0.00     0.027 C 
HETATM   20  C25 UNL     1     -13.639  23.428 -10.303  1.00  0.00     0.027 C 
BRANCH  18  21
HETATM   21  C26 UNL     1     -13.330  21.242  -9.417  1.00  0.00     0.243 C 
HETATM   22  O3  UNL     1     -12.152  21.579  -9.476  1.00  0.00    -0.306 OA
ENDBRANCH  18  21
ENDBRANCH  17  18
ENDBRANCH  16  17
ENDBRANCH  14  16
ENDBRANCH  13  14
ENDBRANCH  12  13
ENDBRANCH  10  12
ENDBRANCH   1  10
BRANCH   5  23
HETATM   23  C12 UNL     1     -10.352  15.953 -12.906  1.00  0.00     0.010 C 
BRANCH  23  24
HETATM   24  C13 UNL     1      -9.991  14.477 -12.963  1.00  0.00     0.037 C 
BRANCH  24  25
HETATM   25  C14 UNL     1      -8.598  14.359 -12.359  1.00  0.00     0.051 C 
HETATM   26  C15 UNL     1      -8.402  15.344 -11.238  1.00  0.00     0.045 C 
HETATM   27  C16 UNL     1      -7.551  14.540 -13.412  1.00  0.00     0.045 C 
BRANCH  25  28
HETATM   28  O1  UNL     1      -8.497  13.072 -11.841  1.00  0.00    -0.391 OA
ATOM     29  H1  UNL     1      -7.966  13.136 -11.056  1.00  0.00     0.210 HD
ENDBRANCH  25  28
ENDBRANCH  24  25
ENDBRANCH  23  24
ENDBRANCH   5  23
BRANCH   6  30
HETATM   30  O2  UNL     1     -11.989  14.437 -15.308  1.00  0.00    -0.395 OA
ATOM     31  H2  UNL     1     -12.621  13.753 -15.491  1.00  0.00     0.210 HD
ENDBRANCH   6  30
TORSDOF 13
ENDMDL
MODEL 2
REMARK VINA RESULT: -8.155440073      1.721      2.075
REMARK  13 active torsions:
REMARK  status: ('A' for Active; 'I' for Inactive)
REMARK    1  A    between atoms: C2_2  and  C3_3 
REMARK    2  A    between atoms: C2_2  and  C21_25 
REMARK    3  A    between atoms: C3_3  and  C4_4 
REMARK    4  A    between atoms: C4_4  and  C5_5 
REMARK    5  A    between atoms: C5_5  and  C7_7 
REMARK    6  A    between atoms: C11_11  and  C12_12 
REMARK    7  A    between atoms: C12_12  and  C13_13 
REMARK    8  A    between atoms: C13_13  and  C14_14 
REMARK    9  A    between atoms: C14_14  and  O1_17 
REMARK   10  A    between atoms: C17_19  and  O2_20 
REMARK   11  A    between atoms: C21_25  and  C22_26 
REMARK   12  A    between atoms: C22_26  and  C23_27 
REMARK   13  A    between atoms: C23_27  and  C26_30 
ROOT
HETATM    1  C7  UNL     1     -14.650  17.752 -13.223  1.00  0.00    -0.002 C 
HETATM    2  C8  UNL     1     -14.229  17.349 -11.825  1.00  0.00     0.006 C 
HETATM    3  C9  UNL     1     -12.790  16.865 -11.931  1.00  0.00     0.006 C 
HETATM    4  C10 UNL     1     -12.362  17.261 -13.326  1.00  0.00     0.001 C 
HETATM    5  C11 UNL     1     -11.454  16.213 -13.877  1.00  0.00     0.019 C 
HETATM    6  C17 UNL     1     -12.342  15.027 -14.069  1.00  0.00     0.123 C 
HETATM    7  C18 UNL     1     -13.780  15.566 -14.098  1.00  0.00     0.042 C 
HETATM    8  C19 UNL     1     -13.678  17.048 -14.089  1.00  0.00    -0.034 C 
HETATM    9  C20 UNL     1     -13.512  17.656 -15.455  1.00  0.00     0.016 C 
ENDROOT
BRANCH   1  10
HETATM   10  C5  UNL     1     -16.078  17.381 -13.418  1.00  0.00    -0.014 C 
HETATM   11  C6  UNL     1     -16.680  17.803 -14.706  1.00  0.00     0.010 C 
BRANCH  10  12
HETATM   12  C4  UNL     1     -16.879  17.933 -12.237  1.00  0.00     0.005 C 
BRANCH  12  13
HETATM   13  C3  UNL     1     -16.537  19.347 -11.950  1.00  0.00     0.008 C 
BRANCH  13  14
HETATM   14  C2  UNL     1     -16.364  19.648 -10.440  1.00  0.00     0.004 C 
HETATM   15  C1  UNL     1     -17.346  18.842  -9.661  1.00  0.00     0.014 C 
BRANCH  14  16
HETATM   16  C21 UNL     1     -16.237  21.092 -10.189  1.00  0.00    -0.025 C 
BRANCH  16  17
HETATM   17  C22 UNL     1     -17.310  21.918  -9.662  1.00  0.00    -0.015 C 
BRANCH  17  18
HETATM   18  C23 UNL     1     -17.178  22.978  -8.669  1.00  0.00     0.023 C 
HETATM   19  C24 UNL     1     -15.768  23.269  -8.186  1.00  0.00     0.027 C 
HETATM   20  C25 UNL     1     -17.827  22.387  -7.334  1.00  0.00     0.027 C 
BRANCH  18  21
HETATM   21  C26 UNL     1     -17.948  24.220  -8.845  1.00  0.00     0.243 C 
HETATM   22  O3  UNL     1     -18.465  24.774  -7.881  1.00  0.00    -0.306 OA
ENDBRANCH  18  21
ENDBRANCH  17  18
ENDBRANCH  16  17
ENDBRANCH  14  16
ENDBRANCH  13  14
ENDBRANCH  12  13
ENDBRANCH  10  12
ENDBRANCH   1  10
BRANCH   5  23
HETATM   23  C12 UNL     1     -10.347  15.906 -12.881  1.00  0.00     0.010 C 
BRANCH  23  24
HETATM   24  C13 UNL     1      -9.888  14.468 -13.065  1.00  0.00     0.037 C 
BRANCH  24  25
HETATM   25  C14 UNL     1      -8.527  14.370 -12.388  1.00  0.00     0.051 C 
HETATM   26  C15 UNL     1      -8.410  15.346 -11.248  1.00  0.00     0.045 C 
HETATM   27  C16 UNL     1      -7.429  14.583 -13.382  1.00  0.00     0.045 C 
BRANCH  25  28
HETATM   28  O1  UNL     1      -8.428  13.080 -11.878  1.00  0.00    -0.391 OA
ATOM     29  H1  UNL     1      -7.602  12.728 -12.187  1.00  0.00     0.210 HD
ENDBRANCH  25  28
ENDBRANCH  24  25
ENDBRANCH  23  24
ENDBRANCH   5  23
BRANCH   6  30
HETATM   30  O2  UNL     1     -12.016  14.421 -15.280  1.00  0.00    -0.395 OA
ATOM     31  H2  UNL     1     -12.285  13.511 -15.244  1.00  0.00     0.210 HD
ENDBRANCH   6  30
TORSDOF 13
ENDMDL
MODEL 3
REMARK VINA RESULT: -7.974115693      1.767      2.864
REMARK  13 active torsions:
REMARK  status: ('A' for Active; 'I' for Inactive)
REMARK    1  A    between atoms: C2_2  and  C3_3 
REMARK    2  A    between atoms: C2_2  and  C21_25 
REMARK    3  A    between atoms: C3_3  and  C4_4 
REMARK    4  A    between atoms: C4_4  and  C5_5 
REMARK    5  A    between atoms: C5_5  and  C7_7 
REMARK    6  A    between atoms: C11_11  and  C12_12 
REMARK    7  A    between atoms: C12_12  and  C13_13 
REMARK    8  A    between atoms: C13_13  and  C14_14 
REMARK    9  A    between atoms: C14_14  and  O1_17 
REMARK   10  A    between atoms: C17_19  and  O2_20 
REMARK   11  A    between atoms: C21_25  and  C22_26 
REMARK   12  A    between atoms: C22_26  and  C23_27 
REMARK   13  A    between atoms: C23_27  and  C26_30 
ROOT
HETATM    1  C7  UNL     1     -14.385  17.649 -13.324  1.00  0.00    -0.002 C 
HETATM    2  C8  UNL     1     -13.954  17.253 -11.927  1.00  0.00     0.006 C 
HETATM    3  C9  UNL     1     -12.520  16.757 -12.043  1.00  0.00     0.006 C 
HETATM    4  C10 UNL     1     -12.102  17.141 -13.445  1.00  0.00     0.001 C 
HETATM    5  C11 UNL     1     -11.206  16.083 -13.998  1.00  0.00     0.019 C 
HETATM    6  C17 UNL     1     -12.105  14.902 -14.173  1.00  0.00     0.123 C 
HETATM    7  C18 UNL     1     -13.539  15.450 -14.192  1.00  0.00     0.042 C 
HETATM    8  C19 UNL     1     -13.426  16.932 -14.194  1.00  0.00    -0.034 C 
HETATM    9  C20 UNL     1     -13.269  17.529 -15.566  1.00  0.00     0.016 C 
ENDROOT
BRANCH   1  10
HETATM   10  C5  UNL     1     -15.817  17.286 -13.503  1.00  0.00    -0.014 C 
HETATM   11  C6  UNL     1     -16.382  17.551 -14.848  1.00  0.00     0.010 C 
BRANCH  10  12
HETATM   12  C4  UNL     1     -16.629  18.004 -12.422  1.00  0.00     0.005 C 
BRANCH  12  13
HETATM   13  C3  UNL     1     -16.162  19.396 -12.213  1.00  0.00     0.008 C 
BRANCH  13  14
HETATM   14  C2  UNL     1     -16.137  19.824 -10.724  1.00  0.00     0.004 C 
HETATM   15  C1  UNL     1     -14.814  20.432 -10.408  1.00  0.00     0.014 C 
BRANCH  14  16
HETATM   16  C21 UNL     1     -16.691  18.777  -9.852  1.00  0.00    -0.025 C 
BRANCH  16  17
HETATM   17  C22 UNL     1     -18.082  18.724  -9.437  1.00  0.00    -0.015 C 
BRANCH  17  18
HETATM   18  C23 UNL     1     -18.842  19.805  -8.819  1.00  0.00     0.023 C 
HETATM   19  C24 UNL     1     -19.431  19.512  -7.451  1.00  0.00     0.027 C 
HETATM   20  C25 UNL     1     -20.175  19.934  -9.690  1.00  0.00     0.027 C 
BRANCH  18  21
HETATM   21  C26 UNL     1     -18.313  21.177  -8.888  1.00  0.00     0.243 C 
HETATM   22  O3  UNL     1     -18.914  22.045  -9.513  1.00  0.00    -0.306 OA
ENDBRANCH  18  21
ENDBRANCH  17  18
ENDBRANCH  16  17
ENDBRANCH  14  16
ENDBRANCH  13  14
ENDBRANCH  12  13
ENDBRANCH  10  12
ENDBRANCH   1  10
BRANCH   5  23
HETATM   23  C12 UNL     1     -10.092  15.775 -13.010  1.00  0.00     0.010 C 
BRANCH  23  24
HETATM   24  C13 UNL     1     -10.046  14.277 -12.753  1.00  0.00     0.037 C 
BRANCH  24  25
HETATM   25  C14 UNL     1      -8.628  13.973 -12.288  1.00  0.00     0.051 C 
HETATM   26  C15 UNL     1      -7.612  14.387 -13.319  1.00  0.00     0.045 C 
HETATM   27  C16 UNL     1      -8.483  12.521 -11.956  1.00  0.00     0.045 C 
BRANCH  25  28
HETATM   28  O1  UNL     1      -8.418  14.720 -11.134  1.00  0.00    -0.391 OA
ATOM     29  H1  UNL     1      -8.574  14.137 -10.400  1.00  0.00     0.210 HD
ENDBRANCH  25  28
ENDBRANCH  24  25
ENDBRANCH  23  24
ENDBRANCH   5  23
BRANCH   6  30
HETATM   30  O2  UNL     1     -11.794  14.286 -15.383  1.00  0.00    -0.395 OA
ATOM     31  H2  UNL     1     -11.290  13.501 -15.201  1.00  0.00     0.210 HD
ENDBRANCH   6  30
TORSDOF 13
ENDMDL
MODEL 4
REMARK VINA RESULT: -7.952217324      3.952     10.579
REMARK  13 active torsions:
REMARK  status: ('A' for Active; 'I' for Inactive)
REMARK    1  A    between atoms: C2_2  and  C3_3 
REMARK    2  A    between atoms: C2_2  and  C21_25 
REMARK    3  A    between atoms: C3_3  and  C4_4 
REMARK    4  A    between atoms: C4_4  and  C5_5 
REMARK    5  A    between atoms: C5_5  and  C7_7 
REMARK    6  A    between atoms: C11_11  and  C12_12 
REMARK    7  A    between atoms: C12_12  and  C13_13 
REMARK    8  A    between atoms: C13_13  and  C14_14 
REMARK    9  A    between atoms: C14_14  and  O1_17 
REMARK   10  A    between atoms: C17_19  and  O2_20 
REMARK   11  A    between atoms: C21_25  and  C22_26 
REMARK   12  A    between atoms: C22_26  and  C23_27 
REMARK   13  A    between atoms: C23_27  and  C26_30 
ROOT
HETATM    1  C7  UNL     1     -16.336  23.325  -7.956  1.00  0.00    -0.002 C 
HETATM    2  C8  UNL     1     -14.840  23.555  -7.917  1.00  0.00     0.006 C 
HETATM    3  C9  UNL     1     -14.620  24.827  -7.112  1.00  0.00     0.006 C 
HETATM    4  C10 UNL     1     -15.970  25.122  -6.499  1.00  0.00     0.001 C 
HETATM    5  C11 UNL     1     -16.176  26.599  -6.451  1.00  0.00     0.019 C 
HETATM    6  C17 UNL     1     -16.310  26.994  -7.886  1.00  0.00     0.123 C 
HETATM    7  C18 UNL     1     -16.670  25.714  -8.653  1.00  0.00     0.042 C 
HETATM    8  C19 UNL     1     -16.895  24.657  -7.634  1.00  0.00    -0.034 C 
HETATM    9  C20 UNL     1     -18.297  24.625  -7.089  1.00  0.00     0.016 C 
ENDROOT
BRANCH   1  10
HETATM   10  C5  UNL     1     -16.701  22.776  -9.290  1.00  0.00    -0.014 C 
HETATM   11  C6  UNL     1     -17.865  21.856  -9.308  1.00  0.00     0.010 C 
BRANCH  10  12
HETATM   12  C4  UNL     1     -15.464  22.097  -9.880  1.00  0.00     0.005 C 
BRANCH  12  13
HETATM   13  C3  UNL     1     -15.769  20.741 -10.395  1.00  0.00     0.008 C 
BRANCH  13  14
HETATM   14  C2  UNL     1     -14.913  19.624  -9.747  1.00  0.00     0.004 C 
HETATM   15  C1  UNL     1     -13.503  20.091  -9.625  1.00  0.00     0.014 C 
BRANCH  14  16
HETATM   16  C21 UNL     1     -15.202  18.309 -10.341  1.00  0.00    -0.025 C 
BRANCH  16  17
HETATM   17  C22 UNL     1     -14.770  17.911 -11.670  1.00  0.00    -0.015 C 
BRANCH  17  18
HETATM   18  C23 UNL     1     -15.579  17.926 -12.882  1.00  0.00     0.023 C 
HETATM   19  C24 UNL     1     -17.034  17.523 -12.721  1.00  0.00     0.027 C 
HETATM   20  C25 UNL     1     -15.037  16.710 -13.766  1.00  0.00     0.027 C 
BRANCH  18  21
HETATM   21  C26 UNL     1     -15.440  19.054 -13.818  1.00  0.00     0.243 C 
HETATM   22  O3  UNL     1     -14.936  18.887 -14.923  1.00  0.00    -0.306 OA
ENDBRANCH  18  21
ENDBRANCH  17  18
ENDBRANCH  16  17
ENDBRANCH  14  16
ENDBRANCH  13  14
ENDBRANCH  12  13
ENDBRANCH  10  12
ENDBRANCH   1  10
BRANCH   5  23
HETATM   23  C12 UNL     1     -14.971  27.273  -5.813  1.00  0.00     0.010 C 
BRANCH  23  24
HETATM   24  C13 UNL     1     -15.093  27.197  -4.299  1.00  0.00     0.037 C 
BRANCH  24  25
HETATM   25  C14 UNL     1     -13.724  26.769  -3.787  1.00  0.00     0.051 C 
HETATM   26  C15 UNL     1     -12.657  26.986  -4.826  1.00  0.00     0.045 C 
HETATM   27  C16 UNL     1     -13.751  25.339  -3.346  1.00  0.00     0.045 C 
BRANCH  25  28
HETATM   28  O1  UNL     1     -13.442  27.573  -2.688  1.00  0.00    -0.391 OA
ATOM     29  H1  UNL     1     -13.755  27.106  -1.922  1.00  0.00     0.210 HD
ENDBRANCH  25  28
ENDBRANCH  24  25
ENDBRANCH  23  24
ENDBRANCH   5  23
BRANCH   6  30
HETATM   30  O2  UNL     1     -17.329  27.938  -7.992  1.00  0.00    -0.395 OA
ATOM     31  H2  UNL     1     -17.714  27.870  -8.857  1.00  0.00     0.210 HD
ENDBRANCH   6  30
TORSDOF 13
ENDMDL
MODEL 5
REMARK VINA RESULT: -7.908730343      2.433      5.267
REMARK  13 active torsions:
REMARK  status: ('A' for Active; 'I' for Inactive)
REMARK    1  A    between atoms: C2_2  and  C3_3 
REMARK    2  A    between atoms: C2_2  and  C21_25 
REMARK    3  A    between atoms: C3_3  and  C4_4 
REMARK    4  A    between atoms: C4_4  and  C5_5 
REMARK    5  A    between atoms: C5_5  and  C7_7 
REMARK    6  A    between atoms: C11_11  and  C12_12 
REMARK    7  A    between atoms: C12_12  and  C13_13 
REMARK    8  A    between atoms: C13_13  and  C14_14 
REMARK    9  A    between atoms: C14_14  and  O1_17 
REMARK   10  A    between atoms: C17_19  and  O2_20 
REMARK   11  A    between atoms: C21_25  and  C22_26 
REMARK   12  A    between atoms: C22_26  and  C23_27 
REMARK   13  A    between atoms: C23_27  and  C26_30 
ROOT
HETATM    1  C7  UNL     1     -17.098  20.640 -10.080  1.00  0.00    -0.002 C 
HETATM    2  C8  UNL     1     -16.255  21.281 -11.162  1.00  0.00     0.006 C 
HETATM    3  C9  UNL     1     -15.630  20.141 -11.954  1.00  0.00     0.006 C 
HETATM    4  C10 UNL     1     -16.351  18.905 -11.466  1.00  0.00     0.001 C 
HETATM    5  C11 UNL     1     -15.394  17.761 -11.430  1.00  0.00     0.019 C 
HETATM    6  C17 UNL     1     -14.447  18.114 -10.329  1.00  0.00     0.123 C 
HETATM    7  C18 UNL     1     -15.162  19.164  -9.466  1.00  0.00     0.042 C 
HETATM    8  C19 UNL     1     -16.549  19.268  -9.987  1.00  0.00    -0.034 C 
HETATM    9  C20 UNL     1     -17.498  18.260  -9.398  1.00  0.00     0.016 C 
ENDROOT
BRANCH   1  10
HETATM   10  C5  UNL     1     -16.998  21.462  -8.844  1.00  0.00    -0.014 C 
HETATM   11  C6  UNL     1     -18.280  21.737  -8.151  1.00  0.00     0.010 C 
BRANCH  10  12
HETATM   12  C4  UNL     1     -16.280  22.766  -9.198  1.00  0.00     0.005 C 
BRANCH  12  13
HETATM   13  C3  UNL     1     -15.817  23.489  -7.989  1.00  0.00     0.008 C 
BRANCH  13  14
HETATM   14  C2  UNL     1     -14.300  23.799  -7.995  1.00  0.00     0.004 C 
HETATM   15  C1  UNL     1     -14.017  24.896  -7.027  1.00  0.00     0.014 C 
BRANCH  14  16
HETATM   16  C21 UNL     1     -13.770  23.875  -9.366  1.00  0.00    -0.025 C 
BRANCH  16  17
HETATM   17  C22 UNL     1     -12.616  23.123  -9.828  1.00  0.00    -0.015 C 
BRANCH  17  18
HETATM   18  C23 UNL     1     -11.254  23.625  -9.963  1.00  0.00     0.023 C 
HETATM   19  C24 UNL     1     -10.928  24.891  -9.191  1.00  0.00     0.027 C 
HETATM   20  C25 UNL     1     -11.151  24.165 -11.464  1.00  0.00     0.027 C 
BRANCH  18  21
HETATM   21  C26 UNL     1     -10.134  22.671  -9.917  1.00  0.00     0.243 C 
HETATM   22  O3  UNL     1     -10.294  21.546  -9.455  1.00  0.00    -0.306 OA
ENDBRANCH  18  21
ENDBRANCH  17  18
ENDBRANCH  16  17
ENDBRANCH  14  16
ENDBRANCH  13  14
ENDBRANCH  12  13
ENDBRANCH  10  12
ENDBRANCH   1  10
BRANCH   5  23
HETATM   23  C12 UNL     1     -14.664  17.649 -12.759  1.00  0.00     0.010 C 
BRANCH  23  24
HETATM   24  C13 UNL     1     -13.265  17.102 -12.521  1.00  0.00     0.037 C 
BRANCH  24  25
HETATM   25  C14 UNL     1     -12.709  16.756 -13.896  1.00  0.00     0.051 C 
HETATM   26  C15 UNL     1     -13.281  17.652 -14.961  1.00  0.00     0.045 C 
HETATM   27  C16 UNL     1     -12.965  15.318 -14.220  1.00  0.00     0.045 C 
BRANCH  25  28
HETATM   28  O1  UNL     1     -11.335  16.964 -13.833  1.00  0.00    -0.391 OA
ATOM     29  H1  UNL     1     -10.979  16.271 -13.289  1.00  0.00     0.210 HD
ENDBRANCH  25  28
ENDBRANCH  24  25
ENDBRANCH  23  24
ENDBRANCH   5  23
BRANCH   6  30
HETATM   30  O2  UNL     1     -14.179  16.964  -9.590  1.00  0.00    -0.395 OA
ATOM     31  H2  UNL     1     -13.776  17.221  -8.769  1.00  0.00     0.210 HD
ENDBRANCH   6  30
TORSDOF 13
ENDMDL
