MODEL 1
REMARK VINA RESULT: -6.862812595      0.000      0.000
REMARK  12 active torsions:
REMARK  status: ('A' for Active; 'I' for Inactive)
REMARK    1  A    between atoms: C2_2  and  C3_4 
REMARK    2  A    between atoms: C3_4  and  C4_5 
REMARK    3  A    between atoms: C4_5  and  C5_6 
REMARK    4  A    between atoms: C5_6  and  C6_7 
REMARK    5  A    between atoms: C6_7  and  C7_8 
REMARK    6  A    between atoms: C7_8  and  C8_9 
REMARK    7  A    between atoms: C8_9  and  C9_10 
REMARK    8  A    between atoms: C9_10  and  C10_11 
REMARK    9  A    between atoms: C15_16  and  C16_17 
REMARK   10  A    between atoms: C16_17  and  O2_18 
REMARK   11  A    between atoms: C19_22  and  C20_23 
REMARK   12  A    between atoms: C26_29  and  O3_30 
ROOT
HETATM    1  C10 UNL     1     -13.917  25.120  -8.252  1.00  0.00    -0.006 C 
HETATM    2  C11 UNL     1     -14.688  25.770  -7.117  1.00  0.00    -0.003 C 
HETATM    3  C12 UNL     1     -14.239  25.458  -5.755  1.00  0.00     0.011 C 
HETATM    4  C13 UNL     1     -14.875  27.230  -7.440  1.00  0.00    -0.001 C 
HETATM    5  C14 UNL     1     -16.332  27.661  -7.293  1.00  0.00     0.011 C 
HETATM    6  C15 UNL     1     -14.470  27.320  -8.861  1.00  0.00     0.011 C 
HETATM    7  C17 UNL     1     -13.020  27.733  -8.863  1.00  0.00     0.015 C 
HETATM    8  C18 UNL     1     -12.277  26.877  -7.852  1.00  0.00     0.007 C 
HETATM    9  C19 UNL     1     -12.457  25.373  -8.148  1.00  0.00     0.001 C 
HETATM   10  C26 UNL     1     -14.582  25.874  -9.368  1.00  0.00     0.138 C 
ENDROOT
BRANCH   1  11
HETATM   11  C9  UNL     1     -14.276  23.671  -8.198  1.00  0.00     0.013 C 
BRANCH  11  12
HETATM   12  C8  UNL     1     -15.568  23.275  -8.871  1.00  0.00     0.001 C 
BRANCH  12  13
HETATM   13  C7  UNL     1     -15.128  22.232  -9.921  1.00  0.00     0.000 C 
BRANCH  13  14
HETATM   14  C6  UNL     1     -14.004  21.349  -9.392  1.00  0.00     0.000 C 
BRANCH  14  15
HETATM   15  C5  UNL     1     -14.208  19.919  -9.700  1.00  0.00     0.000 C 
BRANCH  15  16
HETATM   16  C4  UNL     1     -13.034  19.008  -9.683  1.00  0.00     0.007 C 
BRANCH  16  17
HETATM   17  C3  UNL     1     -11.715  19.574  -9.370  1.00  0.00     0.077 C 
BRANCH  17  18
HETATM   18  C2  UNL     1     -10.656  18.732  -8.843  1.00  0.00     0.123 C 
HETATM   19  C1  UNL     1      -9.611  18.245  -9.815  1.00  0.00     0.091 C 
HETATM   20  O1  UNL     1     -10.590  18.418  -7.679  1.00  0.00    -0.298 OA
ENDBRANCH  17  18
ENDBRANCH  16  17
ENDBRANCH  15  16
ENDBRANCH  14  15
ENDBRANCH  13  14
ENDBRANCH  12  13
ENDBRANCH  11  12
ENDBRANCH   1  11
BRANCH   9  21
HETATM   21  C20 UNL     1     -11.530  25.103  -9.224  1.00  0.00    -0.010 C 
HETATM   22  C21 UNL     1     -10.158  25.642  -8.777  1.00  0.00     0.005 C 
HETATM   23  C22 UNL     1      -9.105  24.526  -8.758  1.00  0.00     0.000 C 
HETATM   24  C23 UNL     1      -8.871  23.929 -10.094  1.00  0.00     0.000 C 
HETATM   25  C24 UNL     1     -10.168  23.960 -10.852  1.00  0.00     0.000 C 
HETATM   26  C25 UNL     1     -11.284  23.784  -9.795  1.00  0.00     0.005 C 
ENDBRANCH   9  21
BRANCH  10  27
HETATM   27  O3  UNL     1     -14.052  25.803 -10.599  1.00  0.00    -0.394 OA
ATOM     28  H3  UNL     1     -14.469  26.286 -11.303  1.00  0.00     0.210 HD
ENDBRANCH  10  27
BRANCH   6  29
HETATM   29  C16 UNL     1     -15.221  28.271  -9.720  1.00  0.00     0.176 C 
BRANCH  29  30
HETATM   30  O2  UNL     1     -14.455  28.667 -10.791  1.00  0.00    -0.400 OA
ATOM     31  H2  UNL     1     -14.423  29.615 -10.847  1.00  0.00     0.209 HD
ENDBRANCH  29  30
ENDBRANCH   6  29
TORSDOF 12
ENDMDL
MODEL 2
REMARK VINA RESULT: -6.818468627      5.030      7.521
REMARK  12 active torsions:
REMARK  status: ('A' for Active; 'I' for Inactive)
REMARK    1  A    between atoms: C2_2  and  C3_4 
REMARK    2  A    between atoms: C3_4  and  C4_5 
REMARK    3  A    between atoms: C4_5  and  C5_6 
REMARK    4  A    between atoms: C5_6  and  C6_7 
REMARK    5  A    between atoms: C6_7  and  C7_8 
REMARK    6  A    between atoms: C7_8  and  C8_9 
REMARK    7  A    between atoms: C8_9  and  C9_10 
REMARK    8  A    between atoms: C9_10  and  C10_11 
REMARK    9  A    between atoms: C15_16  and  C16_17 
REMARK   10  A    between atoms: C16_17  and  O2_18 
REMARK   11  A    between atoms: C19_22  and  C20_23 
REMARK   12  A    between atoms: C26_29  and  O3_30 
ROOT
HETATM    1  C10 UNL     1     -14.879  19.274  -9.986  1.00  0.00    -0.006 C 
HETATM    2  C11 UNL     1     -15.401  20.663  -9.664  1.00  0.00    -0.003 C 
HETATM    3  C12 UNL     1     -14.606  21.793 -10.159  1.00  0.00     0.011 C 
HETATM    4  C13 UNL     1     -16.877  20.702  -9.964  1.00  0.00    -0.001 C 
HETATM    5  C14 UNL     1     -17.679  21.260  -8.791  1.00  0.00     0.011 C 
HETATM    6  C15 UNL     1     -17.221  19.278 -10.171  1.00  0.00     0.011 C 
HETATM    7  C17 UNL     1     -17.150  19.036 -11.658  1.00  0.00     0.015 C 
HETATM    8  C18 UNL     1     -15.865  19.653 -12.183  1.00  0.00     0.007 C 
HETATM    9  C19 UNL     1     -14.632  19.097 -11.441  1.00  0.00     0.001 C 
HETATM   10  C26 UNL     1     -16.077  18.519  -9.483  1.00  0.00     0.138 C 
ENDROOT
BRANCH   1  11
HETATM   11  C9  UNL     1     -13.656  19.103  -9.148  1.00  0.00     0.013 C 
BRANCH  11  12
HETATM   12  C8  UNL     1     -12.386  19.721  -9.683  1.00  0.00     0.001 C 
BRANCH  12  13
HETATM   13  C7  UNL     1     -11.283  18.742  -9.223  1.00  0.00     0.000 C 
BRANCH  13  14
HETATM   14  C6  UNL     1      -9.901  19.214  -9.659  1.00  0.00     0.000 C 
BRANCH  14  15
HETATM   15  C5  UNL     1      -8.998  18.098 -10.002  1.00  0.00     0.000 C 
BRANCH  15  16
HETATM   16  C4  UNL     1      -9.544  16.941 -10.757  1.00  0.00     0.007 C 
BRANCH  16  17
HETATM   17  C3  UNL     1      -8.625  15.863 -11.145  1.00  0.00     0.077 C 
BRANCH  17  18
HETATM   18  C2  UNL     1      -8.953  14.971 -12.244  1.00  0.00     0.123 C 
HETATM   19  C1  UNL     1      -8.973  13.492 -11.951  1.00  0.00     0.091 C 
HETATM   20  O1  UNL     1      -9.203  15.370 -13.356  1.00  0.00    -0.298 OA
ENDBRANCH  17  18
ENDBRANCH  16  17
ENDBRANCH  15  16
ENDBRANCH  14  15
ENDBRANCH  13  14
ENDBRANCH  12  13
ENDBRANCH  11  12
ENDBRANCH   1  11
BRANCH   9  21
HETATM   21  C20 UNL     1     -14.393  17.809 -12.050  1.00  0.00    -0.010 C 
HETATM   22  C21 UNL     1     -14.956  17.881 -13.483  1.00  0.00     0.005 C 
HETATM   23  C22 UNL     1     -13.863  17.600 -14.521  1.00  0.00     0.000 C 
HETATM   24  C23 UNL     1     -13.285  16.241 -14.400  1.00  0.00     0.000 C 
HETATM   25  C24 UNL     1     -13.296  15.857 -12.947  1.00  0.00     0.000 C 
HETATM   26  C25 UNL     1     -13.085  17.172 -12.158  1.00  0.00     0.005 C 
ENDBRANCH   9  21
BRANCH  10  27
HETATM   27  O3  UNL     1     -16.184  17.213  -9.775  1.00  0.00    -0.394 OA
ATOM     28  H3  UNL     1     -15.881  16.578  -9.137  1.00  0.00     0.210 HD
ENDBRANCH  10  27
BRANCH   6  29
HETATM   29  C16 UNL     1     -18.554  18.827  -9.694  1.00  0.00     0.176 C 
BRANCH  29  30
HETATM   30  O2  UNL     1     -19.554  19.366 -10.468  1.00  0.00    -0.400 OA
ATOM     31  H2  UNL     1     -20.362  18.877 -10.362  1.00  0.00     0.209 HD
ENDBRANCH  29  30
ENDBRANCH   6  29
TORSDOF 12
ENDMDL
MODEL 3
REMARK VINA RESULT: -6.649877990      2.502      4.758
REMARK  12 active torsions:
REMARK  status: ('A' for Active; 'I' for Inactive)
REMARK    1  A    between atoms: C2_2  and  C3_4 
REMARK    2  A    between atoms: C3_4  and  C4_5 
REMARK    3  A    between atoms: C4_5  and  C5_6 
REMARK    4  A    between atoms: C5_6  and  C6_7 
REMARK    5  A    between atoms: C6_7  and  C7_8 
REMARK    6  A    between atoms: C7_8  and  C8_9 
REMARK    7  A    between atoms: C8_9  and  C9_10 
REMARK    8  A    between atoms: C9_10  and  C10_11 
REMARK    9  A    between atoms: C15_16  and  C16_17 
REMARK   10  A    between atoms: C16_17  and  O2_18 
REMARK   11  A    between atoms: C19_22  and  C20_23 
REMARK   12  A    between atoms: C26_29  and  O3_30 
ROOT
HETATM    1  C10 UNL     1     -15.092  26.679  -7.427  1.00  0.00    -0.006 C 
HETATM    2  C11 UNL     1     -15.112  27.647  -8.597  1.00  0.00    -0.003 C 
HETATM    3  C12 UNL     1     -15.479  29.035  -8.294  1.00  0.00     0.011 C 
HETATM    4  C13 UNL     1     -13.856  27.449  -9.404  1.00  0.00    -0.001 C 
HETATM    5  C14 UNL     1     -14.158  27.270 -10.890  1.00  0.00     0.011 C 
HETATM    6  C15 UNL     1     -13.291  26.196  -8.856  1.00  0.00     0.011 C 
HETATM    7  C17 UNL     1     -12.289  26.604  -7.807  1.00  0.00     0.015 C 
HETATM    8  C18 UNL     1     -12.922  27.671  -6.930  1.00  0.00     0.007 C 
HETATM    9  C19 UNL     1     -14.246  27.175  -6.311  1.00  0.00     0.001 C 
HETATM   10  C26 UNL     1     -14.489  25.521  -8.171  1.00  0.00     0.138 C 
ENDROOT
BRANCH   1  11
HETATM   11  C9  UNL     1     -16.523  26.481  -7.049  1.00  0.00     0.013 C 
BRANCH  11  12
HETATM   12  C8  UNL     1     -17.408  25.838  -8.089  1.00  0.00     0.001 C 
BRANCH  12  13
HETATM   13  C7  UNL     1     -18.314  24.897  -7.265  1.00  0.00     0.000 C 
BRANCH  13  14
HETATM   14  C6  UNL     1     -18.454  23.533  -7.931  1.00  0.00     0.000 C 
BRANCH  14  15
HETATM   15  C5  UNL     1     -17.172  22.804  -8.015  1.00  0.00     0.000 C 
BRANCH  15  16
HETATM   16  C4  UNL     1     -16.828  22.104  -9.280  1.00  0.00     0.007 C 
BRANCH  16  17
HETATM   17  C3  UNL     1     -15.506  22.343  -9.873  1.00  0.00     0.077 C 
BRANCH  17  18
HETATM   18  C2  UNL     1     -14.368  21.524  -9.497  1.00  0.00     0.123 C 
HETATM   19  C1  UNL     1     -14.445  20.049  -9.804  1.00  0.00     0.091 C 
HETATM   20  O1  UNL     1     -13.387  21.978  -8.958  1.00  0.00    -0.298 OA
ENDBRANCH  17  18
ENDBRANCH  16  17
ENDBRANCH  15  16
ENDBRANCH  14  15
ENDBRANCH  13  14
ENDBRANCH  12  13
ENDBRANCH  11  12
ENDBRANCH   1  11
BRANCH   9  21
HETATM   21  C20 UNL     1     -13.839  26.345  -5.200  1.00  0.00    -0.010 C 
HETATM   22  C21 UNL     1     -12.715  27.102  -4.466  1.00  0.00     0.005 C 
HETATM   23  C22 UNL     1     -13.090  27.364  -3.002  1.00  0.00     0.000 C 
HETATM   24  C23 UNL     1     -13.291  26.119  -2.224  1.00  0.00     0.000 C 
HETATM   25  C24 UNL     1     -13.857  25.078  -3.149  1.00  0.00     0.000 C 
HETATM   26  C25 UNL     1     -14.736  25.844  -4.166  1.00  0.00     0.005 C 
ENDBRANCH   9  21
BRANCH  10  27
HETATM   27  O3  UNL     1     -14.051  24.464  -7.470  1.00  0.00    -0.394 OA
ATOM     28  H3  UNL     1     -14.667  23.997  -6.918  1.00  0.00     0.210 HD
ENDBRANCH  10  27
BRANCH   6  29
HETATM   29  C16 UNL     1     -12.611  25.284  -9.813  1.00  0.00     0.176 C 
BRANCH  29  30
HETATM   30  O2  UNL     1     -11.739  24.451  -9.153  1.00  0.00    -0.400 OA
ATOM     31  H2  UNL     1     -12.143  23.609  -8.983  1.00  0.00     0.209 HD
ENDBRANCH  29  30
ENDBRANCH   6  29
TORSDOF 12
ENDMDL
MODEL 4
REMARK VINA RESULT: -6.643706366      4.005      9.010
REMARK  12 active torsions:
REMARK  status: ('A' for Active; 'I' for Inactive)
REMARK    1  A    between atoms: C2_2  and  C3_4 
REMARK    2  A    between atoms: C3_4  and  C4_5 
REMARK    3  A    between atoms: C4_5  and  C5_6 
REMARK    4  A    between atoms: C5_6  and  C6_7 
REMARK    5  A    between atoms: C6_7  and  C7_8 
REMARK    6  A    between atoms: C7_8  and  C8_9 
REMARK    7  A    between atoms: C8_9  and  C9_10 
REMARK    8  A    between atoms: C9_10  and  C10_11 
REMARK    9  A    between atoms: C15_16  and  C16_17 
REMARK   10  A    between atoms: C16_17  and  O2_18 
REMARK   11  A    between atoms: C19_22  and  C20_23 
REMARK   12  A    between atoms: C26_29  and  O3_30 
ROOT
HETATM    1  C10 UNL     1     -15.133  19.241 -10.582  1.00  0.00    -0.006 C 
HETATM    2  C11 UNL     1     -14.157  18.087 -10.732  1.00  0.00    -0.003 C 
HETATM    3  C12 UNL     1     -13.862  17.315  -9.519  1.00  0.00     0.011 C 
HETATM    4  C13 UNL     1     -14.539  17.292 -11.954  1.00  0.00    -0.001 C 
HETATM    5  C14 UNL     1     -13.345  17.061 -12.876  1.00  0.00     0.011 C 
HETATM    6  C15 UNL     1     -15.530  18.159 -12.629  1.00  0.00     0.011 C 
HETATM    7  C17 UNL     1     -16.887  17.690 -12.171  1.00  0.00     0.015 C 
HETATM    8  C18 UNL     1     -16.848  17.511 -10.663  1.00  0.00     0.007 C 
HETATM    9  C19 UNL     1     -16.409  18.810  -9.955  1.00  0.00     0.001 C 
HETATM   10  C26 UNL     1     -15.257  19.554 -12.046  1.00  0.00     0.138 C 
ENDROOT
BRANCH   1  11
HETATM   11  C9  UNL     1     -14.403  20.280  -9.797  1.00  0.00     0.013 C 
BRANCH  11  12
HETATM   12  C8  UNL     1     -14.578  21.709 -10.252  1.00  0.00     0.001 C 
BRANCH  12  13
HETATM   13  C7  UNL     1     -14.400  22.528  -8.955  1.00  0.00     0.000 C 
BRANCH  13  14
HETATM   14  C6  UNL     1     -15.128  23.865  -9.035  1.00  0.00     0.000 C 
BRANCH  14  15
HETATM   15  C5  UNL     1     -16.205  23.991  -8.033  1.00  0.00     0.000 C 
BRANCH  15  16
HETATM   16  C4  UNL     1     -17.516  24.548  -8.455  1.00  0.00     0.007 C 
BRANCH  16  17
HETATM   17  C3  UNL     1     -18.578  24.676  -7.449  1.00  0.00     0.077 C 
BRANCH  17  18
HETATM   18  C2  UNL     1     -18.533  25.737  -6.458  1.00  0.00     0.123 C 
HETATM   19  C1  UNL     1     -19.175  27.052  -6.823  1.00  0.00     0.091 C 
HETATM   20  O1  UNL     1     -18.009  25.601  -5.378  1.00  0.00    -0.298 OA
ENDBRANCH  17  18
ENDBRANCH  16  17
ENDBRANCH  15  16
ENDBRANCH  14  15
ENDBRANCH  13  14
ENDBRANCH  12  13
ENDBRANCH  11  12
ENDBRANCH   1  11
BRANCH   9  21
HETATM   21  C20 UNL     1     -17.597  19.633  -9.938  1.00  0.00    -0.010 C 
HETATM   22  C21 UNL     1     -18.710  18.796  -9.278  1.00  0.00     0.005 C 
HETATM   23  C22 UNL     1     -19.264  19.497  -8.031  1.00  0.00     0.000 C 
HETATM   24  C23 UNL     1     -19.890  20.806  -8.334  1.00  0.00     0.000 C 
HETATM   25  C24 UNL     1     -19.148  21.423  -9.486  1.00  0.00     0.000 C 
HETATM   26  C25 UNL     1     -17.678  20.961  -9.342  1.00  0.00     0.005 C 
ENDBRANCH   9  21
BRANCH  10  27
HETATM   27  O3  UNL     1     -16.227  20.390 -12.446  1.00  0.00    -0.394 OA
ATOM     28  H3  UNL     1     -16.106  20.876 -13.253  1.00  0.00     0.210 HD
ENDBRANCH  10  27
BRANCH   6  29
HETATM   29  C16 UNL     1     -15.522  18.166 -14.115  1.00  0.00     0.176 C 
BRANCH  29  30
HETATM   30  O2  UNL     1     -15.249  19.425 -14.593  1.00  0.00    -0.400 OA
ATOM     31  H2  UNL     1     -15.058  19.397 -15.523  1.00  0.00     0.209 HD
ENDBRANCH  29  30
ENDBRANCH   6  29
TORSDOF 12
ENDMDL
MODEL 5
REMARK VINA RESULT: -6.543152648      3.229      5.916
REMARK  12 active torsions:
REMARK  status: ('A' for Active; 'I' for Inactive)
REMARK    1  A    between atoms: C2_2  and  C3_4 
REMARK    2  A    between atoms: C3_4  and  C4_5 
REMARK    3  A    between atoms: C4_5  and  C5_6 
REMARK    4  A    between atoms: C5_6  and  C6_7 
REMARK    5  A    between atoms: C6_7  and  C7_8 
REMARK    6  A    between atoms: C7_8  and  C8_9 
REMARK    7  A    between atoms: C8_9  and  C9_10 
REMARK    8  A    between atoms: C9_10  and  C10_11 
REMARK    9  A    between atoms: C15_16  and  C16_17 
REMARK   10  A    between atoms: C16_17  and  O2_18 
REMARK   11  A    between atoms: C19_22  and  C20_23 
REMARK   12  A    between atoms: C26_29  and  O3_30 
ROOT
HETATM    1  C10 UNL     1     -15.200  26.093  -7.371  1.00  0.00    -0.006 C 
HETATM    2  C11 UNL     1     -14.323  27.255  -6.939  1.00  0.00    -0.003 C 
HETATM    3  C12 UNL     1     -13.041  26.912  -6.313  1.00  0.00     0.011 C 
HETATM    4  C13 UNL     1     -14.271  28.259  -8.062  1.00  0.00    -0.001 C 
HETATM    5  C14 UNL     1     -14.590  29.670  -7.575  1.00  0.00     0.011 C 
HETATM    6  C15 UNL     1     -15.333  27.797  -8.982  1.00  0.00     0.011 C 
HETATM    7  C17 UNL     1     -14.654  26.935 -10.017  1.00  0.00     0.015 C 
HETATM    8  C18 UNL     1     -13.717  25.978  -9.301  1.00  0.00     0.007 C 
HETATM    9  C19 UNL     1     -14.468  25.140  -8.246  1.00  0.00     0.001 C 
HETATM   10  C26 UNL     1     -16.227  26.912  -8.100  1.00  0.00     0.138 C 
ENDROOT
BRANCH   1  11
HETATM   11  C9  UNL     1     -15.699  25.478  -6.105  1.00  0.00     0.013 C 
BRANCH  11  12
HETATM   12  C8  UNL     1     -16.899  26.136  -5.468  1.00  0.00     0.001 C 
BRANCH  12  13
HETATM   13  C7  UNL     1     -16.541  26.169  -3.966  1.00  0.00     0.000 C 
BRANCH  13  14
HETATM   14  C6  UNL     1     -15.754  27.425  -3.608  1.00  0.00     0.000 C 
BRANCH  14  15
HETATM   15  C5  UNL     1     -14.443  27.123  -2.999  1.00  0.00     0.000 C 
BRANCH  15  16
HETATM   16  C4  UNL     1     -13.993  25.709  -2.930  1.00  0.00     0.007 C 
BRANCH  16  17
HETATM   17  C3  UNL     1     -12.715  25.414  -2.269  1.00  0.00     0.077 C 
BRANCH  17  18
HETATM   18  C2  UNL     1     -12.686  24.712  -0.998  1.00  0.00     0.123 C 
HETATM   19  C1  UNL     1     -14.013  24.352  -0.376  1.00  0.00     0.091 C 
HETATM   20  O1  UNL     1     -11.658  24.415  -0.439  1.00  0.00    -0.298 OA
ENDBRANCH  17  18
ENDBRANCH  16  17
ENDBRANCH  15  16
ENDBRANCH  14  15
ENDBRANCH  13  14
ENDBRANCH  12  13
ENDBRANCH  11  12
ENDBRANCH   1  11
BRANCH   9  21
HETATM   21  C20 UNL     1     -15.126  24.103  -9.007  1.00  0.00    -0.010 C 
HETATM   22  C21 UNL     1     -14.027  23.359  -9.790  1.00  0.00     0.005 C 
HETATM   23  C22 UNL     1     -14.004  21.868  -9.430  1.00  0.00     0.000 C 
HETATM   24  C23 UNL     1     -15.265  21.170  -9.774  1.00  0.00     0.000 C 
HETATM   25  C24 UNL     1     -16.398  22.143  -9.603  1.00  0.00     0.000 C 
HETATM   26  C25 UNL     1     -15.987  23.074  -8.437  1.00  0.00     0.005 C 
ENDBRANCH   9  21
BRANCH  10  27
HETATM   27  O3  UNL     1     -17.120  26.282  -8.878  1.00  0.00    -0.394 OA
ATOM     28  H3  UNL     1     -17.875  25.877  -8.469  1.00  0.00     0.210 HD
ENDBRANCH  10  27
BRANCH   6  29
HETATM   29  C16 UNL     1     -16.114  28.842  -9.694  1.00  0.00     0.176 C 
BRANCH  29  30
HETATM   30  O2  UNL     1     -17.405  28.888  -9.223  1.00  0.00    -0.400 OA
ATOM     31  H2  UNL     1     -17.989  29.246  -9.881  1.00  0.00     0.209 HD
ENDBRANCH  29  30
ENDBRANCH   6  29
TORSDOF 12
ENDMDL
