MODEL 1
REMARK VINA RESULT: -7.155036313      0.000      0.000
REMARK  3 active torsions:
REMARK  status: ('A' for Active; 'I' for Inactive)
REMARK    1  A    between atoms: C11_11  and  N1_12 
REMARK    2  A    between atoms: N1_12  and  S1_14 
REMARK    3  A    between atoms: C13_18  and  C14_19 
ROOT
HETATM    1  C1  UNL     1     -13.043  52.954  -8.346  1.00  0.00     0.043 C 
HETATM    2  C2  UNL     1     -11.624  52.748  -7.988  1.00  0.00    -0.083 C 
HETATM    3  C3  UNL     1     -10.613  53.485  -8.430  1.00  0.00    -0.024 C 
HETATM    4  C4  UNL     1      -9.341  52.929  -7.813  1.00  0.00     0.033 C 
HETATM    5  C5  UNL     1      -9.738  51.523  -7.687  1.00  0.00     0.002 C 
HETATM    6  C6  UNL     1     -11.122  51.674  -7.080  1.00  0.00     0.018 C 
HETATM    7  C7  UNL     1     -11.139  52.008  -5.644  1.00  0.00     0.010 C 
HETATM    8  C8  UNL     1      -9.898  51.848  -4.858  1.00  0.00     0.012 C 
HETATM    9  C9  UNL     1      -8.791  51.063  -5.402  1.00  0.00    -0.018 C 
HETATM   10  C10 UNL     1      -8.653  49.766  -4.572  1.00  0.00     0.018 C 
HETATM   11  C11 UNL     1      -7.414  51.730  -5.187  1.00  0.00     0.106 C 
HETATM   12  C13 UNL     1      -6.327  50.868  -5.718  1.00  0.00     0.020 C 
HETATM   13  C15 UNL     1      -6.477  50.667  -7.217  1.00  0.00     0.012 C 
HETATM   14  C16 UNL     1      -7.771  49.985  -7.441  1.00  0.00    -0.013 C 
HETATM   15  C17 UNL     1      -8.053  49.862  -8.945  1.00  0.00     0.010 C 
HETATM   16  C18 UNL     1      -8.979  50.593  -6.816  1.00  0.00     0.004 C 
ENDROOT
BRANCH  11  17
HETATM   17  N1  UNL     1      -7.232  51.969  -3.784  1.00  0.00    -0.314 N 
ATOM     18  H1  UNL     1      -7.199  51.211  -3.103  1.00  0.00     0.172 HD
BRANCH  17  19
HETATM   19  S1  UNL     1      -7.076  53.604  -3.335  1.00  0.00     0.223 S 
HETATM   20  C12 UNL     1      -5.396  54.162  -3.193  1.00  0.00     0.185 C 
HETATM   21  O1  UNL     1      -7.707  53.802  -1.964  1.00  0.00    -0.206 OA
HETATM   22  O2  UNL     1      -7.730  54.553  -4.318  1.00  0.00    -0.206 OA
ENDBRANCH  17  19
ENDBRANCH  11  17
BRANCH  12  23
HETATM   23  C14 UNL     1      -4.987  51.510  -5.489  1.00  0.00     0.091 C 
HETATM   24 BR1  UNL     1      -4.827  52.976  -6.784  1.00  0.00    -0.096 Br
ENDBRANCH  12  23
TORSDOF 3
ENDMDL
MODEL 2
REMARK VINA RESULT: -6.391516361      1.246      1.328
REMARK  3 active torsions:
REMARK  status: ('A' for Active; 'I' for Inactive)
REMARK    1  A    between atoms: C11_11  and  N1_12 
REMARK    2  A    between atoms: N1_12  and  S1_14 
REMARK    3  A    between atoms: C13_18  and  C14_19 
ROOT
HETATM    1  C1  UNL     1     -12.667  53.145  -8.381  1.00  0.00     0.043 C 
HETATM    2  C2  UNL     1     -11.296  52.792  -7.959  1.00  0.00    -0.083 C 
HETATM    3  C3  UNL     1     -10.203  53.474  -8.280  1.00  0.00    -0.024 C 
HETATM    4  C4  UNL     1      -9.022  52.767  -7.637  1.00  0.00     0.033 C 
HETATM    5  C5  UNL     1      -9.536  51.394  -7.649  1.00  0.00     0.002 C 
HETATM    6  C6  UNL     1     -10.940  51.614  -7.114  1.00  0.00     0.018 C 
HETATM    7  C7  UNL     1     -11.023  51.837  -5.659  1.00  0.00     0.010 C 
HETATM    8  C8  UNL     1      -9.853  51.514  -4.817  1.00  0.00     0.012 C 
HETATM    9  C9  UNL     1      -8.779  50.682  -5.358  1.00  0.00    -0.018 C 
HETATM   10  C10 UNL     1      -8.798  49.318  -4.630  1.00  0.00     0.018 C 
HETATM   11  C11 UNL     1      -7.370  51.212  -5.009  1.00  0.00     0.106 C 
HETATM   12  C13 UNL     1      -6.322  50.305  -5.545  1.00  0.00     0.020 C 
HETATM   13  C15 UNL     1      -6.391  50.232  -7.061  1.00  0.00     0.012 C 
HETATM   14  C16 UNL     1      -7.718  49.681  -7.415  1.00  0.00    -0.013 C 
HETATM   15  C17 UNL     1      -7.911  49.697  -8.939  1.00  0.00     0.010 C 
HETATM   16  C18 UNL     1      -8.911  50.339  -6.815  1.00  0.00     0.004 C 
ENDROOT
BRANCH  11  17
HETATM   17  N1  UNL     1      -7.261  51.327  -3.584  1.00  0.00    -0.314 N 
ATOM     18  H1  UNL     1      -7.325  50.519  -2.966  1.00  0.00     0.172 HD
BRANCH  17  19
HETATM   19  S1  UNL     1      -7.018  52.906  -2.994  1.00  0.00     0.223 S 
HETATM   20  C12 UNL     1      -7.113  54.170  -4.238  1.00  0.00     0.185 C 
HETATM   21  O1  UNL     1      -5.621  53.001  -2.397  1.00  0.00    -0.206 OA
HETATM   22  O2  UNL     1      -8.030  53.307  -1.940  1.00  0.00    -0.206 OA
ENDBRANCH  17  19
ENDBRANCH  11  17
BRANCH  12  23
HETATM   23  C14 UNL     1      -4.954  50.812  -5.187  1.00  0.00     0.091 C 
HETATM   24 BR1  UNL     1      -4.006  49.333  -4.311  1.00  0.00    -0.096 Br
ENDBRANCH  12  23
TORSDOF 3
ENDMDL
MODEL 3
REMARK VINA RESULT: -6.326698948      3.389      4.447
REMARK  3 active torsions:
REMARK  status: ('A' for Active; 'I' for Inactive)
REMARK    1  A    between atoms: C11_11  and  N1_12 
REMARK    2  A    between atoms: N1_12  and  S1_14 
REMARK    3  A    between atoms: C13_18  and  C14_19 
ROOT
HETATM    1  C1  UNL     1     -10.983  52.903  -9.612  1.00  0.00     0.043 C 
HETATM    2  C2  UNL     1     -10.539  52.544  -8.249  1.00  0.00    -0.083 C 
HETATM    3  C3  UNL     1     -11.307  52.572  -7.167  1.00  0.00    -0.024 C 
HETATM    4  C4  UNL     1     -10.453  52.128  -5.991  1.00  0.00     0.033 C 
HETATM    5  C5  UNL     1      -9.148  52.606  -6.457  1.00  0.00     0.002 C 
HETATM    6  C6  UNL     1      -9.158  52.104  -7.891  1.00  0.00     0.018 C 
HETATM    7  C7  UNL     1      -8.900  50.660  -8.045  1.00  0.00     0.010 C 
HETATM    8  C8  UNL     1      -8.345  49.906  -6.903  1.00  0.00     0.012 C 
HETATM    9  C9  UNL     1      -7.751  50.627  -5.778  1.00  0.00    -0.018 C 
HETATM   10  C10 UNL     1      -6.225  50.377  -5.782  1.00  0.00     0.018 C 
HETATM   11  C11 UNL     1      -8.166  50.053  -4.405  1.00  0.00     0.106 C 
HETATM   12  C13 UNL     1      -7.499  50.796  -3.304  1.00  0.00     0.020 C 
HETATM   13  C15 UNL     1      -7.917  52.256  -3.303  1.00  0.00     0.012 C 
HETATM   14  C16 UNL     1      -7.484  52.838  -4.593  1.00  0.00    -0.013 C 
HETATM   15  C17 UNL     1      -7.986  54.284  -4.720  1.00  0.00     0.010 C 
HETATM   16  C18 UNL     1      -7.892  52.122  -5.834  1.00  0.00     0.004 C 
ENDROOT
BRANCH  11  17
HETATM   17  N1  UNL     1      -7.819  48.662  -4.362  1.00  0.00    -0.314 N 
ATOM     18  H1  UNL     1      -6.863  48.336  -4.505  1.00  0.00     0.172 HD
BRANCH  17  19
HETATM   19  S1  UNL     1      -9.110  47.594  -4.059  1.00  0.00     0.223 S 
HETATM   20  C12 UNL     1      -8.965  46.693  -2.535  1.00  0.00     0.185 C 
HETATM   21  O1  UNL     1      -9.160  46.552  -5.167  1.00  0.00    -0.206 OA
HETATM   22  O2  UNL     1     -10.452  48.294  -3.982  1.00  0.00    -0.206 OA
ENDBRANCH  17  19
ENDBRANCH  11  17
BRANCH  12  23
HETATM   23  C14 UNL     1      -7.889  50.222  -1.971  1.00  0.00     0.091 C 
HETATM   24 BR1  UNL     1      -9.663  50.940  -1.537  1.00  0.00    -0.096 Br
ENDBRANCH  12  23
TORSDOF 3
ENDMDL
MODEL 4
REMARK VINA RESULT: -6.262409841      3.298      4.277
REMARK  3 active torsions:
REMARK  status: ('A' for Active; 'I' for Inactive)
REMARK    1  A    between atoms: C11_11  and  N1_12 
REMARK    2  A    between atoms: N1_12  and  S1_14 
REMARK    3  A    between atoms: C13_18  and  C14_19 
ROOT
HETATM    1  C1  UNL     1     -12.452  52.995  -8.854  1.00  0.00     0.043 C 
HETATM    2  C2  UNL     1     -11.484  52.571  -7.821  1.00  0.00    -0.083 C 
HETATM    3  C3  UNL     1     -11.805  52.164  -6.599  1.00  0.00    -0.024 C 
HETATM    4  C4  UNL     1     -10.511  51.826  -5.878  1.00  0.00     0.033 C 
HETATM    5  C5  UNL     1      -9.615  52.772  -6.549  1.00  0.00     0.002 C 
HETATM    6  C6  UNL     1     -10.002  52.546  -8.001  1.00  0.00     0.018 C 
HETATM    7  C7  UNL     1      -9.464  51.312  -8.602  1.00  0.00     0.010 C 
HETATM    8  C8  UNL     1      -8.375  50.594  -7.910  1.00  0.00     0.012 C 
HETATM    9  C9  UNL     1      -7.623  51.265  -6.850  1.00  0.00    -0.018 C 
HETATM   10  C10 UNL     1      -6.185  51.525  -7.353  1.00  0.00     0.018 C 
HETATM   11  C11 UNL     1      -7.374  50.362  -5.621  1.00  0.00     0.106 C 
HETATM   12  C13 UNL     1      -6.570  51.080  -4.598  1.00  0.00     0.020 C 
HETATM   13  C15 UNL     1      -7.310  52.305  -4.088  1.00  0.00     0.012 C 
HETATM   14  C16 UNL     1      -7.517  53.206  -5.243  1.00  0.00    -0.013 C 
HETATM   15  C17 UNL     1      -8.374  54.412  -4.830  1.00  0.00     0.010 C 
HETATM   16  C18 UNL     1      -8.142  52.620  -6.461  1.00  0.00     0.004 C 
ENDROOT
BRANCH  11  17
HETATM   17  N1  UNL     1      -6.699  49.172  -6.053  1.00  0.00    -0.314 N 
ATOM     18  H1  UNL     1      -5.764  49.194  -6.459  1.00  0.00     0.172 HD
BRANCH  17  19
HETATM   19  S1  UNL     1      -7.566  47.722  -5.841  1.00  0.00     0.223 S 
HETATM   20  C12 UNL     1      -6.923  46.671  -4.560  1.00  0.00     0.185 C 
HETATM   21  O1  UNL     1      -7.498  46.912  -7.128  1.00  0.00    -0.206 OA
HETATM   22  O2  UNL     1      -9.020  47.947  -5.479  1.00  0.00    -0.206 OA
ENDBRANCH  17  19
ENDBRANCH  11  17
BRANCH  12  23
HETATM   23  C14 UNL     1      -6.312  50.192  -3.413  1.00  0.00     0.091 C 
HETATM   24 BR1  UNL     1      -8.041  49.900  -2.531  1.00  0.00    -0.096 Br
ENDBRANCH  12  23
TORSDOF 3
ENDMDL
MODEL 5
REMARK VINA RESULT: -6.094005114      5.029      9.125
REMARK  3 active torsions:
REMARK  status: ('A' for Active; 'I' for Inactive)
REMARK    1  A    between atoms: C11_11  and  N1_12 
REMARK    2  A    between atoms: N1_12  and  S1_14 
REMARK    3  A    between atoms: C13_18  and  C14_19 
ROOT
HETATM    1  C1  UNL     1      -3.941  61.541  -5.533  1.00  0.00     0.043 C 
HETATM    2  C2  UNL     1      -4.179  60.652  -4.377  1.00  0.00    -0.083 C 
HETATM    3  C3  UNL     1      -5.138  60.820  -3.474  1.00  0.00    -0.024 C 
HETATM    4  C4  UNL     1      -5.021  59.683  -2.472  1.00  0.00     0.033 C 
HETATM    5  C5  UNL     1      -3.576  59.451  -2.548  1.00  0.00     0.002 C 
HETATM    6  C6  UNL     1      -3.372  59.439  -4.053  1.00  0.00     0.018 C 
HETATM    7  C7  UNL     1      -3.801  58.201  -4.729  1.00  0.00     0.010 C 
HETATM    8  C8  UNL     1      -4.068  56.997  -3.916  1.00  0.00     0.012 C 
HETATM    9  C9  UNL     1      -3.592  56.936  -2.534  1.00  0.00    -0.018 C 
HETATM   10  C10 UNL     1      -2.460  55.886  -2.448  1.00  0.00     0.018 C 
HETATM   11  C11 UNL     1      -4.641  56.356  -1.558  1.00  0.00     0.106 C 
HETATM   12  C13 UNL     1      -4.087  56.277  -0.182  1.00  0.00     0.020 C 
HETATM   13  C15 UNL     1      -3.732  57.659   0.341  1.00  0.00     0.012 C 
HETATM   14  C16 UNL     1      -2.692  58.213  -0.554  1.00  0.00    -0.013 C 
HETATM   15  C17 UNL     1      -2.372  59.663  -0.164  1.00  0.00     0.010 C 
HETATM   16  C18 UNL     1      -2.975  58.204  -2.016  1.00  0.00     0.004 C 
ENDROOT
BRANCH  11  17
HETATM   17  N1  UNL     1      -5.034  55.058  -2.023  1.00  0.00    -0.314 N 
ATOM     18  H1  UNL     1      -4.375  54.282  -2.093  1.00  0.00     0.172 HD
BRANCH  17  19
HETATM   19  S1  UNL     1      -6.674  54.899  -2.450  1.00  0.00     0.223 S 
HETATM   20  C12 UNL     1      -6.946  54.073  -3.999  1.00  0.00     0.185 C 
HETATM   21  O1  UNL     1      -7.284  56.286  -2.596  1.00  0.00    -0.206 OA
HETATM   22  O2  UNL     1      -7.479  54.114  -1.434  1.00  0.00    -0.206 OA
ENDBRANCH  17  19
ENDBRANCH  11  17
BRANCH  12  23
HETATM   23  C14 UNL     1      -5.103  55.694   0.760  1.00  0.00     0.091 C 
HETATM   24 BR1  UNL     1      -6.573  56.988   0.888  1.00  0.00    -0.096 Br
ENDBRANCH  12  23
TORSDOF 3
ENDMDL
