MODEL 1
REMARK VINA RESULT: -5.505332028      0.000      0.000
REMARK  6 active torsions:
REMARK  status: ('A' for Active; 'I' for Inactive)
REMARK    1  A    between atoms: C3_3  and  C5_5 
REMARK       I    between atoms: C5_5  and  N1_7 
REMARK    2  A    between atoms: N1_7  and  N2_9 
REMARK    3  A    between atoms: N2_9  and  C6_11 
REMARK    4  A    between atoms: C7_13  and  C8_14 
REMARK    5  A    between atoms: C8_14  and  O2_15 
REMARK    6  A    between atoms: C8_14  and  N3_17 
REMARK       I    between atoms: N3_17  and  C9_19 
ROOT
HETATM    1  C6  UNL     1      12.930  11.766  69.006  1.00  0.00     0.112 A 
HETATM    2  S1  UNL     1      12.909  11.993  67.310  1.00  0.00    -0.063 SA
HETATM    3  C7  UNL     1      12.899  13.673  66.809  1.00  0.00     0.080 A 
HETATM    4  C10 UNL     1      12.909  14.509  67.874  1.00  0.00     0.027 A 
HETATM    5  C11 UNL     1      12.902  15.999  67.611  1.00  0.00     0.070 C 
HETATM    6  N6  UNL     1      12.926  14.142  69.160  1.00  0.00    -0.360 N 
ATOM      7  H6  UNL     1      12.932  14.918  69.821  1.00  0.00     0.165 HD
HETATM    8  C12 UNL     1      12.935  12.940  69.721  1.00  0.00     0.041 A 
HETATM    9  C13 UNL     1      12.952  12.874  71.238  1.00  0.00     0.071 C 
ENDROOT
BRANCH   1  10
HETATM   10  N2  UNL     1      12.939  10.635  69.548  1.00  0.00    -0.289 N 
ATOM     11  H2  UNL     1      13.731  10.576  70.188  1.00  0.00     0.188 HD
BRANCH  10  12
HETATM   12  N1  UNL     1      12.273   9.494  69.573  1.00  0.00    -0.265 N 
HETATM   13  C5  UNL     1      11.116   9.181  70.363  1.00  0.00     0.265 C 
HETATM   14  O1  UNL     1      10.717  10.125  71.103  1.00  0.00    -0.266 OA
ATOM     15  H1  UNL     1      12.619   8.753  68.963  1.00  0.00     0.190 HD
BRANCH  13  16
HETATM   16  C3  UNL     1      10.426   7.924  70.357  1.00  0.00     0.003 C 
HETATM   17  C2  UNL     1       9.867   7.388  69.289  1.00  0.00    -0.019 C 
HETATM   18  C1  UNL     1       9.167   6.086  69.343  1.00  0.00     0.036 C 
HETATM   19  C4  UNL     1      10.321   7.158  71.637  1.00  0.00     0.054 C 
ENDBRANCH  13  16
ENDBRANCH  10  12
ENDBRANCH   1  10
BRANCH   3  20
HETATM   20  C8  UNL     1      12.881  14.012  65.410  1.00  0.00     0.161 C 
BRANCH  20  21
HETATM   21  O2  UNL     1      11.775  13.559  64.838  1.00  0.00    -0.345 OA
ATOM     22  H2  UNL     1      11.389  12.867  65.362  1.00  0.00     0.219 HD
ENDBRANCH  20  21
BRANCH  20  23
HETATM   23  N3  UNL     1      13.735  14.686  64.552  1.00  0.00    -0.310 N 
HETATM   24  C9  UNL     1      14.789  13.978  63.871  1.00  0.00     0.187 C 
HETATM   25  N4  UNL     1      15.575  14.619  63.077  1.00  0.00    -0.373 N 
HETATM   26  N5  UNL     1      14.952  12.604  64.075  1.00  0.00    -0.064 NA
ATOM     27  H42 UNL     1      15.456  15.621  62.928  1.00  0.00     0.158 HD
ATOM     28  H41 UNL     1      16.320  14.118  62.595  1.00  0.00     0.158 HD
ATOM     29  H3  UNL     1      13.616  15.688  64.402  1.00  0.00     0.170 HD
ENDBRANCH  20  23
ENDBRANCH   3  20
TORSDOF 6
ENDMDL
MODEL 2
REMARK VINA RESULT: -5.494189622      4.960      9.228
REMARK  6 active torsions:
REMARK  status: ('A' for Active; 'I' for Inactive)
REMARK    1  A    between atoms: C3_3  and  C5_5 
REMARK       I    between atoms: C5_5  and  N1_7 
REMARK    2  A    between atoms: N1_7  and  N2_9 
REMARK    3  A    between atoms: N2_9  and  C6_11 
REMARK    4  A    between atoms: C7_13  and  C8_14 
REMARK    5  A    between atoms: C8_14  and  O2_15 
REMARK    6  A    between atoms: C8_14  and  N3_17 
REMARK       I    between atoms: N3_17  and  C9_19 
ROOT
HETATM    1  C6  UNL     1      13.076  18.506  69.755  1.00  0.00     0.112 A 
HETATM    2  S1  UNL     1      13.404  17.403  68.488  1.00  0.00    -0.063 SA
HETATM    3  C7  UNL     1      13.046  15.733  68.878  1.00  0.00     0.080 A 
HETATM    4  C10 UNL     1      12.564  15.609  70.138  1.00  0.00     0.027 A 
HETATM    5  C11 UNL     1      12.204  14.225  70.630  1.00  0.00     0.070 C 
HETATM    6  N6  UNL     1      12.370  16.608  71.005  1.00  0.00    -0.360 N 
ATOM      7  H6  UNL     1      11.998  16.317  71.909  1.00  0.00     0.165 HD
HETATM    8  C12 UNL     1      12.580  17.913  70.890  1.00  0.00     0.041 A 
HETATM    9  C13 UNL     1      12.249  18.785  72.088  1.00  0.00     0.071 C 
ENDROOT
BRANCH   1  10
HETATM   10  N2  UNL     1      13.271  19.742  69.658  1.00  0.00    -0.289 N 
ATOM     11  H2  UNL     1      14.240  19.949  69.900  1.00  0.00     0.188 HD
BRANCH  10  12
HETATM   12  N1  UNL     1      12.650  20.867  69.349  1.00  0.00    -0.265 N 
HETATM   13  C5  UNL     1      12.551  21.477  68.054  1.00  0.00     0.265 C 
HETATM   14  O1  UNL     1      13.134  20.840  67.130  1.00  0.00    -0.266 OA
ATOM     15  H1  UNL     1      12.189  21.356  70.117  1.00  0.00     0.190 HD
BRANCH  13  16
HETATM   16  C3  UNL     1      11.866  22.702  67.767  1.00  0.00     0.003 C 
HETATM   17  C2  UNL     1      12.290  23.607  66.904  1.00  0.00    -0.019 C 
HETATM   18  C1  UNL     1      11.538  24.855  66.649  1.00  0.00     0.036 C 
HETATM   19  C4  UNL     1      10.585  22.992  68.482  1.00  0.00     0.054 C 
ENDBRANCH  13  16
ENDBRANCH  10  12
ENDBRANCH   1  10
BRANCH   3  20
HETATM   20  C8  UNL     1      13.274  14.696  67.905  1.00  0.00     0.161 C 
BRANCH  20  21
HETATM   21  O2  UNL     1      14.504  14.219  68.017  1.00  0.00    -0.345 OA
ATOM     22  H2  UNL     1      14.498  13.390  68.482  1.00  0.00     0.219 HD
ENDBRANCH  20  21
BRANCH  20  23
HETATM   23  N3  UNL     1      12.518  14.103  66.908  1.00  0.00    -0.310 N 
HETATM   24  C9  UNL     1      12.883  14.268  65.524  1.00  0.00     0.187 C 
HETATM   25  N4  UNL     1      12.170  13.710  64.608  1.00  0.00    -0.373 N 
HETATM   26  N5  UNL     1      14.005  15.031  65.184  1.00  0.00    -0.064 NA
ATOM     27  H42 UNL     1      11.351  13.154  64.855  1.00  0.00     0.158 HD
ATOM     28  H41 UNL     1      12.427  13.827  63.628  1.00  0.00     0.158 HD
ATOM     29  H3  UNL     1      11.700  13.546  67.154  1.00  0.00     0.170 HD
ENDBRANCH  20  23
ENDBRANCH   3  20
TORSDOF 6
ENDMDL
MODEL 3
REMARK VINA RESULT: -5.438339145      4.200      8.418
REMARK  6 active torsions:
REMARK  status: ('A' for Active; 'I' for Inactive)
REMARK    1  A    between atoms: C3_3  and  C5_5 
REMARK       I    between atoms: C5_5  and  N1_7 
REMARK    2  A    between atoms: N1_7  and  N2_9 
REMARK    3  A    between atoms: N2_9  and  C6_11 
REMARK    4  A    between atoms: C7_13  and  C8_14 
REMARK    5  A    between atoms: C8_14  and  O2_15 
REMARK    6  A    between atoms: C8_14  and  N3_17 
REMARK       I    between atoms: N3_17  and  C9_19 
ROOT
HETATM    1  C6  UNL     1      13.556  17.220  69.113  1.00  0.00     0.112 A 
HETATM    2  S1  UNL     1      13.225  16.217  67.767  1.00  0.00    -0.063 SA
HETATM    3  C7  UNL     1      13.131  14.509  68.150  1.00  0.00     0.080 A 
HETATM    4  C10 UNL     1      13.342  14.283  69.468  1.00  0.00     0.027 A 
HETATM    5  C11 UNL     1      13.293  12.854  69.963  1.00  0.00     0.070 C 
HETATM    6  N6  UNL     1      13.592  15.214  70.394  1.00  0.00    -0.360 N 
ATOM      7  H6  UNL     1      13.722  14.849  71.337  1.00  0.00     0.165 HD
HETATM    8  C12 UNL     1      13.699  16.533  70.294  1.00  0.00     0.041 A 
HETATM    9  C13 UNL     1      13.996  17.310  71.564  1.00  0.00     0.071 C 
ENDROOT
BRANCH   1  10
HETATM   10  N2  UNL     1      13.660  18.468  69.031  1.00  0.00    -0.289 N 
ATOM     11  H2  UNL     1      14.590  18.705  68.686  1.00  0.00     0.188 HD
BRANCH  10  12
HETATM   12  N1  UNL     1      12.976  19.580  69.238  1.00  0.00    -0.265 N 
HETATM   13  C5  UNL     1      12.728  20.635  68.297  1.00  0.00     0.265 C 
HETATM   14  O1  UNL     1      13.234  20.445  67.154  1.00  0.00    -0.266 OA
ATOM     15  H1  UNL     1      12.580  19.702  70.171  1.00  0.00     0.190 HD
BRANCH  13  16
HETATM   16  C3  UNL     1      11.979  21.826  68.569  1.00  0.00     0.003 C 
HETATM   17  C2  UNL     1      11.725  22.764  67.676  1.00  0.00    -0.019 C 
HETATM   18  C1  UNL     1      10.945  23.974  68.014  1.00  0.00     0.036 C 
HETATM   19  C4  UNL     1      11.444  22.038  69.949  1.00  0.00     0.054 C 
ENDBRANCH  13  16
ENDBRANCH  10  12
ENDBRANCH   1  10
BRANCH   3  20
HETATM   20  C8  UNL     1      12.859  13.548  67.113  1.00  0.00     0.161 C 
BRANCH  20  21
HETATM   21  O2  UNL     1      11.559  13.304  67.037  1.00  0.00    -0.345 OA
ATOM     22  H2  UNL     1      11.387  12.378  67.162  1.00  0.00     0.219 HD
ENDBRANCH  20  21
BRANCH  20  23
HETATM   23  N3  UNL     1      13.628  12.841  66.203  1.00  0.00    -0.310 N 
HETATM   24  C9  UNL     1      13.807  13.337  64.862  1.00  0.00     0.187 C 
HETATM   25  N4  UNL     1      14.526  12.669  64.028  1.00  0.00    -0.373 N 
HETATM   26  N5  UNL     1      13.203  14.538  64.476  1.00  0.00    -0.064 NA
ATOM     27  H42 UNL     1      14.966  11.793  64.310  1.00  0.00     0.158 HD
ATOM     28  H41 UNL     1      14.652  13.020  63.079  1.00  0.00     0.158 HD
ATOM     29  H3  UNL     1      14.070  11.966  66.484  1.00  0.00     0.170 HD
ENDBRANCH  20  23
ENDBRANCH   3  20
TORSDOF 6
ENDMDL
MODEL 4
REMARK VINA RESULT: -5.424504113      4.618      8.843
REMARK  6 active torsions:
REMARK  status: ('A' for Active; 'I' for Inactive)
REMARK    1  A    between atoms: C3_3  and  C5_5 
REMARK       I    between atoms: C5_5  and  N1_7 
REMARK    2  A    between atoms: N1_7  and  N2_9 
REMARK    3  A    between atoms: N2_9  and  C6_11 
REMARK    4  A    between atoms: C7_13  and  C8_14 
REMARK    5  A    between atoms: C8_14  and  O2_15 
REMARK    6  A    between atoms: C8_14  and  N3_17 
REMARK       I    between atoms: N3_17  and  C9_19 
ROOT
HETATM    1  C6  UNL     1      13.981  18.070  68.957  1.00  0.00     0.112 A 
HETATM    2  S1  UNL     1      13.141  17.028  67.891  1.00  0.00    -0.063 SA
HETATM    3  C7  UNL     1      13.404  15.322  68.197  1.00  0.00     0.080 A 
HETATM    4  C10 UNL     1      14.242  15.129  69.243  1.00  0.00     0.027 A 
HETATM    5  C11 UNL     1      14.572  13.706  69.638  1.00  0.00     0.070 C 
HETATM    6  N6  UNL     1      14.816  16.088  69.976  1.00  0.00    -0.360 N 
ATOM      7  H6  UNL     1      15.418  15.745  70.725  1.00  0.00     0.165 HD
HETATM    8  C12 UNL     1      14.737  17.410  69.895  1.00  0.00     0.041 A 
HETATM    9  C13 UNL     1      15.533  18.223  70.901  1.00  0.00     0.071 C 
ENDROOT
BRANCH   1  10
HETATM   10  N2  UNL     1      13.914  19.321  68.890  1.00  0.00    -0.289 N 
ATOM     11  H2  UNL     1      14.849  19.700  68.740  1.00  0.00     0.188 HD
BRANCH  10  12
HETATM   12  N1  UNL     1      13.046  20.316  68.946  1.00  0.00    -0.265 N 
HETATM   13  C5  UNL     1      12.751  21.271  67.915  1.00  0.00     0.265 C 
HETATM   14  O1  UNL     1      13.413  21.111  66.849  1.00  0.00    -0.266 OA
ATOM     15  H1  UNL     1      12.528  20.417  69.819  1.00  0.00     0.190 HD
BRANCH  13  16
HETATM   16  C3  UNL     1      11.799  22.337  68.023  1.00  0.00     0.003 C 
HETATM   17  C2  UNL     1      10.800  22.357  68.885  1.00  0.00    -0.019 C 
HETATM   18  C1  UNL     1       9.848  23.486  68.951  1.00  0.00     0.036 C 
HETATM   19  C4  UNL     1      11.930  23.510  67.105  1.00  0.00     0.054 C 
ENDBRANCH  13  16
ENDBRANCH  10  12
ENDBRANCH   1  10
BRANCH   3  20
HETATM   20  C8  UNL     1      12.760  14.330  67.376  1.00  0.00     0.161 C 
BRANCH  20  21
HETATM   21  O2  UNL     1      11.447  14.372  67.544  1.00  0.00    -0.345 OA
ATOM     22  H2  UNL     1      11.053  13.544  67.292  1.00  0.00     0.219 HD
ENDBRANCH  20  21
BRANCH  20  23
HETATM   23  N3  UNL     1      13.192  13.371  66.475  1.00  0.00    -0.310 N 
HETATM   24  C9  UNL     1      13.701  13.762  65.185  1.00  0.00     0.187 C 
HETATM   25  N4  UNL     1      14.099  12.858  64.359  1.00  0.00    -0.373 N 
HETATM   26  N5  UNL     1      13.761  15.116  64.839  1.00  0.00    -0.064 NA
ATOM     27  H42 UNL     1      14.055  11.870  64.611  1.00  0.00     0.158 HD
ATOM     28  H41 UNL     1      14.459  13.134  63.446  1.00  0.00     0.158 HD
ATOM     29  H3  UNL     1      13.149  12.384  66.727  1.00  0.00     0.170 HD
ENDBRANCH  20  23
ENDBRANCH   3  20
TORSDOF 6
ENDMDL
MODEL 5
REMARK VINA RESULT: -5.399661412      4.912      9.103
REMARK  6 active torsions:
REMARK  status: ('A' for Active; 'I' for Inactive)
REMARK    1  A    between atoms: C3_3  and  C5_5 
REMARK       I    between atoms: C5_5  and  N1_7 
REMARK    2  A    between atoms: N1_7  and  N2_9 
REMARK    3  A    between atoms: N2_9  and  C6_11 
REMARK    4  A    between atoms: C7_13  and  C8_14 
REMARK    5  A    between atoms: C8_14  and  O2_15 
REMARK    6  A    between atoms: C8_14  and  N3_17 
REMARK       I    between atoms: N3_17  and  C9_19 
ROOT
HETATM    1  C6  UNL     1      13.932  18.486  69.462  1.00  0.00     0.112 A 
HETATM    2  S1  UNL     1      12.998  17.595  68.339  1.00  0.00    -0.063 SA
HETATM    3  C7  UNL     1      13.158  15.857  68.490  1.00  0.00     0.080 A 
HETATM    4  C10 UNL     1      14.010  15.521  69.488  1.00  0.00     0.027 A 
HETATM    5  C11 UNL     1      14.257  14.051  69.749  1.00  0.00     0.070 C 
HETATM    6  N6  UNL     1      14.664  16.375  70.281  1.00  0.00    -0.360 N 
ATOM      7  H6  UNL     1      15.262  15.932  70.979  1.00  0.00     0.165 HD
HETATM    8  C12 UNL     1      14.669  17.701  70.316  1.00  0.00     0.041 A 
HETATM    9  C13 UNL     1      15.542  18.373  71.361  1.00  0.00     0.071 C 
ENDROOT
BRANCH   1  10
HETATM   10  N2  UNL     1      13.945  19.740  69.504  1.00  0.00    -0.289 N 
ATOM     11  H2  UNL     1      14.897  20.061  69.683  1.00  0.00     0.188 HD
BRANCH  10  12
HETATM   12  N1  UNL     1      13.147  20.788  69.394  1.00  0.00    -0.265 N 
HETATM   13  C5  UNL     1      12.737  21.445  68.186  1.00  0.00     0.265 C 
HETATM   14  O1  UNL     1      13.209  20.937  67.129  1.00  0.00    -0.266 OA
ATOM     15  H1  UNL     1      12.782  21.173  70.266  1.00  0.00     0.190 HD
BRANCH  13  16
HETATM   16  C3  UNL     1      11.868  22.582  68.117  1.00  0.00     0.003 C 
HETATM   17  C2  UNL     1      10.853  22.793  68.934  1.00  0.00    -0.019 C 
HETATM   18  C1  UNL     1       9.989  23.987  68.814  1.00  0.00     0.036 C 
HETATM   19  C4  UNL     1      12.111  23.607  67.055  1.00  0.00     0.054 C 
ENDBRANCH  13  16
ENDBRANCH  10  12
ENDBRANCH   1  10
BRANCH   3  20
HETATM   20  C8  UNL     1      12.429  14.982  67.608  1.00  0.00     0.161 C 
BRANCH  20  21
HETATM   21  O2  UNL     1      11.327  14.545  68.197  1.00  0.00    -0.345 OA
ATOM     22  H2  UNL     1      10.905  13.882  67.663  1.00  0.00     0.219 HD
ENDBRANCH  20  21
BRANCH  20  23
HETATM   23  N3  UNL     1      12.616  14.510  66.320  1.00  0.00    -0.310 N 
HETATM   24  C9  UNL     1      12.597  13.093  66.055  1.00  0.00     0.187 C 
HETATM   25  N4  UNL     1      12.772  12.669  64.851  1.00  0.00    -0.373 N 
HETATM   26  N5  UNL     1      12.388  12.190  67.102  1.00  0.00    -0.064 NA
ATOM     27  H42 UNL     1      12.925  13.328  64.087  1.00  0.00     0.158 HD
ATOM     28  H41 UNL     1      12.758  11.668  64.664  1.00  0.00     0.158 HD
ATOM     29  H3  UNL     1      12.768  15.167  65.555  1.00  0.00     0.170 HD
ENDBRANCH  20  23
ENDBRANCH   3  20
TORSDOF 6
ENDMDL
