MODEL 1
REMARK VINA RESULT: -5.155984983      0.000      0.000
REMARK  7 active torsions:
REMARK  status: ('A' for Active; 'I' for Inactive)
REMARK    1  A    between atoms: C3_6  and  N3_7 
REMARK    2  A    between atoms: C4_12  and  C5_13 
REMARK    3  A    between atoms: C6_14  and  C7_15 
REMARK    4  A    between atoms: C7_15  and  O1_18 
REMARK    5  A    between atoms: C10_20  and  O2_21 
REMARK    6  A    between atoms: O2_21  and  C11_22 
REMARK    7  A    between atoms: C15_26  and  C16_27 
ROOT
HETATM    1  C1  UNL     1      12.944  17.087  68.400  1.00  0.00     0.071 C 
HETATM    2  C2  UNL     1      13.506  16.006  67.573  1.00  0.00     0.041 A 
HETATM    3  N1  UNL     1      12.922  15.234  66.677  1.00  0.00    -0.283 N 
ATOM      4  H1  UNL     1      11.937  15.283  66.416  1.00  0.00     0.188 HD
HETATM    5  N2  UNL     1      13.814  14.372  66.159  1.00  0.00    -0.083 N 
HETATM    6  C3  UNL     1      13.634  13.397  65.253  1.00  0.00     0.698 A 
HETATM    7  N4  UNL     1      14.631  12.606  64.878  1.00  0.00    -0.179 N 
ATOM      8  H4  UNL     1      14.483  11.866  64.193  1.00  0.00     0.185 HD
HETATM    9  C4  UNL     1      15.867  12.812  65.439  1.00  0.00     0.138 A 
HETATM   10  C10 UNL     1      16.082  13.799  66.360  1.00  0.00     0.135 A 
HETATM   11  C14 UNL     1      15.032  14.596  66.739  1.00  0.00     0.128 A 
HETATM   12  C15 UNL     1      14.864  15.611  67.635  1.00  0.00     0.085 A 
ENDROOT
BRANCH   9  13
HETATM   13  C5  UNL     1      16.925  11.934  65.040  1.00  0.00    -0.042 C 
HETATM   14  C6  UNL     1      17.847  11.197  64.734  1.00  0.00    -0.062 C 
BRANCH  14  15
HETATM   15  C7  UNL     1      18.947  10.292  64.377  1.00  0.00     0.114 C 
HETATM   16  C8  UNL     1      18.534   8.844  64.472  1.00  0.00     0.060 C 
HETATM   17  C9  UNL     1      20.084  10.574  65.306  1.00  0.00     0.060 C 
BRANCH  15  18
HETATM   18  O1  UNL     1      19.369  10.509  63.061  1.00  0.00    -0.378 OA
ATOM     19  H1  UNL     1      20.041   9.885  62.810  1.00  0.00     0.211 HD
ENDBRANCH  15  18
ENDBRANCH  14  15
ENDBRANCH   9  13
BRANCH  10  20
HETATM   20  O2  UNL     1      17.348  13.934  66.845  1.00  0.00    -0.341 OA
BRANCH  20  21
HETATM   21  C11 UNL     1      18.338  14.784  66.299  1.00  0.00     0.121 C 
HETATM   22  C12 UNL     1      19.278  15.242  67.383  1.00  0.00     0.040 C 
HETATM   23  C13 UNL     1      17.897  15.925  65.451  1.00  0.00     0.040 C 
ENDBRANCH  20  21
ENDBRANCH  10  20
BRANCH   6  24
HETATM   24  N3  UNL     1      12.459  13.251  64.757  1.00  0.00    -0.233 N 
ATOM     25  H32 UNL     1      11.652  13.698  65.190  1.00  0.00     0.174 HD
ATOM     26  H31 UNL     1      12.366  12.676  63.920  1.00  0.00     0.174 HD
ENDBRANCH   6  24
BRANCH  12  27
HETATM   27  C16 UNL     1      15.806  16.179  68.553  1.00  0.00     0.269 C 
HETATM   28  N5  UNL     1      16.101  15.521  69.796  1.00  0.00    -0.057 NA
HETATM   29  O3  UNL     1      16.408  17.232  68.346  1.00  0.00    -0.271 OA
ENDBRANCH  12  27
TORSDOF 7
ENDMDL
MODEL 2
REMARK VINA RESULT: -5.091001159      2.184      2.580
REMARK  7 active torsions:
REMARK  status: ('A' for Active; 'I' for Inactive)
REMARK    1  A    between atoms: C3_6  and  N3_7 
REMARK    2  A    between atoms: C4_12  and  C5_13 
REMARK    3  A    between atoms: C6_14  and  C7_15 
REMARK    4  A    between atoms: C7_15  and  O1_18 
REMARK    5  A    between atoms: C10_20  and  O2_21 
REMARK    6  A    between atoms: O2_21  and  C11_22 
REMARK    7  A    between atoms: C15_26  and  C16_27 
ROOT
HETATM    1  C1  UNL     1      11.363  15.279  69.633  1.00  0.00     0.071 C 
HETATM    2  C2  UNL     1      12.189  14.672  68.576  1.00  0.00     0.041 A 
HETATM    3  N1  UNL     1      11.923  14.477  67.299  1.00  0.00    -0.283 N 
ATOM      4  H1  UNL     1      11.052  14.739  66.837  1.00  0.00     0.188 HD
HETATM    5  N2  UNL     1      12.967  13.884  66.695  1.00  0.00    -0.083 N 
HETATM    6  C3  UNL     1      13.100  13.478  65.422  1.00  0.00     0.698 A 
HETATM    7  N4  UNL     1      14.200  12.868  65.000  1.00  0.00    -0.179 N 
ATOM      8  H4  UNL     1      14.290  12.559  64.032  1.00  0.00     0.185 HD
HETATM    9  C4  UNL     1      15.215  12.664  65.903  1.00  0.00     0.138 A 
HETATM   10  C10 UNL     1      15.110  13.070  67.204  1.00  0.00     0.135 A 
HETATM   11  C14 UNL     1      13.957  13.688  67.618  1.00  0.00     0.128 A 
HETATM   12  C15 UNL     1      13.491  14.167  68.807  1.00  0.00     0.085 A 
ENDROOT
BRANCH   9  13
HETATM   13  C5  UNL     1      16.384  11.984  65.436  1.00  0.00    -0.042 C 
HETATM   14  C6  UNL     1      17.401  11.419  65.070  1.00  0.00    -0.062 C 
BRANCH  14  15
HETATM   15  C7  UNL     1      18.619  10.719  64.642  1.00  0.00     0.114 C 
HETATM   16  C8  UNL     1      18.430   9.222  64.627  1.00  0.00     0.060 C 
HETATM   17  C9  UNL     1      19.715  11.099  65.587  1.00  0.00     0.060 C 
BRANCH  15  18
HETATM   18  O1  UNL     1      18.985  11.095  63.345  1.00  0.00    -0.378 OA
ATOM     19  H1  UNL     1      19.608  10.481  62.974  1.00  0.00     0.211 HD
ENDBRANCH  15  18
ENDBRANCH  14  15
ENDBRANCH   9  13
BRANCH  10  20
HETATM   20  O2  UNL     1      16.178  12.837  68.017  1.00  0.00    -0.341 OA
BRANCH  20  21
HETATM   21  C11 UNL     1      16.313  11.721  68.877  1.00  0.00     0.121 C 
HETATM   22  C12 UNL     1      17.733  11.220  68.850  1.00  0.00     0.040 C 
HETATM   23  C13 UNL     1      15.343  10.601  68.734  1.00  0.00     0.040 C 
ENDBRANCH  20  21
ENDBRANCH  10  20
BRANCH   6  24
HETATM   24  N3  UNL     1      12.124  13.697  64.618  1.00  0.00    -0.233 N 
ATOM     25  H32 UNL     1      11.161  13.535  64.913  1.00  0.00     0.174 HD
ATOM     26  H31 UNL     1      12.346  14.038  63.683  1.00  0.00     0.174 HD
ENDBRANCH   6  24
BRANCH  12  27
HETATM   27  C16 UNL     1      14.105  14.139  70.102  1.00  0.00     0.269 C 
HETATM   28  N5  UNL     1      15.000  15.189  70.507  1.00  0.00    -0.057 NA
HETATM   29  O3  UNL     1      13.915  13.248  70.927  1.00  0.00    -0.271 OA
ENDBRANCH  12  27
TORSDOF 7
ENDMDL
MODEL 3
REMARK VINA RESULT: -5.045359774      1.046      1.263
REMARK  7 active torsions:
REMARK  status: ('A' for Active; 'I' for Inactive)
REMARK    1  A    between atoms: C3_6  and  N3_7 
REMARK    2  A    between atoms: C4_12  and  C5_13 
REMARK    3  A    between atoms: C6_14  and  C7_15 
REMARK    4  A    between atoms: C7_15  and  O1_18 
REMARK    5  A    between atoms: C10_20  and  O2_21 
REMARK    6  A    between atoms: O2_21  and  C11_22 
REMARK    7  A    between atoms: C15_26  and  C16_27 
ROOT
HETATM    1  C1  UNL     1      13.358  17.005  67.980  1.00  0.00     0.071 C 
HETATM    2  C2  UNL     1      13.940  15.911  67.184  1.00  0.00     0.041 A 
HETATM    3  N1  UNL     1      13.357  15.060  66.361  1.00  0.00    -0.283 N 
ATOM      4  H1  UNL     1      12.360  15.042  66.147  1.00  0.00     0.188 HD
HETATM    5  N2  UNL     1      14.271  14.220  65.845  1.00  0.00    -0.083 N 
HETATM    6  C3  UNL     1      14.103  13.187  65.002  1.00  0.00     0.698 A 
HETATM    7  N4  UNL     1      15.124  12.431  64.620  1.00  0.00    -0.179 N 
ATOM      8  H4  UNL     1      14.985  11.646  63.983  1.00  0.00     0.185 HD
HETATM    9  C4  UNL     1      16.372  12.734  65.106  1.00  0.00     0.138 A 
HETATM   10  C10 UNL     1      16.575  13.780  65.961  1.00  0.00     0.135 A 
HETATM   11  C14 UNL     1      15.500  14.539  66.350  1.00  0.00     0.128 A 
HETATM   12  C15 UNL     1      15.318  15.593  67.199  1.00  0.00     0.085 A 
ENDROOT
BRANCH   9  13
HETATM   13  C5  UNL     1      17.457  11.892  64.701  1.00  0.00    -0.042 C 
HETATM   14  C6  UNL     1      18.401  11.184  64.392  1.00  0.00    -0.062 C 
BRANCH  14  15
HETATM   15  C7  UNL     1      19.525  10.312  64.029  1.00  0.00     0.114 C 
HETATM   16  C8  UNL     1      19.418   8.957  64.684  1.00  0.00     0.060 C 
HETATM   17  C9  UNL     1      20.785  11.000  64.451  1.00  0.00     0.060 C 
BRANCH  15  18
HETATM   18  O1  UNL     1      19.566  10.094  62.648  1.00  0.00    -0.378 OA
ATOM     19  H1  UNL     1      19.834   9.204  62.451  1.00  0.00     0.211 HD
ENDBRANCH  15  18
ENDBRANCH  14  15
ENDBRANCH   9  13
BRANCH  10  20
HETATM   20  O2  UNL     1      17.853  14.009  66.374  1.00  0.00    -0.341 OA
BRANCH  20  21
HETATM   21  C11 UNL     1      18.406  13.547  67.591  1.00  0.00     0.121 C 
HETATM   22  C12 UNL     1      19.822  13.084  67.370  1.00  0.00     0.040 C 
HETATM   23  C13 UNL     1      17.631  12.553  68.384  1.00  0.00     0.040 C 
ENDBRANCH  20  21
ENDBRANCH  10  20
BRANCH   6  24
HETATM   24  N3  UNL     1      12.916  12.951  64.574  1.00  0.00    -0.233 N 
ATOM     25  H32 UNL     1      12.211  13.688  64.561  1.00  0.00     0.174 HD
ATOM     26  H31 UNL     1      12.707  12.007  64.249  1.00  0.00     0.174 HD
ENDBRANCH   6  24
BRANCH  12  27
HETATM   27  C16 UNL     1      16.270  16.261  68.036  1.00  0.00     0.269 C 
HETATM   28  N5  UNL     1      16.364  15.939  69.434  1.00  0.00    -0.057 NA
HETATM   29  O3  UNL     1      17.046  17.124  67.631  1.00  0.00    -0.271 OA
ENDBRANCH  12  27
TORSDOF 7
ENDMDL
MODEL 4
REMARK VINA RESULT: -4.978514298      4.704      7.099
REMARK  7 active torsions:
REMARK  status: ('A' for Active; 'I' for Inactive)
REMARK    1  A    between atoms: C3_6  and  N3_7 
REMARK    2  A    between atoms: C4_12  and  C5_13 
REMARK    3  A    between atoms: C6_14  and  C7_15 
REMARK    4  A    between atoms: C7_15  and  O1_18 
REMARK    5  A    between atoms: C10_20  and  O2_21 
REMARK    6  A    between atoms: O2_21  and  C11_22 
REMARK    7  A    between atoms: C15_26  and  C16_27 
ROOT
HETATM    1  C1  UNL     1      12.472   9.605  68.254  1.00  0.00     0.071 C 
HETATM    2  C2  UNL     1      12.561  11.034  67.911  1.00  0.00     0.041 A 
HETATM    3  N1  UNL     1      12.417  11.637  66.746  1.00  0.00    -0.283 N 
ATOM      4  H1  UNL     1      12.209  11.166  65.866  1.00  0.00     0.188 HD
HETATM    5  N2  UNL     1      12.584  12.963  66.890  1.00  0.00    -0.083 N 
HETATM    6  C3  UNL     1      12.559  13.933  65.961  1.00  0.00     0.698 A 
HETATM    7  N4  UNL     1      12.783  15.202  66.277  1.00  0.00    -0.179 N 
ATOM      8  H4  UNL     1      12.766  15.930  65.564  1.00  0.00     0.185 HD
HETATM    9  C4  UNL     1      13.039  15.506  67.591  1.00  0.00     0.138 A 
HETATM   10  C10 UNL     1      13.067  14.542  68.560  1.00  0.00     0.135 A 
HETATM   11  C14 UNL     1      12.843  13.236  68.204  1.00  0.00     0.128 A 
HETATM   12  C15 UNL     1      12.841  12.042  68.865  1.00  0.00     0.085 A 
ENDROOT
BRANCH   9  13
HETATM   13  C5  UNL     1      13.303  16.877  67.910  1.00  0.00    -0.042 C 
HETATM   14  C6  UNL     1      13.496  18.056  68.157  1.00  0.00    -0.062 C 
BRANCH  14  15
HETATM   15  C7  UNL     1      13.714  19.472  68.473  1.00  0.00     0.114 C 
HETATM   16  C8  UNL     1      15.180  19.793  68.630  1.00  0.00     0.060 C 
HETATM   17  C9  UNL     1      12.975  19.771  69.739  1.00  0.00     0.060 C 
BRANCH  15  18
HETATM   18  O1  UNL     1      13.224  20.297  67.454  1.00  0.00    -0.378 OA
ATOM     19  H1  UNL     1      13.901  20.490  66.816  1.00  0.00     0.211 HD
ENDBRANCH  15  18
ENDBRANCH  14  15
ENDBRANCH   9  13
BRANCH  10  20
HETATM   20  O2  UNL     1      13.313  14.948  69.836  1.00  0.00    -0.341 OA
BRANCH  20  21
HETATM   21  C11 UNL     1      12.348  15.503  70.710  1.00  0.00     0.121 C 
HETATM   22  C12 UNL     1      12.703  15.184  72.138  1.00  0.00     0.040 C 
HETATM   23  C13 UNL     1      10.911  15.227  70.437  1.00  0.00     0.040 C 
ENDBRANCH  20  21
ENDBRANCH  10  20
BRANCH   6  24
HETATM   24  N3  UNL     1      12.310  13.594  64.748  1.00  0.00    -0.233 N 
ATOM     25  H32 UNL     1      12.478  12.640  64.430  1.00  0.00     0.174 HD
ATOM     26  H31 UNL     1      11.941  14.309  64.121  1.00  0.00     0.174 HD
ENDBRANCH   6  24
BRANCH  12  27
HETATM   27  C16 UNL     1      13.129  11.763  70.241  1.00  0.00     0.269 C 
HETATM   28  N5  UNL     1      12.070  11.716  71.212  1.00  0.00    -0.057 NA
HETATM   29  O3  UNL     1      14.261  11.552  70.671  1.00  0.00    -0.271 OA
ENDBRANCH  12  27
TORSDOF 7
ENDMDL
MODEL 5
REMARK VINA RESULT: -4.835544846      2.848      4.772
REMARK  7 active torsions:
REMARK  status: ('A' for Active; 'I' for Inactive)
REMARK    1  A    between atoms: C3_6  and  N3_7 
REMARK    2  A    between atoms: C4_12  and  C5_13 
REMARK    3  A    between atoms: C6_14  and  C7_15 
REMARK    4  A    between atoms: C7_15  and  O1_18 
REMARK    5  A    between atoms: C10_20  and  O2_21 
REMARK    6  A    between atoms: O2_21  and  C11_22 
REMARK    7  A    between atoms: C15_26  and  C16_27 
ROOT
HETATM    1  C1  UNL     1      11.910   9.584  68.241  1.00  0.00     0.071 C 
HETATM    2  C2  UNL     1      12.603  10.755  67.677  1.00  0.00     0.041 A 
HETATM    3  N1  UNL     1      12.231  11.577  66.714  1.00  0.00    -0.283 N 
ATOM      4  H1  UNL     1      11.356  11.512  66.196  1.00  0.00     0.188 HD
HETATM    5  N2  UNL     1      13.175  12.514  66.518  1.00  0.00    -0.083 N 
HETATM    6  C3  UNL     1      13.216  13.511  65.619  1.00  0.00     0.698 A 
HETATM    7  N4  UNL     1      14.256  14.330  65.539  1.00  0.00    -0.179 N 
ATOM      8  H4  UNL     1      14.280  15.082  64.850  1.00  0.00     0.185 HD
HETATM    9  C4  UNL     1      15.300  14.139  66.410  1.00  0.00     0.138 A 
HETATM   10  C10 UNL     1      15.286  13.136  67.338  1.00  0.00     0.135 A 
HETATM   11  C14 UNL     1      14.204  12.294  67.392  1.00  0.00     0.128 A 
HETATM   12  C15 UNL     1      13.872  11.193  68.126  1.00  0.00     0.085 A 
ENDROOT
BRANCH   9  13
HETATM   13  C5  UNL     1      16.424  15.018  66.293  1.00  0.00    -0.042 C 
HETATM   14  C6  UNL     1      17.357  15.798  66.200  1.00  0.00    -0.062 C 
BRANCH  14  15
HETATM   15  C7  UNL     1      18.484  16.735  66.112  1.00  0.00     0.114 C 
HETATM   16  C8  UNL     1      19.787  16.084  66.503  1.00  0.00     0.060 C 
HETATM   17  C9  UNL     1      18.183  17.889  67.016  1.00  0.00     0.060 C 
BRANCH  15  18
HETATM   18  O1  UNL     1      18.642  17.210  64.805  1.00  0.00    -0.378 OA
ATOM     19  H1  UNL     1      18.996  18.091  64.802  1.00  0.00     0.211 HD
ENDBRANCH  15  18
ENDBRANCH  14  15
ENDBRANCH   9  13
BRANCH  10  20
HETATM   20  O2  UNL     1      16.362  13.039  68.167  1.00  0.00    -0.341 OA
BRANCH  20  21
HETATM   21  C11 UNL     1      17.469  12.181  67.962  1.00  0.00     0.121 C 
HETATM   22  C12 UNL     1      18.749  12.908  68.276  1.00  0.00     0.040 C 
HETATM   23  C13 UNL     1      17.565  11.455  66.666  1.00  0.00     0.040 C 
ENDBRANCH  20  21
ENDBRANCH  10  20
BRANCH   6  24
HETATM   24  N3  UNL     1      12.211  13.649  64.832  1.00  0.00    -0.233 N 
ATOM     25  H32 UNL     1      12.139  13.095  63.978  1.00  0.00     0.174 HD
ATOM     26  H31 UNL     1      11.495  14.327  65.091  1.00  0.00     0.174 HD
ENDBRANCH   6  24
BRANCH  12  27
HETATM   27  C16 UNL     1      14.633  10.503  69.125  1.00  0.00     0.269 C 
HETATM   28  N5  UNL     1      14.609  10.943  70.493  1.00  0.00    -0.057 NA
HETATM   29  O3  UNL     1      15.334   9.521  68.890  1.00  0.00    -0.271 OA
ENDBRANCH  12  27
TORSDOF 7
ENDMDL
