MODEL 1
REMARK VINA RESULT: -6.054017271      0.000      0.000
REMARK  4 active torsions:
REMARK  status: ('A' for Active; 'I' for Inactive)
REMARK    1  A    between atoms: C2_2  and  C4_4 
REMARK    2  A    between atoms: C5_5  and  N1_6 
REMARK    3  A    between atoms: C10_16  and  N4_17 
REMARK    4  A    between atoms: C11_24  and  N7_25 
ROOT
HETATM    1  N1  UNL     1      16.307  15.231  65.885  1.00  0.00    -0.327 N 
ATOM      2  H1  UNL     1      16.350  15.732  64.999  1.00  0.00     0.169 HD
HETATM    3  C6  UNL     1      17.408  15.192  66.489  1.00  0.00     0.125 A 
HETATM    4  N2  UNL     1      17.659  14.583  67.643  1.00  0.00    -0.338 N 
ATOM      5  H2  UNL     1      17.030  13.853  67.978  1.00  0.00     0.168 HD
HETATM    6  C7  UNL     1      18.726  14.919  68.364  1.00  0.00     0.183 A 
HETATM    7  N3  UNL     1      19.587  15.884  67.952  1.00  0.00    -0.338 N 
ATOM      8  H3  UNL     1      20.397  16.118  68.528  1.00  0.00     0.168 HD
HETATM    9  C8  UNL     1      19.384  16.534  66.792  1.00  0.00     0.125 A 
HETATM   10  C9  UNL     1      18.311  16.188  66.069  1.00  0.00     0.096 A 
HETATM   11  C10 UNL     1      18.603  17.184  65.061  1.00  0.00     0.118 A 
HETATM   12  N5  UNL     1      19.797  17.566  65.885  1.00  0.00    -0.327 N 
ATOM     13  H5  UNL     1      20.554  18.247  65.827  1.00  0.00     0.169 HD
ENDROOT
BRANCH   1  14
HETATM   14  C5  UNL     1      15.039  14.732  66.175  1.00  0.00     0.134 A 
HETATM   15  C4  UNL     1      14.304  13.916  65.363  1.00  0.00     0.058 A 
HETATM   16  C14 UNL     1      12.997  13.697  65.695  1.00  0.00     0.270 A 
HETATM   17  N8  UNL     1      12.476  14.296  66.805  1.00  0.00    -0.155 N 
HETATM   18  O1  UNL     1      12.245  12.976  65.043  1.00  0.00    -0.267 OA
HETATM   19  C11 UNL     1      13.198  15.112  67.619  1.00  0.00     0.684 A 
ATOM     20  H8  UNL     1      11.497  14.124  67.035  1.00  0.00     0.187 HD
HETATM   21  N6  UNL     1      14.472  15.320  67.302  1.00  0.00    -0.176 N 
ATOM     22  H6  UNL     1      15.045  15.922  67.894  1.00  0.00     0.186 HD
BRANCH  15  23
HETATM   23  C2  UNL     1      14.952  13.183  64.274  1.00  0.00     0.020 C 
HETATM   24  C1  UNL     1      16.047  12.288  64.867  1.00  0.00     0.015 C 
HETATM   25  C3  UNL     1      15.707  14.196  63.374  1.00  0.00     0.015 C 
ENDBRANCH  15  23
BRANCH  19  26
HETATM   26  N7  UNL     1      12.629  15.764  68.743  1.00  0.00    -0.226 N 
HETATM   27  C12 UNL     1      11.543  15.128  69.493  1.00  0.00     0.168 C 
HETATM   28  C13 UNL     1      13.167  17.054  69.097  1.00  0.00     0.168 C 
ENDBRANCH  19  26
ENDBRANCH   1  14
BRANCH  11  29
HETATM   29  N4  UNL     1      18.325  17.524  63.899  1.00  0.00    -0.385 N 
ATOM     30  H42 UNL     1      18.598  17.077  63.023  1.00  0.00     0.157 HD
ATOM     31  H41 UNL     1      17.669  18.084  63.353  1.00  0.00     0.157 HD
ENDBRANCH  11  29
TORSDOF 4
ENDMDL
MODEL 2
REMARK VINA RESULT: -5.421539927      3.594      7.225
REMARK  4 active torsions:
REMARK  status: ('A' for Active; 'I' for Inactive)
REMARK    1  A    between atoms: C2_2  and  C4_4 
REMARK    2  A    between atoms: C5_5  and  N1_6 
REMARK    3  A    between atoms: C10_16  and  N4_17 
REMARK    4  A    between atoms: C11_24  and  N7_25 
ROOT
HETATM    1  N1  UNL     1      15.868  11.940  65.634  1.00  0.00    -0.327 N 
ATOM      2  H1  UNL     1      15.337  11.429  66.339  1.00  0.00     0.169 HD
HETATM    3  C6  UNL     1      15.150  12.662  64.898  1.00  0.00     0.125 A 
HETATM    4  N2  UNL     1      15.560  13.411  63.879  1.00  0.00    -0.338 N 
ATOM      5  H2  UNL     1      16.462  13.223  63.443  1.00  0.00     0.168 HD
HETATM    6  C7  UNL     1      14.801  14.405  63.425  1.00  0.00     0.183 A 
HETATM    7  N3  UNL     1      13.594  14.688  63.978  1.00  0.00    -0.338 N 
ATOM      8  H3  UNL     1      13.035  15.457  63.607  1.00  0.00     0.168 HD
HETATM    9  C8  UNL     1      13.127  13.963  65.012  1.00  0.00     0.125 A 
HETATM   10  C9  UNL     1      13.894  12.961  65.461  1.00  0.00     0.096 A 
HETATM   11  C10 UNL     1      12.946  12.632  66.503  1.00  0.00     0.118 A 
HETATM   12  N5  UNL     1      12.102  13.762  65.994  1.00  0.00    -0.327 N 
ATOM     13  H5  UNL     1      11.208  14.191  66.236  1.00  0.00     0.169 HD
ENDROOT
BRANCH   1  14
HETATM   14  C5  UNL     1      17.237  11.692  65.688  1.00  0.00     0.134 A 
HETATM   15  C4  UNL     1      18.177  12.542  66.196  1.00  0.00     0.058 A 
HETATM   16  C14 UNL     1      19.492  12.244  65.974  1.00  0.00     0.270 A 
HETATM   17  N8  UNL     1      19.816  11.129  65.258  1.00  0.00    -0.155 N 
HETATM   18  O1  UNL     1      20.422  12.932  66.390  1.00  0.00    -0.267 OA
HETATM   19  C11 UNL     1      18.889  10.277  64.746  1.00  0.00     0.684 A 
ATOM     20  H8  UNL     1      20.803  10.924  65.099  1.00  0.00     0.187 HD
HETATM   21  N6  UNL     1      17.609  10.561  64.967  1.00  0.00    -0.176 N 
ATOM     22  H6  UNL     1      16.887   9.939  64.602  1.00  0.00     0.186 HD
BRANCH  15  23
HETATM   23  C2  UNL     1      17.778  13.637  67.081  1.00  0.00     0.020 C 
HETATM   24  C1  UNL     1      18.145  14.969  66.414  1.00  0.00     0.015 C 
HETATM   25  C3  UNL     1      18.647  13.581  68.365  1.00  0.00     0.015 C 
ENDBRANCH  15  23
BRANCH  19  26
HETATM   26  N7  UNL     1      19.242   9.147  63.964  1.00  0.00    -0.226 N 
HETATM   27  C12 UNL     1      20.290   9.252  62.947  1.00  0.00     0.168 C 
HETATM   28  C13 UNL     1      18.529   7.920  64.223  1.00  0.00     0.168 C 
ENDBRANCH  19  26
ENDBRANCH   1  14
BRANCH  11  29
HETATM   29  N4  UNL     1      12.641  11.743  67.315  1.00  0.00    -0.385 N 
ATOM     30  H42 UNL     1      12.273  10.810  67.127  1.00  0.00     0.157 HD
ATOM     31  H41 UNL     1      12.788  11.439  68.278  1.00  0.00     0.157 HD
ENDBRANCH  11  29
TORSDOF 4
ENDMDL
MODEL 3
REMARK VINA RESULT: -5.375468811      2.794      5.504
REMARK  4 active torsions:
REMARK  status: ('A' for Active; 'I' for Inactive)
REMARK    1  A    between atoms: C2_2  and  C4_4 
REMARK    2  A    between atoms: C5_5  and  N1_6 
REMARK    3  A    between atoms: C10_16  and  N4_17 
REMARK    4  A    between atoms: C11_24  and  N7_25 
ROOT
HETATM    1  N1  UNL     1      13.598  15.721  67.442  1.00  0.00    -0.327 N 
ATOM      2  H1  UNL     1      12.718  15.337  67.099  1.00  0.00     0.169 HD
HETATM    3  C6  UNL     1      14.608  15.229  66.879  1.00  0.00     0.125 A 
HETATM    4  N2  UNL     1      15.879  15.511  67.142  1.00  0.00    -0.338 N 
ATOM      5  H2  UNL     1      16.129  15.944  68.031  1.00  0.00     0.168 HD
HETATM    6  C7  UNL     1      16.830  15.232  66.254  1.00  0.00     0.183 A 
HETATM    7  N3  UNL     1      16.539  14.655  65.060  1.00  0.00    -0.338 N 
ATOM      8  H3  UNL     1      17.291  14.453  64.400  1.00  0.00     0.168 HD
HETATM    9  C8  UNL     1      15.269  14.346  64.738  1.00  0.00     0.125 A 
HETATM   10  C9  UNL     1      14.319  14.626  65.639  1.00  0.00     0.096 A 
HETATM   11  C10 UNL     1      13.273  14.142  64.764  1.00  0.00     0.118 A 
HETATM   12  N5  UNL     1      14.348  13.842  63.762  1.00  0.00    -0.327 N 
ATOM     13  H5  UNL     1      14.399  13.457  62.819  1.00  0.00     0.169 HD
ENDROOT
BRANCH   1  14
HETATM   14  C5  UNL     1      13.431  16.682  68.436  1.00  0.00     0.134 A 
HETATM   15  C4  UNL     1      12.694  16.524  69.575  1.00  0.00     0.058 A 
HETATM   16  C14 UNL     1      12.451  17.632  70.336  1.00  0.00     0.270 A 
HETATM   17  N8  UNL     1      12.940  18.841  69.936  1.00  0.00    -0.155 N 
HETATM   18  O1  UNL     1      11.808  17.606  71.383  1.00  0.00    -0.267 OA
HETATM   19  C11 UNL     1      13.672  19.011  68.803  1.00  0.00     0.684 A 
ATOM     20  H8  UNL     1      12.746  19.659  70.515  1.00  0.00     0.187 HD
HETATM   21  N6  UNL     1      13.915  17.932  68.065  1.00  0.00    -0.176 N 
ATOM     22  H6  UNL     1      14.467  18.023  67.211  1.00  0.00     0.186 HD
BRANCH  15  23
HETATM   23  C2  UNL     1      12.325  15.183  70.033  1.00  0.00     0.020 C 
HETATM   24  C1  UNL     1      10.853  15.197  70.464  1.00  0.00     0.015 C 
HETATM   25  C3  UNL     1      13.118  14.864  71.327  1.00  0.00     0.015 C 
ENDBRANCH  15  23
BRANCH  19  26
HETATM   26  N7  UNL     1      14.132  20.283  68.377  1.00  0.00    -0.226 N 
HETATM   27  C12 UNL     1      15.553  20.625  68.478  1.00  0.00     0.168 C 
HETATM   28  C13 UNL     1      13.148  21.197  67.852  1.00  0.00     0.168 C 
ENDBRANCH  19  26
ENDBRANCH   1  14
BRANCH  11  29
HETATM   29  N4  UNL     1      12.082  13.791  64.749  1.00  0.00    -0.385 N 
ATOM     30  H42 UNL     1      11.554  13.304  65.475  1.00  0.00     0.157 HD
ATOM     31  H41 UNL     1      11.190  13.965  64.286  1.00  0.00     0.157 HD
ENDBRANCH  11  29
TORSDOF 4
ENDMDL
MODEL 4
REMARK VINA RESULT: -5.368679831      3.989      5.722
REMARK  4 active torsions:
REMARK  status: ('A' for Active; 'I' for Inactive)
REMARK    1  A    between atoms: C2_2  and  C4_4 
REMARK    2  A    between atoms: C5_5  and  N1_6 
REMARK    3  A    between atoms: C10_16  and  N4_17 
REMARK    4  A    between atoms: C11_24  and  N7_25 
ROOT
HETATM    1  N1  UNL     1      12.290  14.706  68.149  1.00  0.00    -0.327 N 
ATOM      2  H1  UNL     1      11.759  14.841  67.289  1.00  0.00     0.169 HD
HETATM    3  C6  UNL     1      13.078  13.729  68.098  1.00  0.00     0.125 A 
HETATM    4  N2  UNL     1      13.868  13.296  69.075  1.00  0.00    -0.338 N 
ATOM      5  H2  UNL     1      13.673  13.561  70.040  1.00  0.00     0.168 HD
HETATM    6  C7  UNL     1      14.914  12.518  68.801  1.00  0.00     0.183 A 
HETATM    7  N3  UNL     1      15.206  12.142  67.530  1.00  0.00    -0.338 N 
ATOM      8  H3  UNL     1      16.015  11.545  67.354  1.00  0.00     0.168 HD
HETATM    9  C8  UNL     1      14.441  12.550  66.501  1.00  0.00     0.125 A 
HETATM   10  C9  UNL     1      13.389  13.328  66.784  1.00  0.00     0.096 A 
HETATM   11  C10 UNL     1      13.035  13.448  65.386  1.00  0.00     0.118 A 
HETATM   12  N5  UNL     1      14.221  12.582  65.084  1.00  0.00    -0.327 N 
ATOM     13  H5  UNL     1      14.667  12.194  64.253  1.00  0.00     0.169 HD
ENDROOT
BRANCH   1  14
HETATM   14  C5  UNL     1      11.990  15.643  69.134  1.00  0.00     0.134 A 
HETATM   15  C4  UNL     1      12.725  16.759  69.417  1.00  0.00     0.058 A 
HETATM   16  C14 UNL     1      12.419  17.453  70.553  1.00  0.00     0.270 A 
HETATM   17  N8  UNL     1      11.410  17.011  71.358  1.00  0.00    -0.155 N 
HETATM   18  O1  UNL     1      13.007  18.474  70.901  1.00  0.00    -0.267 OA
HETATM   19  C11 UNL     1      10.674  15.900  71.089  1.00  0.00     0.684 A 
ATOM     20  H8  UNL     1      11.198  17.540  72.205  1.00  0.00     0.187 HD
HETATM   21  N6  UNL     1      10.966  15.228  69.980  1.00  0.00    -0.176 N 
ATOM     22  H6  UNL     1      10.429  14.392  69.744  1.00  0.00     0.186 HD
BRANCH  15  23
HETATM   23  C2  UNL     1      13.692  17.270  68.443  1.00  0.00     0.020 C 
HETATM   24  C1  UNL     1      15.101  17.141  69.034  1.00  0.00     0.015 C 
HETATM   25  C3  UNL     1      13.467  18.795  68.273  1.00  0.00     0.015 C 
ENDBRANCH  15  23
BRANCH  19  26
HETATM   26  N7  UNL     1       9.660  15.428  71.961  1.00  0.00    -0.226 N 
HETATM   27  C12 UNL     1       9.469  13.990  72.161  1.00  0.00     0.168 C 
HETATM   28  C13 UNL     1       8.849  16.420  72.624  1.00  0.00     0.168 C 
ENDBRANCH  19  26
ENDBRANCH   1  14
BRANCH  11  29
HETATM   29  N4  UNL     1      12.113  13.789  64.627  1.00  0.00    -0.385 N 
ATOM     30  H42 UNL     1      11.309  13.241  64.318  1.00  0.00     0.157 HD
ATOM     31  H41 UNL     1      11.646  14.606  64.234  1.00  0.00     0.157 HD
ENDBRANCH  11  29
TORSDOF 4
ENDMDL
MODEL 5
REMARK VINA RESULT: -5.179223900      2.893      6.140
REMARK  4 active torsions:
REMARK  status: ('A' for Active; 'I' for Inactive)
REMARK    1  A    between atoms: C2_2  and  C4_4 
REMARK    2  A    between atoms: C5_5  and  N1_6 
REMARK    3  A    between atoms: C10_16  and  N4_17 
REMARK    4  A    between atoms: C11_24  and  N7_25 
ROOT
HETATM    1  N1  UNL     1      16.017  13.095  66.212  1.00  0.00    -0.327 N 
ATOM      2  H1  UNL     1      15.905  12.337  66.884  1.00  0.00     0.169 HD
HETATM    3  C6  UNL     1      15.000  13.280  65.497  1.00  0.00     0.125 A 
HETATM    4  N2  UNL     1      14.870  14.171  64.519  1.00  0.00    -0.338 N 
ATOM      5  H2  UNL     1      15.700  14.577  64.089  1.00  0.00     0.168 HD
HETATM    6  C7  UNL     1      13.661  14.536  64.098  1.00  0.00     0.183 A 
HETATM    7  N3  UNL     1      12.531  14.019  64.644  1.00  0.00    -0.338 N 
ATOM      8  H3  UNL     1      11.620  14.320  64.299  1.00  0.00     0.168 HD
HETATM    9  C8  UNL     1      12.602  13.113  65.637  1.00  0.00     0.125 A 
HETATM   10  C9  UNL     1      13.821  12.747  66.053  1.00  0.00     0.096 A 
HETATM   11  C10 UNL     1      13.271  11.871  67.065  1.00  0.00     0.118 A 
HETATM   12  N5  UNL     1      11.912  12.297  66.593  1.00  0.00    -0.327 N 
ATOM     13  H5  UNL     1      10.943  12.098  66.840  1.00  0.00     0.169 HD
ENDROOT
BRANCH   1  14
HETATM   14  C5  UNL     1      17.266  13.709  66.276  1.00  0.00     0.134 A 
HETATM   15  C4  UNL     1      18.467  13.061  66.306  1.00  0.00     0.058 A 
HETATM   16  C14 UNL     1      19.582  13.798  66.592  1.00  0.00     0.270 A 
HETATM   17  N8  UNL     1      19.458  15.134  66.841  1.00  0.00    -0.155 N 
HETATM   18  O1  UNL     1      20.714  13.322  66.638  1.00  0.00    -0.267 OA
HETATM   19  C11 UNL     1      18.267  15.789  66.816  1.00  0.00     0.684 A 
ATOM     20  H8  UNL     1      20.301  15.667  67.056  1.00  0.00     0.187 HD
HETATM   21  N6  UNL     1      17.182  15.075  66.531  1.00  0.00    -0.176 N 
ATOM     22  H6  UNL     1      16.272  15.536  66.498  1.00  0.00     0.186 HD
BRANCH  15  23
HETATM   23  C2  UNL     1      18.560  11.662  65.885  1.00  0.00     0.020 C 
HETATM   24  C1  UNL     1      18.069  11.550  64.436  1.00  0.00     0.015 C 
HETATM   25  C3  UNL     1      17.550  10.826  66.715  1.00  0.00     0.015 C 
ENDBRANCH  15  23
BRANCH  19  26
HETATM   26  N7  UNL     1      18.150  17.169  67.123  1.00  0.00    -0.226 N 
HETATM   27  C12 UNL     1      18.765  18.173  66.251  1.00  0.00     0.168 C 
HETATM   28  C13 UNL     1      17.409  17.518  68.309  1.00  0.00     0.168 C 
ENDBRANCH  19  26
ENDBRANCH   1  14
BRANCH  11  29
HETATM   29  N4  UNL     1      13.567  10.940  67.832  1.00  0.00    -0.385 N 
ATOM     30  H42 UNL     1      14.304  10.242  67.729  1.00  0.00     0.157 HD
ATOM     31  H41 UNL     1      13.462  10.617  68.794  1.00  0.00     0.157 HD
ENDBRANCH  11  29
TORSDOF 4
ENDMDL
