MODEL 1
REMARK VINA RESULT: -7.600114678      0.000      0.000
REMARK  7 active torsions:
REMARK  status: ('A' for Active; 'I' for Inactive)
REMARK    1  A    between atoms: C1_1  and  C9_9 
REMARK    2  A    between atoms: C2_2  and  C3_3 
REMARK    3  A    between atoms: C9_9  and  S1_10 
REMARK    4  A    between atoms: S1_10  and  S2_11 
REMARK    5  A    between atoms: S2_11  and  S3_12 
REMARK    6  A    between atoms: S3_12  and  C10_13 
REMARK    7  A    between atoms: C10_13  and  C11_14 
ROOT
HETATM    1  S1  UNL     1      23.322  45.817  58.817  1.00  0.00    -0.082 SA
ENDROOT
BRANCH   1   2
HETATM    2  C9  UNL     1      25.017  45.669  59.428  1.00  0.00     0.114 C 
BRANCH   2   3
HETATM    3  C1  UNL     1      25.259  46.740  60.405  1.00  0.00    -0.015 C 
HETATM    4  C2  UNL     1      24.950  46.583  61.666  1.00  0.00     0.008 C 
BRANCH   4   5
HETATM    5  C3  UNL     1      25.165  47.609  62.700  1.00  0.00    -0.036 A 
HETATM    6  C4  UNL     1      24.080  48.330  63.170  1.00  0.00     0.011 A 
HETATM    7  C5  UNL     1      24.285  49.281  64.130  1.00  0.00     0.001 A 
HETATM    8  C6  UNL     1      25.530  49.558  64.652  1.00  0.00     0.000 A 
HETATM    9  C7  UNL     1      26.580  48.823  64.159  1.00  0.00     0.001 A 
HETATM   10  C8  UNL     1      26.423  47.841  63.181  1.00  0.00     0.011 A 
ENDBRANCH   4   5
ENDBRANCH   2   3
ENDBRANCH   1   2
BRANCH   1  11
HETATM   11  S2  UNL     1      22.988  47.901  58.402  1.00  0.00    -0.025 SA
BRANCH  11  12
HETATM   12  S3  UNL     1      21.951  48.761  60.027  1.00  0.00    -0.083 SA
BRANCH  12  13
HETATM   13  C10 UNL     1      21.367  47.531  61.198  1.00  0.00     0.125 C 
BRANCH  13  14
HETATM   14  C11 UNL     1      20.257  47.946  62.036  1.00  0.00     0.073 C 
HETATM   15  C12 UNL     1      20.495  48.820  63.228  1.00  0.00     0.041 C 
HETATM   16  C13 UNL     1      19.036  48.871  63.740  1.00  0.00     0.035 C 
HETATM   17  C14 UNL     1      18.431  48.064  62.582  1.00  0.00     0.125 C 
HETATM   18  C15 UNL     1      19.089  48.666  61.364  1.00  0.00     0.071 C 
HETATM   19  O1  UNL     1      19.323  47.001  62.445  1.00  0.00    -0.374 OA
ENDBRANCH  13  14
ENDBRANCH  12  13
ENDBRANCH  11  12
ENDBRANCH   1  11
TORSDOF 7
ENDMDL
MODEL 2
REMARK VINA RESULT: -7.590762826      2.257      4.809
REMARK  7 active torsions:
REMARK  status: ('A' for Active; 'I' for Inactive)
REMARK    1  A    between atoms: C1_1  and  C9_9 
REMARK    2  A    between atoms: C2_2  and  C3_3 
REMARK    3  A    between atoms: C9_9  and  S1_10 
REMARK    4  A    between atoms: S1_10  and  S2_11 
REMARK    5  A    between atoms: S2_11  and  S3_12 
REMARK    6  A    between atoms: S3_12  and  C10_13 
REMARK    7  A    between atoms: C10_13  and  C11_14 
ROOT
HETATM    1  S1  UNL     1      19.385  49.209  62.782  1.00  0.00    -0.082 SA
ENDROOT
BRANCH   1   2
HETATM    2  C9  UNL     1      20.079  48.865  64.416  1.00  0.00     0.114 C 
BRANCH   2   3
HETATM    3  C1  UNL     1      21.473  48.431  64.252  1.00  0.00    -0.015 C 
HETATM    4  C2  UNL     1      22.423  49.294  64.003  1.00  0.00     0.008 C 
BRANCH   4   5
HETATM    5  C3  UNL     1      23.839  48.932  63.830  1.00  0.00    -0.036 A 
HETATM    6  C4  UNL     1      24.180  47.977  62.885  1.00  0.00     0.011 A 
HETATM    7  C5  UNL     1      25.495  47.644  62.727  1.00  0.00     0.001 A 
HETATM    8  C6  UNL     1      26.505  48.217  63.471  1.00  0.00     0.000 A 
HETATM    9  C7  UNL     1      26.126  49.159  64.397  1.00  0.00     0.001 A 
HETATM   10  C8  UNL     1      24.798  49.534  64.596  1.00  0.00     0.011 A 
ENDBRANCH   4   5
ENDBRANCH   2   3
ENDBRANCH   1   2
BRANCH   1  11
HETATM   11  S2  UNL     1      20.266  47.797  61.420  1.00  0.00    -0.025 SA
BRANCH  11  12
HETATM   12  S3  UNL     1      21.707  48.795  60.243  1.00  0.00    -0.083 SA
BRANCH  12  13
HETATM   13  C10 UNL     1      22.118  47.892  58.747  1.00  0.00     0.125 C 
BRANCH  13  14
HETATM   14  C11 UNL     1      23.198  46.930  58.877  1.00  0.00     0.073 C 
HETATM   15  C12 UNL     1      24.605  47.397  59.087  1.00  0.00     0.041 C 
HETATM   16  C13 UNL     1      25.285  46.007  59.084  1.00  0.00     0.035 C 
HETATM   17  C14 UNL     1      23.988  45.194  58.964  1.00  0.00     0.125 C 
HETATM   18  C15 UNL     1      23.071  45.861  59.961  1.00  0.00     0.071 C 
HETATM   19  O1  UNL     1      23.283  45.877  57.974  1.00  0.00    -0.374 OA
ENDBRANCH  13  14
ENDBRANCH  12  13
ENDBRANCH  11  12
ENDBRANCH   1  11
TORSDOF 7
ENDMDL
MODEL 3
REMARK VINA RESULT: -7.550924542      3.392      4.529
REMARK  7 active torsions:
REMARK  status: ('A' for Active; 'I' for Inactive)
REMARK    1  A    between atoms: C1_1  and  C9_9 
REMARK    2  A    between atoms: C2_2  and  C3_3 
REMARK    3  A    between atoms: C9_9  and  S1_10 
REMARK    4  A    between atoms: S1_10  and  S2_11 
REMARK    5  A    between atoms: S2_11  and  S3_12 
REMARK    6  A    between atoms: S3_12  and  C10_13 
REMARK    7  A    between atoms: C10_13  and  C11_14 
ROOT
HETATM    1  S1  UNL     1      27.995  44.282  60.854  1.00  0.00    -0.082 SA
ENDROOT
BRANCH   1   2
HETATM    2  C9  UNL     1      28.490  45.358  62.220  1.00  0.00     0.114 C 
BRANCH   2   3
HETATM    3  C1  UNL     1      27.293  46.025  62.751  1.00  0.00    -0.015 C 
HETATM    4  C2  UNL     1      27.194  47.329  62.754  1.00  0.00     0.008 C 
BRANCH   4   5
HETATM    5  C3  UNL     1      26.025  48.063  63.268  1.00  0.00    -0.036 A 
HETATM    6  C4  UNL     1      24.774  47.793  62.739  1.00  0.00     0.011 A 
HETATM    7  C5  UNL     1      23.692  48.476  63.218  1.00  0.00     0.001 A 
HETATM    8  C6  UNL     1      23.792  49.429  64.210  1.00  0.00     0.000 A 
HETATM    9  C7  UNL     1      25.049  49.669  64.708  1.00  0.00     0.001 A 
HETATM   10  C8  UNL     1      26.184  48.998  64.252  1.00  0.00     0.011 A 
ENDBRANCH   4   5
ENDBRANCH   2   3
ENDBRANCH   1   2
BRANCH   1  11
HETATM   11  S2  UNL     1      28.427  45.344  59.034  1.00  0.00    -0.025 SA
BRANCH  11  12
HETATM   12  S3  UNL     1      27.278  47.115  58.990  1.00  0.00    -0.083 SA
BRANCH  12  13
HETATM   13  C10 UNL     1      25.827  46.967  57.944  1.00  0.00     0.125 C 
BRANCH  13  14
HETATM   14  C11 UNL     1      24.600  46.601  58.626  1.00  0.00     0.073 C 
HETATM   15  C12 UNL     1      24.632  45.651  59.782  1.00  0.00     0.041 C 
HETATM   16  C13 UNL     1      23.108  45.593  60.043  1.00  0.00     0.035 C 
HETATM   17  C14 UNL     1      22.723  46.630  58.978  1.00  0.00     0.125 C 
HETATM   18  C15 UNL     1      23.737  47.730  59.189  1.00  0.00     0.071 C 
HETATM   19  O1  UNL     1      23.485  46.243  57.877  1.00  0.00    -0.374 OA
ENDBRANCH  13  14
ENDBRANCH  12  13
ENDBRANCH  11  12
ENDBRANCH   1  11
TORSDOF 7
ENDMDL
MODEL 4
REMARK VINA RESULT: -7.383366521      2.757      5.267
REMARK  7 active torsions:
REMARK  status: ('A' for Active; 'I' for Inactive)
REMARK    1  A    between atoms: C1_1  and  C9_9 
REMARK    2  A    between atoms: C2_2  and  C3_3 
REMARK    3  A    between atoms: C9_9  and  S1_10 
REMARK    4  A    between atoms: S1_10  and  S2_11 
REMARK    5  A    between atoms: S2_11  and  S3_12 
REMARK    6  A    between atoms: S3_12  and  C10_13 
REMARK    7  A    between atoms: C10_13  and  C11_14 
ROOT
HETATM    1  S1  UNL     1      26.875  46.487  62.608  1.00  0.00    -0.082 SA
ENDROOT
BRANCH   1   2
HETATM    2  C9  UNL     1      26.147  48.036  63.191  1.00  0.00     0.114 C 
BRANCH   2   3
HETATM    3  C1  UNL     1      24.721  48.047  62.836  1.00  0.00    -0.015 C 
HETATM    4  C2  UNL     1      23.876  48.819  63.469  1.00  0.00     0.008 C 
BRANCH   4   5
HETATM    5  C3  UNL     1      22.436  48.884  63.167  1.00  0.00    -0.036 A 
HETATM    6  C4  UNL     1      21.555  49.264  64.164  1.00  0.00     0.011 A 
HETATM    7  C5  UNL     1      20.220  49.323  63.880  1.00  0.00     0.001 A 
HETATM    8  C6  UNL     1      19.708  49.018  62.637  1.00  0.00     0.000 A 
HETATM    9  C7  UNL     1      20.614  48.644  61.674  1.00  0.00     0.001 A 
HETATM   10  C8  UNL     1      21.986  48.569  61.915  1.00  0.00     0.011 A 
ENDBRANCH   4   5
ENDBRANCH   2   3
ENDBRANCH   1   2
BRANCH   1  11
HETATM   11  S2  UNL     1      28.076  46.969  60.890  1.00  0.00    -0.025 SA
BRANCH  11  12
HETATM   12  S3  UNL     1      27.431  45.795  59.258  1.00  0.00    -0.083 SA
BRANCH  12  13
HETATM   13  C10 UNL     1      26.152  46.603  58.292  1.00  0.00     0.125 C 
BRANCH  13  14
HETATM   14  C11 UNL     1      24.793  46.402  58.763  1.00  0.00     0.073 C 
HETATM   15  C12 UNL     1      24.522  45.494  59.922  1.00  0.00     0.041 C 
HETATM   16  C13 UNL     1      22.980  45.617  59.921  1.00  0.00     0.035 C 
HETATM   17  C14 UNL     1      22.901  46.653  58.791  1.00  0.00     0.125 C 
HETATM   18  C15 UNL     1      23.986  47.639  59.154  1.00  0.00     0.071 C 
HETATM   19  O1  UNL     1      23.785  46.145  57.841  1.00  0.00    -0.374 OA
ENDBRANCH  13  14
ENDBRANCH  12  13
ENDBRANCH  11  12
ENDBRANCH   1  11
TORSDOF 7
ENDMDL
MODEL 5
REMARK VINA RESULT: -7.342894322      2.915      3.961
REMARK  7 active torsions:
REMARK  status: ('A' for Active; 'I' for Inactive)
REMARK    1  A    between atoms: C1_1  and  C9_9 
REMARK    2  A    between atoms: C2_2  and  C3_3 
REMARK    3  A    between atoms: C9_9  and  S1_10 
REMARK    4  A    between atoms: S1_10  and  S2_11 
REMARK    5  A    between atoms: S2_11  and  S3_12 
REMARK    6  A    between atoms: S3_12  and  C10_13 
REMARK    7  A    between atoms: C10_13  and  C11_14 
ROOT
HETATM    1  S1  UNL     1      27.542  44.288  60.421  1.00  0.00    -0.082 SA
ENDROOT
BRANCH   1   2
HETATM    2  C9  UNL     1      28.239  45.220  61.804  1.00  0.00     0.114 C 
BRANCH   2   3
HETATM    3  C1  UNL     1      27.151  45.941  62.481  1.00  0.00    -0.015 C 
HETATM    4  C2  UNL     1      27.134  47.247  62.526  1.00  0.00     0.008 C 
BRANCH   4   5
HETATM    5  C3  UNL     1      26.077  48.034  63.183  1.00  0.00    -0.036 A 
HETATM    6  C4  UNL     1      26.421  48.904  64.204  1.00  0.00     0.011 A 
HETATM    7  C5  UNL     1      25.438  49.632  64.811  1.00  0.00     0.001 A 
HETATM    8  C6  UNL     1      24.110  49.539  64.452  1.00  0.00     0.000 A 
HETATM    9  C7  UNL     1      23.810  48.665  63.435  1.00  0.00     0.001 A 
HETATM   10  C8  UNL     1      24.777  47.900  62.784  1.00  0.00     0.011 A 
ENDBRANCH   4   5
ENDBRANCH   2   3
ENDBRANCH   1   2
BRANCH   1  11
HETATM   11  S2  UNL     1      26.350  45.666  59.278  1.00  0.00    -0.025 SA
BRANCH  11  12
HETATM   12  S3  UNL     1      24.331  45.466  59.862  1.00  0.00    -0.083 SA
BRANCH  12  13
HETATM   13  C10 UNL     1      23.192  46.104  58.630  1.00  0.00     0.125 C 
BRANCH  13  14
HETATM   14  C11 UNL     1      22.970  47.539  58.670  1.00  0.00     0.073 C 
HETATM   15  C12 UNL     1      22.519  48.199  59.936  1.00  0.00     0.041 C 
HETATM   16  C13 UNL     1      22.395  49.638  59.383  1.00  0.00     0.035 C 
HETATM   17  C14 UNL     1      22.920  49.317  57.976  1.00  0.00     0.125 C 
HETATM   18  C15 UNL     1      24.125  48.448  58.251  1.00  0.00     0.071 C 
HETATM   19  O1  UNL     1      22.242  48.143  57.652  1.00  0.00    -0.374 OA
ENDBRANCH  13  14
ENDBRANCH  12  13
ENDBRANCH  11  12
ENDBRANCH   1  11
TORSDOF 7
ENDMDL
