MODEL 1
REMARK VINA RESULT: -7.911758751      0.000      0.000
REMARK  20 active torsions:
REMARK  status: ('A' for Active; 'I' for Inactive)
REMARK    1  A    between atoms: C2_2  and  O1_3 
REMARK    2  A    between atoms: C2_2  and  C3_5 
REMARK    3  A    between atoms: C2_2  and  C4_8 
REMARK    4  A    between atoms: C3_5  and  O2_6 
REMARK    5  A    between atoms: C4_8  and  O3_9 
REMARK    6  A    between atoms: C4_8  and  C5_11 
REMARK    7  A    between atoms: C5_11  and  C6_12 
REMARK    8  A    between atoms: C5_11  and  C7_15 
REMARK    9  A    between atoms: C6_12  and  O4_13 
REMARK   10  A    between atoms: C7_15  and  O5_16 
REMARK   11  A    between atoms: C7_15  and  C8_18 
REMARK   12  A    between atoms: C8_18  and  C9_19 
REMARK   13  A    between atoms: C9_19  and  C10_21 
REMARK   14  A    between atoms: C10_21  and  O7_22 
REMARK   15  A    between atoms: C10_21  and  N1_24 
REMARK   16  A    between atoms: N1_24  and  C11_26 
REMARK   17  A    between atoms: C11_26  and  C14_29 
REMARK   18  A    between atoms: C20_35  and  O8_36 
REMARK   19  A    between atoms: C23_40  and  O9_41 
REMARK   20  A    between atoms: C31_50  and  O10_51 
ROOT
HETATM    1  C11 UNL     1       3.092  49.934 -51.797  1.00  0.00     0.025 C 
HETATM    2  C12 UNL     1       4.325  49.934 -52.586  1.00  0.00     0.038 C 
HETATM    3  C13 UNL     1       2.036  50.438 -52.800  1.00  0.00     0.038 C 
ENDROOT
BRANCH   1   4
HETATM    4  N1  UNL     1       2.790  48.515 -51.515  1.00  0.00    -0.383 N 
ATOM      5  H1  UNL     1       3.056  48.093 -50.626  1.00  0.00     0.157 HD
BRANCH   4   6
HETATM    6  C10 UNL     1       2.122  47.752 -52.507  1.00  0.00     0.285 C 
BRANCH   6   7
HETATM    7  C9  UNL     1       3.062  46.614 -52.834  1.00  0.00     0.176 C 
HETATM    8  O6  UNL     1       3.800  46.703 -53.821  1.00  0.00    -0.293 OA
BRANCH   7   9
HETATM    9  C8  UNL     1       3.165  45.386 -52.044  1.00  0.00     0.115 C 
BRANCH   9  10
HETATM   10  C7  UNL     1       3.881  45.363 -50.766  1.00  0.00     0.134 C 
BRANCH  10  11
HETATM   11  C5  UNL     1       4.033  44.130 -49.963  1.00  0.00     0.070 C 
BRANCH  11  12
HETATM   12  C4  UNL     1       3.265  44.300 -48.659  1.00  0.00     0.162 C 
BRANCH  12  13
HETATM   13  C2  UNL     1       1.838  43.980 -48.609  1.00  0.00     0.101 C 
HETATM   14  C1  UNL     1       0.924  44.284 -49.723  1.00  0.00     0.051 C 
BRANCH  13  15
HETATM   15  O1  UNL     1       1.784  42.537 -48.485  1.00  0.00    -0.385 OA
ATOM     16  H1  UNL     1       2.316  42.347 -47.722  1.00  0.00     0.210 HD
ENDBRANCH  13  15
BRANCH  13  17
HETATM   17  C3  UNL     1       1.179  44.449 -47.307  1.00  0.00     0.204 C 
BRANCH  17  18
HETATM   18  O2  UNL     1       0.688  45.737 -47.456  1.00  0.00    -0.398 OA
ATOM     19  H2  UNL     1       1.094  46.318 -46.824  1.00  0.00     0.209 HD
ENDBRANCH  17  18
ENDBRANCH  13  17
ENDBRANCH  12  13
BRANCH  12  20
HETATM   20  O3  UNL     1       3.395  45.634 -48.209  1.00  0.00    -0.392 OA
ATOM     21  H3  UNL     1       4.264  45.710 -47.832  1.00  0.00     0.210 HD
ENDBRANCH  12  20
ENDBRANCH  11  12
BRANCH  11  22
HETATM   22  C6  UNL     1       5.385  43.570 -49.766  1.00  0.00     0.174 C 
BRANCH  22  23
HETATM   23  O4  UNL     1       6.142  44.285 -48.821  1.00  0.00    -0.400 OA
ATOM     24  H4  UNL     1       5.935  44.047 -47.925  1.00  0.00     0.209 HD
ENDBRANCH  22  23
ENDBRANCH  11  22
ENDBRANCH  10  11
BRANCH  10  25
HETATM   25  O5  UNL     1       5.018  46.183 -50.774  1.00  0.00    -0.395 OA
ATOM     26  H5  UNL     1       4.851  47.073 -51.060  1.00  0.00     0.210 HD
ENDBRANCH  10  25
ENDBRANCH   9  10
ENDBRANCH   7   9
ENDBRANCH   6   7
BRANCH   6  27
HETATM   27  O7  UNL     1       0.999  47.081 -51.928  1.00  0.00    -0.370 OA
ATOM     28  H7  UNL     1       0.285  47.687 -52.090  1.00  0.00     0.212 HD
ENDBRANCH   6  27
ENDBRANCH   4   6
ENDBRANCH   1   4
BRANCH   1  29
HETATM   29  C14 UNL     1       2.956  50.611 -50.504  1.00  0.00     0.024 C 
HETATM   30  C15 UNL     1       4.085  50.050 -49.605  1.00  0.00     0.008 C 
HETATM   31  C16 UNL     1       3.936  50.858 -48.382  1.00  0.00     0.006 C 
HETATM   32  C17 UNL     1       3.858  52.252 -49.000  1.00  0.00     0.001 C 
HETATM   33  C18 UNL     1       3.477  53.245 -48.013  1.00  0.00     0.002 C 
HETATM   34  C32 UNL     1       2.991  52.047 -50.255  1.00  0.00    -0.008 C 
HETATM   35  C19 UNL     1       4.450  54.379 -47.743  1.00  0.00     0.038 C 
HETATM   36  C28 UNL     1       2.134  53.871 -48.020  1.00  0.00    -0.030 C 
HETATM   37  C20 UNL     1       4.236  54.824 -46.308  1.00  0.00     0.123 C 
HETATM   38  C21 UNL     1       2.824  55.088 -45.951  1.00  0.00     0.026 C 
HETATM   39  C22 UNL     1       2.561  55.083 -44.458  1.00  0.00     0.039 C 
HETATM   40  C26 UNL     1       1.788  54.191 -46.558  1.00  0.00    -0.030 C 
HETATM   41  C23 UNL     1       1.264  55.829 -44.255  1.00  0.00     0.118 C 
HETATM   42  C24 UNL     1       0.132  55.334 -45.098  1.00  0.00     0.032 C 
HETATM   43  C25 UNL     1       0.459  54.925 -46.479  1.00  0.00     0.013 C 
HETATM   44  C27 UNL     1       1.639  52.948 -45.717  1.00  0.00     0.016 C 
HETATM   45  C29 UNL     1       2.004  55.175 -48.757  1.00  0.00     0.016 C 
HETATM   46  C30 UNL     1       1.219  52.886 -48.627  1.00  0.00     0.042 C 
HETATM   47  C31 UNL     1       1.667  52.713 -50.089  1.00  0.00     0.128 C 
HETATM   48  C33 UNL     1       3.814  52.831 -51.311  1.00  0.00     0.019 C 
BRANCH  37  49
HETATM   49  O8  UNL     1       4.818  53.846 -45.475  1.00  0.00    -0.395 OA
ATOM     50  H8  UNL     1       5.333  54.303 -44.821  1.00  0.00     0.210 HD
ENDBRANCH  37  49
BRANCH  41  51
HETATM   51  O9  UNL     1       0.933  55.760 -42.925  1.00  0.00    -0.396 OA
ATOM     52  H9  UNL     1       0.201  56.347 -42.770  1.00  0.00     0.210 HD
ENDBRANCH  41  51
BRANCH  47  53
HETATM   53  O10 UNL     1       0.576  52.118 -50.658  1.00  0.00    -0.395 OA
ATOM     54  H10 UNL     1       0.974  51.464 -51.221  1.00  0.00     0.210 HD
ENDBRANCH  47  53
ENDBRANCH   1  29
TORSDOF 20
ENDMDL
MODEL 2
REMARK VINA RESULT: -7.602056022      0.914      2.210
REMARK  20 active torsions:
REMARK  status: ('A' for Active; 'I' for Inactive)
REMARK    1  A    between atoms: C2_2  and  O1_3 
REMARK    2  A    between atoms: C2_2  and  C3_5 
REMARK    3  A    between atoms: C2_2  and  C4_8 
REMARK    4  A    between atoms: C3_5  and  O2_6 
REMARK    5  A    between atoms: C4_8  and  O3_9 
REMARK    6  A    between atoms: C4_8  and  C5_11 
REMARK    7  A    between atoms: C5_11  and  C6_12 
REMARK    8  A    between atoms: C5_11  and  C7_15 
REMARK    9  A    between atoms: C6_12  and  O4_13 
REMARK   10  A    between atoms: C7_15  and  O5_16 
REMARK   11  A    between atoms: C7_15  and  C8_18 
REMARK   12  A    between atoms: C8_18  and  C9_19 
REMARK   13  A    between atoms: C9_19  and  C10_21 
REMARK   14  A    between atoms: C10_21  and  O7_22 
REMARK   15  A    between atoms: C10_21  and  N1_24 
REMARK   16  A    between atoms: N1_24  and  C11_26 
REMARK   17  A    between atoms: C11_26  and  C14_29 
REMARK   18  A    between atoms: C20_35  and  O8_36 
REMARK   19  A    between atoms: C23_40  and  O9_41 
REMARK   20  A    between atoms: C31_50  and  O10_51 
ROOT
HETATM    1  C11 UNL     1       3.201  49.727 -51.560  1.00  0.00     0.025 C 
HETATM    2  C12 UNL     1       4.484  49.481 -52.218  1.00  0.00     0.038 C 
HETATM    3  C13 UNL     1       2.356  50.375 -52.674  1.00  0.00     0.038 C 
ENDROOT
BRANCH   1   4
HETATM    4  N1  UNL     1       2.622  48.395 -51.287  1.00  0.00    -0.383 N 
ATOM      5  H1  UNL     1       2.769  47.937 -50.388  1.00  0.00     0.157 HD
BRANCH   4   6
HETATM    6  C10 UNL     1       1.857  47.765 -52.303  1.00  0.00     0.285 C 
BRANCH   6   7
HETATM    7  C9  UNL     1       2.266  46.310 -52.264  1.00  0.00     0.176 C 
HETATM    8  O6  UNL     1       3.369  45.980 -52.713  1.00  0.00    -0.293 OA
BRANCH   7   9
HETATM    9  C8  UNL     1       1.431  45.240 -51.718  1.00  0.00     0.115 C 
BRANCH   9  10
HETATM   10  C7  UNL     1       1.572  44.800 -50.328  1.00  0.00     0.134 C 
BRANCH  10  11
HETATM   11  C5  UNL     1       2.515  45.438 -49.384  1.00  0.00     0.070 C 
BRANCH  11  12
HETATM   12  C4  UNL     1       3.331  44.350 -48.700  1.00  0.00     0.162 C 
BRANCH  12  13
HETATM   13  C2  UNL     1       4.597  43.912 -49.290  1.00  0.00     0.101 C 
HETATM   14  C1  UNL     1       5.058  44.388 -50.606  1.00  0.00     0.051 C 
BRANCH  13  15
HETATM   15  O1  UNL     1       5.617  44.368 -48.367  1.00  0.00    -0.385 OA
ATOM     16  H1  UNL     1       6.101  45.021 -48.857  1.00  0.00     0.210 HD
ENDBRANCH  13  15
BRANCH  13  17
HETATM   17  C3  UNL     1       4.766  42.390 -49.245  1.00  0.00     0.204 C 
BRANCH  17  18
HETATM   18  O2  UNL     1       6.042  42.037 -49.658  1.00  0.00    -0.398 OA
ATOM     19  H2  UNL     1       6.047  41.854 -50.590  1.00  0.00     0.209 HD
ENDBRANCH  17  18
ENDBRANCH  13  17
ENDBRANCH  12  13
BRANCH  12  20
HETATM   20  O3  UNL     1       2.535  43.192 -48.548  1.00  0.00    -0.392 OA
ATOM     21  H3  UNL     1       2.207  43.204 -47.656  1.00  0.00     0.210 HD
ENDBRANCH  12  20
ENDBRANCH  11  12
BRANCH  11  22
HETATM   22  C6  UNL     1       2.002  46.452 -48.441  1.00  0.00     0.174 C 
BRANCH  22  23
HETATM   23  O4  UNL     1       1.101  45.920 -47.501  1.00  0.00    -0.400 OA
ATOM     24  H4  UNL     1       1.519  45.342 -46.874  1.00  0.00     0.209 HD
ENDBRANCH  22  23
ENDBRANCH  11  22
ENDBRANCH  10  11
BRANCH  10  25
HETATM   25  O5  UNL     1       0.345  44.440 -49.753  1.00  0.00    -0.395 OA
ATOM     26  H5  UNL     1       0.196  43.503 -49.715  1.00  0.00     0.210 HD
ENDBRANCH  10  25
ENDBRANCH   9  10
ENDBRANCH   7   9
ENDBRANCH   6   7
BRANCH   6  27
HETATM   27  O7  UNL     1       0.481  47.718 -51.914  1.00  0.00    -0.370 OA
ATOM     28  H7  UNL     1       0.488  48.140 -51.063  1.00  0.00     0.212 HD
ENDBRANCH   6  27
ENDBRANCH   4   6
ENDBRANCH   1   4
BRANCH   1  29
HETATM   29  C14 UNL     1       3.063  50.461 -50.299  1.00  0.00     0.024 C 
HETATM   30  C15 UNL     1       4.265  50.036 -49.421  1.00  0.00     0.008 C 
HETATM   31  C16 UNL     1       4.102  50.896 -48.236  1.00  0.00     0.006 C 
HETATM   32  C17 UNL     1       3.894  52.245 -48.921  1.00  0.00     0.001 C 
HETATM   33  C18 UNL     1       3.477  53.259 -47.971  1.00  0.00     0.002 C 
HETATM   34  C32 UNL     1       2.998  51.907 -50.126  1.00  0.00    -0.008 C 
HETATM   35  C19 UNL     1       4.369  54.475 -47.801  1.00  0.00     0.038 C 
HETATM   36  C28 UNL     1       2.090  53.782 -47.954  1.00  0.00    -0.030 C 
HETATM   37  C20 UNL     1       4.177  54.980 -46.383  1.00  0.00     0.123 C 
HETATM   38  C21 UNL     1       2.764  55.158 -45.982  1.00  0.00     0.026 C 
HETATM   39  C22 UNL     1       2.560  55.215 -44.480  1.00  0.00     0.039 C 
HETATM   40  C26 UNL     1       1.777  54.155 -46.497  1.00  0.00    -0.030 C 
HETATM   41  C23 UNL     1       1.218  55.873 -44.262  1.00  0.00     0.118 C 
HETATM   42  C24 UNL     1       0.096  55.251 -45.029  1.00  0.00     0.032 C 
HETATM   43  C25 UNL     1       0.400  54.792 -46.400  1.00  0.00     0.013 C 
HETATM   44  C27 UNL     1       1.756  52.953 -45.588  1.00  0.00     0.016 C 
HETATM   45  C29 UNL     1       1.833  55.030 -48.751  1.00  0.00     0.016 C 
HETATM   46  C30 UNL     1       1.230  52.700 -48.470  1.00  0.00     0.042 C 
HETATM   47  C31 UNL     1       1.634  52.481 -49.938  1.00  0.00     0.128 C 
HETATM   48  C33 UNL     1       3.717  52.691 -51.255  1.00  0.00     0.019 C 
BRANCH  37  49
HETATM   49  O8  UNL     1       4.864  54.095 -45.527  1.00  0.00    -0.395 OA
ATOM     50  H8  UNL     1       4.613  53.213 -45.775  1.00  0.00     0.210 HD
ENDBRANCH  37  49
BRANCH  41  51
HETATM   51  O9  UNL     1       0.945  55.853 -42.917  1.00  0.00    -0.396 OA
ATOM     52  H9  UNL     1       0.702  56.732 -42.649  1.00  0.00     0.210 HD
ENDBRANCH  41  51
BRANCH  47  53
HETATM   53  O10 UNL     1       0.571  51.777 -50.430  1.00  0.00    -0.395 OA
ATOM     54  H10 UNL     1       0.312  52.299 -51.179  1.00  0.00     0.210 HD
ENDBRANCH  47  53
ENDBRANCH   1  29
TORSDOF 20
ENDMDL
MODEL 3
REMARK VINA RESULT: -7.569082012      4.509      7.759
REMARK  20 active torsions:
REMARK  status: ('A' for Active; 'I' for Inactive)
REMARK    1  A    between atoms: C2_2  and  O1_3 
REMARK    2  A    between atoms: C2_2  and  C3_5 
REMARK    3  A    between atoms: C2_2  and  C4_8 
REMARK    4  A    between atoms: C3_5  and  O2_6 
REMARK    5  A    between atoms: C4_8  and  O3_9 
REMARK    6  A    between atoms: C4_8  and  C5_11 
REMARK    7  A    between atoms: C5_11  and  C6_12 
REMARK    8  A    between atoms: C5_11  and  C7_15 
REMARK    9  A    between atoms: C6_12  and  O4_13 
REMARK   10  A    between atoms: C7_15  and  O5_16 
REMARK   11  A    between atoms: C7_15  and  C8_18 
REMARK   12  A    between atoms: C8_18  and  C9_19 
REMARK   13  A    between atoms: C9_19  and  C10_21 
REMARK   14  A    between atoms: C10_21  and  O7_22 
REMARK   15  A    between atoms: C10_21  and  N1_24 
REMARK   16  A    between atoms: N1_24  and  C11_26 
REMARK   17  A    between atoms: C11_26  and  C14_29 
REMARK   18  A    between atoms: C20_35  and  O8_36 
REMARK   19  A    between atoms: C23_40  and  O9_41 
REMARK   20  A    between atoms: C31_50  and  O10_51 
ROOT
HETATM    1  C11 UNL     1       1.709  50.432 -51.771  1.00  0.00     0.025 C 
HETATM    2  C12 UNL     1       2.217  51.458 -50.860  1.00  0.00     0.038 C 
HETATM    3  C13 UNL     1       2.755  50.423 -52.904  1.00  0.00     0.038 C 
ENDROOT
BRANCH   1   4
HETATM    4  N1  UNL     1       1.833  49.149 -51.049  1.00  0.00    -0.383 N 
ATOM      5  H1  UNL     1       1.671  49.101 -50.043  1.00  0.00     0.157 HD
BRANCH   4   6
HETATM    6  C10 UNL     1       2.180  47.986 -51.783  1.00  0.00     0.285 C 
BRANCH   6   7
HETATM    7  C9  UNL     1       3.144  47.229 -50.897  1.00  0.00     0.176 C 
HETATM    8  O6  UNL     1       3.468  47.711 -49.806  1.00  0.00    -0.293 OA
BRANCH   7   9
HETATM    9  C8  UNL     1       3.731  45.935 -51.246  1.00  0.00     0.115 C 
BRANCH   9  10
HETATM   10  C7  UNL     1       4.568  45.199 -50.295  1.00  0.00     0.134 C 
BRANCH  10  11
HETATM   11  C5  UNL     1       4.156  43.903 -49.710  1.00  0.00     0.070 C 
BRANCH  11  12
HETATM   12  C4  UNL     1       3.299  44.174 -48.482  1.00  0.00     0.162 C 
BRANCH  12  13
HETATM   13  C2  UNL     1       1.853  43.958 -48.542  1.00  0.00     0.101 C 
HETATM   14  C1  UNL     1       1.046  44.355 -49.710  1.00  0.00     0.051 C 
BRANCH  13  15
HETATM   15  O1  UNL     1       1.687  42.520 -48.466  1.00  0.00    -0.385 OA
ATOM     16  H1  UNL     1       2.572  42.186 -48.378  1.00  0.00     0.210 HD
ENDBRANCH  13  15
BRANCH  13  17
HETATM   17  C3  UNL     1       1.136  44.441 -47.278  1.00  0.00     0.204 C 
BRANCH  17  18
HETATM   18  O2  UNL     1       0.746  45.764 -47.424  1.00  0.00    -0.398 OA
ATOM     19  H2  UNL     1       0.059  45.974 -46.803  1.00  0.00     0.209 HD
ENDBRANCH  17  18
ENDBRANCH  13  17
ENDBRANCH  12  13
BRANCH  12  20
HETATM   20  O3  UNL     1       3.490  45.510 -48.062  1.00  0.00    -0.392 OA
ATOM     21  H3  UNL     1       4.064  45.478 -47.306  1.00  0.00     0.210 HD
ENDBRANCH  12  20
ENDBRANCH  11  12
BRANCH  11  22
HETATM   22  C6  UNL     1       5.183  42.868 -49.480  1.00  0.00     0.174 C 
BRANCH  22  23
HETATM   23  O4  UNL     1       4.635  41.627 -49.108  1.00  0.00    -0.400 OA
ATOM     24  H4  UNL     1       5.297  40.983 -48.884  1.00  0.00     0.209 HD
ENDBRANCH  22  23
ENDBRANCH  11  22
ENDBRANCH  10  11
BRANCH  10  25
HETATM   25  O5  UNL     1       5.932  45.274 -50.611  1.00  0.00    -0.395 OA
ATOM     26  H5  UNL     1       6.112  45.296 -51.543  1.00  0.00     0.210 HD
ENDBRANCH  10  25
ENDBRANCH   9  10
ENDBRANCH   7   9
ENDBRANCH   6   7
BRANCH   6  27
HETATM   27  O7  UNL     1       1.055  47.105 -51.854  1.00  0.00    -0.370 OA
ATOM     28  H7  UNL     1       0.832  46.974 -50.940  1.00  0.00     0.212 HD
ENDBRANCH   6  27
ENDBRANCH   4   6
ENDBRANCH   1   4
BRANCH   1  29
HETATM   29  C14 UNL     1       0.347  50.429 -52.312  1.00  0.00     0.024 C 
HETATM   30  C15 UNL     1      -0.510  51.255 -51.322  1.00  0.00     0.008 C 
HETATM   31  C16 UNL     1      -1.819  51.287 -51.998  1.00  0.00     0.006 C 
HETATM   32  C17 UNL     1      -1.377  51.700 -53.399  1.00  0.00     0.001 C 
HETATM   33  C18 UNL     1      -2.468  51.588 -54.349  1.00  0.00     0.002 C 
HETATM   34  C32 UNL     1      -0.080  50.903 -53.623  1.00  0.00    -0.008 C 
HETATM   35  C19 UNL     1      -2.907  52.850 -55.070  1.00  0.00     0.038 C 
HETATM   36  C28 UNL     1      -2.497  50.518 -55.375  1.00  0.00    -0.030 C 
HETATM   37  C20 UNL     1      -4.379  52.689 -55.402  1.00  0.00     0.123 C 
HETATM   38  C21 UNL     1      -4.722  51.414 -56.071  1.00  0.00     0.026 C 
HETATM   39  C22 UNL     1      -6.194  51.060 -55.990  1.00  0.00     0.039 C 
HETATM   40  C26 UNL     1      -3.976  50.191 -55.629  1.00  0.00    -0.030 C 
HETATM   41  C23 UNL     1      -6.448  50.058 -57.090  1.00  0.00     0.118 C 
HETATM   42  C24 UNL     1      -5.516  48.888 -57.084  1.00  0.00     0.032 C 
HETATM   43  C25 UNL     1      -4.105  49.163 -56.742  1.00  0.00     0.013 C 
HETATM   44  C27 UNL     1      -4.651  49.596 -54.420  1.00  0.00     0.016 C 
HETATM   45  C29 UNL     1      -1.925  50.862 -56.721  1.00  0.00     0.016 C 
HETATM   46  C30 UNL     1      -1.744  49.381 -54.811  1.00  0.00     0.042 C 
HETATM   47  C31 UNL     1      -0.287  49.851 -54.661  1.00  0.00     0.128 C 
HETATM   48  C33 UNL     1       0.844  52.003 -54.207  1.00  0.00     0.019 C 
BRANCH  37  49
HETATM   49  O8  UNL     1      -5.101  52.870 -54.204  1.00  0.00    -0.395 OA
ATOM     50  H8  UNL     1      -5.092  53.800 -54.008  1.00  0.00     0.210 HD
ENDBRANCH  37  49
BRANCH  41  51
HETATM   51  O9  UNL     1      -7.749  49.630 -56.990  1.00  0.00    -0.396 OA
ATOM     52  H9  UNL     1      -7.745  48.741 -56.654  1.00  0.00     0.210 HD
ENDBRANCH  41  51
BRANCH  47  53
HETATM   53  O10 UNL     1       0.386  48.670 -54.517  1.00  0.00    -0.395 OA
ATOM     54  H10 UNL     1       1.289  48.936 -54.642  1.00  0.00     0.210 HD
ENDBRANCH  47  53
ENDBRANCH   1  29
TORSDOF 20
ENDMDL
MODEL 4
REMARK VINA RESULT: -7.448054176      2.116      3.771
REMARK  20 active torsions:
REMARK  status: ('A' for Active; 'I' for Inactive)
REMARK    1  A    between atoms: C2_2  and  O1_3 
REMARK    2  A    between atoms: C2_2  and  C3_5 
REMARK    3  A    between atoms: C2_2  and  C4_8 
REMARK    4  A    between atoms: C3_5  and  O2_6 
REMARK    5  A    between atoms: C4_8  and  O3_9 
REMARK    6  A    between atoms: C4_8  and  C5_11 
REMARK    7  A    between atoms: C5_11  and  C6_12 
REMARK    8  A    between atoms: C5_11  and  C7_15 
REMARK    9  A    between atoms: C6_12  and  O4_13 
REMARK   10  A    between atoms: C7_15  and  O5_16 
REMARK   11  A    between atoms: C7_15  and  C8_18 
REMARK   12  A    between atoms: C8_18  and  C9_19 
REMARK   13  A    between atoms: C9_19  and  C10_21 
REMARK   14  A    between atoms: C10_21  and  O7_22 
REMARK   15  A    between atoms: C10_21  and  N1_24 
REMARK   16  A    between atoms: N1_24  and  C11_26 
REMARK   17  A    between atoms: C11_26  and  C14_29 
REMARK   18  A    between atoms: C20_35  and  O8_36 
REMARK   19  A    between atoms: C23_40  and  O9_41 
REMARK   20  A    between atoms: C31_50  and  O10_51 
ROOT
HETATM    1  C11 UNL     1       3.722  51.937 -48.569  1.00  0.00     0.025 C 
HETATM    2  C12 UNL     1       5.048  51.533 -49.035  1.00  0.00     0.038 C 
HETATM    3  C13 UNL     1       2.896  51.991 -49.870  1.00  0.00     0.038 C 
ENDROOT
BRANCH   1   4
HETATM    4  N1  UNL     1       3.209  50.804 -47.770  1.00  0.00    -0.383 N 
ATOM      5  H1  UNL     1       3.645  50.554 -46.883  1.00  0.00     0.157 HD
BRANCH   4   6
HETATM    6  C10 UNL     1       2.098  50.072 -48.262  1.00  0.00     0.285 C 
BRANCH   6   7
HETATM    7  C9  UNL     1       2.625  48.680 -48.527  1.00  0.00     0.176 C 
HETATM    8  O6  UNL     1       3.001  47.985 -47.577  1.00  0.00    -0.293 OA
BRANCH   7   9
HETATM    9  C8  UNL     1       2.721  48.082 -49.859  1.00  0.00     0.115 C 
BRANCH   9  10
HETATM   10  C7  UNL     1       3.491  46.856 -50.088  1.00  0.00     0.134 C 
BRANCH  10  11
HETATM   11  C5  UNL     1       2.855  45.579 -50.479  1.00  0.00     0.070 C 
BRANCH  11  12
HETATM   12  C4  UNL     1       2.904  44.628 -49.291  1.00  0.00     0.162 C 
BRANCH  12  13
HETATM   13  C2  UNL     1       1.663  44.059 -48.763  1.00  0.00     0.101 C 
HETATM   14  C1  UNL     1       0.414  44.035 -49.545  1.00  0.00     0.051 C 
BRANCH  13  15
HETATM   15  O1  UNL     1       1.964  42.661 -48.527  1.00  0.00    -0.385 OA
ATOM     16  H1  UNL     1       2.912  42.615 -48.572  1.00  0.00     0.210 HD
ENDBRANCH  13  15
BRANCH  13  17
HETATM   17  C3  UNL     1       1.337  44.571 -47.357  1.00  0.00     0.204 C 
BRANCH  17  18
HETATM   18  O2  UNL     1       0.898  45.885 -47.414  1.00  0.00    -0.398 OA
ATOM     19  H2  UNL     1      -0.048  45.919 -47.344  1.00  0.00     0.209 HD
ENDBRANCH  17  18
ENDBRANCH  13  17
ENDBRANCH  12  13
BRANCH  12  20
HETATM   20  O3  UNL     1       3.548  45.266 -48.206  1.00  0.00    -0.392 OA
ATOM     21  H3  UNL     1       4.152  45.896 -48.581  1.00  0.00     0.210 HD
ENDBRANCH  12  20
ENDBRANCH  11  12
BRANCH  11  22
HETATM   22  C6  UNL     1       3.261  44.939 -51.746  1.00  0.00     0.174 C 
BRANCH  22  23
HETATM   23  O4  UNL     1       4.359  44.074 -51.595  1.00  0.00    -0.400 OA
ATOM     24  H4  UNL     1       5.167  44.532 -51.394  1.00  0.00     0.209 HD
ENDBRANCH  22  23
ENDBRANCH  11  22
ENDBRANCH  10  11
BRANCH  10  25
HETATM   25  O5  UNL     1       4.714  47.104 -50.729  1.00  0.00    -0.395 OA
ATOM     26  H5  UNL     1       5.420  46.537 -50.446  1.00  0.00     0.210 HD
ENDBRANCH  10  25
ENDBRANCH   9  10
ENDBRANCH   7   9
ENDBRANCH   6   7
BRANCH   6  27
HETATM   27  O7  UNL     1       1.153  49.859 -47.210  1.00  0.00    -0.370 OA
ATOM     28  H7  UNL     1       1.485  50.415 -46.514  1.00  0.00     0.212 HD
ENDBRANCH   6  27
ENDBRANCH   4   6
ENDBRANCH   1   4
BRANCH   1  29
HETATM   29  C14 UNL     1       3.478  53.121 -47.740  1.00  0.00     0.024 C 
HETATM   30  C15 UNL     1       4.309  54.265 -48.372  1.00  0.00     0.008 C 
HETATM   31  C16 UNL     1       3.919  55.422 -47.547  1.00  0.00     0.006 C 
HETATM   32  C17 UNL     1       2.401  55.262 -47.577  1.00  0.00     0.001 C 
HETATM   33  C18 UNL     1       1.759  56.161 -46.636  1.00  0.00     0.002 C 
HETATM   34  C32 UNL     1       2.192  53.743 -47.450  1.00  0.00    -0.008 C 
HETATM   35  C19 UNL     1       0.781  57.180 -47.193  1.00  0.00     0.038 C 
HETATM   36  C28 UNL     1       1.140  55.663 -45.385  1.00  0.00    -0.030 C 
HETATM   37  C20 UNL     1       0.801  58.379 -46.261  1.00  0.00     0.123 C 
HETATM   38  C21 UNL     1       0.638  58.045 -44.829  1.00  0.00     0.026 C 
HETATM   39  C22 UNL     1       1.104  59.143 -43.891  1.00  0.00     0.039 C 
HETATM   40  C26 UNL     1       1.285  56.783 -44.344  1.00  0.00    -0.030 C 
HETATM   41  C23 UNL     1       0.437  58.873 -42.563  1.00  0.00     0.118 C 
HETATM   42  C24 UNL     1       0.626  57.482 -42.050  1.00  0.00     0.032 C 
HETATM   43  C25 UNL     1       0.591  56.394 -43.049  1.00  0.00     0.013 C 
HETATM   44  C27 UNL     1       2.725  57.056 -43.990  1.00  0.00     0.016 C 
HETATM   45  C29 UNL     1      -0.330  55.355 -45.439  1.00  0.00     0.016 C 
HETATM   46  C30 UNL     1       1.873  54.436 -45.018  1.00  0.00     0.042 C 
HETATM   47  C31 UNL     1       1.590  53.408 -46.126  1.00  0.00     0.128 C 
HETATM   48  C33 UNL     1       1.131  53.499 -48.555  1.00  0.00     0.019 C 
BRANCH  37  49
HETATM   49  O8  UNL     1       1.999  59.080 -46.509  1.00  0.00    -0.395 OA
ATOM     50  H8  UNL     1       2.150  59.651 -45.765  1.00  0.00     0.210 HD
ENDBRANCH  37  49
BRANCH  41  51
HETATM   51  O9  UNL     1       0.910  59.785 -41.653  1.00  0.00    -0.396 OA
ATOM     52  H9  UNL     1       1.163  59.316 -40.866  1.00  0.00     0.210 HD
ENDBRANCH  41  51
BRANCH  47  53
HETATM   53  O10 UNL     1       1.961  52.233 -45.534  1.00  0.00    -0.395 OA
ATOM     54  H10 UNL     1       1.430  51.597 -45.998  1.00  0.00     0.210 HD
ENDBRANCH  47  53
ENDBRANCH   1  29
TORSDOF 20
ENDMDL
MODEL 5
REMARK VINA RESULT: -7.427840570      1.699      2.657
REMARK  20 active torsions:
REMARK  status: ('A' for Active; 'I' for Inactive)
REMARK    1  A    between atoms: C2_2  and  O1_3 
REMARK    2  A    between atoms: C2_2  and  C3_5 
REMARK    3  A    between atoms: C2_2  and  C4_8 
REMARK    4  A    between atoms: C3_5  and  O2_6 
REMARK    5  A    between atoms: C4_8  and  O3_9 
REMARK    6  A    between atoms: C4_8  and  C5_11 
REMARK    7  A    between atoms: C5_11  and  C6_12 
REMARK    8  A    between atoms: C5_11  and  C7_15 
REMARK    9  A    between atoms: C6_12  and  O4_13 
REMARK   10  A    between atoms: C7_15  and  O5_16 
REMARK   11  A    between atoms: C7_15  and  C8_18 
REMARK   12  A    between atoms: C8_18  and  C9_19 
REMARK   13  A    between atoms: C9_19  and  C10_21 
REMARK   14  A    between atoms: C10_21  and  O7_22 
REMARK   15  A    between atoms: C10_21  and  N1_24 
REMARK   16  A    between atoms: N1_24  and  C11_26 
REMARK   17  A    between atoms: C11_26  and  C14_29 
REMARK   18  A    between atoms: C20_35  and  O8_36 
REMARK   19  A    between atoms: C23_40  and  O9_41 
REMARK   20  A    between atoms: C31_50  and  O10_51 
ROOT
HETATM    1  C11 UNL     1       4.333  51.317 -49.874  1.00  0.00     0.025 C 
HETATM    2  C12 UNL     1       5.599  51.396 -50.602  1.00  0.00     0.038 C 
HETATM    3  C13 UNL     1       3.280  51.450 -50.991  1.00  0.00     0.038 C 
ENDROOT
BRANCH   1   4
HETATM    4  N1  UNL     1       4.249  49.938 -49.352  1.00  0.00    -0.383 N 
ATOM      5  H1  UNL     1       4.786  49.185 -49.782  1.00  0.00     0.157 HD
BRANCH   4   6
HETATM    6  C10 UNL     1       3.406  49.681 -48.240  1.00  0.00     0.285 C 
BRANCH   6   7
HETATM    7  C9  UNL     1       2.681  48.398 -48.578  1.00  0.00     0.176 C 
HETATM    8  O6  UNL     1       2.000  47.842 -47.710  1.00  0.00    -0.293 OA
BRANCH   7   9
HETATM    9  C8  UNL     1       2.726  47.755 -49.892  1.00  0.00     0.115 C 
BRANCH   9  10
HETATM   10  C7  UNL     1       3.636  46.640 -50.161  1.00  0.00     0.134 C 
BRANCH  10  11
HETATM   11  C5  UNL     1       3.153  45.286 -50.514  1.00  0.00     0.070 C 
BRANCH  11  12
HETATM   12  C4  UNL     1       3.056  44.457 -49.241  1.00  0.00     0.162 C 
BRANCH  12  13
HETATM   13  C2  UNL     1       1.754  43.964 -48.791  1.00  0.00     0.101 C 
HETATM   14  C1  UNL     1       0.545  44.062 -49.627  1.00  0.00     0.051 C 
BRANCH  13  15
HETATM   15  O1  UNL     1       1.940  42.540 -48.597  1.00  0.00    -0.385 OA
ATOM     16  H1  UNL     1       2.680  42.479 -48.006  1.00  0.00     0.210 HD
ENDBRANCH  13  15
BRANCH  13  17
HETATM   17  C3  UNL     1       1.401  44.447 -47.381  1.00  0.00     0.204 C 
BRANCH  17  18
HETATM   18  O2  UNL     1       0.580  45.562 -47.447  1.00  0.00    -0.398 OA
ATOM     19  H2  UNL     1       0.307  45.716 -48.343  1.00  0.00     0.209 HD
ENDBRANCH  17  18
ENDBRANCH  13  17
ENDBRANCH  12  13
BRANCH  12  20
HETATM   20  O3  UNL     1       3.605  45.188 -48.162  1.00  0.00    -0.392 OA
ATOM     21  H3  UNL     1       3.837  46.043 -48.504  1.00  0.00     0.210 HD
ENDBRANCH  12  20
ENDBRANCH  11  12
BRANCH  11  22
HETATM   22  C6  UNL     1       3.805  44.564 -51.624  1.00  0.00     0.174 C 
BRANCH  22  23
HETATM   23  O4  UNL     1       4.985  43.906 -51.232  1.00  0.00    -0.400 OA
ATOM     24  H4  UNL     1       5.261  44.135 -50.352  1.00  0.00     0.209 HD
ENDBRANCH  22  23
ENDBRANCH  11  22
ENDBRANCH  10  11
BRANCH  10  25
HETATM   25  O5  UNL     1       4.779  47.039 -50.868  1.00  0.00    -0.395 OA
ATOM     26  H5  UNL     1       5.593  46.716 -50.501  1.00  0.00     0.210 HD
ENDBRANCH  10  25
ENDBRANCH   9  10
ENDBRANCH   7   9
ENDBRANCH   6   7
BRANCH   6  27
HETATM   27  O7  UNL     1       4.198  49.309 -47.108  1.00  0.00    -0.370 OA
ATOM     28  H7  UNL     1       3.834  49.845 -46.412  1.00  0.00     0.212 HD
ENDBRANCH   6  27
ENDBRANCH   4   6
ENDBRANCH   1   4
BRANCH   1  29
HETATM   29  C14 UNL     1       4.000  52.172 -48.731  1.00  0.00     0.024 C 
HETATM   30  C15 UNL     1       5.344  52.512 -48.042  1.00  0.00     0.008 C 
HETATM   31  C16 UNL     1       4.922  53.449 -46.987  1.00  0.00     0.006 C 
HETATM   32  C17 UNL     1       4.047  54.391 -47.810  1.00  0.00     0.001 C 
HETATM   33  C18 UNL     1       3.306  55.301 -46.958  1.00  0.00     0.002 C 
HETATM   34  C32 UNL     1       3.292  53.446 -48.762  1.00  0.00    -0.008 C 
HETATM   35  C19 UNL     1       3.548  56.789 -47.139  1.00  0.00     0.038 C 
HETATM   36  C28 UNL     1       1.844  55.161 -46.757  1.00  0.00    -0.030 C 
HETATM   37  C20 UNL     1       3.288  57.454 -45.800  1.00  0.00     0.123 C 
HETATM   38  C21 UNL     1       2.002  57.083 -45.170  1.00  0.00     0.026 C 
HETATM   39  C22 UNL     1       1.948  57.369 -43.681  1.00  0.00     0.039 C 
HETATM   40  C26 UNL     1       1.544  55.666 -45.337  1.00  0.00    -0.030 C 
HETATM   41  C23 UNL     1       0.484  57.408 -43.312  1.00  0.00     0.118 C 
HETATM   42  C24 UNL     1      -0.295  56.211 -43.755  1.00  0.00     0.032 C 
HETATM   43  C25 UNL     1       0.046  55.646 -45.076  1.00  0.00     0.013 C 
HETATM   44  C27 UNL     1       2.173  54.801 -44.274  1.00  0.00     0.016 C 
HETATM   45  C29 UNL     1       0.960  55.969 -47.664  1.00  0.00     0.016 C 
HETATM   46  C30 UNL     1       1.535  53.730 -46.937  1.00  0.00     0.042 C 
HETATM   47  C31 UNL     1       1.843  53.397 -48.407  1.00  0.00     0.128 C 
HETATM   48  C33 UNL     1       3.448  54.200 -50.109  1.00  0.00     0.019 C 
BRANCH  37  49
HETATM   49  O8  UNL     1       4.389  57.163 -44.968  1.00  0.00    -0.395 OA
ATOM     50  H8  UNL     1       5.125  57.672 -45.287  1.00  0.00     0.210 HD
ENDBRANCH  37  49
BRANCH  41  51
HETATM   51  O9  UNL     1       0.388  57.563 -41.952  1.00  0.00    -0.396 OA
ATOM     52  H9  UNL     1       0.781  58.396 -41.718  1.00  0.00     0.210 HD
ENDBRANCH  41  51
BRANCH  47  53
HETATM   53  O10 UNL     1       1.183  52.213 -48.581  1.00  0.00    -0.395 OA
ATOM     54  H10 UNL     1       1.659  51.629 -48.003  1.00  0.00     0.210 HD
ENDBRANCH  47  53
ENDBRANCH   1  29
TORSDOF 20
ENDMDL
