MODEL 1
REMARK VINA RESULT: -5.631226597      0.000      0.000
REMARK  22 active torsions:
REMARK  status: ('A' for Active; 'I' for Inactive)
REMARK    1  A    between atoms: C2_2  and  C3_3 
REMARK    2  A    between atoms: C3_3  and  C4_4 
REMARK    3  A    between atoms: C4_4  and  C5_5 
REMARK    4  A    between atoms: C6_6  and  C7_7 
REMARK    5  A    between atoms: C7_7  and  O1_8 
REMARK    6  A    between atoms: C7_7  and  C8_10 
REMARK    7  A    between atoms: C8_10  and  N1_11 
REMARK    8  A    between atoms: C8_10  and  C9_15 
REMARK    9  A    between atoms: C9_15  and  C11_17 
REMARK   10  A    between atoms: C11_17  and  C12_18 
REMARK   11  A    between atoms: C15_22  and  O2_23 
REMARK   12  A    between atoms: C15_22  and  O3_25 
REMARK   13  A    between atoms: N2_27  and  C17_28 
REMARK   14  A    between atoms: C17_28  and  O4_29 
REMARK   15  A    between atoms: C17_28  and  C18_31 
REMARK   16  A    between atoms: C18_31  and  N3_32 
REMARK   17  A    between atoms: C18_31  and  C28_49 
REMARK       I    between atoms: N3_32  and  C19_34 
REMARK   18  A    between atoms: C19_34  and  C20_36 
REMARK   19  A    between atoms: C20_36  and  C21_37 
REMARK   20  A    between atoms: C21_37  and  S2_38 
REMARK       I    between atoms: N4_40  and  C23_42 
REMARK   21  A    between atoms: C23_42  and  O7_44 
REMARK   22  A    between atoms: O7_44  and  C24_45 
ROOT
HETATM    1  C12 UNL     1      53.617  23.341 -20.864  1.00  0.00     0.154 C 
HETATM    2  S1  UNL     1      53.094  25.065 -20.705  1.00  0.00    -0.137 SA
HETATM    3  C13 UNL     1      52.156  24.890 -19.112  1.00  0.00     0.138 C 
HETATM    4  C14 UNL     1      51.875  23.362 -19.372  1.00  0.00     0.082 C 
HETATM    5  C15 UNL     1      50.698  22.900 -18.751  1.00  0.00     0.202 C 
HETATM    6  N2  UNL     1      53.173  22.836 -19.462  1.00  0.00    -0.310 N 
ENDROOT
BRANCH   6   7
HETATM    7  C17 UNL     1      54.144  22.146 -18.749  1.00  0.00     0.171 C 
BRANCH   7   8
HETATM    8  O4  UNL     1      54.209  20.847 -19.195  1.00  0.00    -0.344 OA
ATOM      9  H4  UNL     1      54.755  20.335 -18.610  1.00  0.00     0.219 HD
ENDBRANCH   7   8
BRANCH   7  10
HETATM   10  C18 UNL     1      55.127  22.362 -17.685  1.00  0.00     0.088 C 
BRANCH  10  11
HETATM   11  N3  UNL     1      54.937  21.525 -16.571  1.00  0.00    -0.318 N 
HETATM   12  C19 UNL     1      55.619  20.461 -15.897  1.00  0.00     0.269 C 
HETATM   13  O5  UNL     1      56.728  20.163 -16.398  1.00  0.00    -0.266 OA
ATOM     14  H3  UNL     1      54.054  21.738 -16.107  1.00  0.00     0.169 HD
BRANCH  12  15
HETATM   15  C20 UNL     1      55.090  19.811 -14.770  1.00  0.00     0.091 C 
HETATM   16  N4  UNL     1      54.575  19.180 -13.680  1.00  0.00    -0.300 N 
HETATM   17  C23 UNL     1      55.208  18.133 -12.919  1.00  0.00     0.365 C 
ATOM     18  H4  UNL     1      53.651  19.479 -13.370  1.00  0.00     0.171 HD
HETATM   19  O6  UNL     1      56.348  17.731 -13.279  1.00  0.00    -0.238 OA
BRANCH  15  20
HETATM   20  C21 UNL     1      55.475  21.146 -13.698  1.00  0.00     0.136 C 
BRANCH  20  21
HETATM   21  S2  UNL     1      54.170  22.039 -13.169  1.00  0.00    -0.167 SA
HETATM   22  C22 UNL     1      53.157  21.882 -11.793  1.00  0.00     0.090 C 
ENDBRANCH  20  21
ENDBRANCH  15  20
BRANCH  17  23
HETATM   23  O7  UNL     1      54.622  17.566 -11.835  1.00  0.00    -0.294 OA
BRANCH  23  24
HETATM   24  C24 UNL     1      53.602  16.568 -11.878  1.00  0.00     0.061 C 
HETATM   25  C25 UNL     1      53.975  15.421 -12.783  1.00  0.00     0.046 C 
HETATM   26  C26 UNL     1      53.609  15.960 -10.455  1.00  0.00     0.046 C 
HETATM   27  C27 UNL     1      52.248  17.114 -12.173  1.00  0.00     0.046 C 
ENDBRANCH  23  24
ENDBRANCH  17  23
ENDBRANCH  12  15
ENDBRANCH  10  11
BRANCH  10  28
HETATM   28  C28 UNL     1      55.432  23.817 -17.401  1.00  0.00    -0.057 C 
HETATM   29  C29 UNL     1      56.053  24.634 -18.449  1.00  0.00     0.045 C 
HETATM   30  C30 UNL     1      55.898  24.154 -16.028  1.00  0.00     0.045 C 
ENDBRANCH  10  28
ENDBRANCH   7  10
ENDBRANCH   6   7
BRANCH   1  31
HETATM   31  C11 UNL     1      52.892  22.493 -21.835  1.00  0.00     0.043 C 
BRANCH  31  32
HETATM   32  C9  UNL     1      53.757  22.017 -22.955  1.00  0.00     0.017 C 
HETATM   33  C10 UNL     1      55.000  22.812 -23.206  1.00  0.00     0.012 C 
BRANCH  32  34
HETATM   34  C8  UNL     1      54.097  20.569 -22.826  1.00  0.00     0.219 C 
BRANCH  34  35
HETATM   35  C7  UNL     1      54.205  19.872 -24.143  1.00  0.00     0.171 C 
BRANCH  35  36
HETATM   36  C6  UNL     1      54.869  18.576 -24.178  1.00  0.00     0.003 C 
HETATM   37  C5  UNL     1      56.040  18.399 -23.565  1.00  0.00    -0.028 C 
BRANCH  37  38
HETATM   38  C4  UNL     1      56.773  17.095 -23.557  1.00  0.00     0.027 C 
BRANCH  38  39
HETATM   39  C3  UNL     1      56.287  16.306 -24.763  1.00  0.00     0.003 C 
BRANCH  39  40
HETATM   40  C2  UNL     1      57.514  15.835 -25.542  1.00  0.00    -0.004 C 
HETATM   41  C1  UNL     1      57.957  16.932 -26.501  1.00  0.00     0.005 C 
ENDBRANCH  39  40
ENDBRANCH  38  39
ENDBRANCH  37  38
ENDBRANCH  35  36
BRANCH  35  42
HETATM   42  O1  UNL     1      52.900  19.729 -24.683  1.00  0.00    -0.390 OA
ATOM     43  H1  UNL     1      52.271  19.766 -23.972  1.00  0.00     0.210 HD
ENDBRANCH  35  42
ENDBRANCH  34  35
BRANCH  34  44
HETATM   44  N1  UNL     1      53.425  19.819 -21.807  1.00  0.00    -0.072 N 
ATOM     45  H13 UNL     1      52.414  19.906 -21.911  1.00  0.00     0.274 HD
ATOM     46  H12 UNL     1      53.534  18.819 -21.973  1.00  0.00     0.274 HD
ATOM     47  H11 UNL     1      53.704  20.052 -20.854  1.00  0.00     0.274 HD
ENDBRANCH  34  44
ENDBRANCH  32  34
ENDBRANCH  31  32
ENDBRANCH   1  31
BRANCH   5  48
HETATM   48  O2  UNL     1      49.866  23.797 -18.245  1.00  0.00    -0.339 OA
ATOM     49  H2  UNL     1      49.043  23.949 -18.695  1.00  0.00     0.220 HD
ENDBRANCH   5  48
BRANCH   5  50
HETATM   50  O3  UNL     1      50.267  21.633 -18.597  1.00  0.00    -0.334 OA
HETATM   51  C16 UNL     1      50.782  20.714 -17.616  1.00  0.00     0.212 C 
ENDBRANCH   5  50
TORSDOF 22
ENDMDL
MODEL 2
REMARK VINA RESULT: -5.601694885      1.329      1.830
REMARK  22 active torsions:
REMARK  status: ('A' for Active; 'I' for Inactive)
REMARK    1  A    between atoms: C2_2  and  C3_3 
REMARK    2  A    between atoms: C3_3  and  C4_4 
REMARK    3  A    between atoms: C4_4  and  C5_5 
REMARK    4  A    between atoms: C6_6  and  C7_7 
REMARK    5  A    between atoms: C7_7  and  O1_8 
REMARK    6  A    between atoms: C7_7  and  C8_10 
REMARK    7  A    between atoms: C8_10  and  N1_11 
REMARK    8  A    between atoms: C8_10  and  C9_15 
REMARK    9  A    between atoms: C9_15  and  C11_17 
REMARK   10  A    between atoms: C11_17  and  C12_18 
REMARK   11  A    between atoms: C15_22  and  O2_23 
REMARK   12  A    between atoms: C15_22  and  O3_25 
REMARK   13  A    between atoms: N2_27  and  C17_28 
REMARK   14  A    between atoms: C17_28  and  O4_29 
REMARK   15  A    between atoms: C17_28  and  C18_31 
REMARK   16  A    between atoms: C18_31  and  N3_32 
REMARK   17  A    between atoms: C18_31  and  C28_49 
REMARK       I    between atoms: N3_32  and  C19_34 
REMARK   18  A    between atoms: C19_34  and  C20_36 
REMARK   19  A    between atoms: C20_36  and  C21_37 
REMARK   20  A    between atoms: C21_37  and  S2_38 
REMARK       I    between atoms: N4_40  and  C23_42 
REMARK   21  A    between atoms: C23_42  and  O7_44 
REMARK   22  A    between atoms: O7_44  and  C24_45 
ROOT
HETATM    1  C12 UNL     1      52.849  23.645 -19.940  1.00  0.00     0.154 C 
HETATM    2  S1  UNL     1      51.686  24.659 -18.996  1.00  0.00    -0.137 SA
HETATM    3  C13 UNL     1      51.103  23.340 -17.827  1.00  0.00     0.138 C 
HETATM    4  C14 UNL     1      51.447  22.193 -18.850  1.00  0.00     0.082 C 
HETATM    5  C15 UNL     1      50.649  21.044 -18.685  1.00  0.00     0.202 C 
HETATM    6  N2  UNL     1      52.824  22.375 -19.044  1.00  0.00    -0.310 N 
ENDROOT
BRANCH   6   7
HETATM    7  C17 UNL     1      54.072  21.893 -18.668  1.00  0.00     0.171 C 
BRANCH   7   8
HETATM    8  O4  UNL     1      54.495  20.950 -19.575  1.00  0.00    -0.344 OA
ATOM      9  H4  UNL     1      54.689  21.369 -20.405  1.00  0.00     0.219 HD
ENDBRANCH   7   8
BRANCH   7  10
HETATM   10  C18 UNL     1      55.085  22.079 -17.626  1.00  0.00     0.088 C 
BRANCH  10  11
HETATM   11  N3  UNL     1      54.895  21.244 -16.511  1.00  0.00    -0.318 N 
HETATM   12  C19 UNL     1      55.605  20.224 -15.799  1.00  0.00     0.269 C 
HETATM   13  O5  UNL     1      56.745  19.977 -16.255  1.00  0.00    -0.266 OA
ATOM     14  H3  UNL     1      53.986  21.417 -16.082  1.00  0.00     0.169 HD
BRANCH  12  15
HETATM   15  C20 UNL     1      55.067  19.558 -14.685  1.00  0.00     0.091 C 
HETATM   16  N4  UNL     1      54.545  18.914 -13.606  1.00  0.00    -0.300 N 
HETATM   17  C23 UNL     1      55.135  17.802 -12.904  1.00  0.00     0.365 C 
ATOM     18  H4  UNL     1      53.646  19.251 -13.261  1.00  0.00     0.171 HD
HETATM   19  O6  UNL     1      56.241  17.352 -13.311  1.00  0.00    -0.238 OA
BRANCH  15  20
HETATM   20  C21 UNL     1      55.555  20.825 -13.571  1.00  0.00     0.136 C 
BRANCH  20  21
HETATM   21  S2  UNL     1      54.348  21.884 -13.118  1.00  0.00    -0.167 SA
HETATM   22  C22 UNL     1      53.117  21.774 -11.929  1.00  0.00     0.090 C 
ENDBRANCH  20  21
ENDBRANCH  15  20
BRANCH  17  23
HETATM   23  O7  UNL     1      54.544  17.226 -11.829  1.00  0.00    -0.294 OA
BRANCH  23  24
HETATM   24  C24 UNL     1      53.464  16.294 -11.883  1.00  0.00     0.061 C 
HETATM   25  C25 UNL     1      53.845  15.032 -12.615  1.00  0.00     0.046 C 
HETATM   26  C26 UNL     1      53.273  15.850 -10.413  1.00  0.00     0.046 C 
HETATM   27  C27 UNL     1      52.193  16.888 -12.385  1.00  0.00     0.046 C 
ENDBRANCH  23  24
ENDBRANCH  17  23
ENDBRANCH  12  15
ENDBRANCH  10  11
BRANCH  10  28
HETATM   28  C28 UNL     1      55.436  23.524 -17.346  1.00  0.00    -0.057 C 
HETATM   29  C29 UNL     1      55.867  24.381 -18.455  1.00  0.00     0.045 C 
HETATM   30  C30 UNL     1      56.134  23.813 -16.064  1.00  0.00     0.045 C 
ENDBRANCH  10  28
ENDBRANCH   7  10
ENDBRANCH   6   7
BRANCH   1  31
HETATM   31  C11 UNL     1      52.425  23.188 -21.280  1.00  0.00     0.043 C 
BRANCH  31  32
HETATM   32  C9  UNL     1      53.336  23.652 -22.370  1.00  0.00     0.017 C 
HETATM   33  C10 UNL     1      54.708  24.068 -21.944  1.00  0.00     0.012 C 
BRANCH  32  34
HETATM   34  C8  UNL     1      53.427  22.663 -23.484  1.00  0.00     0.219 C 
BRANCH  34  35
HETATM   35  C7  UNL     1      54.813  22.512 -24.022  1.00  0.00     0.171 C 
BRANCH  35  36
HETATM   36  C6  UNL     1      55.381  21.172 -24.081  1.00  0.00     0.003 C 
HETATM   37  C5  UNL     1      54.788  20.158 -23.449  1.00  0.00    -0.028 C 
BRANCH  37  38
HETATM   38  C4  UNL     1      55.313  18.758 -23.471  1.00  0.00     0.027 C 
BRANCH  38  39
HETATM   39  C3  UNL     1      55.984  18.514 -22.127  1.00  0.00     0.003 C 
BRANCH  39  40
HETATM   40  C2  UNL     1      56.942  17.335 -22.287  1.00  0.00    -0.004 C 
HETATM   41  C1  UNL     1      56.808  16.759 -23.690  1.00  0.00     0.005 C 
ENDBRANCH  39  40
ENDBRANCH  38  39
ENDBRANCH  37  38
ENDBRANCH  35  36
BRANCH  35  42
HETATM   42  O1  UNL     1      54.853  23.079 -25.324  1.00  0.00    -0.390 OA
ATOM     43  H1  UNL     1      55.753  23.077 -25.628  1.00  0.00     0.210 HD
ENDBRANCH  35  42
ENDBRANCH  34  35
BRANCH  34  44
HETATM   44  N1  UNL     1      52.399  22.691 -24.481  1.00  0.00    -0.072 N 
ATOM     45  H13 UNL     1      52.793  22.931 -25.390  1.00  0.00     0.274 HD
ATOM     46  H12 UNL     1      52.069  21.747 -24.677  1.00  0.00     0.274 HD
ATOM     47  H11 UNL     1      51.612  23.303 -24.264  1.00  0.00     0.274 HD
ENDBRANCH  34  44
ENDBRANCH  32  34
ENDBRANCH  31  32
ENDBRANCH   1  31
BRANCH   5  48
HETATM   48  O2  UNL     1      49.589  21.128 -17.897  1.00  0.00    -0.339 OA
ATOM     49  H2  UNL     1      49.338  20.358 -17.399  1.00  0.00     0.220 HD
ENDBRANCH   5  48
BRANCH   5  50
HETATM   50  O3  UNL     1      50.799  19.825 -19.241  1.00  0.00    -0.334 OA
HETATM   51  C16 UNL     1      50.064  19.361 -20.388  1.00  0.00     0.212 C 
ENDBRANCH   5  50
TORSDOF 22
ENDMDL
MODEL 3
REMARK VINA RESULT: -5.455835299      2.729      9.863
REMARK  22 active torsions:
REMARK  status: ('A' for Active; 'I' for Inactive)
REMARK    1  A    between atoms: C2_2  and  C3_3 
REMARK    2  A    between atoms: C3_3  and  C4_4 
REMARK    3  A    between atoms: C4_4  and  C5_5 
REMARK    4  A    between atoms: C6_6  and  C7_7 
REMARK    5  A    between atoms: C7_7  and  O1_8 
REMARK    6  A    between atoms: C7_7  and  C8_10 
REMARK    7  A    between atoms: C8_10  and  N1_11 
REMARK    8  A    between atoms: C8_10  and  C9_15 
REMARK    9  A    between atoms: C9_15  and  C11_17 
REMARK   10  A    between atoms: C11_17  and  C12_18 
REMARK   11  A    between atoms: C15_22  and  O2_23 
REMARK   12  A    between atoms: C15_22  and  O3_25 
REMARK   13  A    between atoms: N2_27  and  C17_28 
REMARK   14  A    between atoms: C17_28  and  O4_29 
REMARK   15  A    between atoms: C17_28  and  C18_31 
REMARK   16  A    between atoms: C18_31  and  N3_32 
REMARK   17  A    between atoms: C18_31  and  C28_49 
REMARK       I    between atoms: N3_32  and  C19_34 
REMARK   18  A    between atoms: C19_34  and  C20_36 
REMARK   19  A    between atoms: C20_36  and  C21_37 
REMARK   20  A    between atoms: C21_37  and  S2_38 
REMARK       I    between atoms: N4_40  and  C23_42 
REMARK   21  A    between atoms: C23_42  and  O7_44 
REMARK   22  A    between atoms: O7_44  and  C24_45 
ROOT
HETATM    1  C12 UNL     1      52.989  20.576 -14.590  1.00  0.00     0.154 C 
HETATM    2  S1  UNL     1      51.281  20.470 -14.004  1.00  0.00    -0.137 SA
HETATM    3  C13 UNL     1      50.615  21.940 -14.924  1.00  0.00     0.138 C 
HETATM    4  C14 UNL     1      52.033  22.623 -14.985  1.00  0.00     0.082 C 
HETATM    5  C15 UNL     1      51.969  24.029 -15.058  1.00  0.00     0.202 C 
HETATM    6  N2  UNL     1      52.790  21.668 -15.679  1.00  0.00    -0.310 N 
ENDROOT
BRANCH   6   7
HETATM    7  C17 UNL     1      53.308  21.356 -16.929  1.00  0.00     0.171 C 
BRANCH   7   8
HETATM    8  O4  UNL     1      52.614  20.297 -17.466  1.00  0.00    -0.344 OA
ATOM      9  H4  UNL     1      53.216  19.717 -17.918  1.00  0.00     0.219 HD
ENDBRANCH   7   8
BRANCH   7  10
HETATM   10  C18 UNL     1      54.345  21.803 -17.862  1.00  0.00     0.088 C 
BRANCH  10  11
HETATM   11  N3  UNL     1      54.121  21.385 -19.186  1.00  0.00    -0.318 N 
HETATM   12  C19 UNL     1      53.501  21.878 -20.379  1.00  0.00     0.269 C 
HETATM   13  O5  UNL     1      53.017  23.028 -20.269  1.00  0.00    -0.266 OA
ATOM     14  H3  UNL     1      54.516  20.457 -19.342  1.00  0.00     0.169 HD
BRANCH  12  15
HETATM   15  C20 UNL     1      53.445  21.136 -21.571  1.00  0.00     0.091 C 
HETATM   16  N4  UNL     1      53.391  20.419 -22.726  1.00  0.00    -0.300 N 
HETATM   17  C23 UNL     1      54.226  19.298 -23.077  1.00  0.00     0.365 C 
ATOM     18  H4  UNL     1      52.691  20.703 -23.410  1.00  0.00     0.171 HD
HETATM   19  O6  UNL     1      55.110  18.925 -22.259  1.00  0.00    -0.238 OA
BRANCH  15  20
HETATM   20  C21 UNL     1      52.036  20.227 -21.052  1.00  0.00     0.136 C 
BRANCH  20  21
HETATM   21  S2  UNL     1      50.577  20.759 -21.662  1.00  0.00    -0.167 SA
HETATM   22  C22 UNL     1      49.876  22.322 -21.753  1.00  0.00     0.090 C 
ENDBRANCH  20  21
ENDBRANCH  15  20
BRANCH  17  23
HETATM   23  O7  UNL     1      54.094  18.635 -24.252  1.00  0.00    -0.294 OA
BRANCH  23  24
HETATM   24  C24 UNL     1      54.931  18.809 -25.395  1.00  0.00     0.061 C 
HETATM   25  C25 UNL     1      56.079  17.832 -25.406  1.00  0.00     0.046 C 
HETATM   26  C26 UNL     1      54.041  18.379 -26.586  1.00  0.00     0.046 C 
HETATM   27  C27 UNL     1      55.374  20.217 -25.597  1.00  0.00     0.046 C 
ENDBRANCH  23  24
ENDBRANCH  17  23
ENDBRANCH  12  15
ENDBRANCH  10  11
BRANCH  10  28
HETATM   28  C28 UNL     1      55.759  21.675 -17.336  1.00  0.00    -0.057 C 
HETATM   29  C29 UNL     1      56.134  20.473 -16.586  1.00  0.00     0.045 C 
HETATM   30  C30 UNL     1      56.408  22.917 -16.835  1.00  0.00     0.045 C 
ENDBRANCH  10  28
ENDBRANCH   7  10
ENDBRANCH   6   7
BRANCH   1  31
HETATM   31  C11 UNL     1      53.997  21.127 -13.660  1.00  0.00     0.043 C 
BRANCH  31  32
HETATM   32  C9  UNL     1      54.480  20.126 -12.662  1.00  0.00     0.017 C 
HETATM   33  C10 UNL     1      55.697  19.347 -13.051  1.00  0.00     0.012 C 
BRANCH  32  34
HETATM   34  C8  UNL     1      54.673  20.730 -11.310  1.00  0.00     0.219 C 
BRANCH  34  35
HETATM   35  C7  UNL     1      55.915  21.555 -11.209  1.00  0.00     0.171 C 
BRANCH  35  36
HETATM   36  C6  UNL     1      55.770  22.980 -10.944  1.00  0.00     0.003 C 
HETATM   37  C5  UNL     1      56.113  23.877 -11.869  1.00  0.00    -0.028 C 
BRANCH  37  38
HETATM   38  C4  UNL     1      55.985  25.354 -11.665  1.00  0.00     0.027 C 
BRANCH  38  39
HETATM   39  C3  UNL     1      56.863  26.024 -12.712  1.00  0.00     0.003 C 
BRANCH  39  40
HETATM   40  C2  UNL     1      56.359  25.600 -14.090  1.00  0.00    -0.004 C 
HETATM   41  C1  UNL     1      56.366  26.803 -15.024  1.00  0.00     0.005 C 
ENDBRANCH  39  40
ENDBRANCH  38  39
ENDBRANCH  37  38
ENDBRANCH  35  36
BRANCH  35  42
HETATM   42  O1  UNL     1      56.748  20.990 -10.207  1.00  0.00    -0.390 OA
ATOM     43  H1  UNL     1      57.653  21.062 -10.487  1.00  0.00     0.210 HD
ENDBRANCH  35  42
ENDBRANCH  34  35
BRANCH  34  44
HETATM   44  N1  UNL     1      54.411  19.902 -10.171  1.00  0.00    -0.072 N 
ATOM     45  H13 UNL     1      53.658  19.246 -10.375  1.00  0.00     0.274 HD
ATOM     46  H12 UNL     1      55.179  19.248 -10.024  1.00  0.00     0.274 HD
ATOM     47  H11 UNL     1      54.212  20.413  -9.311  1.00  0.00     0.274 HD
ENDBRANCH  34  44
ENDBRANCH  32  34
ENDBRANCH  31  32
ENDBRANCH   1  31
BRANCH   5  48
HETATM   48  O2  UNL     1      50.802  24.613 -14.834  1.00  0.00    -0.339 OA
ATOM     49  H2  UNL     1      50.177  24.654 -15.548  1.00  0.00     0.220 HD
ENDBRANCH   5  48
BRANCH   5  50
HETATM   50  O3  UNL     1      52.958  24.906 -15.319  1.00  0.00    -0.334 OA
HETATM   51  C16 UNL     1      53.406  25.252 -16.642  1.00  0.00     0.212 C 
ENDBRANCH   5  50
TORSDOF 22
ENDMDL
MODEL 4
REMARK VINA RESULT: -5.454886867      2.000      3.413
REMARK  22 active torsions:
REMARK  status: ('A' for Active; 'I' for Inactive)
REMARK    1  A    between atoms: C2_2  and  C3_3 
REMARK    2  A    between atoms: C3_3  and  C4_4 
REMARK    3  A    between atoms: C4_4  and  C5_5 
REMARK    4  A    between atoms: C6_6  and  C7_7 
REMARK    5  A    between atoms: C7_7  and  O1_8 
REMARK    6  A    between atoms: C7_7  and  C8_10 
REMARK    7  A    between atoms: C8_10  and  N1_11 
REMARK    8  A    between atoms: C8_10  and  C9_15 
REMARK    9  A    between atoms: C9_15  and  C11_17 
REMARK   10  A    between atoms: C11_17  and  C12_18 
REMARK   11  A    between atoms: C15_22  and  O2_23 
REMARK   12  A    between atoms: C15_22  and  O3_25 
REMARK   13  A    between atoms: N2_27  and  C17_28 
REMARK   14  A    between atoms: C17_28  and  O4_29 
REMARK   15  A    between atoms: C17_28  and  C18_31 
REMARK   16  A    between atoms: C18_31  and  N3_32 
REMARK   17  A    between atoms: C18_31  and  C28_49 
REMARK       I    between atoms: N3_32  and  C19_34 
REMARK   18  A    between atoms: C19_34  and  C20_36 
REMARK   19  A    between atoms: C20_36  and  C21_37 
REMARK   20  A    between atoms: C21_37  and  S2_38 
REMARK       I    between atoms: N4_40  and  C23_42 
REMARK   21  A    between atoms: C23_42  and  O7_44 
REMARK   22  A    between atoms: O7_44  and  C24_45 
ROOT
HETATM    1  C12 UNL     1      52.857  22.466 -20.805  1.00  0.00     0.154 C 
HETATM    2  S1  UNL     1      52.298  24.181 -20.934  1.00  0.00    -0.137 SA
HETATM    3  C13 UNL     1      51.923  24.453 -19.136  1.00  0.00     0.138 C 
HETATM    4  C14 UNL     1      51.677  22.917 -18.890  1.00  0.00     0.082 C 
HETATM    5  C15 UNL     1      50.788  22.660 -17.828  1.00  0.00     0.202 C 
HETATM    6  N2  UNL     1      52.911  22.359 -19.255  1.00  0.00    -0.310 N 
ENDROOT
BRANCH   6   7
HETATM    7  C17 UNL     1      54.101  21.862 -18.739  1.00  0.00     0.171 C 
BRANCH   7   8
HETATM    8  O4  UNL     1      54.513  20.783 -19.485  1.00  0.00    -0.344 OA
ATOM      9  H4  UNL     1      55.439  20.629 -19.339  1.00  0.00     0.219 HD
ENDBRANCH   7   8
BRANCH   7  10
HETATM   10  C18 UNL     1      55.062  22.128 -17.666  1.00  0.00     0.088 C 
BRANCH  10  11
HETATM   11  N3  UNL     1      54.878  21.308 -16.538  1.00  0.00    -0.318 N 
HETATM   12  C19 UNL     1      55.585  20.287 -15.825  1.00  0.00     0.269 C 
HETATM   13  O5  UNL     1      56.716  20.023 -16.293  1.00  0.00    -0.266 OA
ATOM     14  H3  UNL     1      53.977  21.495 -16.099  1.00  0.00     0.169 HD
BRANCH  12  15
HETATM   15  C20 UNL     1      55.055  19.641 -14.696  1.00  0.00     0.091 C 
HETATM   16  N4  UNL     1      54.540  19.014 -13.603  1.00  0.00    -0.300 N 
HETATM   17  C23 UNL     1      55.131  17.908 -12.893  1.00  0.00     0.365 C 
ATOM     18  H4  UNL     1      53.648  19.361 -13.253  1.00  0.00     0.171 HD
HETATM   19  O6  UNL     1      56.229  17.445 -13.305  1.00  0.00    -0.238 OA
BRANCH  15  20
HETATM   20  C21 UNL     1      55.563  20.918 -13.605  1.00  0.00     0.136 C 
BRANCH  20  21
HETATM   21  S2  UNL     1      54.338  21.882 -13.011  1.00  0.00    -0.167 SA
HETATM   22  C22 UNL     1      53.371  23.090 -13.751  1.00  0.00     0.090 C 
ENDBRANCH  20  21
ENDBRANCH  15  20
BRANCH  17  23
HETATM   23  O7  UNL     1      54.548  17.350 -11.803  1.00  0.00    -0.294 OA
BRANCH  23  24
HETATM   24  C24 UNL     1      53.495  16.387 -11.835  1.00  0.00     0.061 C 
HETATM   25  C25 UNL     1      53.897  15.136 -12.576  1.00  0.00     0.046 C 
HETATM   26  C26 UNL     1      53.348  15.937 -10.361  1.00  0.00     0.046 C 
HETATM   27  C27 UNL     1      52.197  16.942 -12.310  1.00  0.00     0.046 C 
ENDBRANCH  23  24
ENDBRANCH  17  23
ENDBRANCH  12  15
ENDBRANCH  10  11
BRANCH  10  28
HETATM   28  C28 UNL     1      55.320  23.597 -17.407  1.00  0.00    -0.057 C 
HETATM   29  C29 UNL     1      55.585  24.485 -18.543  1.00  0.00     0.045 C 
HETATM   30  C30 UNL     1      56.100  23.940 -16.187  1.00  0.00     0.045 C 
ENDBRANCH  10  28
ENDBRANCH   7  10
ENDBRANCH   6   7
BRANCH   1  31
HETATM   31  C11 UNL     1      51.921  21.408 -21.239  1.00  0.00     0.043 C 
BRANCH  31  32
HETATM   32  C9  UNL     1      52.314  20.776 -22.535  1.00  0.00     0.017 C 
HETATM   33  C10 UNL     1      51.785  21.434 -23.771  1.00  0.00     0.012 C 
BRANCH  32  34
HETATM   34  C8  UNL     1      53.792  20.597 -22.646  1.00  0.00     0.219 C 
BRANCH  34  35
HETATM   35  C7  UNL     1      54.349  21.109 -23.934  1.00  0.00     0.171 C 
BRANCH  35  36
HETATM   36  C6  UNL     1      55.340  22.176 -23.873  1.00  0.00     0.003 C 
HETATM   37  C5  UNL     1      54.965  23.432 -23.626  1.00  0.00    -0.028 C 
BRANCH  37  38
HETATM   38  C4  UNL     1      55.929  24.574 -23.545  1.00  0.00     0.027 C 
BRANCH  38  39
HETATM   39  C3  UNL     1      55.780  25.182 -22.159  1.00  0.00     0.003 C 
BRANCH  39  40
HETATM   40  C2  UNL     1      55.340  26.635 -22.327  1.00  0.00    -0.004 C 
HETATM   41  C1  UNL     1      55.825  27.453 -21.137  1.00  0.00     0.005 C 
ENDBRANCH  39  40
ENDBRANCH  38  39
ENDBRANCH  37  38
ENDBRANCH  35  36
BRANCH  35  42
HETATM   42  O1  UNL     1      54.904  20.016 -24.650  1.00  0.00    -0.390 OA
ATOM     43  H1  UNL     1      55.556  20.349 -25.256  1.00  0.00     0.210 HD
ENDBRANCH  35  42
ENDBRANCH  34  35
BRANCH  34  44
HETATM   44  N1  UNL     1      54.342  19.347 -22.212  1.00  0.00    -0.072 N 
ATOM     45  H13 UNL     1      55.237  19.497 -21.747  1.00  0.00     0.274 HD
ATOM     46  H12 UNL     1      53.800  18.972 -21.435  1.00  0.00     0.274 HD
ATOM     47  H11 UNL     1      54.438  18.647 -22.948  1.00  0.00     0.274 HD
ENDBRANCH  34  44
ENDBRANCH  32  34
ENDBRANCH  31  32
ENDBRANCH   1  31
BRANCH   5  48
HETATM   48  O2  UNL     1      50.100  23.675 -17.330  1.00  0.00    -0.339 OA
ATOM     49  H2  UNL     1      50.200  23.874 -16.406  1.00  0.00     0.220 HD
ENDBRANCH   5  48
BRANCH   5  50
HETATM   50  O3  UNL     1      50.512  21.487 -17.224  1.00  0.00    -0.334 OA
HETATM   51  C16 UNL     1      51.266  20.943 -16.125  1.00  0.00     0.212 C 
ENDBRANCH   5  50
TORSDOF 22
ENDMDL
MODEL 5
REMARK VINA RESULT: -5.417063556      2.451      4.186
REMARK  22 active torsions:
REMARK  status: ('A' for Active; 'I' for Inactive)
REMARK    1  A    between atoms: C2_2  and  C3_3 
REMARK    2  A    between atoms: C3_3  and  C4_4 
REMARK    3  A    between atoms: C4_4  and  C5_5 
REMARK    4  A    between atoms: C6_6  and  C7_7 
REMARK    5  A    between atoms: C7_7  and  O1_8 
REMARK    6  A    between atoms: C7_7  and  C8_10 
REMARK    7  A    between atoms: C8_10  and  N1_11 
REMARK    8  A    between atoms: C8_10  and  C9_15 
REMARK    9  A    between atoms: C9_15  and  C11_17 
REMARK   10  A    between atoms: C11_17  and  C12_18 
REMARK   11  A    between atoms: C15_22  and  O2_23 
REMARK   12  A    between atoms: C15_22  and  O3_25 
REMARK   13  A    between atoms: N2_27  and  C17_28 
REMARK   14  A    between atoms: C17_28  and  O4_29 
REMARK   15  A    between atoms: C17_28  and  C18_31 
REMARK   16  A    between atoms: C18_31  and  N3_32 
REMARK   17  A    between atoms: C18_31  and  C28_49 
REMARK       I    between atoms: N3_32  and  C19_34 
REMARK   18  A    between atoms: C19_34  and  C20_36 
REMARK   19  A    between atoms: C20_36  and  C21_37 
REMARK   20  A    between atoms: C21_37  and  S2_38 
REMARK       I    between atoms: N4_40  and  C23_42 
REMARK   21  A    between atoms: C23_42  and  O7_44 
REMARK   22  A    between atoms: O7_44  and  C24_45 
ROOT
HETATM    1  C12 UNL     1      52.690  20.523 -23.872  1.00  0.00     0.154 C 
HETATM    2  S1  UNL     1      51.149  20.406 -24.812  1.00  0.00    -0.137 SA
HETATM    3  C13 UNL     1      49.979  20.691 -23.398  1.00  0.00     0.138 C 
HETATM    4  C14 UNL     1      51.019  20.152 -22.346  1.00  0.00     0.082 C 
HETATM    5  C15 UNL     1      50.414  19.603 -21.198  1.00  0.00     0.202 C 
HETATM    6  N2  UNL     1      52.100  21.027 -22.525  1.00  0.00    -0.310 N 
ENDROOT
BRANCH   6   7
HETATM    7  C17 UNL     1      52.719  22.151 -21.994  1.00  0.00     0.171 C 
BRANCH   7   8
HETATM    8  O4  UNL     1      51.789  23.147 -21.807  1.00  0.00    -0.344 OA
ATOM      9  H4  UNL     1      52.228  23.952 -21.560  1.00  0.00     0.219 HD
ENDBRANCH   7   8
BRANCH   7  10
HETATM   10  C18 UNL     1      54.040  22.608 -21.555  1.00  0.00     0.088 C 
BRANCH  10  11
HETATM   11  N3  UNL     1      54.286  22.371 -20.191  1.00  0.00    -0.318 N 
HETATM   12  C19 UNL     1      53.768  22.777 -18.919  1.00  0.00     0.269 C 
HETATM   13  O5  UNL     1      52.793  23.559 -18.987  1.00  0.00    -0.266 OA
ATOM     14  H3  UNL     1      55.062  21.719 -20.073  1.00  0.00     0.169 HD
BRANCH  12  15
HETATM   15  C20 UNL     1      54.307  22.332 -17.700  1.00  0.00     0.091 C 
HETATM   16  N4  UNL     1      54.828  21.900 -16.519  1.00  0.00    -0.300 N 
HETATM   17  C23 UNL     1      55.654  20.736 -16.322  1.00  0.00     0.365 C 
ATOM     18  H4  UNL     1      54.612  22.456 -15.692  1.00  0.00     0.171 HD
HETATM   19  O6  UNL     1      55.932  20.019 -17.321  1.00  0.00    -0.238 OA
BRANCH  15  20
HETATM   20  C21 UNL     1      55.591  23.529 -17.718  1.00  0.00     0.136 C 
BRANCH  20  21
HETATM   21  S2  UNL     1      55.352  24.849 -16.726  1.00  0.00    -0.167 SA
HETATM   22  C22 UNL     1      55.929  25.216 -15.153  1.00  0.00     0.090 C 
ENDBRANCH  20  21
ENDBRANCH  15  20
BRANCH  17  23
HETATM   23  O7  UNL     1      56.137  20.386 -15.105  1.00  0.00    -0.294 OA
BRANCH  23  24
HETATM   24  C24 UNL     1      55.343  20.035 -13.972  1.00  0.00     0.061 C 
HETATM   25  C25 UNL     1      55.912  18.852 -13.230  1.00  0.00     0.046 C 
HETATM   26  C26 UNL     1      55.519  21.227 -13.001  1.00  0.00     0.046 C 
HETATM   27  C27 UNL     1      53.896  19.871 -14.290  1.00  0.00     0.046 C 
ENDBRANCH  23  24
ENDBRANCH  17  23
ENDBRANCH  12  15
ENDBRANCH  10  11
BRANCH  10  28
HETATM   28  C28 UNL     1      54.447  23.961 -22.097  1.00  0.00    -0.057 C 
HETATM   29  C29 UNL     1      54.847  24.074 -23.503  1.00  0.00     0.045 C 
HETATM   30  C30 UNL     1      55.215  24.851 -21.185  1.00  0.00     0.045 C 
ENDBRANCH  10  28
ENDBRANCH   7  10
ENDBRANCH   6   7
BRANCH   1  31
HETATM   31  C11 UNL     1      53.389  19.261 -23.547  1.00  0.00     0.043 C 
BRANCH  31  32
HETATM   32  C9  UNL     1      54.829  19.273 -23.944  1.00  0.00     0.017 C 
HETATM   33  C10 UNL     1      55.291  20.479 -24.699  1.00  0.00     0.012 C 
BRANCH  32  34
HETATM   34  C8  UNL     1      55.733  19.022 -22.782  1.00  0.00     0.219 C 
BRANCH  34  35
HETATM   35  C7  UNL     1      56.530  17.765 -22.920  1.00  0.00     0.171 C 
BRANCH  35  36
HETATM   36  C6  UNL     1      56.781  17.260 -24.263  1.00  0.00     0.003 C 
HETATM   37  C5  UNL     1      56.397  16.029 -24.605  1.00  0.00    -0.028 C 
BRANCH  37  38
HETATM   38  C4  UNL     1      56.619  15.449 -25.966  1.00  0.00     0.027 C 
BRANCH  38  39
HETATM   39  C3  UNL     1      58.101  15.127 -26.075  1.00  0.00     0.003 C 
BRANCH  39  40
HETATM   40  C2  UNL     1      58.621  15.738 -27.375  1.00  0.00    -0.004 C 
HETATM   41  C1  UNL     1      59.416  16.998 -27.061  1.00  0.00     0.005 C 
ENDBRANCH  39  40
ENDBRANCH  38  39
ENDBRANCH  37  38
ENDBRANCH  35  36
BRANCH  35  42
HETATM   42  O1  UNL     1      57.776  17.950 -22.265  1.00  0.00    -0.390 OA
ATOM     43  H1  UNL     1      57.813  17.368 -21.514  1.00  0.00     0.210 HD
ENDBRANCH  35  42
ENDBRANCH  34  35
BRANCH  34  44
HETATM   44  N1  UNL     1      55.208  19.255 -21.470  1.00  0.00    -0.072 N 
ATOM     45  H13 UNL     1      55.256  18.402 -20.913  1.00  0.00     0.274 HD
ATOM     46  H12 UNL     1      55.839  19.850 -20.936  1.00  0.00     0.274 HD
ATOM     47  H11 UNL     1      54.262  19.636 -21.453  1.00  0.00     0.274 HD
ENDBRANCH  34  44
ENDBRANCH  32  34
ENDBRANCH  31  32
ENDBRANCH   1  31
BRANCH   5  48
HETATM   48  O2  UNL     1      49.108  19.386 -21.224  1.00  0.00    -0.339 OA
ATOM     49  H2  UNL     1      48.568  19.963 -21.751  1.00  0.00     0.220 HD
ENDBRANCH   5  48
BRANCH   5  50
HETATM   50  O3  UNL     1      50.987  19.240 -20.034  1.00  0.00    -0.334 OA
HETATM   51  C16 UNL     1      51.103  20.098 -18.884  1.00  0.00     0.212 C 
ENDBRANCH   5  50
TORSDOF 22
ENDMDL
