MODEL 1
REMARK VINA RESULT: -5.432837637      0.000      0.000
REMARK  3 active torsions:
REMARK  status: ('A' for Active; 'I' for Inactive)
REMARK    1  A    between atoms: N1_1  and  C1_4 
REMARK    2  A    between atoms: N3_9  and  C3_10 
REMARK    3  A    between atoms: C3_10  and  C4_11 
ROOT
HETATM    1  C1  UNL     1     -23.221   0.123 -24.988  1.00  0.00     0.683 A 
HETATM    2  N2  UNL     1     -23.026  -0.193 -26.289  1.00  0.00    -0.141 N 
ATOM      3  H2  UNL     1     -22.284   0.281 -26.805  1.00  0.00     0.189 HD
HETATM    4  C2  UNL     1     -23.776  -1.107 -26.927  1.00  0.00     0.345 A 
HETATM    5  O1  UNL     1     -23.573  -1.383 -28.145  1.00  0.00    -0.246 OA
HETATM    6  N3  UNL     1     -24.765  -1.752 -26.277  1.00  0.00    -0.243 N 
HETATM    7  C6  UNL     1     -24.969  -1.446 -24.982  1.00  0.00     0.345 A 
HETATM    8  O3  UNL     1     -25.877  -2.009 -24.304  1.00  0.00    -0.246 OA
HETATM    9  N7  UNL     1     -24.213  -0.526 -24.341  1.00  0.00    -0.141 N 
ATOM     10  H7  UNL     1     -24.395  -0.321 -23.358  1.00  0.00     0.189 HD
ENDROOT
BRANCH   6  11
HETATM   11  C3  UNL     1     -25.609  -2.738 -26.881  1.00  0.00     0.216 C 
BRANCH  11  12
HETATM   12  C4  UNL     1     -25.027  -4.096 -26.834  1.00  0.00     0.118 A 
HETATM   13  N4  UNL     1     -23.771  -4.449 -27.156  1.00  0.00    -0.283 N 
HETATM   14  N5  UNL     1     -23.673  -5.776 -26.969  1.00  0.00    -0.250 N 
ATOM     15  H4  UNL     1     -23.031  -3.827 -27.481  1.00  0.00     0.188 HD
HETATM   16  C5  UNL     1     -24.848  -6.248 -26.535  1.00  0.00     0.340 A 
ATOM     17  H5  UNL     1     -22.836  -6.335 -27.131  1.00  0.00     0.192 HD
HETATM   18  O2  UNL     1     -25.066  -7.460 -26.271  1.00  0.00    -0.245 OA
HETATM   19  N6  UNL     1     -25.687  -5.205 -26.453  1.00  0.00    -0.294 N 
ATOM     20  H6  UNL     1     -26.660  -5.246 -26.152  1.00  0.00     0.172 HD
ENDBRANCH  11  12
ENDBRANCH   6  11
BRANCH   1  21
HETATM   21  N1  UNL     1     -22.499   1.000 -24.381  1.00  0.00    -0.234 N 
ATOM     22  H12 UNL     1     -22.910   1.863 -24.027  1.00  0.00     0.174 HD
ATOM     23  H11 UNL     1     -21.499   0.867 -24.232  1.00  0.00     0.174 HD
ENDBRANCH   1  21
TORSDOF 3
ENDMDL
MODEL 2
REMARK VINA RESULT: -5.400784122      0.093      1.973
REMARK  3 active torsions:
REMARK  status: ('A' for Active; 'I' for Inactive)
REMARK    1  A    between atoms: N1_1  and  C1_4 
REMARK    2  A    between atoms: N3_9  and  C3_10 
REMARK    3  A    between atoms: C3_10  and  C4_11 
ROOT
HETATM    1  C1  UNL     1     -23.252   0.117 -24.959  1.00  0.00     0.683 A 
HETATM    2  N2  UNL     1     -24.254  -0.553 -24.344  1.00  0.00    -0.141 N 
ATOM      3  H2  UNL     1     -24.450  -0.352 -23.363  1.00  0.00     0.189 HD
HETATM    4  C2  UNL     1     -24.998  -1.474 -24.977  1.00  0.00     0.345 A 
HETATM    5  O1  UNL     1     -25.929  -2.087 -24.377  1.00  0.00    -0.246 OA
HETATM    6  N3  UNL     1     -24.767  -1.765 -26.272  1.00  0.00    -0.243 N 
HETATM    7  C6  UNL     1     -23.772  -1.105 -26.896  1.00  0.00     0.345 A 
HETATM    8  O3  UNL     1     -23.494  -1.322 -28.111  1.00  0.00    -0.246 OA
HETATM    9  N7  UNL     1     -23.024  -0.177 -26.258  1.00  0.00    -0.141 N 
ATOM     10  H7  UNL     1     -22.280   0.304 -26.762  1.00  0.00     0.189 HD
ENDROOT
BRANCH   6  11
HETATM   11  C3  UNL     1     -25.512  -2.731 -27.022  1.00  0.00     0.216 C 
BRANCH  11  12
HETATM   12  C4  UNL     1     -24.936  -4.090 -26.937  1.00  0.00     0.118 A 
HETATM   13  N4  UNL     1     -23.676  -4.454 -27.228  1.00  0.00    -0.283 N 
HETATM   14  N5  UNL     1     -23.588  -5.777 -27.013  1.00  0.00    -0.250 N 
ATOM     15  H4  UNL     1     -22.928  -3.842 -27.552  1.00  0.00     0.188 HD
HETATM   16  C5  UNL     1     -24.773  -6.236 -26.591  1.00  0.00     0.340 A 
ATOM     17  H5  UNL     1     -22.750  -6.342 -27.148  1.00  0.00     0.192 HD
HETATM   18  O2  UNL     1     -25.000  -7.441 -26.307  1.00  0.00    -0.245 OA
HETATM   19  N6  UNL     1     -25.608  -5.189 -26.546  1.00  0.00    -0.294 N 
ATOM     20  H6  UNL     1     -26.587  -5.219 -26.262  1.00  0.00     0.172 HD
ENDBRANCH  11  12
ENDBRANCH   6  11
BRANCH   1  21
HETATM   21  N1  UNL     1     -22.542   1.000 -24.347  1.00  0.00    -0.234 N 
ATOM     22  H12 UNL     1     -22.970   1.658 -23.696  1.00  0.00     0.174 HD
ATOM     23  H11 UNL     1     -21.534   1.075 -24.485  1.00  0.00     0.174 HD
ENDBRANCH   1  21
TORSDOF 3
ENDMDL
MODEL 3
REMARK VINA RESULT: -5.304064031      1.664      2.040
REMARK  3 active torsions:
REMARK  status: ('A' for Active; 'I' for Inactive)
REMARK    1  A    between atoms: N1_1  and  C1_4 
REMARK    2  A    between atoms: N3_9  and  C3_10 
REMARK    3  A    between atoms: C3_10  and  C4_11 
ROOT
HETATM    1  C1  UNL     1     -25.348  -0.146 -26.598  1.00  0.00     0.683 A 
HETATM    2  N2  UNL     1     -24.938  -0.936 -27.618  1.00  0.00    -0.141 N 
ATOM      3  H2  UNL     1     -25.298  -0.755 -28.555  1.00  0.00     0.189 HD
HETATM    4  C2  UNL     1     -24.073  -1.948 -27.440  1.00  0.00     0.345 A 
HETATM    5  O1  UNL     1     -23.706  -2.671 -28.411  1.00  0.00    -0.246 OA
HETATM    6  N3  UNL     1     -23.577  -2.214 -26.216  1.00  0.00    -0.243 N 
HETATM    7  C6  UNL     1     -23.979  -1.436 -25.193  1.00  0.00     0.345 A 
HETATM    8  O3  UNL     1     -23.558  -1.623 -24.014  1.00  0.00    -0.246 OA
HETATM    9  N7  UNL     1     -24.849  -0.417 -25.373  1.00  0.00    -0.141 N 
ATOM     10  H7  UNL     1     -25.130   0.153 -24.575  1.00  0.00     0.189 HD
ENDROOT
BRANCH   6  11
HETATM   11  C3  UNL     1     -22.653  -3.272 -25.939  1.00  0.00     0.216 C 
BRANCH  11  12
HETATM   12  C4  UNL     1     -23.068  -4.564 -26.526  1.00  0.00     0.118 A 
HETATM   13  N4  UNL     1     -22.337  -5.362 -27.323  1.00  0.00    -0.283 N 
HETATM   14  N5  UNL     1     -23.100  -6.426 -27.622  1.00  0.00    -0.250 N 
ATOM     15  H4  UNL     1     -21.383  -5.193 -27.640  1.00  0.00     0.188 HD
HETATM   16  C5  UNL     1     -24.291  -6.299 -27.022  1.00  0.00     0.340 A 
ATOM     17  H5  UNL     1     -22.818  -7.208 -28.213  1.00  0.00     0.192 HD
HETATM   18  O2  UNL     1     -25.220  -7.142 -27.117  1.00  0.00    -0.245 OA
HETATM   19  N6  UNL     1     -24.269  -5.143 -26.344  1.00  0.00    -0.294 N 
ATOM     20  H6  UNL     1     -25.033  -4.766 -25.784  1.00  0.00     0.172 HD
ENDBRANCH  11  12
ENDBRANCH   6  11
BRANCH   1  21
HETATM   21  N1  UNL     1     -26.177   0.824 -26.775  1.00  0.00    -0.234 N 
ATOM     22  H12 UNL     1     -26.024   1.517 -27.507  1.00  0.00     0.174 HD
ATOM     23  H11 UNL     1     -27.011   0.935 -26.198  1.00  0.00     0.174 HD
ENDBRANCH   1  21
TORSDOF 3
ENDMDL
MODEL 4
REMARK VINA RESULT: -5.165283721      1.651      2.697
REMARK  3 active torsions:
REMARK  status: ('A' for Active; 'I' for Inactive)
REMARK    1  A    between atoms: N1_1  and  C1_4 
REMARK    2  A    between atoms: N3_9  and  C3_10 
REMARK    3  A    between atoms: C3_10  and  C4_11 
ROOT
HETATM    1  C1  UNL     1     -25.415  -0.185 -26.617  1.00  0.00     0.683 A 
HETATM    2  N2  UNL     1     -24.921  -0.427 -25.381  1.00  0.00    -0.141 N 
ATOM      3  H2  UNL     1     -25.248   0.143 -24.600  1.00  0.00     0.189 HD
HETATM    4  C2  UNL     1     -24.016  -1.391 -25.144  1.00  0.00     0.345 A 
HETATM    5  O1  UNL     1     -23.570  -1.595 -23.977  1.00  0.00    -0.246 OA
HETATM    6  N3  UNL     1     -23.562  -2.162 -26.151  1.00  0.00    -0.243 N 
HETATM    7  C6  UNL     1     -24.046  -1.931 -27.387  1.00  0.00     0.345 A 
HETATM    8  O3  UNL     1     -23.670  -2.614 -28.383  1.00  0.00    -0.246 OA
HETATM    9  N7  UNL     1     -24.958  -0.961 -27.623  1.00  0.00    -0.141 N 
ATOM     10  H7  UNL     1     -25.303  -0.814 -28.572  1.00  0.00     0.189 HD
ENDROOT
BRANCH   6  11
HETATM   11  C3  UNL     1     -22.600  -3.210 -25.986  1.00  0.00     0.216 C 
BRANCH  11  12
HETATM   12  C4  UNL     1     -23.062  -4.503 -26.534  1.00  0.00     0.118 A 
HETATM   13  N4  UNL     1     -22.369  -5.339 -27.327  1.00  0.00    -0.283 N 
HETATM   14  N5  UNL     1     -23.166  -6.389 -27.586  1.00  0.00    -0.250 N 
ATOM     15  H4  UNL     1     -21.418  -5.202 -27.668  1.00  0.00     0.188 HD
HETATM   16  C5  UNL     1     -24.340  -6.216 -26.964  1.00  0.00     0.340 A 
ATOM     17  H5  UNL     1     -22.917  -7.191 -28.164  1.00  0.00     0.192 HD
HETATM   18  O2  UNL     1     -25.293  -7.036 -27.020  1.00  0.00    -0.245 OA
HETATM   19  N6  UNL     1     -24.273  -5.046 -26.314  1.00  0.00    -0.294 N 
ATOM     20  H6  UNL     1     -25.016  -4.636 -25.747  1.00  0.00     0.172 HD
ENDBRANCH  11  12
ENDBRANCH   6  11
BRANCH   1  21
HETATM   21  N1  UNL     1     -26.283   0.741 -26.838  1.00  0.00    -0.234 N 
ATOM     22  H12 UNL     1     -27.190   0.730 -26.372  1.00  0.00     0.174 HD
ATOM     23  H11 UNL     1     -26.100   1.513 -27.479  1.00  0.00     0.174 HD
ENDBRANCH   1  21
TORSDOF 3
ENDMDL
MODEL 5
REMARK VINA RESULT: -5.049439515      2.635      6.109
REMARK  3 active torsions:
REMARK  status: ('A' for Active; 'I' for Inactive)
REMARK    1  A    between atoms: N1_1  and  C1_4 
REMARK    2  A    between atoms: N3_9  and  C3_10 
REMARK    3  A    between atoms: C3_10  and  C4_11 
ROOT
HETATM    1  C1  UNL     1     -25.257  -8.972 -25.497  1.00  0.00     0.683 A 
HETATM    2  N2  UNL     1     -24.369  -8.981 -26.519  1.00  0.00    -0.141 N 
ATOM      3  H2  UNL     1     -23.910  -9.858 -26.764  1.00  0.00     0.189 HD
HETATM    4  C2  UNL     1     -24.072  -7.876 -27.222  1.00  0.00     0.345 A 
HETATM    5  O1  UNL     1     -23.237  -7.912 -28.173  1.00  0.00    -0.246 OA
HETATM    6  N3  UNL     1     -24.660  -6.700 -26.926  1.00  0.00    -0.243 N 
HETATM    7  C6  UNL     1     -25.545  -6.678 -25.911  1.00  0.00     0.345 A 
HETATM    8  O3  UNL     1     -26.138  -5.613 -25.574  1.00  0.00    -0.246 OA
HETATM    9  N7  UNL     1     -25.844  -7.791 -25.204  1.00  0.00    -0.141 N 
ATOM     10  H7  UNL     1     -26.520  -7.738 -24.442  1.00  0.00     0.189 HD
ENDROOT
BRANCH   6  11
HETATM   11  C3  UNL     1     -24.401  -5.477 -27.624  1.00  0.00     0.216 C 
BRANCH  11  12
HETATM   12  C4  UNL     1     -23.574  -4.535 -26.841  1.00  0.00     0.118 A 
HETATM   13  N4  UNL     1     -22.320  -4.732 -26.401  1.00  0.00    -0.283 N 
HETATM   14  N5  UNL     1     -21.955  -3.623 -25.736  1.00  0.00    -0.250 N 
ATOM     15  H4  UNL     1     -21.751  -5.567 -26.544  1.00  0.00     0.188 HD
HETATM   16  C5  UNL     1     -22.964  -2.743 -25.760  1.00  0.00     0.340 A 
ATOM     17  H5  UNL     1     -21.053  -3.475 -25.285  1.00  0.00     0.192 HD
HETATM   18  O2  UNL     1     -22.919  -1.607 -25.219  1.00  0.00    -0.245 OA
HETATM   19  N6  UNL     1     -23.966  -3.310 -26.445  1.00  0.00    -0.294 N 
ATOM     20  H6  UNL     1     -24.874  -2.885 -26.633  1.00  0.00     0.172 HD
ENDBRANCH  11  12
ENDBRANCH   6  11
BRANCH   1  21
HETATM   21  N1  UNL     1     -25.538 -10.035 -24.826  1.00  0.00    -0.234 N 
ATOM     22  H12 UNL     1     -24.823 -10.515 -24.280  1.00  0.00     0.174 HD
ATOM     23  H11 UNL     1     -26.477 -10.434 -24.814  1.00  0.00     0.174 HD
ENDBRANCH   1  21
TORSDOF 3
ENDMDL
