MODEL 1
REMARK VINA RESULT: -4.709628596      0.000      0.000
REMARK  2 active torsions:
REMARK  status: ('A' for Active; 'I' for Inactive)
REMARK    1  A    between atoms: C2_2  and  C3_3 
REMARK    2  A    between atoms: C9_9  and  C10_10 
ROOT
HETATM    1  C3  UNL     1       1.868 -11.932  15.103  1.00  0.00    -0.018 A 
HETATM    2  C4  UNL     1       1.249 -11.710  16.490  1.00  0.00     0.020 C 
HETATM    3  C5  UNL     1       3.224 -11.266  14.963  1.00  0.00     0.025 A 
HETATM    4  C6  UNL     1       2.002 -10.813  14.249  1.00  0.00    -0.017 A 
HETATM    5  C7  UNL     1       1.416  -9.465  14.417  1.00  0.00     0.012 A 
HETATM    6  C8  UNL     1       1.449  -9.309  12.909  1.00  0.00     0.015 A 
HETATM    7  C9  UNL     1       2.068 -10.705  12.788  1.00  0.00     0.084 A 
ENDROOT
BRANCH   1   8
HETATM    8  C2  UNL     1       1.814 -13.352  14.689  1.00  0.00    -0.027 C 
HETATM    9  C1  UNL     1       0.718 -14.044  14.978  1.00  0.00     0.008 C 
ENDBRANCH   1   8
BRANCH   7  10
HETATM   10  C10 UNL     1       1.327 -11.641  11.958  1.00  0.00     0.236 C 
HETATM   11  N1  UNL     1       1.958 -12.452  10.997  1.00  0.00    -0.062 NA
HETATM   12  O1  UNL     1       0.081 -11.748  12.084  1.00  0.00    -0.276 OA
ENDBRANCH   7  10
TORSDOF 2
ENDMDL
MODEL 2
REMARK VINA RESULT: -4.386765581      1.069      1.127
REMARK  2 active torsions:
REMARK  status: ('A' for Active; 'I' for Inactive)
REMARK    1  A    between atoms: C2_2  and  C3_3 
REMARK    2  A    between atoms: C9_9  and  C10_10 
ROOT
HETATM    1  C3  UNL     1       1.875 -12.451  15.442  1.00  0.00    -0.018 A 
HETATM    2  C4  UNL     1       1.728 -12.674  16.954  1.00  0.00     0.020 C 
HETATM    3  C5  UNL     1       3.085 -11.601  15.100  1.00  0.00     0.025 A 
HETATM    4  C6  UNL     1       1.680 -11.143  14.942  1.00  0.00    -0.017 A 
HETATM    5  C7  UNL     1       1.123  -9.972  15.652  1.00  0.00     0.012 A 
HETATM    6  C8  UNL     1       0.662  -9.432  14.312  1.00  0.00     0.015 A 
HETATM    7  C9  UNL     1       1.266 -10.658  13.622  1.00  0.00     0.084 A 
ENDROOT
BRANCH   1   8
HETATM    8  C2  UNL     1       1.751 -13.713  14.678  1.00  0.00    -0.027 C 
HETATM    9  C1  UNL     1       0.803 -14.569  15.039  1.00  0.00     0.008 C 
ENDBRANCH   1   8
BRANCH   7  10
HETATM   10  C10 UNL     1       0.338 -11.438  12.820  1.00  0.00     0.236 C 
HETATM   11  N1  UNL     1       0.622 -11.808  11.492  1.00  0.00    -0.062 NA
HETATM   12  O1  UNL     1      -0.761 -11.808  13.306  1.00  0.00    -0.276 OA
ENDBRANCH   7  10
TORSDOF 2
ENDMDL
MODEL 3
REMARK VINA RESULT: -4.295014275      2.253      3.796
REMARK  2 active torsions:
REMARK  status: ('A' for Active; 'I' for Inactive)
REMARK    1  A    between atoms: C2_2  and  C3_3 
REMARK    2  A    between atoms: C9_9  and  C10_10 
ROOT
HETATM    1  C3  UNL     1       0.961 -11.416  15.147  1.00  0.00    -0.018 A 
HETATM    2  C4  UNL     1       1.758 -10.201  14.651  1.00  0.00     0.020 C 
HETATM    3  C5  UNL     1       0.663 -11.343  16.633  1.00  0.00     0.025 A 
HETATM    4  C6  UNL     1       1.604 -12.319  16.024  1.00  0.00    -0.017 A 
HETATM    5  C7  UNL     1       3.042 -12.384  16.368  1.00  0.00     0.012 A 
HETATM    6  C8  UNL     1       2.863 -13.864  16.647  1.00  0.00     0.015 A 
HETATM    7  C9  UNL     1       1.379 -13.742  16.294  1.00  0.00     0.084 A 
ENDROOT
BRANCH   1   8
HETATM    8  C2  UNL     1      -0.203 -11.709  14.281  1.00  0.00    -0.027 C 
HETATM    9  C1  UNL     1      -0.178 -11.264  13.031  1.00  0.00     0.008 C 
ENDBRANCH   1   8
BRANCH   7  10
HETATM   10  C10 UNL     1       0.921 -14.619  15.228  1.00  0.00     0.236 C 
HETATM   11  N1  UNL     1       1.479 -14.583  13.937  1.00  0.00    -0.062 NA
HETATM   12  O1  UNL     1      -0.002 -15.445  15.442  1.00  0.00    -0.276 OA
ENDBRANCH   7  10
TORSDOF 2
ENDMDL
MODEL 4
REMARK VINA RESULT: -4.230461258      1.804      3.526
REMARK  2 active torsions:
REMARK  status: ('A' for Active; 'I' for Inactive)
REMARK    1  A    between atoms: C2_2  and  C3_3 
REMARK    2  A    between atoms: C9_9  and  C10_10 
ROOT
HETATM    1  C3  UNL     1       2.538 -11.053  16.037  1.00  0.00    -0.018 A 
HETATM    2  C4  UNL     1       3.964 -10.995  16.603  1.00  0.00     0.020 C 
HETATM    3  C5  UNL     1       1.491 -11.203  17.125  1.00  0.00     0.025 A 
HETATM    4  C6  UNL     1       1.829 -12.271  16.149  1.00  0.00    -0.017 A 
HETATM    5  C7  UNL     1       2.354 -13.596  16.544  1.00  0.00     0.012 A 
HETATM    6  C8  UNL     1       1.248 -14.232  15.723  1.00  0.00     0.015 A 
HETATM    7  C9  UNL     1       0.735 -12.838  15.353  1.00  0.00     0.084 A 
ENDROOT
BRANCH   1   8
HETATM    8  C2  UNL     1       2.284  -9.974  15.057  1.00  0.00    -0.027 C 
HETATM    9  C1  UNL     1       3.168  -9.795  14.083  1.00  0.00     0.008 C 
ENDBRANCH   1   8
BRANCH   7  10
HETATM   10  C10 UNL     1       0.659 -12.564  13.927  1.00  0.00     0.236 C 
HETATM   11  N1  UNL     1      -0.437 -11.895  13.350  1.00  0.00    -0.062 NA
HETATM   12  O1  UNL     1       1.589 -12.926  13.163  1.00  0.00    -0.276 OA
ENDBRANCH   7  10
TORSDOF 2
ENDMDL
MODEL 5
REMARK VINA RESULT: -4.193858360      2.927      3.671
REMARK  2 active torsions:
REMARK  status: ('A' for Active; 'I' for Inactive)
REMARK    1  A    between atoms: C2_2  and  C3_3 
REMARK    2  A    between atoms: C9_9  and  C10_10 
ROOT
HETATM    1  C3  UNL     1       1.467 -13.446  15.614  1.00  0.00    -0.018 A 
HETATM    2  C4  UNL     1       1.229 -14.723  14.796  1.00  0.00     0.020 C 
HETATM    3  C5  UNL     1       0.299 -12.481  15.530  1.00  0.00     0.025 A 
HETATM    4  C6  UNL     1       1.627 -12.229  14.912  1.00  0.00    -0.017 A 
HETATM    5  C7  UNL     1       1.822 -12.037  13.458  1.00  0.00     0.012 A 
HETATM    6  C8  UNL     1       2.557 -10.747  13.772  1.00  0.00     0.015 A 
HETATM    7  C9  UNL     1       2.317 -10.985  15.265  1.00  0.00     0.084 A 
ENDROOT
BRANCH   1   8
HETATM    8  C2  UNL     1       1.948 -13.742  16.982  1.00  0.00    -0.027 C 
HETATM    9  C1  UNL     1       2.177 -15.010  17.301  1.00  0.00     0.008 C 
ENDBRANCH   1   8
BRANCH   7  10
HETATM   10  C10 UNL     1       3.517 -11.029  16.086  1.00  0.00     0.236 C 
HETATM   11  N1  UNL     1       3.559 -10.479  17.381  1.00  0.00    -0.062 NA
HETATM   12  O1  UNL     1       4.563 -11.570  15.647  1.00  0.00    -0.276 OA
ENDBRANCH   7  10
TORSDOF 2
ENDMDL
