MODEL 1
REMARK VINA RESULT: -5.934943668      0.000      0.000
REMARK  1 active torsions:
REMARK  status: ('A' for Active; 'I' for Inactive)
REMARK       I    between atoms: N1_2  and  C2_4 
REMARK    1  A    between atoms: C2_4  and  C3_6 
ROOT
HETATM    1  C3  UNL     1       2.311 -13.608  15.607  1.00  0.00     0.083 C 
HETATM    2  C4  UNL     1       2.945 -12.442  16.305  1.00  0.00     0.019 C 
HETATM    3  C5  UNL     1       2.417 -11.177  15.618  1.00  0.00    -0.013 C 
HETATM    4  C6  UNL     1       0.962 -11.082  16.037  1.00  0.00     0.010 C 
HETATM    5  C7  UNL     1       0.227 -12.204  15.365  1.00  0.00    -0.009 C 
HETATM    6  C8  UNL     1       0.050 -11.752  13.902  1.00  0.00     0.010 C 
HETATM    7  C9  UNL     1       1.439 -12.370  13.681  1.00  0.00    -0.009 C 
HETATM    8  C10 UNL     1       2.458 -11.366  14.110  1.00  0.00     0.010 C 
HETATM    9  C11 UNL     1       1.079 -13.296  14.850  1.00  0.00     0.007 C 
ENDROOT
BRANCH   1  10
HETATM   10  C2  UNL     1       2.138 -14.751  16.546  1.00  0.00     0.221 C 
HETATM   11  N1  UNL     1       2.096 -14.573  17.955  1.00  0.00    -0.365 N 
HETATM   12  C1  UNL     1       1.931 -15.655  18.884  1.00  0.00     0.149 C 
ATOM     13  H1  UNL     1       2.188 -13.627  18.325  1.00  0.00     0.161 HD
HETATM   14  O1  UNL     1       2.022 -15.929  16.119  1.00  0.00    -0.273 OA
ENDBRANCH   1  10
TORSDOF 1
ENDMDL
MODEL 2
REMARK VINA RESULT: -5.512604687      0.718      1.859
REMARK  1 active torsions:
REMARK  status: ('A' for Active; 'I' for Inactive)
REMARK       I    between atoms: N1_2  and  C2_4 
REMARK    1  A    between atoms: C2_4  and  C3_6 
ROOT
HETATM    1  C3  UNL     1       1.056 -13.724  15.576  1.00  0.00     0.083 C 
HETATM    2  C4  UNL     1       1.730 -13.718  14.236  1.00  0.00     0.019 C 
HETATM    3  C5  UNL     1       1.741 -12.261  13.756  1.00  0.00    -0.013 C 
HETATM    4  C6  UNL     1       2.746 -11.561  14.652  1.00  0.00     0.010 C 
HETATM    5  C7  UNL     1       2.150 -11.494  16.027  1.00  0.00    -0.009 C 
HETATM    6  C8  UNL     1       1.108 -10.362  15.962  1.00  0.00     0.010 C 
HETATM    7  C9  UNL     1       0.146 -11.453  15.468  1.00  0.00    -0.009 C 
HETATM    8  C10 UNL     1       0.378 -11.636  14.004  1.00  0.00     0.010 C 
HETATM    9  C11 UNL     1       1.024 -12.420  16.272  1.00  0.00     0.007 C 
ENDROOT
BRANCH   1  10
HETATM   10  C2  UNL     1       1.595 -14.821  16.427  1.00  0.00     0.221 C 
HETATM   11  N1  UNL     1       1.710 -14.699  17.837  1.00  0.00    -0.365 N 
HETATM   12  C1  UNL     1       2.225 -15.739  18.682  1.00  0.00     0.149 C 
ATOM     13  H1  UNL     1       1.412 -13.826  18.272  1.00  0.00     0.161 HD
HETATM   14  O1  UNL     1       1.971 -15.910  15.919  1.00  0.00    -0.273 OA
ENDBRANCH   1  10
TORSDOF 1
ENDMDL
MODEL 3
REMARK VINA RESULT: -5.157703609      0.966      1.090
REMARK  1 active torsions:
REMARK  status: ('A' for Active; 'I' for Inactive)
REMARK       I    between atoms: N1_2  and  C2_4 
REMARK    1  A    between atoms: C2_4  and  C3_6 
ROOT
HETATM    1  C3  UNL     1       1.467 -13.291  14.925  1.00  0.00     0.083 C 
HETATM    2  C4  UNL     1       2.665 -12.452  15.258  1.00  0.00     0.019 C 
HETATM    3  C5  UNL     1       2.362 -11.033  14.761  1.00  0.00    -0.013 C 
HETATM    4  C6  UNL     1       1.297 -10.507  15.705  1.00  0.00     0.010 C 
HETATM    5  C7  UNL     1       0.037 -11.273  15.433  1.00  0.00    -0.009 C 
HETATM    6  C8  UNL     1      -0.528 -10.674  14.131  1.00  0.00     0.010 C 
HETATM    7  C9  UNL     1       0.384 -11.688  13.423  1.00  0.00    -0.009 C 
HETATM    8  C10 UNL     1       1.758 -11.104  13.368  1.00  0.00     0.010 C 
HETATM    9  C11 UNL     1       0.217 -12.537  14.689  1.00  0.00     0.007 C 
ENDROOT
BRANCH   1  10
HETATM   10  C2  UNL     1       1.304 -14.387  15.919  1.00  0.00     0.221 C 
HETATM   11  N1  UNL     1       1.966 -14.375  17.175  1.00  0.00    -0.365 N 
HETATM   12  C1  UNL     1       1.827 -15.418  18.153  1.00  0.00     0.149 C 
ATOM     13  H1  UNL     1       2.573 -13.585  17.395  1.00  0.00     0.161 HD
HETATM   14  O1  UNL     1       0.562 -15.375  15.677  1.00  0.00    -0.273 OA
ENDBRANCH   1  10
TORSDOF 1
ENDMDL
MODEL 4
REMARK VINA RESULT: -5.146098721      1.585      1.784
REMARK  1 active torsions:
REMARK  status: ('A' for Active; 'I' for Inactive)
REMARK       I    between atoms: N1_2  and  C2_4 
REMARK    1  A    between atoms: C2_4  and  C3_6 
ROOT
HETATM    1  C3  UNL     1       1.729 -13.964  15.428  1.00  0.00     0.083 C 
HETATM    2  C4  UNL     1       2.544 -13.794  16.676  1.00  0.00     0.019 C 
HETATM    3  C5  UNL     1       2.893 -12.304  16.775  1.00  0.00    -0.013 C 
HETATM    4  C6  UNL     1       1.584 -11.618  17.120  1.00  0.00     0.010 C 
HETATM    5  C7  UNL     1       0.697 -11.711  15.914  1.00  0.00    -0.009 C 
HETATM    6  C8  UNL     1       1.234 -10.652  14.933  1.00  0.00     0.010 C 
HETATM    7  C9  UNL     1       2.189 -11.759  14.464  1.00  0.00    -0.009 C 
HETATM    8  C10 UNL     1       3.342 -11.798  15.414  1.00  0.00     0.010 C 
HETATM    9  C11 UNL     1       1.092 -12.730  14.919  1.00  0.00     0.007 C 
ENDROOT
BRANCH   1  10
HETATM   10  C2  UNL     1       0.768 -15.091  15.579  1.00  0.00     0.221 C 
HETATM   11  N1  UNL     1       0.762 -15.932  16.723  1.00  0.00    -0.365 N 
HETATM   12  C1  UNL     1      -0.153 -17.026  16.896  1.00  0.00     0.149 C 
ATOM     13  H1  UNL     1       1.443 -15.751  17.460  1.00  0.00     0.161 HD
HETATM   14  O1  UNL     1      -0.084 -15.340  14.687  1.00  0.00    -0.273 OA
ENDBRANCH   1  10
TORSDOF 1
ENDMDL
MODEL 5
REMARK VINA RESULT: -5.079394783      1.379      1.555
REMARK  1 active torsions:
REMARK  status: ('A' for Active; 'I' for Inactive)
REMARK       I    between atoms: N1_2  and  C2_4 
REMARK    1  A    between atoms: C2_4  and  C3_6 
ROOT
HETATM    1  C3  UNL     1       1.682 -12.874  15.344  1.00  0.00     0.083 C 
HETATM    2  C4  UNL     1       2.816 -11.914  15.140  1.00  0.00     0.019 C 
HETATM    3  C5  UNL     1       2.312 -10.835  14.174  1.00  0.00    -0.013 C 
HETATM    4  C6  UNL     1       1.313 -10.025  14.979  1.00  0.00     0.010 C 
HETATM    5  C7  UNL     1       0.117 -10.897  15.219  1.00  0.00    -0.009 C 
HETATM    6  C8  UNL     1      -0.652 -10.904  13.884  1.00  0.00     0.010 C 
HETATM    7  C9  UNL     1       0.273 -12.072  13.508  1.00  0.00    -0.009 C 
HETATM    8  C10 UNL     1       1.563 -11.493  13.026  1.00  0.00     0.010 C 
HETATM    9  C11 UNL     1       0.341 -12.344  15.016  1.00  0.00     0.007 C 
ENDROOT
BRANCH   1  10
HETATM   10  C2  UNL     1       1.748 -13.481  16.702  1.00  0.00     0.221 C 
HETATM   11  N1  UNL     1       1.818 -14.885  16.901  1.00  0.00    -0.365 N 
HETATM   12  C1  UNL     1       1.882 -15.499  18.198  1.00  0.00     0.149 C 
ATOM     13  H1  UNL     1       1.822 -15.491  16.080  1.00  0.00     0.161 HD
HETATM   14  O1  UNL     1       1.744 -12.761  17.734  1.00  0.00    -0.273 OA
ENDBRANCH   1  10
TORSDOF 1
ENDMDL
