MODEL 1
REMARK VINA RESULT: -5.149961309      0.000      0.000
REMARK  2 active torsions:
REMARK  status: ('A' for Active; 'I' for Inactive)
REMARK    1  A    between atoms: C4_4  and  C5_5 
REMARK       I    between atoms: C5_5  and  N1_7 
REMARK    2  A    between atoms: N1_7  and  C6_9 
ROOT
HETATM    1  C5  UNL     1      -0.782  12.125  14.389  1.00  0.00     0.222 C 
HETATM    2  O1  UNL     1      -1.171  12.693  13.351  1.00  0.00    -0.273 OA
HETATM    3  N1  UNL     1      -1.013  12.695  15.656  1.00  0.00    -0.354 N 
ATOM      4  H1  UNL     1      -0.692  12.224  16.502  1.00  0.00     0.162 HD
ENDROOT
BRANCH   3   5
HETATM    5  C6  UNL     1      -1.709  13.953  15.740  1.00  0.00     0.110 C 
HETATM    6  C7  UNL     1      -2.350  14.162  17.103  1.00  0.00     0.053 C 
HETATM    7  C8  UNL     1      -1.748  15.488  17.544  1.00  0.00     0.169 C 
HETATM    8  O2  UNL     1      -1.494  16.125  16.318  1.00  0.00    -0.389 OA
HETATM    9  C9  UNL     1      -0.737  15.123  15.673  1.00  0.00     0.192 C 
ENDBRANCH   3   5
BRANCH   1  10
HETATM   10  C4  UNL     1      -0.072  10.839  14.295  1.00  0.00     0.082 A 
HETATM   11  C2  UNL     1       1.443  10.982  14.461  1.00  0.00    -0.005 A 
HETATM   12  C1  UNL     1       2.257  10.210  13.429  1.00  0.00     0.011 C 
HETATM   13  C3  UNL     1       0.639  10.268  15.462  1.00  0.00     0.019 A 
ENDBRANCH   1  10
TORSDOF 2
ENDMDL
MODEL 2
REMARK VINA RESULT: -5.111993178      1.773      2.209
REMARK  2 active torsions:
REMARK  status: ('A' for Active; 'I' for Inactive)
REMARK    1  A    between atoms: C4_4  and  C5_5 
REMARK       I    between atoms: C5_5  and  N1_7 
REMARK    2  A    between atoms: N1_7  and  C6_9 
ROOT
HETATM    1  C5  UNL     1      -1.447  13.068  14.064  1.00  0.00     0.222 C 
HETATM    2  O1  UNL     1      -1.690  13.986  13.257  1.00  0.00    -0.273 OA
HETATM    3  N1  UNL     1      -1.547  13.280  15.453  1.00  0.00    -0.354 N 
ATOM      4  H1  UNL     1      -1.346  12.524  16.108  1.00  0.00     0.162 HD
ENDROOT
BRANCH   3   5
HETATM    5  C6  UNL     1      -1.937  14.580  15.935  1.00  0.00     0.110 C 
HETATM    6  C7  UNL     1      -2.627  14.504  17.288  1.00  0.00     0.053 C 
HETATM    7  C8  UNL     1      -1.774  15.434  18.139  1.00  0.00     0.169 C 
HETATM    8  O2  UNL     1      -1.275  16.338  17.187  1.00  0.00    -0.389 OA
HETATM    9  C9  UNL     1      -0.718  15.433  16.258  1.00  0.00     0.192 C 
ENDBRANCH   3   5
BRANCH   1  10
HETATM   10  C4  UNL     1      -1.049  11.742  13.563  1.00  0.00     0.082 A 
HETATM   11  C2  UNL     1      -2.238  10.797  13.374  1.00  0.00    -0.005 A 
HETATM   12  C1  UNL     1      -2.011   9.396  13.931  1.00  0.00     0.011 C 
HETATM   13  C3  UNL     1      -1.464  11.274  12.221  1.00  0.00     0.019 A 
ENDBRANCH   1  10
TORSDOF 2
ENDMDL
MODEL 3
REMARK VINA RESULT: -5.007094125      0.980      1.305
REMARK  2 active torsions:
REMARK  status: ('A' for Active; 'I' for Inactive)
REMARK    1  A    between atoms: C4_4  and  C5_5 
REMARK       I    between atoms: C5_5  and  N1_7 
REMARK    2  A    between atoms: N1_7  and  C6_9 
ROOT
HETATM    1  C5  UNL     1      -0.084  12.197  13.821  1.00  0.00     0.222 C 
HETATM    2  O1  UNL     1      -1.002  12.182  12.979  1.00  0.00    -0.273 OA
HETATM    3  N1  UNL     1      -0.086  13.129  14.877  1.00  0.00    -0.354 N 
ATOM      4  H1  UNL     1       0.669  13.135  15.563  1.00  0.00     0.162 HD
ENDROOT
BRANCH   3   5
HETATM    5  C6  UNL     1      -1.170  14.072  14.974  1.00  0.00     0.110 C 
HETATM    6  C7  UNL     1      -2.219  13.634  15.985  1.00  0.00     0.053 C 
HETATM    7  C8  UNL     1      -2.282  14.830  16.925  1.00  0.00     0.169 C 
HETATM    8  O2  UNL     1      -1.914  15.893  16.082  1.00  0.00    -0.389 OA
HETATM    9  C9  UNL     1      -0.698  15.391  15.571  1.00  0.00     0.192 C 
ENDBRANCH   3   5
BRANCH   1  10
HETATM   10  C4  UNL     1       1.020  11.229  13.714  1.00  0.00     0.082 A 
HETATM   11  C2  UNL     1       0.754   9.936  14.488  1.00  0.00    -0.005 A 
HETATM   12  C1  UNL     1       1.933   9.464  15.332  1.00  0.00     0.011 C 
HETATM   13  C3  UNL     1       0.839   9.933  13.022  1.00  0.00     0.019 A 
ENDBRANCH   1  10
TORSDOF 2
ENDMDL
MODEL 4
REMARK VINA RESULT: -4.920013202      1.085      1.204
REMARK  2 active torsions:
REMARK  status: ('A' for Active; 'I' for Inactive)
REMARK    1  A    between atoms: C4_4  and  C5_5 
REMARK       I    between atoms: C5_5  and  N1_7 
REMARK    2  A    between atoms: N1_7  and  C6_9 
ROOT
HETATM    1  C5  UNL     1       0.056  11.564  13.751  1.00  0.00     0.222 C 
HETATM    2  O1  UNL     1      -0.045  12.083  12.623  1.00  0.00    -0.273 OA
HETATM    3  N1  UNL     1      -0.564  12.145  14.875  1.00  0.00    -0.354 N 
ATOM      4  H1  UNL     1      -0.476  11.714  15.795  1.00  0.00     0.162 HD
ENDROOT
BRANCH   3   5
HETATM    5  C6  UNL     1      -1.323  13.357  14.704  1.00  0.00     0.110 C 
HETATM    6  C7  UNL     1      -2.390  13.518  15.776  1.00  0.00     0.053 C 
HETATM    7  C8  UNL     1      -2.049  14.876  16.371  1.00  0.00     0.169 C 
HETATM    8  O2  UNL     1      -1.443  15.535  15.288  1.00  0.00    -0.389 OA
HETATM    9  C9  UNL     1      -0.456  14.586  14.946  1.00  0.00     0.192 C 
ENDBRANCH   3   5
BRANCH   1  10
HETATM   10  C4  UNL     1       0.834  10.325  13.916  1.00  0.00     0.082 A 
HETATM   11  C2  UNL     1       2.342  10.574  13.985  1.00  0.00    -0.005 A 
HETATM   12  C1  UNL     1       3.168   9.629  13.118  1.00  0.00     0.011 C 
HETATM   13  C3  UNL     1       1.608  10.065  15.151  1.00  0.00     0.019 A 
ENDBRANCH   1  10
TORSDOF 2
ENDMDL
MODEL 5
REMARK VINA RESULT: -4.818315449      1.945      5.284
REMARK  2 active torsions:
REMARK  status: ('A' for Active; 'I' for Inactive)
REMARK    1  A    between atoms: C4_4  and  C5_5 
REMARK       I    between atoms: C5_5  and  N1_7 
REMARK    2  A    between atoms: N1_7  and  C6_9 
ROOT
HETATM    1  C5  UNL     1      -1.604  13.116  15.713  1.00  0.00     0.222 C 
HETATM    2  O1  UNL     1      -1.131  12.306  16.532  1.00  0.00    -0.273 OA
HETATM    3  N1  UNL     1      -1.593  12.840  14.331  1.00  0.00    -0.354 N 
ATOM      4  H1  UNL     1      -1.983  13.508  13.667  1.00  0.00     0.162 HD
ENDROOT
BRANCH   3   5
HETATM    5  C6  UNL     1      -1.025  11.599  13.872  1.00  0.00     0.110 C 
HETATM    6  C7  UNL     1      -1.683  11.108  12.592  1.00  0.00     0.053 C 
HETATM    7  C8  UNL     1      -0.495  10.964  11.652  1.00  0.00     0.169 C 
HETATM    8  O2  UNL     1       0.560  10.697  12.541  1.00  0.00    -0.389 OA
HETATM    9  C9  UNL     1       0.418  11.789  13.424  1.00  0.00     0.192 C 
ENDBRANCH   3   5
BRANCH   1  10
HETATM   10  C4  UNL     1      -2.184  14.383  16.191  1.00  0.00     0.082 A 
HETATM   11  C2  UNL     1      -1.175  15.251  16.946  1.00  0.00    -0.005 A 
HETATM   12  C1  UNL     1      -1.710  15.832  18.250  1.00  0.00     0.011 C 
HETATM   13  C3  UNL     1      -1.726  15.685  15.656  1.00  0.00     0.019 A 
ENDBRANCH   1  10
TORSDOF 2
ENDMDL
