MODEL 1
REMARK VINA RESULT: -4.643157887      0.000      0.000
REMARK  5 active torsions:
REMARK  status: ('A' for Active; 'I' for Inactive)
REMARK    1  A    between atoms: O1_2  and  N1_3 
REMARK    2  A    between atoms: N1_3  and  C2_4 
REMARK    3  A    between atoms: C4_6  and  O2_8 
REMARK    4  A    between atoms: C6_10  and  O3_11 
REMARK    5  A    between atoms: C7_13  and  O4_14 
ROOT
HETATM    1  C2  UNL     1      -1.028   0.748  18.147  1.00  0.00     0.141 C 
HETATM    2  C3  UNL     1      -0.201   0.099  19.223  1.00  0.00     0.067 C 
HETATM    3  C4  UNL     1       1.238   0.089  18.710  1.00  0.00     0.092 C 
HETATM    4  C5  UNL     1       2.011   1.278  19.158  1.00  0.00     0.049 C 
HETATM    5  C6  UNL     1       1.068  -0.058  17.249  1.00  0.00     0.144 C 
HETATM    6  C7  UNL     1       2.021   0.738  16.412  1.00  0.00     0.186 C 
HETATM    7  C8  UNL     1       1.086   1.376  15.391  1.00  0.00     0.150 C 
HETATM    8  C9  UNL     1       0.583   0.411  14.377  1.00  0.00     0.042 C 
HETATM    9  O5  UNL     1       0.019   1.762  16.233  1.00  0.00    -0.373 OA
HETATM   10  C10 UNL     1      -0.272   0.551  16.871  1.00  0.00     0.183 C 
ENDROOT
BRANCH   1  11
HETATM   11  N1  UNL     1      -2.313   0.106  18.018  1.00  0.00    -0.094 NA
BRANCH  11  12
HETATM   12  O1  UNL     1      -2.456  -0.579  16.874  1.00  0.00    -0.291 OA
HETATM   13  C1  UNL     1      -3.814  -0.895  16.686  1.00  0.00     0.231 C 
ENDBRANCH  11  12
ENDBRANCH   1  11
BRANCH   3  14
HETATM   14  O2  UNL     1       1.882  -1.053  19.236  1.00  0.00    -0.387 OA
ATOM     15  H2  UNL     1       2.779  -1.055  18.923  1.00  0.00     0.210 HD
ENDBRANCH   3  14
BRANCH   5  16
HETATM   16  O3  UNL     1       1.106  -1.431  16.949  1.00  0.00    -0.381 OA
ATOM     17  H3  UNL     1       0.399  -1.614  16.342  1.00  0.00     0.211 HD
ENDBRANCH   5  16
BRANCH   6  18
HETATM   18  O4  UNL     1       2.937  -0.054  15.720  1.00  0.00    -0.390 OA
ATOM     19  H4  UNL     1       3.841   0.199  15.871  1.00  0.00     0.210 HD
ENDBRANCH   6  18
TORSDOF 5
ENDMDL
MODEL 2
REMARK VINA RESULT: -4.574865316      2.889      4.211
REMARK  5 active torsions:
REMARK  status: ('A' for Active; 'I' for Inactive)
REMARK    1  A    between atoms: O1_2  and  N1_3 
REMARK    2  A    between atoms: N1_3  and  C2_4 
REMARK    3  A    between atoms: C4_6  and  O2_8 
REMARK    4  A    between atoms: C6_10  and  O3_11 
REMARK    5  A    between atoms: C7_13  and  O4_14 
ROOT
HETATM    1  C2  UNL     1       1.123   1.356  13.800  1.00  0.00     0.141 C 
HETATM    2  C3  UNL     1       0.541   0.336  14.740  1.00  0.00     0.067 C 
HETATM    3  C4  UNL     1       1.540   0.191  15.886  1.00  0.00     0.092 C 
HETATM    4  C5  UNL     1       1.226   1.083  17.033  1.00  0.00     0.049 C 
HETATM    5  C6  UNL     1       2.841   0.424  15.224  1.00  0.00     0.144 C 
HETATM    6  C7  UNL     1       3.833   1.210  16.023  1.00  0.00     0.186 C 
HETATM    7  C8  UNL     1       4.326   2.227  15.000  1.00  0.00     0.150 C 
HETATM    8  C9  UNL     1       5.223   1.633  13.973  1.00  0.00     0.042 C 
HETATM    9  O5  UNL     1       3.102   2.589  14.394  1.00  0.00    -0.373 OA
HETATM   10  C10 UNL     1       2.601   1.334  14.030  1.00  0.00     0.183 C 
ENDROOT
BRANCH   1  11
HETATM   11  N1  UNL     1       0.872   1.002  12.425  1.00  0.00    -0.094 NA
BRANCH  11  12
HETATM   12  O1  UNL     1       1.098  -0.292  12.156  1.00  0.00    -0.291 OA
HETATM   13  C1  UNL     1       0.348  -0.671  11.028  1.00  0.00     0.231 C 
ENDBRANCH  11  12
ENDBRANCH   1  11
BRANCH   3  14
HETATM   14  O2  UNL     1       1.473  -1.140  16.359  1.00  0.00    -0.387 OA
ATOM     15  H2  UNL     1       2.361  -1.468  16.439  1.00  0.00     0.210 HD
ENDBRANCH   3  14
BRANCH   5  16
HETATM   16  O3  UNL     1       3.346  -0.824  14.819  1.00  0.00    -0.381 OA
ATOM     17  H3  UNL     1       3.892  -0.682  14.054  1.00  0.00     0.211 HD
ENDBRANCH   5  16
BRANCH   6  18
HETATM   18  O4  UNL     1       4.928   0.453  16.439  1.00  0.00    -0.390 OA
ATOM     19  H4  UNL     1       5.663   0.983  16.725  1.00  0.00     0.210 HD
ENDBRANCH   6  18
TORSDOF 5
ENDMDL
MODEL 3
REMARK VINA RESULT: -4.520813722      1.530      1.893
REMARK  5 active torsions:
REMARK  status: ('A' for Active; 'I' for Inactive)
REMARK    1  A    between atoms: O1_2  and  N1_3 
REMARK    2  A    between atoms: N1_3  and  C2_4 
REMARK    3  A    between atoms: C4_6  and  O2_8 
REMARK    4  A    between atoms: C6_10  and  O3_11 
REMARK    5  A    between atoms: C7_13  and  O4_14 
ROOT
HETATM    1  C2  UNL     1      -0.516   1.098  15.849  1.00  0.00     0.141 C 
HETATM    2  C3  UNL     1       0.094   1.045  17.223  1.00  0.00     0.067 C 
HETATM    3  C4  UNL     1       1.583   0.773  17.022  1.00  0.00     0.092 C 
HETATM    4  C5  UNL     1       2.388   2.022  16.967  1.00  0.00     0.049 C 
HETATM    5  C6  UNL     1       1.606  -0.063  15.802  1.00  0.00     0.144 C 
HETATM    6  C7  UNL     1       2.733   0.216  14.857  1.00  0.00     0.186 C 
HETATM    7  C8  UNL     1       2.009   0.288  13.517  1.00  0.00     0.150 C 
HETATM    8  C9  UNL     1       1.568  -1.043  13.020  1.00  0.00     0.042 C 
HETATM    9  O5  UNL     1       0.874   1.045  13.885  1.00  0.00    -0.373 OA
HETATM   10  C10 UNL     1       0.391   0.299  14.965  1.00  0.00     0.183 C 
ENDROOT
BRANCH   1  11
HETATM   11  N1  UNL     1      -1.821   0.486  15.832  1.00  0.00    -0.094 NA
BRANCH  11  12
HETATM   12  O1  UNL     1      -2.038  -0.340  16.866  1.00  0.00    -0.291 OA
HETATM   13  C1  UNL     1      -3.338  -0.870  16.775  1.00  0.00     0.231 C 
ENDBRANCH  11  12
ENDBRANCH   1  11
BRANCH   3  14
HETATM   14  O2  UNL     1       2.045   0.023  18.127  1.00  0.00    -0.387 OA
ATOM     15  H2  UNL     1       1.329  -0.058  18.747  1.00  0.00     0.210 HD
ENDBRANCH   3  14
BRANCH   5  16
HETATM   16  O3  UNL     1       1.564  -1.410  16.205  1.00  0.00    -0.381 OA
ATOM     17  H3  UNL     1       2.459  -1.705  16.322  1.00  0.00     0.211 HD
ENDBRANCH   5  16
BRANCH   6  18
HETATM   18  O4  UNL     1       3.663  -0.821  14.788  1.00  0.00    -0.390 OA
ATOM     19  H4  UNL     1       4.534  -0.527  14.551  1.00  0.00     0.210 HD
ENDBRANCH   6  18
TORSDOF 5
ENDMDL
MODEL 4
REMARK VINA RESULT: -4.451298207      3.694      5.099
REMARK  5 active torsions:
REMARK  status: ('A' for Active; 'I' for Inactive)
REMARK    1  A    between atoms: O1_2  and  N1_3 
REMARK    2  A    between atoms: N1_3  and  C2_4 
REMARK    3  A    between atoms: C4_6  and  O2_8 
REMARK    4  A    between atoms: C6_10  and  O3_11 
REMARK    5  A    between atoms: C7_13  and  O4_14 
ROOT
HETATM    1  C2  UNL     1       0.721  -0.002  12.630  1.00  0.00     0.141 C 
HETATM    2  C3  UNL     1       1.630  -0.976  13.329  1.00  0.00     0.067 C 
HETATM    3  C4  UNL     1       2.211  -0.232  14.530  1.00  0.00     0.092 C 
HETATM    4  C5  UNL     1       1.418  -0.442  15.770  1.00  0.00     0.049 C 
HETATM    5  C6  UNL     1       2.297   1.163  14.047  1.00  0.00     0.144 C 
HETATM    6  C7  UNL     1       1.952   2.211  15.058  1.00  0.00     0.186 C 
HETATM    7  C8  UNL     1       1.009   3.112  14.268  1.00  0.00     0.150 C 
HETATM    8  C9  UNL     1       1.710   3.942  13.252  1.00  0.00     0.042 C 
HETATM    9  O5  UNL     1       0.224   2.139  13.610  1.00  0.00    -0.373 OA
HETATM   10  C10 UNL     1       1.215   1.361  13.000  1.00  0.00     0.183 C 
ENDROOT
BRANCH   1  11
HETATM   11  N1  UNL     1       0.806  -0.144  11.198  1.00  0.00    -0.094 NA
BRANCH  11  12
HETATM   12  O1  UNL     1       1.015   1.016  10.557  1.00  0.00    -0.291 OA
HETATM   13  C1  UNL     1       0.691   0.861   9.197  1.00  0.00     0.231 C 
ENDBRANCH  11  12
ENDBRANCH   1  11
BRANCH   3  14
HETATM   14  O2  UNL     1       3.510  -0.738  14.771  1.00  0.00    -0.387 OA
ATOM     15  H2  UNL     1       4.136  -0.066  14.528  1.00  0.00     0.210 HD
ENDBRANCH   3  14
BRANCH   5  16
HETATM   16  O3  UNL     1       3.578   1.348  13.497  1.00  0.00    -0.381 OA
ATOM     17  H3  UNL     1       3.499   1.284  12.552  1.00  0.00     0.211 HD
ENDBRANCH   5  16
BRANCH   6  18
HETATM   18  O4  UNL     1       3.049   2.977  15.452  1.00  0.00    -0.390 OA
ATOM     19  H4  UNL     1       2.829   3.644  16.093  1.00  0.00     0.210 HD
ENDBRANCH   6  18
TORSDOF 5
ENDMDL
MODEL 5
REMARK VINA RESULT: -4.335536801      2.565      4.546
REMARK  5 active torsions:
REMARK  status: ('A' for Active; 'I' for Inactive)
REMARK    1  A    between atoms: O1_2  and  N1_3 
REMARK    2  A    between atoms: N1_3  and  C2_4 
REMARK    3  A    between atoms: C4_6  and  O2_8 
REMARK    4  A    between atoms: C6_10  and  O3_11 
REMARK    5  A    between atoms: C7_13  and  O4_14 
ROOT
HETATM    1  C2  UNL     1       1.148   1.471  13.761  1.00  0.00     0.141 C 
HETATM    2  C3  UNL     1       2.526   0.886  13.609  1.00  0.00     0.067 C 
HETATM    3  C4  UNL     1       2.658  -0.183  14.692  1.00  0.00     0.092 C 
HETATM    4  C5  UNL     1       2.284  -1.537  14.207  1.00  0.00     0.049 C 
HETATM    5  C6  UNL     1       1.835   0.358  15.796  1.00  0.00     0.144 C 
HETATM    6  C7  UNL     1       1.032  -0.655  16.549  1.00  0.00     0.186 C 
HETATM    7  C8  UNL     1      -0.338   0.012  16.611  1.00  0.00     0.150 C 
HETATM    8  C9  UNL     1      -0.388   1.154  17.564  1.00  0.00     0.042 C 
HETATM    9  O5  UNL     1      -0.438   0.505  15.291  1.00  0.00    -0.373 OA
HETATM   10  C10 UNL     1       0.753   1.232  15.184  1.00  0.00     0.183 C 
ENDROOT
BRANCH   1  11
HETATM   11  N1  UNL     1       1.156   2.893  13.524  1.00  0.00    -0.094 NA
BRANCH  11  12
HETATM   12  O1  UNL     1       0.613   3.243  12.348  1.00  0.00    -0.291 OA
HETATM   13  C1  UNL     1       0.085   4.543  12.447  1.00  0.00     0.231 C 
ENDBRANCH  11  12
ENDBRANCH   1  11
BRANCH   3  14
HETATM   14  O2  UNL     1       4.014  -0.238  15.089  1.00  0.00    -0.387 OA
ATOM     15  H2  UNL     1       4.471   0.487  14.679  1.00  0.00     0.210 HD
ENDBRANCH   3  14
BRANCH   5  16
HETATM   16  O3  UNL     1       2.680   1.106  16.634  1.00  0.00    -0.381 OA
ATOM     17  H3  UNL     1       2.316   1.078  17.511  1.00  0.00     0.211 HD
ENDBRANCH   5  16
BRANCH   6  18
HETATM   18  O4  UNL     1       1.476  -0.847  17.857  1.00  0.00    -0.390 OA
ATOM     19  H4  UNL     1       0.768  -0.951  18.482  1.00  0.00     0.210 HD
ENDBRANCH   6  18
TORSDOF 5
ENDMDL
