MODEL 1
REMARK VINA RESULT: -8.635867299      0.000      0.000
REMARK  8 active torsions:
REMARK  status: ('A' for Active; 'I' for Inactive)
REMARK    1  A    between atoms: C2_2  and  O1_5 
REMARK    2  A    between atoms: O1_5  and  C5_6 
REMARK       I    between atoms: C5_6  and  N1_8 
REMARK    3  A    between atoms: N1_8  and  C6_10 
REMARK    4  A    between atoms: C6_10  and  C7_11 
REMARK    5  A    between atoms: C7_11  and  C8_12 
REMARK    6  A    between atoms: C8_12  and  C9_13 
REMARK    7  A    between atoms: C9_13  and  C10_14 
REMARK    8  A    between atoms: C12_16  and  C13_17 
ROOT
HETATM    1  C10 UNL     1      27.612  21.884  32.830  1.00  0.00    -0.038 C 
HETATM    2  C11 UNL     1      27.556  23.353  32.609  1.00  0.00     0.025 C 
HETATM    3  C12 UNL     1      26.822  23.812  31.397  1.00  0.00     0.088 C 
HETATM    4  C14 UNL     1      26.708  22.803  30.287  1.00  0.00     0.020 C 
HETATM    5  C15 UNL     1      26.335  21.431  30.700  1.00  0.00    -0.002 C 
HETATM    6  C16 UNL     1      26.359  21.323  32.223  1.00  0.00     0.015 C 
HETATM    7  C17 UNL     1      26.994  20.286  30.071  1.00  0.00     0.060 C 
HETATM    8  C18 UNL     1      28.156  20.502  29.183  1.00  0.00     0.013 C 
HETATM    9  C19 UNL     1      29.395  20.532  30.059  1.00  0.00     0.013 C 
HETATM   10  C20 UNL     1      28.893  20.146  31.458  1.00  0.00     0.056 C 
HETATM   11  C21 UNL     1      28.886  21.296  32.356  1.00  0.00     0.021 C 
HETATM   12  C22 UNL     1      27.648  19.451  31.155  1.00  0.00     0.135 C 
HETATM   13  O5  UNL     1      27.236  18.423  31.670  1.00  0.00    -0.297 OA
ENDROOT
BRANCH   1  14
HETATM   14  C9  UNL     1      27.487  21.613  34.312  1.00  0.00     0.010 C 
BRANCH  14  15
HETATM   15  C8  UNL     1      26.285  22.179  34.970  1.00  0.00     0.002 C 
BRANCH  15  16
HETATM   16  C7  UNL     1      26.811  23.146  36.048  1.00  0.00     0.020 C 
BRANCH  16  17
HETATM   17  C6  UNL     1      26.162  22.893  37.365  1.00  0.00     0.125 C 
BRANCH  17  18
HETATM   18  N1  UNL     1      25.272  23.978  37.691  1.00  0.00    -0.337 N 
HETATM   19  C5  UNL     1      23.916  24.074  37.334  1.00  0.00     0.361 C 
HETATM   20  O2  UNL     1      23.291  23.209  36.673  1.00  0.00    -0.238 OA
ATOM     21  H1  UNL     1      25.662  24.748  38.233  1.00  0.00     0.164 HD
BRANCH  19  22
HETATM   22  O1  UNL     1      23.131  25.185  37.703  1.00  0.00    -0.294 OA
BRANCH  22  23
HETATM   23  C2  UNL     1      22.252  25.156  38.787  1.00  0.00     0.061 C 
HETATM   24  C1  UNL     1      22.767  24.399  39.973  1.00  0.00     0.046 C 
HETATM   25  C3  UNL     1      22.036  26.598  39.230  1.00  0.00     0.046 C 
HETATM   26  C4  UNL     1      20.891  24.606  38.433  1.00  0.00     0.046 C 
ENDBRANCH  22  23
ENDBRANCH  19  22
ENDBRANCH  17  18
ENDBRANCH  16  17
ENDBRANCH  15  16
ENDBRANCH  14  15
ENDBRANCH   1  14
BRANCH   3  27
HETATM   27  C13 UNL     1      27.413  25.092  30.925  1.00  0.00     0.177 C 
HETATM   28  O3  UNL     1      26.742  25.847  30.202  1.00  0.00    -0.648 OA
HETATM   29  O4  UNL     1      28.703  25.488  31.263  1.00  0.00    -0.648 OA
ENDBRANCH   3  27
TORSDOF 8
ENDMDL
MODEL 2
REMARK VINA RESULT: -8.366725942      1.232      3.631
REMARK  8 active torsions:
REMARK  status: ('A' for Active; 'I' for Inactive)
REMARK    1  A    between atoms: C2_2  and  O1_5 
REMARK    2  A    between atoms: O1_5  and  C5_6 
REMARK       I    between atoms: C5_6  and  N1_8 
REMARK    3  A    between atoms: N1_8  and  C6_10 
REMARK    4  A    between atoms: C6_10  and  C7_11 
REMARK    5  A    between atoms: C7_11  and  C8_12 
REMARK    6  A    between atoms: C8_12  and  C9_13 
REMARK    7  A    between atoms: C9_13  and  C10_14 
REMARK    8  A    between atoms: C12_16  and  C13_17 
ROOT
HETATM    1  C10 UNL     1      27.214  21.373  32.904  1.00  0.00    -0.038 C 
HETATM    2  C11 UNL     1      27.111  20.070  33.614  1.00  0.00     0.025 C 
HETATM    3  C12 UNL     1      28.140  19.050  33.275  1.00  0.00     0.088 C 
HETATM    4  C14 UNL     1      28.794  19.209  31.929  1.00  0.00     0.020 C 
HETATM    5  C15 UNL     1      29.210  20.585  31.575  1.00  0.00    -0.002 C 
HETATM    6  C16 UNL     1      28.672  21.572  32.608  1.00  0.00     0.015 C 
HETATM    7  C17 UNL     1      29.002  21.071  30.210  1.00  0.00     0.060 C 
HETATM    8  C18 UNL     1      28.207  20.269  29.257  1.00  0.00     0.013 C 
HETATM    9  C19 UNL     1      26.751  20.655  29.446  1.00  0.00     0.013 C 
HETATM   10  C20 UNL     1      26.785  21.838  30.425  1.00  0.00     0.056 C 
HETATM   11  C21 UNL     1      26.296  21.450  31.744  1.00  0.00     0.021 C 
HETATM   12  C22 UNL     1      28.151  22.324  30.270  1.00  0.00     0.135 C 
HETATM   13  O5  UNL     1      28.513  23.489  30.202  1.00  0.00    -0.297 OA
ENDROOT
BRANCH   1  14
HETATM   14  C9  UNL     1      26.852  22.479  33.868  1.00  0.00     0.010 C 
BRANCH  14  15
HETATM   15  C8  UNL     1      26.388  22.039  35.207  1.00  0.00     0.002 C 
BRANCH  15  16
HETATM   16  C7  UNL     1      26.748  23.183  36.174  1.00  0.00     0.020 C 
BRANCH  16  17
HETATM   17  C6  UNL     1      26.140  22.966  37.517  1.00  0.00     0.125 C 
BRANCH  17  18
HETATM   18  N1  UNL     1      25.212  24.029  37.814  1.00  0.00    -0.337 N 
HETATM   19  C5  UNL     1      23.881  24.114  37.375  1.00  0.00     0.361 C 
HETATM   20  O2  UNL     1      23.313  23.257  36.654  1.00  0.00    -0.238 OA
ATOM     21  H1  UNL     1      25.556  24.790  38.399  1.00  0.00     0.164 HD
BRANCH  19  22
HETATM   22  O1  UNL     1      23.056  25.203  37.722  1.00  0.00    -0.294 OA
BRANCH  22  23
HETATM   23  C2  UNL     1      22.183  25.166  38.811  1.00  0.00     0.061 C 
HETATM   24  C1  UNL     1      22.705  24.401  39.988  1.00  0.00     0.046 C 
HETATM   25  C3  UNL     1      21.972  26.605  39.266  1.00  0.00     0.046 C 
HETATM   26  C4  UNL     1      20.819  24.621  38.462  1.00  0.00     0.046 C 
ENDBRANCH  22  23
ENDBRANCH  19  22
ENDBRANCH  17  18
ENDBRANCH  16  17
ENDBRANCH  15  16
ENDBRANCH  14  15
ENDBRANCH   1  14
BRANCH   3  27
HETATM   27  C13 UNL     1      27.559  17.693  33.451  1.00  0.00     0.177 C 
HETATM   28  O3  UNL     1      26.396  17.470  33.074  1.00  0.00    -0.648 OA
HETATM   29  O4  UNL     1      28.270  16.646  34.029  1.00  0.00    -0.648 OA
ENDBRANCH   3  27
TORSDOF 8
ENDMDL
MODEL 3
REMARK VINA RESULT: -8.243172403      1.573      3.845
REMARK  8 active torsions:
REMARK  status: ('A' for Active; 'I' for Inactive)
REMARK    1  A    between atoms: C2_2  and  O1_5 
REMARK    2  A    between atoms: O1_5  and  C5_6 
REMARK       I    between atoms: C5_6  and  N1_8 
REMARK    3  A    between atoms: N1_8  and  C6_10 
REMARK    4  A    between atoms: C6_10  and  C7_11 
REMARK    5  A    between atoms: C7_11  and  C8_12 
REMARK    6  A    between atoms: C8_12  and  C9_13 
REMARK    7  A    between atoms: C9_13  and  C10_14 
REMARK    8  A    between atoms: C12_16  and  C13_17 
ROOT
HETATM    1  C10 UNL     1      27.115  21.457  32.987  1.00  0.00    -0.038 C 
HETATM    2  C11 UNL     1      27.000  20.120  33.627  1.00  0.00     0.025 C 
HETATM    3  C12 UNL     1      28.061  19.132  33.288  1.00  0.00     0.088 C 
HETATM    4  C14 UNL     1      28.775  19.366  31.986  1.00  0.00     0.020 C 
HETATM    5  C15 UNL     1      29.186  20.764  31.720  1.00  0.00    -0.002 C 
HETATM    6  C16 UNL     1      28.582  21.691  32.773  1.00  0.00     0.015 C 
HETATM    7  C17 UNL     1      29.036  21.314  30.372  1.00  0.00     0.060 C 
HETATM    8  C18 UNL     1      28.300  20.549  29.343  1.00  0.00     0.013 C 
HETATM    9  C19 UNL     1      26.831  20.905  29.480  1.00  0.00     0.013 C 
HETATM   10  C20 UNL     1      26.799  22.039  30.516  1.00  0.00     0.056 C 
HETATM   11  C21 UNL     1      26.253  21.579  31.788  1.00  0.00     0.021 C 
HETATM   12  C22 UNL     1      28.162  22.551  30.451  1.00  0.00     0.135 C 
HETATM   13  O5  UNL     1      28.508  23.722  30.459  1.00  0.00    -0.297 OA
ENDROOT
BRANCH   1  14
HETATM   14  C9  UNL     1      26.690  22.509  33.986  1.00  0.00     0.010 C 
BRANCH  14  15
HETATM   15  C8  UNL     1      26.950  22.186  35.410  1.00  0.00     0.002 C 
BRANCH  15  16
HETATM   16  C7  UNL     1      26.266  23.299  36.225  1.00  0.00     0.020 C 
BRANCH  16  17
HETATM   17  C6  UNL     1      26.056  22.882  37.641  1.00  0.00     0.125 C 
BRANCH  17  18
HETATM   18  N1  UNL     1      24.668  23.031  37.997  1.00  0.00    -0.337 N 
HETATM   19  C5  UNL     1      24.169  23.366  39.267  1.00  0.00     0.361 C 
HETATM   20  O2  UNL     1      24.882  23.587  40.277  1.00  0.00    -0.238 OA
ATOM     21  H1  UNL     1      23.983  22.879  37.257  1.00  0.00     0.164 HD
BRANCH  19  22
HETATM   22  O1  UNL     1      22.786  23.485  39.510  1.00  0.00    -0.294 OA
BRANCH  22  23
HETATM   23  C2  UNL     1      21.981  24.406  38.838  1.00  0.00     0.061 C 
HETATM   24  C1  UNL     1      22.738  25.356  37.962  1.00  0.00     0.046 C 
HETATM   25  C3  UNL     1      21.044  23.610  37.937  1.00  0.00     0.046 C 
HETATM   26  C4  UNL     1      21.104  25.215  39.763  1.00  0.00     0.046 C 
ENDBRANCH  22  23
ENDBRANCH  19  22
ENDBRANCH  17  18
ENDBRANCH  16  17
ENDBRANCH  15  16
ENDBRANCH  14  15
ENDBRANCH   1  14
BRANCH   3  27
HETATM   27  C13 UNL     1      27.493  17.760  33.370  1.00  0.00     0.177 C 
HETATM   28  O3  UNL     1      26.362  17.535  32.907  1.00  0.00    -0.648 OA
HETATM   29  O4  UNL     1      28.184  16.700  33.951  1.00  0.00    -0.648 OA
ENDBRANCH   3  27
TORSDOF 8
ENDMDL
MODEL 4
REMARK VINA RESULT: -8.173451549      1.641      4.078
REMARK  8 active torsions:
REMARK  status: ('A' for Active; 'I' for Inactive)
REMARK    1  A    between atoms: C2_2  and  O1_5 
REMARK    2  A    between atoms: O1_5  and  C5_6 
REMARK       I    between atoms: C5_6  and  N1_8 
REMARK    3  A    between atoms: N1_8  and  C6_10 
REMARK    4  A    between atoms: C6_10  and  C7_11 
REMARK    5  A    between atoms: C7_11  and  C8_12 
REMARK    6  A    between atoms: C8_12  and  C9_13 
REMARK    7  A    between atoms: C9_13  and  C10_14 
REMARK    8  A    between atoms: C12_16  and  C13_17 
ROOT
HETATM    1  C10 UNL     1      27.484  20.084  32.086  1.00  0.00    -0.038 C 
HETATM    2  C11 UNL     1      27.524  18.635  31.756  1.00  0.00     0.025 C 
HETATM    3  C12 UNL     1      28.657  18.182  30.903  1.00  0.00     0.088 C 
HETATM    4  C14 UNL     1      29.287  19.244  30.044  1.00  0.00     0.020 C 
HETATM    5  C15 UNL     1      29.552  20.539  30.711  1.00  0.00    -0.002 C 
HETATM    6  C16 UNL     1      28.912  20.548  32.097  1.00  0.00     0.015 C 
HETATM    7  C17 UNL     1      29.291  21.786  29.992  1.00  0.00     0.060 C 
HETATM    8  C18 UNL     1      28.585  21.753  28.693  1.00  0.00     0.013 C 
HETATM    9  C19 UNL     1      27.097  21.796  28.987  1.00  0.00     0.013 C 
HETATM   10  C20 UNL     1      27.004  22.035  30.501  1.00  0.00     0.056 C 
HETATM   11  C21 UNL     1      26.561  20.834  31.202  1.00  0.00     0.021 C 
HETATM   12  C22 UNL     1      28.309  22.612  30.800  1.00  0.00     0.135 C 
HETATM   13  O5  UNL     1      28.544  23.555  31.541  1.00  0.00    -0.297 OA
ENDROOT
BRANCH   1  14
HETATM   14  C9  UNL     1      27.007  20.243  33.512  1.00  0.00     0.010 C 
BRANCH  14  15
HETATM   15  C8  UNL     1      27.618  21.359  34.273  1.00  0.00     0.002 C 
BRANCH  15  16
HETATM   16  C7  UNL     1      26.509  22.417  34.430  1.00  0.00     0.020 C 
BRANCH  16  17
HETATM   17  C6  UNL     1      26.526  23.020  35.793  1.00  0.00     0.125 C 
BRANCH  17  18
HETATM   18  N1  UNL     1      25.238  22.858  36.419  1.00  0.00    -0.337 N 
HETATM   19  C5  UNL     1      24.960  22.986  37.790  1.00  0.00     0.361 C 
HETATM   20  O2  UNL     1      25.815  23.266  38.667  1.00  0.00    -0.238 OA
ATOM     21  H1  UNL     1      24.454  22.630  35.808  1.00  0.00     0.164 HD
BRANCH  19  22
HETATM   22  O1  UNL     1      23.660  22.804  38.301  1.00  0.00    -0.294 OA
BRANCH  22  23
HETATM   23  C2  UNL     1      22.760  23.860  38.460  1.00  0.00     0.061 C 
HETATM   24  C1  UNL     1      21.337  23.502  38.160  1.00  0.00     0.046 C 
HETATM   25  C3  UNL     1      22.821  24.286  39.921  1.00  0.00     0.046 C 
HETATM   26  C4  UNL     1      23.122  25.076  37.641  1.00  0.00     0.046 C 
ENDBRANCH  22  23
ENDBRANCH  19  22
ENDBRANCH  17  18
ENDBRANCH  16  17
ENDBRANCH  15  16
ENDBRANCH  14  15
ENDBRANCH   1  14
BRANCH   3  27
HETATM   27  C13 UNL     1      28.225  17.006  30.102  1.00  0.00     0.177 C 
HETATM   28  O3  UNL     1      27.083  16.542  30.260  1.00  0.00    -0.648 OA
HETATM   29  O4  UNL     1      29.056  16.392  29.171  1.00  0.00    -0.648 OA
ENDBRANCH   3  27
TORSDOF 8
ENDMDL
MODEL 5
REMARK VINA RESULT: -8.059443096      2.465      3.764
REMARK  8 active torsions:
REMARK  status: ('A' for Active; 'I' for Inactive)
REMARK    1  A    between atoms: C2_2  and  O1_5 
REMARK    2  A    between atoms: O1_5  and  C5_6 
REMARK       I    between atoms: C5_6  and  N1_8 
REMARK    3  A    between atoms: N1_8  and  C6_10 
REMARK    4  A    between atoms: C6_10  and  C7_11 
REMARK    5  A    between atoms: C7_11  and  C8_12 
REMARK    6  A    between atoms: C8_12  and  C9_13 
REMARK    7  A    between atoms: C9_13  and  C10_14 
REMARK    8  A    between atoms: C12_16  and  C13_17 
ROOT
HETATM    1  C10 UNL     1      28.349  19.700  32.340  1.00  0.00    -0.038 C 
HETATM    2  C11 UNL     1      29.220  20.059  31.189  1.00  0.00     0.025 C 
HETATM    3  C12 UNL     1      28.867  19.447  29.878  1.00  0.00     0.088 C 
HETATM    4  C14 UNL     1      28.074  18.171  29.950  1.00  0.00     0.020 C 
HETATM    5  C15 UNL     1      26.945  18.167  30.907  1.00  0.00    -0.002 C 
HETATM    6  C16 UNL     1      26.989  19.429  31.765  1.00  0.00     0.015 C 
HETATM    7  C17 UNL     1      26.694  16.975  31.720  1.00  0.00     0.060 C 
HETATM    8  C18 UNL     1      27.675  15.869  31.726  1.00  0.00     0.013 C 
HETATM    9  C19 UNL     1      28.706  16.185  32.794  1.00  0.00     0.013 C 
HETATM   10  C20 UNL     1      28.160  17.431  33.507  1.00  0.00     0.056 C 
HETATM   11  C21 UNL     1      28.935  18.620  33.168  1.00  0.00     0.021 C 
HETATM   12  C22 UNL     1      26.740  17.371  33.182  1.00  0.00     0.135 C 
HETATM   13  O5  UNL     1      25.804  17.593  33.936  1.00  0.00    -0.297 OA
ENDROOT
BRANCH   1  14
HETATM   14  C9  UNL     1      28.173  20.922  33.212  1.00  0.00     0.010 C 
BRANCH  14  15
HETATM   15  C8  UNL     1      26.911  21.676  33.014  1.00  0.00     0.002 C 
BRANCH  15  16
HETATM   16  C7  UNL     1      26.839  22.687  34.174  1.00  0.00     0.020 C 
BRANCH  16  17
HETATM   17  C6  UNL     1      26.253  22.067  35.396  1.00  0.00     0.125 C 
BRANCH  17  18
HETATM   18  N1  UNL     1      25.270  22.949  35.972  1.00  0.00    -0.337 N 
HETATM   19  C5  UNL     1      25.264  23.438  37.289  1.00  0.00     0.361 C 
HETATM   20  O2  UNL     1      26.135  23.168  38.153  1.00  0.00    -0.238 OA
ATOM     21  H1  UNL     1      24.505  23.246  35.366  1.00  0.00     0.164 HD
BRANCH  19  22
HETATM   22  O1  UNL     1      24.249  24.298  37.755  1.00  0.00    -0.294 OA
BRANCH  22  23
HETATM   23  C2  UNL     1      23.263  23.879  38.649  1.00  0.00     0.061 C 
HETATM   24  C1  UNL     1      23.787  23.466  39.991  1.00  0.00     0.046 C 
HETATM   25  C3  UNL     1      22.328  25.062  38.874  1.00  0.00     0.046 C 
HETATM   26  C4  UNL     1      22.411  22.755  38.110  1.00  0.00     0.046 C 
ENDBRANCH  22  23
ENDBRANCH  19  22
ENDBRANCH  17  18
ENDBRANCH  16  17
ENDBRANCH  15  16
ENDBRANCH  14  15
ENDBRANCH   1  14
BRANCH   3  27
HETATM   27  C13 UNL     1      30.102  19.287  29.066  1.00  0.00     0.177 C 
HETATM   28  O3  UNL     1      30.730  20.295  28.700  1.00  0.00    -0.648 OA
HETATM   29  O4  UNL     1      30.594  18.040  28.693  1.00  0.00    -0.648 OA
ENDBRANCH   3  27
TORSDOF 8
ENDMDL
