MODEL 1
REMARK VINA RESULT: -8.038792980      0.000      0.000
REMARK  8 active torsions:
REMARK  status: ('A' for Active; 'I' for Inactive)
REMARK    1  A    between atoms: C6_6  and  O1_7 
REMARK    2  A    between atoms: C8_10  and  C9_11 
REMARK    3  A    between atoms: N1_23  and  O3_25 
REMARK    4  A    between atoms: O3_25  and  C20_26 
REMARK    5  A    between atoms: C20_26  and  C21_27 
REMARK    6  A    between atoms: C21_27  and  C22_28 
REMARK    7  A    between atoms: C22_28  and  C23_29 
REMARK    8  A    between atoms: C23_29  and  O4_30 
ROOT
HETATM    1  C1  UNL     1      21.872  22.612  38.820  1.00  0.00     0.022 C 
HETATM    2  C2  UNL     1      22.583  23.916  38.801  1.00  0.00     0.001 C 
HETATM    3  C3  UNL     1      23.269  24.139  40.126  1.00  0.00     0.016 C 
HETATM    4  C4  UNL     1      24.224  23.034  40.356  1.00  0.00     0.009 C 
HETATM    5  C5  UNL     1      25.098  22.626  39.256  1.00  0.00     0.019 C 
HETATM    6  C6  UNL     1      26.496  23.227  39.472  1.00  0.00     0.123 C 
HETATM    7  C7  UNL     1      27.103  22.883  38.119  1.00  0.00     0.041 C 
HETATM    8  C8  UNL     1      26.026  23.414  37.198  1.00  0.00     0.022 C 
HETATM    9  C15 UNL     1      24.729  23.007  37.866  1.00  0.00     0.005 C 
HETATM   10  C16 UNL     1      23.643  23.999  37.729  1.00  0.00     0.005 C 
HETATM   11  C17 UNL     1      24.032  25.437  37.793  1.00  0.00     0.012 C 
HETATM   12  C18 UNL     1      22.698  26.131  37.931  1.00  0.00     0.056 C 
HETATM   13  C19 UNL     1      21.751  25.095  38.512  1.00  0.00     0.018 C 
HETATM   14  N1  UNL     1      20.526  25.370  38.651  1.00  0.00    -0.274 N 
ATOM     15  H1  UNL     1      20.244  26.301  38.346  1.00  0.00     0.193 HD
ENDROOT
BRANCH  14  16
HETATM   16  O3  UNL     1      19.547  24.596  39.148  1.00  0.00    -0.281 OA
BRANCH  16  17
HETATM   17  C20 UNL     1      18.808  24.922  40.309  1.00  0.00     0.201 C 
BRANCH  17  18
HETATM   18  C21 UNL     1      18.102  26.226  40.120  1.00  0.00     0.031 C 
BRANCH  18  19
HETATM   19  C22 UNL     1      18.783  27.327  40.846  1.00  0.00     0.028 C 
BRANCH  19  20
HETATM   20  C23 UNL     1      19.298  28.385  39.867  1.00  0.00     0.164 C 
BRANCH  20  21
HETATM   21  O4  UNL     1      20.710  28.402  39.914  1.00  0.00    -0.401 OA
ATOM     22  H4  UNL     1      21.014  29.281  39.722  1.00  0.00     0.209 HD
ENDBRANCH  20  21
ENDBRANCH  19  20
ENDBRANCH  18  19
ENDBRANCH  17  18
ENDBRANCH  16  17
ENDBRANCH  14  16
BRANCH   8  23
HETATM   23  C9  UNL     1      26.180  22.910  35.823  1.00  0.00    -0.072 C 
HETATM   24  C10 UNL     1      26.751  21.711  35.608  1.00  0.00     0.053 C 
HETATM   25  C11 UNL     1      26.884  21.249  34.234  1.00  0.00     0.149 C 
HETATM   26  O2  UNL     1      26.615  20.031  33.972  1.00  0.00    -0.293 OA
HETATM   27  C12 UNL     1      27.328  22.228  33.215  1.00  0.00     0.083 C 
HETATM   28  C13 UNL     1      26.674  23.536  33.459  1.00  0.00     0.012 C 
HETATM   29  C14 UNL     1      25.747  23.627  34.613  1.00  0.00     0.035 C 
ENDBRANCH   8  23
BRANCH   6  30
HETATM   30  O1  UNL     1      27.148  22.504  40.442  1.00  0.00    -0.395 OA
ATOM     31  H1  UNL     1      27.379  23.085  41.157  1.00  0.00     0.210 HD
ENDBRANCH   6  30
TORSDOF 8
ENDMDL
MODEL 2
REMARK VINA RESULT: -7.369705572      4.788     11.926
REMARK  8 active torsions:
REMARK  status: ('A' for Active; 'I' for Inactive)
REMARK    1  A    between atoms: C6_6  and  O1_7 
REMARK    2  A    between atoms: C8_10  and  C9_11 
REMARK    3  A    between atoms: N1_23  and  O3_25 
REMARK    4  A    between atoms: O3_25  and  C20_26 
REMARK    5  A    between atoms: C20_26  and  C21_27 
REMARK    6  A    between atoms: C21_27  and  C22_28 
REMARK    7  A    between atoms: C22_28  and  C23_29 
REMARK    8  A    between atoms: C23_29  and  O4_30 
ROOT
HETATM    1  C1  UNL     1      17.284  24.789  40.892  1.00  0.00     0.022 C 
HETATM    2  C2  UNL     1      16.994  26.210  40.572  1.00  0.00     0.001 C 
HETATM    3  C3  UNL     1      16.519  26.322  39.145  1.00  0.00     0.016 C 
HETATM    4  C4  UNL     1      15.302  25.498  38.985  1.00  0.00     0.009 C 
HETATM    5  C5  UNL     1      14.256  25.591  40.005  1.00  0.00     0.019 C 
HETATM    6  C6  UNL     1      13.123  26.491  39.486  1.00  0.00     0.123 C 
HETATM    7  C7  UNL     1      12.330  26.625  40.779  1.00  0.00     0.041 C 
HETATM    8  C8  UNL     1      13.435  27.026  41.733  1.00  0.00     0.022 C 
HETATM    9  C15 UNL     1      14.604  26.146  41.341  1.00  0.00     0.005 C 
HETATM   10  C16 UNL     1      15.920  26.808  41.450  1.00  0.00     0.005 C 
HETATM   11  C17 UNL     1      15.982  28.249  41.072  1.00  0.00     0.012 C 
HETATM   12  C18 UNL     1      17.468  28.505  41.003  1.00  0.00     0.056 C 
HETATM   13  C19 UNL     1      18.111  27.149  40.760  1.00  0.00     0.018 C 
HETATM   14  N1  UNL     1      19.369  27.042  40.749  1.00  0.00    -0.274 N 
ATOM     15  H1  UNL     1      19.889  27.903  40.918  1.00  0.00     0.193 HD
ENDROOT
BRANCH  14  16
HETATM   16  O3  UNL     1      20.112  25.941  40.545  1.00  0.00    -0.281 OA
BRANCH  16  17
HETATM   17  C20 UNL     1      20.881  25.724  39.378  1.00  0.00     0.201 C 
BRANCH  17  18
HETATM   18  C21 UNL     1      20.182  24.759  38.474  1.00  0.00     0.031 C 
BRANCH  18  19
HETATM   19  C22 UNL     1      20.816  23.418  38.510  1.00  0.00     0.028 C 
BRANCH  19  20
HETATM   20  C23 UNL     1      22.341  23.541  38.565  1.00  0.00     0.164 C 
BRANCH  20  21
HETATM   21  O4  UNL     1      22.913  22.483  37.823  1.00  0.00    -0.401 OA
ATOM     22  H4  UNL     1      22.274  22.169  37.194  1.00  0.00     0.209 HD
ENDBRANCH  20  21
ENDBRANCH  19  20
ENDBRANCH  18  19
ENDBRANCH  17  18
ENDBRANCH  16  17
ENDBRANCH  14  16
BRANCH   8  23
HETATM   23  C9  UNL     1      13.023  26.891  43.140  1.00  0.00    -0.072 C 
HETATM   24  C10 UNL     1      13.180  27.923  43.988  1.00  0.00     0.053 C 
HETATM   25  C11 UNL     1      12.758  27.748  45.370  1.00  0.00     0.149 C 
HETATM   26  O2  UNL     1      12.125  28.698  45.938  1.00  0.00    -0.293 OA
HETATM   27  C12 UNL     1      13.091  26.470  46.038  1.00  0.00     0.083 C 
HETATM   28  C13 UNL     1      12.894  25.344  45.094  1.00  0.00     0.012 C 
HETATM   29  C14 UNL     1      12.427  25.679  43.727  1.00  0.00     0.035 C 
ENDBRANCH   8  23
BRANCH   6  30
HETATM   30  O1  UNL     1      12.370  25.784  38.581  1.00  0.00    -0.395 OA
ATOM     31  H1  UNL     1      12.497  26.156  37.716  1.00  0.00     0.210 HD
ENDBRANCH   6  30
TORSDOF 8
ENDMDL
MODEL 3
REMARK VINA RESULT: -7.189933896      4.691     11.832
REMARK  8 active torsions:
REMARK  status: ('A' for Active; 'I' for Inactive)
REMARK    1  A    between atoms: C6_6  and  O1_7 
REMARK    2  A    between atoms: C8_10  and  C9_11 
REMARK    3  A    between atoms: N1_23  and  O3_25 
REMARK    4  A    between atoms: O3_25  and  C20_26 
REMARK    5  A    between atoms: C20_26  and  C21_27 
REMARK    6  A    between atoms: C21_27  and  C22_28 
REMARK    7  A    between atoms: C22_28  and  C23_29 
REMARK    8  A    between atoms: C23_29  and  O4_30 
ROOT
HETATM    1  C1  UNL     1      17.427  24.843  40.944  1.00  0.00     0.022 C 
HETATM    2  C2  UNL     1      17.203  26.250  40.522  1.00  0.00     0.001 C 
HETATM    3  C3  UNL     1      16.675  26.277  39.109  1.00  0.00     0.016 C 
HETATM    4  C4  UNL     1      15.408  25.516  39.063  1.00  0.00     0.009 C 
HETATM    5  C5  UNL     1      14.414  25.750  40.110  1.00  0.00     0.019 C 
HETATM    6  C6  UNL     1      13.312  26.672  39.563  1.00  0.00     0.123 C 
HETATM    7  C7  UNL     1      12.582  26.955  40.870  1.00  0.00     0.041 C 
HETATM    8  C8  UNL     1      13.748  27.363  41.746  1.00  0.00     0.022 C 
HETATM    9  C15 UNL     1      14.848  26.388  41.383  1.00  0.00     0.005 C 
HETATM   10  C16 UNL     1      16.202  26.977  41.388  1.00  0.00     0.005 C 
HETATM   11  C17 UNL     1      16.328  28.378  40.892  1.00  0.00     0.012 C 
HETATM   12  C18 UNL     1      17.823  28.539  40.746  1.00  0.00     0.056 C 
HETATM   13  C19 UNL     1      18.378  27.133  40.590  1.00  0.00     0.018 C 
HETATM   14  N1  UNL     1      19.626  26.952  40.541  1.00  0.00    -0.274 N 
ATOM     15  H1  UNL     1      20.200  27.791  40.619  1.00  0.00     0.193 HD
ENDROOT
BRANCH  14  16
HETATM   16  O3  UNL     1      20.298  25.796  40.398  1.00  0.00    -0.281 OA
BRANCH  16  17
HETATM   17  C20 UNL     1      21.062  25.473  39.253  1.00  0.00     0.201 C 
BRANCH  17  18
HETATM   18  C21 UNL     1      20.317  24.500  38.396  1.00  0.00     0.031 C 
BRANCH  18  19
HETATM   19  C22 UNL     1      21.087  23.247  38.197  1.00  0.00     0.028 C 
BRANCH  19  20
HETATM   20  C23 UNL     1      22.519  23.555  37.753  1.00  0.00     0.164 C 
BRANCH  20  21
HETATM   21  O4  UNL     1      23.277  22.363  37.791  1.00  0.00    -0.401 OA
ATOM     22  H4  UNL     1      22.768  21.690  38.227  1.00  0.00     0.209 HD
ENDBRANCH  20  21
ENDBRANCH  19  20
ENDBRANCH  18  19
ENDBRANCH  17  18
ENDBRANCH  16  17
ENDBRANCH  14  16
BRANCH   8  23
HETATM   23  C9  UNL     1      13.388  27.364  43.174  1.00  0.00    -0.072 C 
HETATM   24  C10 UNL     1      12.776  26.294  43.713  1.00  0.00     0.053 C 
HETATM   25  C11 UNL     1      12.438  26.335  45.128  1.00  0.00     0.149 C 
HETATM   26  O2  UNL     1      12.650  25.295  45.835  1.00  0.00    -0.293 OA
HETATM   27  C12 UNL     1      11.865  27.589  45.666  1.00  0.00     0.083 C 
HETATM   28  C13 UNL     1      12.565  28.755  45.075  1.00  0.00     0.012 C 
HETATM   29  C14 UNL     1      13.651  28.474  44.104  1.00  0.00     0.035 C 
ENDBRANCH   8  23
BRANCH   6  30
HETATM   30  O1  UNL     1      12.483  25.941  38.747  1.00  0.00    -0.395 OA
ATOM     31  H1  UNL     1      11.627  25.878  39.154  1.00  0.00     0.210 HD
ENDBRANCH   6  30
TORSDOF 8
ENDMDL
MODEL 4
REMARK VINA RESULT: -7.037893340      4.849     10.331
REMARK  8 active torsions:
REMARK  status: ('A' for Active; 'I' for Inactive)
REMARK    1  A    between atoms: C6_6  and  O1_7 
REMARK    2  A    between atoms: C8_10  and  C9_11 
REMARK    3  A    between atoms: N1_23  and  O3_25 
REMARK    4  A    between atoms: O3_25  and  C20_26 
REMARK    5  A    between atoms: C20_26  and  C21_27 
REMARK    6  A    between atoms: C21_27  and  C22_28 
REMARK    7  A    between atoms: C22_28  and  C23_29 
REMARK    8  A    between atoms: C23_29  and  O4_30 
ROOT
HETATM    1  C1  UNL     1      26.120  20.321  30.330  1.00  0.00     0.022 C 
HETATM    2  C2  UNL     1      27.463  20.867  30.653  1.00  0.00     0.001 C 
HETATM    3  C3  UNL     1      27.812  21.965  29.680  1.00  0.00     0.016 C 
HETATM    4  C4  UNL     1      26.786  23.026  29.778  1.00  0.00     0.009 C 
HETATM    5  C5  UNL     1      26.367  23.472  31.107  1.00  0.00     0.019 C 
HETATM    6  C6  UNL     1      27.068  24.799  31.439  1.00  0.00     0.123 C 
HETATM    7  C7  UNL     1      26.680  24.900  32.908  1.00  0.00     0.041 C 
HETATM    8  C8  UNL     1      27.083  23.522  33.388  1.00  0.00     0.022 C 
HETATM    9  C15 UNL     1      26.637  22.594  32.277  1.00  0.00     0.005 C 
HETATM   10  C16 UNL     1      27.546  21.454  32.042  1.00  0.00     0.005 C 
HETATM   11  C17 UNL     1      29.007  21.721  32.175  1.00  0.00     0.012 C 
HETATM   12  C18 UNL     1      29.621  20.475  31.583  1.00  0.00     0.056 C 
HETATM   13  C19 UNL     1      28.566  19.892  30.659  1.00  0.00     0.018 C 
HETATM   14  N1  UNL     1      28.770  18.783  30.091  1.00  0.00    -0.274 N 
ATOM     15  H1  UNL     1      29.660  18.333  30.303  1.00  0.00     0.193 HD
ENDROOT
BRANCH  14  16
HETATM   16  O3  UNL     1      27.968  18.118  29.242  1.00  0.00    -0.281 OA
BRANCH  16  17
HETATM   17  C20 UNL     1      28.004  16.715  29.071  1.00  0.00     0.201 C 
BRANCH  17  18
HETATM   18  C21 UNL     1      26.910  16.072  29.863  1.00  0.00     0.031 C 
BRANCH  18  19
HETATM   19  C22 UNL     1      27.425  15.475  31.121  1.00  0.00     0.028 C 
BRANCH  19  20
HETATM   20  C23 UNL     1      26.903  16.243  32.338  1.00  0.00     0.164 C 
BRANCH  20  21
HETATM   21  O4  UNL     1      26.337  17.462  31.902  1.00  0.00    -0.401 OA
ATOM     22  H4  UNL     1      27.011  18.130  31.899  1.00  0.00     0.209 HD
ENDBRANCH  20  21
ENDBRANCH  19  20
ENDBRANCH  18  19
ENDBRANCH  17  18
ENDBRANCH  16  17
ENDBRANCH  14  16
BRANCH   8  23
HETATM   23  C9  UNL     1      26.504  23.209  34.706  1.00  0.00    -0.072 C 
HETATM   24  C10 UNL     1      25.416  23.872  35.136  1.00  0.00     0.053 C 
HETATM   25  C11 UNL     1      24.875  23.531  36.443  1.00  0.00     0.149 C 
HETATM   26  O2  UNL     1      23.611  23.428  36.572  1.00  0.00    -0.293 OA
HETATM   27  C12 UNL     1      25.832  23.323  37.554  1.00  0.00     0.083 C 
HETATM   28  C13 UNL     1      27.015  22.576  37.064  1.00  0.00     0.012 C 
HETATM   29  C14 UNL     1      27.030  22.192  35.632  1.00  0.00     0.035 C 
ENDBRANCH   8  23
BRANCH   6  30
HETATM   30  O1  UNL     1      26.451  25.815  30.751  1.00  0.00    -0.395 OA
ATOM     31  H1  UNL     1      27.104  26.292  30.253  1.00  0.00     0.210 HD
ENDBRANCH   6  30
TORSDOF 8
ENDMDL
MODEL 5
REMARK VINA RESULT: -7.024043779     11.063     13.842
REMARK  8 active torsions:
REMARK  status: ('A' for Active; 'I' for Inactive)
REMARK    1  A    between atoms: C6_6  and  O1_7 
REMARK    2  A    between atoms: C8_10  and  C9_11 
REMARK    3  A    between atoms: N1_23  and  O3_25 
REMARK    4  A    between atoms: O3_25  and  C20_26 
REMARK    5  A    between atoms: C20_26  and  C21_27 
REMARK    6  A    between atoms: C21_27  and  C22_28 
REMARK    7  A    between atoms: C22_28  and  C23_29 
REMARK    8  A    between atoms: C23_29  and  O4_30 
ROOT
HETATM    1  C1  UNL     1      12.073  19.163  35.503  1.00  0.00     0.022 C 
HETATM    2  C2  UNL     1      11.163  18.868  36.639  1.00  0.00     0.001 C 
HETATM    3  C3  UNL     1      11.578  17.575  37.298  1.00  0.00     0.016 C 
HETATM    4  C4  UNL     1      12.970  17.712  37.774  1.00  0.00     0.009 C 
HETATM    5  C5  UNL     1      13.347  18.931  38.490  1.00  0.00     0.019 C 
HETATM    6  C6  UNL     1      13.377  18.642  39.999  1.00  0.00     0.123 C 
HETATM    7  C7  UNL     1      13.530  20.071  40.502  1.00  0.00     0.041 C 
HETATM    8  C8  UNL     1      12.414  20.747  39.734  1.00  0.00     0.022 C 
HETATM    9  C15 UNL     1      12.491  20.140  38.349  1.00  0.00     0.005 C 
HETATM   10  C16 UNL     1      11.177  19.937  37.705  1.00  0.00     0.005 C 
HETATM   11  C17 UNL     1      10.055  19.507  38.587  1.00  0.00     0.012 C 
HETATM   12  C18 UNL     1       8.993  19.107  37.592  1.00  0.00     0.056 C 
HETATM   13  C19 UNL     1       9.733  18.775  36.307  1.00  0.00     0.018 C 
HETATM   14  N1  UNL     1       9.083  18.494  35.261  1.00  0.00    -0.274 N 
ATOM     15  H1  UNL     1       8.068  18.517  35.350  1.00  0.00     0.193 HD
ENDROOT
BRANCH  14  16
HETATM   16  O3  UNL     1       9.556  18.170  34.045  1.00  0.00    -0.281 OA
BRANCH  16  17
HETATM   17  C20 UNL     1       8.951  18.585  32.836  1.00  0.00     0.201 C 
BRANCH  17  18
HETATM   18  C21 UNL     1       8.811  20.074  32.816  1.00  0.00     0.031 C 
BRANCH  18  19
HETATM   19  C22 UNL     1      10.063  20.736  32.374  1.00  0.00     0.028 C 
BRANCH  19  20
HETATM   20  C23 UNL     1      10.607  21.654  33.472  1.00  0.00     0.164 C 
BRANCH  20  21
HETATM   21  O4  UNL     1       9.885  22.868  33.453  1.00  0.00    -0.401 OA
ATOM     22  H4  UNL     1      10.242  23.448  34.114  1.00  0.00     0.209 HD
ENDBRANCH  20  21
ENDBRANCH  19  20
ENDBRANCH  18  19
ENDBRANCH  17  18
ENDBRANCH  16  17
ENDBRANCH  14  16
BRANCH   8  23
HETATM   23  C9  UNL     1      12.540  22.214  39.759  1.00  0.00    -0.072 C 
HETATM   24  C10 UNL     1      13.589  22.808  39.160  1.00  0.00     0.053 C 
HETATM   25  C11 UNL     1      13.675  24.259  39.206  1.00  0.00     0.149 C 
HETATM   26  O2  UNL     1      14.018  24.883  38.148  1.00  0.00    -0.293 OA
HETATM   27  C12 UNL     1      13.359  24.931  40.487  1.00  0.00     0.083 C 
HETATM   28  C13 UNL     1      12.191  24.274  41.122  1.00  0.00     0.012 C 
HETATM   29  C14 UNL     1      11.583  23.128  40.403  1.00  0.00     0.035 C 
ENDBRANCH   8  23
BRANCH   6  30
HETATM   30  O1  UNL     1      14.523  17.946  40.298  1.00  0.00    -0.395 OA
ATOM     31  H1  UNL     1      14.341  17.344  41.010  1.00  0.00     0.210 HD
ENDBRANCH   6  30
TORSDOF 8
ENDMDL
