MODEL 1
REMARK VINA RESULT: -7.507929628      0.000      0.000
REMARK  9 active torsions:
REMARK  status: ('A' for Active; 'I' for Inactive)
REMARK    1  A    between atoms: N1_8  and  C8_9 
REMARK    2  A    between atoms: C8_9  and  C9_10 
REMARK    3  A    between atoms: C9_10  and  C10_11 
REMARK    4  A    between atoms: C10_11  and  C11_12 
REMARK    5  A    between atoms: C12_13  and  C13_14 
REMARK    6  A    between atoms: C13_14  and  C14_15 
REMARK    7  A    between atoms: C15_16  and  O1_17 
REMARK    8  A    between atoms: C17_20  and  O2_21 
REMARK    9  A    between atoms: C19_24  and  N2_25 
ROOT
HETATM    1  C14 UNL     1     -14.178   2.199 -13.941  1.00  0.00     0.013 A 
HETATM    2  C15 UNL     1     -13.743   1.827 -12.662  1.00  0.00     0.077 A 
HETATM    3  C16 UNL     1     -12.792   2.539 -11.976  1.00  0.00     0.073 A 
HETATM    4  C17 UNL     1     -12.229   3.661 -12.540  1.00  0.00     0.070 A 
HETATM    5  C18 UNL     1     -12.642   4.037 -13.786  1.00  0.00     0.066 A 
HETATM    6  C19 UNL     1     -13.613   3.307 -14.480  1.00  0.00     0.042 A 
ENDROOT
BRANCH   1   7
HETATM    7  C13 UNL     1     -15.212   1.345 -14.543  1.00  0.00     0.137 C 
BRANCH   7   8
HETATM    8  C12 UNL     1     -16.525   2.041 -14.562  1.00  0.00    -0.102 C 
HETATM    9  C11 UNL     1     -17.580   2.628 -14.567  1.00  0.00    -0.106 C 
BRANCH   9  10
HETATM   10  C10 UNL     1     -18.835   3.358 -14.571  1.00  0.00     0.095 C 
BRANCH  10  11
HETATM   11  C9  UNL     1     -19.639   3.109 -13.314  1.00  0.00     0.031 C 
BRANCH  11  12
HETATM   12  C8  UNL     1     -20.953   2.473 -13.782  1.00  0.00     0.118 C 
BRANCH  12  13
HETATM   13  N1  UNL     1     -21.439   1.630 -12.745  1.00  0.00    -0.405 N 
HETATM   14  C2  UNL     1     -20.826   0.358 -12.652  1.00  0.00     0.075 C 
HETATM   15  C1  UNL     1     -20.490  -0.310 -13.939  1.00  0.00     0.032 C 
HETATM   16  C3  UNL     1     -21.671  -0.553 -11.784  1.00  0.00     0.024 C 
HETATM   17  C4  UNL     1     -23.022  -0.801 -12.426  1.00  0.00     0.004 C 
HETATM   18  C5  UNL     1     -23.624   0.486 -12.903  1.00  0.00     0.024 C 
HETATM   19  C6  UNL     1     -22.827   1.694 -12.481  1.00  0.00     0.075 C 
HETATM   20  C7  UNL     1     -23.512   2.906 -13.070  1.00  0.00     0.032 C 
ENDBRANCH  12  13
ENDBRANCH  11  12
ENDBRANCH  10  11
ENDBRANCH   9  10
ENDBRANCH   7   8
ENDBRANCH   1   7
BRANCH   2  21
HETATM   21  O1  UNL     1     -14.276   0.711 -12.054  1.00  0.00    -0.360 OA
ATOM     22  H1  UNL     1     -13.836   0.324 -11.307  1.00  0.00     0.217 HD
ENDBRANCH   2  21
BRANCH   6  23
HETATM   23  N2  UNL     1     -13.931   3.798 -15.773  1.00  0.00    -0.380 N 
HETATM   24  C20 UNL     1     -13.335   3.212 -16.936  1.00  0.00     0.123 C 
HETATM   25  C21 UNL     1     -14.307   3.169 -18.083  1.00  0.00     0.020 C 
HETATM   26  C22 UNL     1     -14.702   4.616 -18.353  1.00  0.00     0.003 C 
HETATM   27  C23 UNL     1     -15.426   5.195 -17.168  1.00  0.00     0.020 C 
HETATM   28  C24 UNL     1     -14.837   4.895 -15.850  1.00  0.00     0.123 C 
ENDBRANCH   6  23
BRANCH   4  29
HETATM   29  O2  UNL     1     -11.269   4.378 -11.846  1.00  0.00    -0.361 OA
ATOM     30  H2  UNL     1     -10.605   4.866 -12.319  1.00  0.00     0.217 HD
ENDBRANCH   4  29
TORSDOF 9
ENDMDL
MODEL 2
REMARK VINA RESULT: -7.103950516      6.457      9.045
REMARK  9 active torsions:
REMARK  status: ('A' for Active; 'I' for Inactive)
REMARK    1  A    between atoms: N1_8  and  C8_9 
REMARK    2  A    between atoms: C8_9  and  C9_10 
REMARK    3  A    between atoms: C9_10  and  C10_11 
REMARK    4  A    between atoms: C10_11  and  C11_12 
REMARK    5  A    between atoms: C12_13  and  C13_14 
REMARK    6  A    between atoms: C13_14  and  C14_15 
REMARK    7  A    between atoms: C15_16  and  O1_17 
REMARK    8  A    between atoms: C17_20  and  O2_21 
REMARK    9  A    between atoms: C19_24  and  N2_25 
ROOT
HETATM    1  C14 UNL     1     -14.932  -5.488 -10.933  1.00  0.00     0.013 A 
HETATM    2  C15 UNL     1     -15.397  -6.348 -11.937  1.00  0.00     0.077 A 
HETATM    3  C16 UNL     1     -14.735  -7.499 -12.279  1.00  0.00     0.073 A 
HETATM    4  C17 UNL     1     -13.572  -7.846 -11.630  1.00  0.00     0.070 A 
HETATM    5  C18 UNL     1     -13.105  -7.018 -10.649  1.00  0.00     0.066 A 
HETATM    6  C19 UNL     1     -13.786  -5.846 -10.305  1.00  0.00     0.042 A 
ENDROOT
BRANCH   1   7
HETATM    7  C13 UNL     1     -15.757  -4.298 -10.672  1.00  0.00     0.137 C 
BRANCH   7   8
HETATM    8  C12 UNL     1     -15.283  -3.142 -11.477  1.00  0.00    -0.102 C 
HETATM    9  C11 UNL     1     -14.923  -2.197 -12.135  1.00  0.00    -0.106 C 
BRANCH   9  10
HETATM   10  C10 UNL     1     -14.515  -1.047 -12.922  1.00  0.00     0.095 C 
BRANCH  10  11
HETATM   11  C9  UNL     1     -15.286   0.199 -12.545  1.00  0.00     0.031 C 
BRANCH  11  12
HETATM   12  C8  UNL     1     -15.984   0.660 -13.830  1.00  0.00     0.118 C 
BRANCH  12  13
HETATM   13  N1  UNL     1     -16.739   1.829 -13.537  1.00  0.00    -0.405 N 
HETATM   14  C2  UNL     1     -18.084   1.610 -13.158  1.00  0.00     0.075 C 
HETATM   15  C1  UNL     1     -18.806   0.524 -13.876  1.00  0.00     0.032 C 
HETATM   16  C3  UNL     1     -18.856   2.911 -13.245  1.00  0.00     0.024 C 
HETATM   17  C4  UNL     1     -18.915   3.403 -14.679  1.00  0.00     0.004 C 
HETATM   18  C5  UNL     1     -17.560   3.336 -15.316  1.00  0.00     0.024 C 
HETATM   19  C6  UNL     1     -16.474   2.965 -14.337  1.00  0.00     0.075 C 
HETATM   20  C7  UNL     1     -15.183   2.882 -15.118  1.00  0.00     0.032 C 
ENDBRANCH  12  13
ENDBRANCH  11  12
ENDBRANCH  10  11
ENDBRANCH   9  10
ENDBRANCH   7   8
ENDBRANCH   1   7
BRANCH   2  21
HETATM   21  O1  UNL     1     -16.557  -6.045 -12.616  1.00  0.00    -0.360 OA
ATOM     22  H1  UNL     1     -17.373  -6.466 -12.371  1.00  0.00     0.217 HD
ENDBRANCH   2  21
BRANCH   6  23
HETATM   23  N2  UNL     1     -13.177  -5.069  -9.284  1.00  0.00    -0.380 N 
HETATM   24  C20 UNL     1     -13.529  -5.278  -7.911  1.00  0.00     0.123 C 
HETATM   25  C21 UNL     1     -12.334  -5.113  -7.013  1.00  0.00     0.020 C 
HETATM   26  C22 UNL     1     -11.838  -3.689  -7.230  1.00  0.00     0.003 C 
HETATM   27  C23 UNL     1     -11.367  -3.504  -8.647  1.00  0.00     0.020 C 
HETATM   28  C24 UNL     1     -12.237  -4.078  -9.690  1.00  0.00     0.123 C 
ENDBRANCH   6  23
BRANCH   4  29
HETATM   29  O2  UNL     1     -12.905  -9.009 -11.976  1.00  0.00    -0.361 OA
ATOM     30  H2  UNL     1     -12.273  -9.391 -11.378  1.00  0.00     0.217 HD
ENDBRANCH   4  29
TORSDOF 9
ENDMDL
MODEL 3
REMARK VINA RESULT: -7.015299776      0.940      2.071
REMARK  9 active torsions:
REMARK  status: ('A' for Active; 'I' for Inactive)
REMARK    1  A    between atoms: N1_8  and  C8_9 
REMARK    2  A    between atoms: C8_9  and  C9_10 
REMARK    3  A    between atoms: C9_10  and  C10_11 
REMARK    4  A    between atoms: C10_11  and  C11_12 
REMARK    5  A    between atoms: C12_13  and  C13_14 
REMARK    6  A    between atoms: C13_14  and  C14_15 
REMARK    7  A    between atoms: C15_16  and  O1_17 
REMARK    8  A    between atoms: C17_20  and  O2_21 
REMARK    9  A    between atoms: C19_24  and  N2_25 
ROOT
HETATM    1  C14 UNL     1     -15.186   1.926 -14.233  1.00  0.00     0.013 A 
HETATM    2  C15 UNL     1     -14.682   1.400 -13.036  1.00  0.00     0.077 A 
HETATM    3  C16 UNL     1     -13.555   1.901 -12.434  1.00  0.00     0.073 A 
HETATM    4  C17 UNL     1     -12.878   2.955 -13.003  1.00  0.00     0.070 A 
HETATM    5  C18 UNL     1     -13.356   3.478 -14.171  1.00  0.00     0.066 A 
HETATM    6  C19 UNL     1     -14.505   2.963 -14.779  1.00  0.00     0.042 A 
ENDROOT
BRANCH   1   7
HETATM    7  C13 UNL     1     -16.408   1.292 -14.749  1.00  0.00     0.137 C 
BRANCH   7   8
HETATM    8  C12 UNL     1     -17.600   2.131 -14.456  1.00  0.00    -0.102 C 
HETATM    9  C11 UNL     1     -18.582   2.791 -14.216  1.00  0.00    -0.106 C 
BRANCH   9  10
HETATM   10  C10 UNL     1     -19.775   3.562 -13.915  1.00  0.00     0.095 C 
BRANCH  10  11
HETATM   11  C9  UNL     1     -21.039   2.807 -14.266  1.00  0.00     0.031 C 
BRANCH  11  12
HETATM   12  C8  UNL     1     -21.468   2.096 -12.977  1.00  0.00     0.118 C 
BRANCH  12  13
HETATM   13  N1  UNL     1     -22.241   0.956 -13.329  1.00  0.00    -0.405 N 
HETATM   14  C2  UNL     1     -23.595   0.984 -12.917  1.00  0.00     0.075 C 
HETATM   15  C1  UNL     1     -23.867   1.576 -11.579  1.00  0.00     0.032 C 
HETATM   16  C3  UNL     1     -24.185  -0.408 -13.013  1.00  0.00     0.024 C 
HETATM   17  C4  UNL     1     -23.490  -1.353 -12.052  1.00  0.00     0.004 C 
HETATM   18  C5  UNL     1     -22.001  -1.203 -12.150  1.00  0.00     0.024 C 
HETATM   19  C6  UNL     1     -21.580  -0.293 -13.276  1.00  0.00     0.075 C 
HETATM   20  C7  UNL     1     -20.073  -0.192 -13.224  1.00  0.00     0.032 C 
ENDBRANCH  12  13
ENDBRANCH  11  12
ENDBRANCH  10  11
ENDBRANCH   9  10
ENDBRANCH   7   8
ENDBRANCH   1   7
BRANCH   2  21
HETATM   21  O1  UNL     1     -15.324   0.346 -12.425  1.00  0.00    -0.360 OA
ATOM     22  H1  UNL     1     -15.389   0.315 -11.478  1.00  0.00     0.217 HD
ENDBRANCH   2  21
BRANCH   6  23
HETATM   23  N2  UNL     1     -14.877   3.588 -15.998  1.00  0.00    -0.380 N 
HETATM   24  C20 UNL     1     -15.752   4.722 -15.992  1.00  0.00     0.123 C 
HETATM   25  C21 UNL     1     -15.365   5.713 -17.056  1.00  0.00     0.020 C 
HETATM   26  C22 UNL     1     -15.463   4.967 -18.380  1.00  0.00     0.003 C 
HETATM   27  C23 UNL     1     -14.466   3.842 -18.427  1.00  0.00     0.020 C 
HETATM   28  C24 UNL     1     -14.365   3.025 -17.203  1.00  0.00     0.123 C 
ENDBRANCH   6  23
BRANCH   4  29
HETATM   29  O2  UNL     1     -11.741   3.459 -12.394  1.00  0.00    -0.361 OA
ATOM     30  H2  UNL     1     -11.280   4.194 -12.781  1.00  0.00     0.217 HD
ENDBRANCH   4  29
TORSDOF 9
ENDMDL
MODEL 4
REMARK VINA RESULT: -6.993161113      1.072      1.616
REMARK  9 active torsions:
REMARK  status: ('A' for Active; 'I' for Inactive)
REMARK    1  A    between atoms: N1_8  and  C8_9 
REMARK    2  A    between atoms: C8_9  and  C9_10 
REMARK    3  A    between atoms: C9_10  and  C10_11 
REMARK    4  A    between atoms: C10_11  and  C11_12 
REMARK    5  A    between atoms: C12_13  and  C13_14 
REMARK    6  A    between atoms: C13_14  and  C14_15 
REMARK    7  A    between atoms: C15_16  and  O1_17 
REMARK    8  A    between atoms: C17_20  and  O2_21 
REMARK    9  A    between atoms: C19_24  and  N2_25 
ROOT
HETATM    1  C14 UNL     1     -14.379   1.389 -14.038  1.00  0.00     0.013 A 
HETATM    2  C15 UNL     1     -13.961   1.525 -12.708  1.00  0.00     0.077 A 
HETATM    3  C16 UNL     1     -12.805   2.180 -12.368  1.00  0.00     0.073 A 
HETATM    4  C17 UNL     1     -12.010   2.732 -13.346  1.00  0.00     0.070 A 
HETATM    5  C18 UNL     1     -12.403   2.608 -14.648  1.00  0.00     0.066 A 
HETATM    6  C19 UNL     1     -13.584   1.939 -14.988  1.00  0.00     0.042 A 
ENDROOT
BRANCH   1   7
HETATM    7  C13 UNL     1     -15.647   0.672 -14.244  1.00  0.00     0.137 C 
BRANCH   7   8
HETATM    8  C12 UNL     1     -16.778   1.629 -14.368  1.00  0.00    -0.102 C 
HETATM    9  C11 UNL     1     -17.713   2.386 -14.465  1.00  0.00    -0.106 C 
BRANCH   9  10
HETATM   10  C10 UNL     1     -18.854   3.278 -14.569  1.00  0.00     0.095 C 
BRANCH  10  11
HETATM   11  C9  UNL     1     -19.729   3.222 -13.336  1.00  0.00     0.031 C 
BRANCH  11  12
HETATM   12  C8  UNL     1     -21.034   2.551 -13.783  1.00  0.00     0.118 C 
BRANCH  12  13
HETATM   13  N1  UNL     1     -21.465   1.676 -12.749  1.00  0.00    -0.405 N 
HETATM   14  C2  UNL     1     -20.819   0.417 -12.703  1.00  0.00     0.075 C 
HETATM   15  C1  UNL     1     -20.508  -0.215 -14.014  1.00  0.00     0.032 C 
HETATM   16  C3  UNL     1     -21.614  -0.531 -11.828  1.00  0.00     0.024 C 
HETATM   17  C4  UNL     1     -22.979  -0.800 -12.432  1.00  0.00     0.004 C 
HETATM   18  C5  UNL     1     -23.626   0.481 -12.863  1.00  0.00     0.024 C 
HETATM   19  C6  UNL     1     -22.845   1.700 -12.440  1.00  0.00     0.075 C 
HETATM   20  C7  UNL     1     -23.578   2.906 -12.982  1.00  0.00     0.032 C 
ENDBRANCH  12  13
ENDBRANCH  11  12
ENDBRANCH  10  11
ENDBRANCH   9  10
ENDBRANCH   7   8
ENDBRANCH   1   7
BRANCH   2  21
HETATM   21  O1  UNL     1     -14.722   0.991 -11.692  1.00  0.00    -0.360 OA
ATOM     22  H1  UNL     1     -14.542   1.230 -10.790  1.00  0.00     0.217 HD
ENDBRANCH   2  21
BRANCH   6  23
HETATM   23  N2  UNL     1     -13.860   1.866 -16.379  1.00  0.00    -0.380 N 
HETATM   24  C20 UNL     1     -14.511   2.955 -17.044  1.00  0.00     0.123 C 
HETATM   25  C21 UNL     1     -13.971   3.143 -18.435  1.00  0.00     0.020 C 
HETATM   26  C22 UNL     1     -14.232   1.833 -19.168  1.00  0.00     0.003 C 
HETATM   27  C23 UNL     1     -13.459   0.710 -18.531  1.00  0.00     0.020 C 
HETATM   28  C24 UNL     1     -13.484   0.671 -17.057  1.00  0.00     0.123 C 
ENDBRANCH   6  23
BRANCH   4  29
HETATM   29  O2  UNL     1     -10.843   3.393 -13.000  1.00  0.00    -0.361 OA
ATOM     30  H2  UNL     1     -10.229   3.659 -13.675  1.00  0.00     0.217 HD
ENDBRANCH   4  29
TORSDOF 9
ENDMDL
MODEL 5
REMARK VINA RESULT: -6.977933502      7.897     10.906
REMARK  9 active torsions:
REMARK  status: ('A' for Active; 'I' for Inactive)
REMARK    1  A    between atoms: N1_8  and  C8_9 
REMARK    2  A    between atoms: C8_9  and  C9_10 
REMARK    3  A    between atoms: C9_10  and  C10_11 
REMARK    4  A    between atoms: C10_11  and  C11_12 
REMARK    5  A    between atoms: C12_13  and  C13_14 
REMARK    6  A    between atoms: C13_14  and  C14_15 
REMARK    7  A    between atoms: C15_16  and  O1_17 
REMARK    8  A    between atoms: C17_20  and  O2_21 
REMARK    9  A    between atoms: C19_24  and  N2_25 
ROOT
HETATM    1  C14 UNL     1     -15.072  -4.244 -11.784  1.00  0.00     0.013 A 
HETATM    2  C15 UNL     1     -15.883  -5.384 -11.859  1.00  0.00     0.077 A 
HETATM    3  C16 UNL     1     -15.747  -6.315 -12.858  1.00  0.00     0.073 A 
HETATM    4  C17 UNL     1     -14.790  -6.147 -13.833  1.00  0.00     0.070 A 
HETATM    5  C18 UNL     1     -13.992  -5.040 -13.774  1.00  0.00     0.066 A 
HETATM    6  C19 UNL     1     -14.136  -4.096 -12.753  1.00  0.00     0.042 A 
ENDROOT
BRANCH   1   7
HETATM    7  C13 UNL     1     -15.329  -3.345 -10.649  1.00  0.00     0.137 C 
BRANCH   7   8
HETATM    8  C12 UNL     1     -14.276  -3.496  -9.610  1.00  0.00    -0.102 C 
HETATM    9  C11 UNL     1     -13.408  -3.632  -8.783  1.00  0.00    -0.106 C 
BRANCH   9  10
HETATM   10  C10 UNL     1     -12.345  -3.804  -7.809  1.00  0.00     0.095 C 
BRANCH  10  11
HETATM   11  C9  UNL     1     -11.109  -4.424  -8.424  1.00  0.00     0.031 C 
BRANCH  11  12
HETATM   12  C8  UNL     1     -11.374  -5.934  -8.456  1.00  0.00     0.118 C 
BRANCH  12  13
HETATM   13  N1  UNL     1     -11.007  -6.428  -9.737  1.00  0.00    -0.405 N 
HETATM   14  C2  UNL     1     -12.071  -6.607 -10.653  1.00  0.00     0.075 C 
HETATM   15  C1  UNL     1     -13.349  -7.123 -10.089  1.00  0.00     0.032 C 
HETATM   16  C3  UNL     1     -11.611  -7.472 -11.808  1.00  0.00     0.024 C 
HETATM   17  C4  UNL     1     -11.255  -8.865 -11.325  1.00  0.00     0.004 C 
HETATM   18  C5  UNL     1     -10.393  -8.794 -10.101  1.00  0.00     0.024 C 
HETATM   19  C6  UNL     1      -9.968  -7.387  -9.768  1.00  0.00     0.075 C 
HETATM   20  C7  UNL     1      -9.157  -7.458  -8.494  1.00  0.00     0.032 C 
ENDBRANCH  12  13
ENDBRANCH  11  12
ENDBRANCH  10  11
ENDBRANCH   9  10
ENDBRANCH   7   8
ENDBRANCH   1   7
BRANCH   2  21
HETATM   21  O1  UNL     1     -16.856  -5.598 -10.907  1.00  0.00    -0.360 OA
ATOM     22  H1  UNL     1     -17.715  -5.207 -11.013  1.00  0.00     0.217 HD
ENDBRANCH   2  21
BRANCH   6  23
HETATM   23  N2  UNL     1     -13.255  -2.985 -12.826  1.00  0.00    -0.380 N 
HETATM   24  C20 UNL     1     -13.657  -1.788 -13.503  1.00  0.00     0.123 C 
HETATM   25  C21 UNL     1     -13.128  -0.565 -12.804  1.00  0.00     0.020 C 
HETATM   26  C22 UNL     1     -11.611  -0.701 -12.809  1.00  0.00     0.003 C 
HETATM   27  C23 UNL     1     -11.186  -1.899 -12.004  1.00  0.00     0.020 C 
HETATM   28  C24 UNL     1     -11.971  -3.129 -12.225  1.00  0.00     0.123 C 
ENDBRANCH   6  23
BRANCH   4  29
HETATM   29  O2  UNL     1     -14.654  -7.087 -14.840  1.00  0.00    -0.361 OA
ATOM     30  H2  UNL     1     -14.300  -7.947 -14.644  1.00  0.00     0.217 HD
ENDBRANCH   4  29
TORSDOF 9
ENDMDL
