MODEL 1
REMARK VINA RESULT: -8.325275044      0.000      0.000
REMARK  8 active torsions:
REMARK  status: ('A' for Active; 'I' for Inactive)
REMARK    1  A    between atoms: N1_4  and  C4_5 
REMARK    2  A    between atoms: C4_5  and  C5_6 
REMARK    3  A    between atoms: C5_6  and  C6_7 
REMARK    4  A    between atoms: N2_17  and  C14_18 
REMARK    5  A    between atoms: C16_21  and  C17_22 
REMARK    6  A    between atoms: C17_22  and  O2_23 
REMARK    7  A    between atoms: C17_22  and  N3_25 
REMARK    8  A    between atoms: N3_25  and  O3_27 
ROOT
HETATM    1  C1  UNL     1     -21.360  -0.407 -11.128  1.00  0.00     0.034 C 
HETATM    2  C2  UNL     1     -22.036  -0.722 -12.455  1.00  0.00     0.107 C 
HETATM    3  C3  UNL     1     -21.027  -0.289 -13.535  1.00  0.00     0.149 C 
HETATM    4  N1  UNL     1     -20.694   1.110 -13.338  1.00  0.00    -0.365 N 
HETATM    5  C12 UNL     1     -21.819   1.969 -13.240  1.00  0.00     0.167 C 
HETATM    6  S1  UNL     1     -21.685   3.574 -13.529  1.00  0.00    -0.054 SA
HETATM    7  C13 UNL     1     -23.136   1.384 -12.856  1.00  0.00     0.286 C 
HETATM    8  O1  UNL     1     -24.083   2.186 -12.785  1.00  0.00    -0.265 OA
HETATM    9  N2  UNL     1     -23.277   0.009 -12.595  1.00  0.00    -0.305 N 
ENDROOT
BRANCH   9  10
HETATM   10  C14 UNL     1     -24.556  -0.672 -12.460  1.00  0.00     0.046 A 
HETATM   11  C15 UNL     1     -25.196  -1.130 -13.603  1.00  0.00     0.080 A 
HETATM   12  S2  UNL     1     -26.623  -1.831 -13.021  1.00  0.00    -0.095 SA
HETATM   13  C16 UNL     1     -26.408  -1.547 -11.357  1.00  0.00     0.059 A 
HETATM   14  C18 UNL     1     -25.201  -0.897 -11.298  1.00  0.00     0.053 A 
BRANCH  13  15
HETATM   15  C17 UNL     1     -27.314  -1.905 -10.234  1.00  0.00     0.177 C 
BRANCH  15  16
HETATM   16  O2  UNL     1     -28.412  -1.133  -9.933  1.00  0.00    -0.344 OA
ATOM     17  H2  UNL     1     -28.983  -1.354  -9.206  1.00  0.00     0.219 HD
ENDBRANCH  15  16
BRANCH  15  18
HETATM   18  N3  UNL     1     -27.061  -2.947  -9.545  1.00  0.00    -0.246 N 
ATOM     19  H3  UNL     1     -26.901  -3.838 -10.016  1.00  0.00     0.196 HD
BRANCH  18  20
HETATM   20  O3  UNL     1     -27.003  -2.882  -8.183  1.00  0.00    -0.288 OA
ATOM     21  H3  UNL     1     -26.166  -2.843  -7.737  1.00  0.00     0.244 HD
ENDBRANCH  18  20
ENDBRANCH  15  18
ENDBRANCH  13  15
ENDBRANCH   9  10
BRANCH   4  22
HETATM   22  C4  UNL     1     -19.387   1.636 -13.212  1.00  0.00     0.124 C 
BRANCH  22  23
HETATM   23  C5  UNL     1     -18.278   0.824 -13.750  1.00  0.00     0.024 C 
BRANCH  23  24
HETATM   24  C6  UNL     1     -17.456   1.674 -14.703  1.00  0.00    -0.013 C 
HETATM   25  C7  UNL     1     -15.981   1.635 -14.265  1.00  0.00     0.005 C 
HETATM   26  C8  UNL     1     -15.220   2.339 -15.366  1.00  0.00     0.000 C 
HETATM   27  C9  UNL     1     -15.531   3.809 -15.218  1.00  0.00     0.000 C 
HETATM   28  C10 UNL     1     -16.983   4.113 -15.192  1.00  0.00     0.000 C 
HETATM   29  C11 UNL     1     -17.879   3.111 -14.561  1.00  0.00     0.005 C 
ENDBRANCH  23  24
ENDBRANCH  22  23
ENDBRANCH   4  22
TORSDOF 8
ENDMDL
MODEL 2
REMARK VINA RESULT: -8.296750386      0.305      1.007
REMARK  8 active torsions:
REMARK  status: ('A' for Active; 'I' for Inactive)
REMARK    1  A    between atoms: N1_4  and  C4_5 
REMARK    2  A    between atoms: C4_5  and  C5_6 
REMARK    3  A    between atoms: C5_6  and  C6_7 
REMARK    4  A    between atoms: N2_17  and  C14_18 
REMARK    5  A    between atoms: C16_21  and  C17_22 
REMARK    6  A    between atoms: C17_22  and  O2_23 
REMARK    7  A    between atoms: C17_22  and  N3_25 
REMARK    8  A    between atoms: N3_25  and  O3_27 
ROOT
HETATM    1  C1  UNL     1     -21.430  -0.397 -10.981  1.00  0.00     0.034 C 
HETATM    2  C2  UNL     1     -22.067  -0.753 -12.317  1.00  0.00     0.107 C 
HETATM    3  C3  UNL     1     -21.022  -0.361 -13.379  1.00  0.00     0.149 C 
HETATM    4  N1  UNL     1     -20.686   1.041 -13.218  1.00  0.00    -0.365 N 
HETATM    5  C12 UNL     1     -21.808   1.909 -13.184  1.00  0.00     0.167 C 
HETATM    6  S1  UNL     1     -21.654   3.503 -13.522  1.00  0.00    -0.054 SA
HETATM    7  C13 UNL     1     -23.140   1.345 -12.823  1.00  0.00     0.286 C 
HETATM    8  O1  UNL     1     -24.083   2.154 -12.807  1.00  0.00    -0.265 OA
HETATM    9  N2  UNL     1     -23.298  -0.020 -12.521  1.00  0.00    -0.305 N 
ENDROOT
BRANCH   9  10
HETATM   10  C14 UNL     1     -24.586  -0.689 -12.403  1.00  0.00     0.046 A 
HETATM   11  C15 UNL     1     -25.222  -1.125 -13.556  1.00  0.00     0.080 A 
HETATM   12  S2  UNL     1     -26.660  -1.818 -12.993  1.00  0.00    -0.095 SA
HETATM   13  C16 UNL     1     -26.455  -1.557 -11.324  1.00  0.00     0.059 A 
HETATM   14  C18 UNL     1     -25.241  -0.921 -11.248  1.00  0.00     0.053 A 
BRANCH  13  15
HETATM   15  C17 UNL     1     -27.373  -1.920 -10.212  1.00  0.00     0.177 C 
BRANCH  15  16
HETATM   16  O2  UNL     1     -28.438  -1.115  -9.880  1.00  0.00    -0.344 OA
ATOM     17  H2  UNL     1     -29.148  -1.440  -9.338  1.00  0.00     0.219 HD
ENDBRANCH  15  16
BRANCH  15  18
HETATM   18  N3  UNL     1     -27.161  -2.996  -9.563  1.00  0.00    -0.246 N 
ATOM     19  H3  UNL     1     -27.066  -3.879 -10.065  1.00  0.00     0.196 HD
BRANCH  18  20
HETATM   20  O3  UNL     1     -27.060  -2.977  -8.202  1.00  0.00    -0.288 OA
ATOM     21  H3  UNL     1     -27.786  -3.261  -7.660  1.00  0.00     0.244 HD
ENDBRANCH  18  20
ENDBRANCH  15  18
ENDBRANCH  13  15
ENDBRANCH   9  10
BRANCH   4  22
HETATM   22  C4  UNL     1     -19.380   1.564 -13.069  1.00  0.00     0.124 C 
BRANCH  22  23
HETATM   23  C5  UNL     1     -18.328   1.008 -13.941  1.00  0.00     0.024 C 
BRANCH  23  24
HETATM   24  C6  UNL     1     -17.275   2.074 -14.192  1.00  0.00    -0.013 C 
HETATM   25  C7  UNL     1     -17.893   3.200 -15.040  1.00  0.00     0.005 C 
HETATM   26  C8  UNL     1     -16.847   4.292 -15.075  1.00  0.00     0.000 C 
HETATM   27  C9  UNL     1     -15.755   3.799 -15.993  1.00  0.00     0.000 C 
HETATM   28  C10 UNL     1     -15.226   2.461 -15.629  1.00  0.00     0.000 C 
HETATM   29  C11 UNL     1     -16.180   1.487 -15.040  1.00  0.00     0.005 C 
ENDBRANCH  23  24
ENDBRANCH  22  23
ENDBRANCH   4  22
TORSDOF 8
ENDMDL
MODEL 3
REMARK VINA RESULT: -7.779646657      1.738      2.138
REMARK  8 active torsions:
REMARK  status: ('A' for Active; 'I' for Inactive)
REMARK    1  A    between atoms: N1_4  and  C4_5 
REMARK    2  A    between atoms: C4_5  and  C5_6 
REMARK    3  A    between atoms: C5_6  and  C6_7 
REMARK    4  A    between atoms: N2_17  and  C14_18 
REMARK    5  A    between atoms: C16_21  and  C17_22 
REMARK    6  A    between atoms: C17_22  and  O2_23 
REMARK    7  A    between atoms: C17_22  and  N3_25 
REMARK    8  A    between atoms: N3_25  and  O3_27 
ROOT
HETATM    1  C1  UNL     1     -21.228  -0.318 -10.945  1.00  0.00     0.034 C 
HETATM    2  C2  UNL     1     -22.001  -0.733 -12.189  1.00  0.00     0.107 C 
HETATM    3  C3  UNL     1     -21.091  -0.357 -13.373  1.00  0.00     0.149 C 
HETATM    4  N1  UNL     1     -20.775   1.057 -13.296  1.00  0.00    -0.365 N 
HETATM    5  C12 UNL     1     -21.907   1.902 -13.165  1.00  0.00     0.167 C 
HETATM    6  S1  UNL     1     -21.831   3.486 -13.569  1.00  0.00    -0.054 SA
HETATM    7  C13 UNL     1     -23.176   1.323 -12.638  1.00  0.00     0.286 C 
HETATM    8  O1  UNL     1     -24.131   2.111 -12.543  1.00  0.00    -0.265 OA
HETATM    9  N2  UNL     1     -23.265  -0.034 -12.276  1.00  0.00    -0.305 N 
ENDROOT
BRANCH   9  10
HETATM   10  C14 UNL     1     -24.514  -0.726 -11.993  1.00  0.00     0.046 A 
HETATM   11  C15 UNL     1     -24.766  -1.150 -10.697  1.00  0.00     0.080 A 
HETATM   12  S2  UNL     1     -26.280  -1.901 -10.799  1.00  0.00    -0.095 SA
HETATM   13  C16 UNL     1     -26.585  -1.678 -12.458  1.00  0.00     0.059 A 
HETATM   14  C18 UNL     1     -25.472  -1.009 -12.900  1.00  0.00     0.053 A 
BRANCH  13  15
HETATM   15  C17 UNL     1     -27.768  -2.113 -13.247  1.00  0.00     0.177 C 
BRANCH  15  16
HETATM   16  O2  UNL     1     -28.528  -3.189 -12.852  1.00  0.00    -0.344 OA
ATOM     17  H2  UNL     1     -28.887  -3.240 -11.973  1.00  0.00     0.219 HD
ENDBRANCH  15  16
BRANCH  15  18
HETATM   18  N3  UNL     1     -28.074  -1.471 -14.305  1.00  0.00    -0.246 N 
ATOM     19  H3  UNL     1     -29.049  -1.234 -14.487  1.00  0.00     0.196 HD
BRANCH  18  20
HETATM   20  O3  UNL     1     -27.109  -1.100 -15.196  1.00  0.00    -0.288 OA
ATOM     21  H3  UNL     1     -27.302  -1.051 -16.125  1.00  0.00     0.244 HD
ENDBRANCH  18  20
ENDBRANCH  15  18
ENDBRANCH  13  15
ENDBRANCH   9  10
BRANCH   4  22
HETATM   22  C4  UNL     1     -19.474   1.613 -13.312  1.00  0.00     0.124 C 
BRANCH  22  23
HETATM   23  C5  UNL     1     -18.376   0.746 -13.787  1.00  0.00     0.024 C 
BRANCH  23  24
HETATM   24  C6  UNL     1     -17.461   1.554 -14.691  1.00  0.00    -0.013 C 
HETATM   25  C7  UNL     1     -16.040   1.549 -14.101  1.00  0.00     0.005 C 
HETATM   26  C8  UNL     1     -15.170   2.202 -15.152  1.00  0.00     0.000 C 
HETATM   27  C9  UNL     1     -15.498   3.675 -15.112  1.00  0.00     0.000 C 
HETATM   28  C10 UNL     1     -16.946   3.969 -15.251  1.00  0.00     0.000 C 
HETATM   29  C11 UNL     1     -17.900   2.993 -14.667  1.00  0.00     0.005 C 
ENDBRANCH  23  24
ENDBRANCH  22  23
ENDBRANCH   4  22
TORSDOF 8
ENDMDL
MODEL 4
REMARK VINA RESULT: -7.708100542      2.850      4.785
REMARK  8 active torsions:
REMARK  status: ('A' for Active; 'I' for Inactive)
REMARK    1  A    between atoms: N1_4  and  C4_5 
REMARK    2  A    between atoms: C4_5  and  C5_6 
REMARK    3  A    between atoms: C5_6  and  C6_7 
REMARK    4  A    between atoms: N2_17  and  C14_18 
REMARK    5  A    between atoms: C16_21  and  C17_22 
REMARK    6  A    between atoms: C17_22  and  O2_23 
REMARK    7  A    between atoms: C17_22  and  N3_25 
REMARK    8  A    between atoms: N3_25  and  O3_27 
ROOT
HETATM    1  C1  UNL     1     -24.767   0.286 -10.174  1.00  0.00     0.034 C 
HETATM    2  C2  UNL     1     -24.851  -1.224 -10.002  1.00  0.00     0.107 C 
HETATM    3  C3  UNL     1     -23.809  -1.799 -10.979  1.00  0.00     0.149 C 
HETATM    4  N1  UNL     1     -24.101  -1.321 -12.318  1.00  0.00    -0.365 N 
HETATM    5  C12 UNL     1     -25.441  -1.533 -12.734  1.00  0.00     0.167 C 
HETATM    6  S1  UNL     1     -25.841  -1.550 -14.320  1.00  0.00    -0.054 SA
HETATM    7  C13 UNL     1     -26.491  -1.731 -11.693  1.00  0.00     0.286 C 
HETATM    8  O1  UNL     1     -27.645  -1.909 -12.118  1.00  0.00    -0.265 OA
HETATM    9  N2  UNL     1     -26.174  -1.714 -10.322  1.00  0.00    -0.305 N 
ENDROOT
BRANCH   9  10
HETATM   10  C14 UNL     1     -27.082  -2.140  -9.267  1.00  0.00     0.046 A 
HETATM   11  C15 UNL     1     -27.760  -1.175  -8.536  1.00  0.00     0.080 A 
HETATM   12  S2  UNL     1     -28.676  -2.069  -7.429  1.00  0.00    -0.095 SA
HETATM   13  C16 UNL     1     -28.206  -3.639  -7.888  1.00  0.00     0.059 A 
HETATM   14  C18 UNL     1     -27.325  -3.419  -8.917  1.00  0.00     0.053 A 
BRANCH  13  15
HETATM   15  C17 UNL     1     -28.635  -4.939  -7.309  1.00  0.00     0.177 C 
BRANCH  15  16
HETATM   16  O2  UNL     1     -29.917  -5.119  -6.840  1.00  0.00    -0.344 OA
ATOM     17  H2  UNL     1     -30.216  -5.971  -6.546  1.00  0.00     0.219 HD
ENDBRANCH  15  16
BRANCH  15  18
HETATM   18  N3  UNL     1     -27.796  -5.896  -7.250  1.00  0.00    -0.246 N 
ATOM     19  H3  UNL     1     -27.105  -6.009  -7.993  1.00  0.00     0.196 HD
BRANCH  18  20
HETATM   20  O3  UNL     1     -27.814  -6.772  -6.204  1.00  0.00    -0.288 OA
ATOM     21  H3  UNL     1     -28.331  -6.588  -5.428  1.00  0.00     0.244 HD
ENDBRANCH  18  20
ENDBRANCH  15  18
ENDBRANCH  13  15
ENDBRANCH   9  10
BRANCH   4  22
HETATM   22  C4  UNL     1     -23.188  -0.664 -13.175  1.00  0.00     0.124 C 
BRANCH  22  23
HETATM   23  C5  UNL     1     -21.761  -0.704 -12.800  1.00  0.00     0.024 C 
BRANCH  23  24
HETATM   24  C6  UNL     1     -21.219   0.715 -12.755  1.00  0.00    -0.013 C 
HETATM   25  C7  UNL     1     -22.238   1.662 -13.410  1.00  0.00     0.005 C 
HETATM   26  C8  UNL     1     -21.711   3.056 -13.150  1.00  0.00     0.000 C 
HETATM   27  C9  UNL     1     -20.521   3.231 -14.062  1.00  0.00     0.000 C 
HETATM   28  C10 UNL     1     -19.502   2.161 -13.928  1.00  0.00     0.000 C 
HETATM   29  C11 UNL     1     -19.988   0.792 -13.616  1.00  0.00     0.005 C 
ENDBRANCH  23  24
ENDBRANCH  22  23
ENDBRANCH   4  22
TORSDOF 8
ENDMDL
MODEL 5
REMARK VINA RESULT: -7.259917755      3.319      9.897
REMARK  8 active torsions:
REMARK  status: ('A' for Active; 'I' for Inactive)
REMARK    1  A    between atoms: N1_4  and  C4_5 
REMARK    2  A    between atoms: C4_5  and  C5_6 
REMARK    3  A    between atoms: C5_6  and  C6_7 
REMARK    4  A    between atoms: N2_17  and  C14_18 
REMARK    5  A    between atoms: C16_21  and  C17_22 
REMARK    6  A    between atoms: C17_22  and  O2_23 
REMARK    7  A    between atoms: C17_22  and  N3_25 
REMARK    8  A    between atoms: N3_25  and  O3_27 
ROOT
HETATM    1  C1  UNL     1     -24.045  -2.432 -10.546  1.00  0.00     0.034 C 
HETATM    2  C2  UNL     1     -24.226  -0.942 -10.802  1.00  0.00     0.107 C 
HETATM    3  C3  UNL     1     -25.650  -0.619 -10.309  1.00  0.00     0.149 C 
HETATM    4  N1  UNL     1     -26.595  -1.475 -11.001  1.00  0.00    -0.365 N 
HETATM    5  C12 UNL     1     -26.471  -1.461 -12.414  1.00  0.00     0.167 C 
HETATM    6  S1  UNL     1     -27.712  -1.920 -13.376  1.00  0.00    -0.054 SA
HETATM    7  C13 UNL     1     -25.177  -1.027 -13.015  1.00  0.00     0.286 C 
HETATM    8  O1  UNL     1     -25.127  -1.037 -14.256  1.00  0.00    -0.265 OA
HETATM    9  N2  UNL     1     -24.092  -0.634 -12.209  1.00  0.00    -0.305 N 
ENDROOT
BRANCH   9  10
HETATM   10  C14 UNL     1     -22.898   0.030 -12.711  1.00  0.00     0.046 A 
HETATM   11  C15 UNL     1     -21.736  -0.711 -12.871  1.00  0.00     0.080 A 
HETATM   12  S2  UNL     1     -20.609   0.413 -13.448  1.00  0.00    -0.095 SA
HETATM   13  C16 UNL     1     -21.598   1.797 -13.485  1.00  0.00     0.059 A 
HETATM   14  C18 UNL     1     -22.810   1.336 -13.035  1.00  0.00     0.053 A 
BRANCH  13  15
HETATM   15  C17 UNL     1     -21.237   3.180 -13.895  1.00  0.00     0.177 C 
BRANCH  15  16
HETATM   16  O2  UNL     1     -22.208   4.118 -14.161  1.00  0.00    -0.344 OA
ATOM     17  H2  UNL     1     -22.822   4.392 -13.490  1.00  0.00     0.219 HD
ENDBRANCH  15  16
BRANCH  15  18
HETATM   18  N3  UNL     1     -20.006   3.491 -13.999  1.00  0.00    -0.246 N 
ATOM     19  H3  UNL     1     -19.556   3.476 -14.915  1.00  0.00     0.196 HD
BRANCH  18  20
HETATM   20  O3  UNL     1     -19.283   3.844 -12.896  1.00  0.00    -0.288 OA
ATOM     21  H3  UNL     1     -18.334   3.806 -12.908  1.00  0.00     0.244 HD
ENDBRANCH  18  20
ENDBRANCH  15  18
ENDBRANCH  13  15
ENDBRANCH   9  10
BRANCH   4  22
HETATM   22  C4  UNL     1     -27.561  -2.303 -10.382  1.00  0.00     0.124 C 
BRANCH  22  23
HETATM   23  C5  UNL     1     -27.484  -2.451  -8.916  1.00  0.00     0.024 C 
BRANCH  23  24
HETATM   24  C6  UNL     1     -28.360  -3.615  -8.486  1.00  0.00    -0.013 C 
HETATM   25  C7  UNL     1     -29.177  -3.199  -7.250  1.00  0.00     0.005 C 
HETATM   26  C8  UNL     1     -30.148  -4.335  -7.014  1.00  0.00     0.000 C 
HETATM   27  C9  UNL     1     -29.332  -5.475  -6.456  1.00  0.00     0.000 C 
HETATM   28  C10 UNL     1     -28.162  -5.840  -7.293  1.00  0.00     0.000 C 
HETATM   29  C11 UNL     1     -27.478  -4.743  -8.024  1.00  0.00     0.005 C 
ENDBRANCH  23  24
ENDBRANCH  22  23
ENDBRANCH   4  22
TORSDOF 8
ENDMDL
