MODEL 1
REMARK VINA RESULT: -6.202489341      0.000      0.000
REMARK  5 active torsions:
REMARK  status: ('A' for Active; 'I' for Inactive)
REMARK    1  A    between atoms: C2_2  and  C3_3 
REMARK    2  A    between atoms: C3_3  and  N1_4 
REMARK       I    between atoms: N4_13  and  C9_14 
REMARK    3  A    between atoms: C9_14  and  C10_16 
REMARK    4  A    between atoms: C11_17  and  C12_18 
REMARK    5  A    between atoms: C14_21  and  C15_22 
ROOT
HETATM    1  C15 UNL     1      89.966  98.477 -43.615  1.00  0.00    -0.082 C 
HETATM    2  C16 UNL     1      88.782  98.504 -43.886  1.00  0.00    -0.023 C 
HETATM    3 BR1  UNL     1      86.955  98.559 -44.314  1.00  0.00     0.010 Br
ENDROOT
BRANCH   1   4
HETATM    4  C14 UNL     1      91.383  98.465 -43.285  1.00  0.00     0.046 C 
HETATM    5  C7  UNL     1      92.165  98.275 -44.596  1.00  0.00     0.026 C 
HETATM    6  C6  UNL     1      91.777  99.395 -45.487  1.00  0.00     0.009 C 
HETATM    7  C8  UNL     1      91.700  96.921 -44.986  1.00  0.00     0.133 C 
HETATM    8  C5  UNL     1      92.398 100.653 -44.867  1.00  0.00     0.011 C 
HETATM    9  C2  UNL     1      91.978 100.890 -43.469  1.00  0.00    -0.026 C 
HETATM   10  C1  UNL     1      90.692 101.723 -43.502  1.00  0.00     0.017 C 
HETATM   11  C17 UNL     1      91.851  99.694 -42.603  1.00  0.00     0.035 C 
HETATM   12  N4  UNL     1      91.647  96.231 -43.708  1.00  0.00    -0.339 N 
HETATM   13  C9  UNL     1      91.541  94.826 -43.577  1.00  0.00     0.298 C 
HETATM   14  C13 UNL     1      91.721  97.178 -42.612  1.00  0.00     0.149 C 
HETATM   15  O1  UNL     1      91.501  94.293 -42.426  1.00  0.00    -0.258 OA
BRANCH   9  16
HETATM   16  C3  UNL     1      93.027 101.808 -42.824  1.00  0.00     0.131 C 
BRANCH  16  17
HETATM   17  N1  UNL     1      93.375 101.326 -41.503  1.00  0.00    -0.366 N 
HETATM   18  C4  UNL     1      94.336 101.924 -40.897  1.00  0.00     0.196 C 
HETATM   19  N2  UNL     1      94.689 101.462 -39.600  1.00  0.00    -0.067 NA
HETATM   20  N3  UNL     1      95.073 103.016 -41.432  1.00  0.00    -0.067 NA
ATOM     21  H1  UNL     1      92.879 100.545 -41.073  1.00  0.00     0.161 HD
ENDBRANCH  16  17
ENDBRANCH   9  16
BRANCH  13  22
HETATM   22  C10 UNL     1      91.472  93.935 -44.690  1.00  0.00    -0.003 C 
HETATM   23  C11 UNL     1      91.397  93.190 -45.635  1.00  0.00    -0.065 C 
BRANCH  23  24
HETATM   24  C12 UNL     1      91.285  92.280 -46.780  1.00  0.00     0.316 C 
HETATM   25  F1  UNL     1      91.253  90.987 -46.322  1.00  0.00    -0.242 F 
ENDBRANCH  23  24
ENDBRANCH  13  22
ENDBRANCH   1   4
TORSDOF 5
ENDMDL
MODEL 2
REMARK VINA RESULT: -5.788152602      0.918      1.278
REMARK  5 active torsions:
REMARK  status: ('A' for Active; 'I' for Inactive)
REMARK    1  A    between atoms: C2_2  and  C3_3 
REMARK    2  A    between atoms: C3_3  and  N1_4 
REMARK       I    between atoms: N4_13  and  C9_14 
REMARK    3  A    between atoms: C9_14  and  C10_16 
REMARK    4  A    between atoms: C11_17  and  C12_18 
REMARK    5  A    between atoms: C14_21  and  C15_22 
ROOT
HETATM    1  C15 UNL     1      90.031  98.589 -43.330  1.00  0.00    -0.082 C 
HETATM    2  C16 UNL     1      88.850  98.647 -43.608  1.00  0.00    -0.023 C 
HETATM    3 BR1  UNL     1      87.024  98.753 -44.035  1.00  0.00     0.010 Br
ENDROOT
BRANCH   1   4
HETATM    4  C14 UNL     1      91.441  98.529 -42.979  1.00  0.00     0.046 C 
HETATM    5  C7  UNL     1      92.240  98.375 -44.284  1.00  0.00     0.026 C 
HETATM    6  C6  UNL     1      91.893  99.539 -45.135  1.00  0.00     0.009 C 
HETATM    7  C8  UNL     1      91.750  97.050 -44.737  1.00  0.00     0.133 C 
HETATM    8  C5  UNL     1      92.533 100.756 -44.454  1.00  0.00     0.011 C 
HETATM    9  C2  UNL     1      92.095 100.945 -43.054  1.00  0.00    -0.026 C 
HETATM   10  C1  UNL     1      90.829 101.809 -43.073  1.00  0.00     0.017 C 
HETATM   11  C17 UNL     1      91.927  99.718 -42.240  1.00  0.00     0.035 C 
HETATM   12  N4  UNL     1      91.661  96.309 -43.490  1.00  0.00    -0.339 N 
HETATM   13  C9  UNL     1      91.519  94.903 -43.418  1.00  0.00     0.298 C 
HETATM   14  C13 UNL     1      91.738  97.209 -42.355  1.00  0.00     0.149 C 
HETATM   15  O1  UNL     1      91.448  94.324 -42.291  1.00  0.00    -0.258 OA
BRANCH   9  16
HETATM   16  C3  UNL     1      93.154 101.811 -42.356  1.00  0.00     0.131 C 
BRANCH  16  17
HETATM   17  N1  UNL     1      93.908 102.569 -43.333  1.00  0.00    -0.366 N 
HETATM   18  C4  UNL     1      94.854 103.317 -42.889  1.00  0.00     0.196 C 
HETATM   19  N2  UNL     1      95.603 104.066 -43.836  1.00  0.00    -0.067 NA
HETATM   20  N3  UNL     1      95.205 103.446 -41.518  1.00  0.00    -0.067 NA
ATOM     21  H1  UNL     1      93.697 102.513 -44.330  1.00  0.00     0.161 HD
ENDBRANCH  16  17
ENDBRANCH   9  16
BRANCH  13  22
HETATM   22  C10 UNL     1      91.449  94.060 -44.568  1.00  0.00    -0.003 C 
HETATM   23  C11 UNL     1      91.389  93.332 -45.527  1.00  0.00    -0.065 C 
BRANCH  23  24
HETATM   24  C12 UNL     1      91.333  92.433 -46.685  1.00  0.00     0.316 C 
HETATM   25  F1  UNL     1      91.296  91.135 -46.243  1.00  0.00    -0.242 F 
ENDBRANCH  23  24
ENDBRANCH  13  22
ENDBRANCH   1   4
TORSDOF 5
ENDMDL
MODEL 3
REMARK VINA RESULT: -5.301739949      1.545      1.862
REMARK  5 active torsions:
REMARK  status: ('A' for Active; 'I' for Inactive)
REMARK    1  A    between atoms: C2_2  and  C3_3 
REMARK    2  A    between atoms: C3_3  and  N1_4 
REMARK       I    between atoms: N4_13  and  C9_14 
REMARK    3  A    between atoms: C9_14  and  C10_16 
REMARK    4  A    between atoms: C11_17  and  C12_18 
REMARK    5  A    between atoms: C14_21  and  C15_22 
ROOT
HETATM    1  C15 UNL     1      89.724  98.573 -43.982  1.00  0.00    -0.082 C 
HETATM    2  C16 UNL     1      88.532  98.474 -44.195  1.00  0.00    -0.023 C 
HETATM    3 BR1  UNL     1      86.687  98.324 -44.509  1.00  0.00     0.010 Br
ENDROOT
BRANCH   1   4
HETATM    4  C14 UNL     1      91.149  98.678 -43.711  1.00  0.00     0.046 C 
HETATM    5  C7  UNL     1      91.893  98.459 -45.039  1.00  0.00     0.026 C 
HETATM    6  C6  UNL     1      91.395  99.491 -45.981  1.00  0.00     0.009 C 
HETATM    7  C8  UNL     1      91.511  97.055 -45.327  1.00  0.00     0.133 C 
HETATM    8  C5  UNL     1      91.948 100.826 -45.464  1.00  0.00     0.011 C 
HETATM    9  C2  UNL     1      91.565 101.122 -44.067  1.00  0.00    -0.026 C 
HETATM   10  C1  UNL     1      90.223 101.862 -44.097  1.00  0.00     0.017 C 
HETATM   11  C17 UNL     1      91.555  99.977 -43.125  1.00  0.00     0.035 C 
HETATM   12  N4  UNL     1      91.554  96.445 -44.009  1.00  0.00    -0.339 N 
HETATM   13  C9  UNL     1      91.551  95.047 -43.788  1.00  0.00     0.298 C 
HETATM   14  C13 UNL     1      91.602  97.463 -42.976  1.00  0.00     0.149 C 
HETATM   15  O1  UNL     1      91.592  94.587 -42.606  1.00  0.00    -0.258 OA
BRANCH   9  16
HETATM   16  C3  UNL     1      92.569 102.148 -43.523  1.00  0.00     0.131 C 
BRANCH  16  17
HETATM   17  N1  UNL     1      93.336 102.725 -44.608  1.00  0.00    -0.366 N 
HETATM   18  C4  UNL     1      93.896 103.861 -44.388  1.00  0.00     0.196 C 
HETATM   19  N2  UNL     1      94.651 104.440 -45.444  1.00  0.00    -0.067 NA
HETATM   20  N3  UNL     1      93.813 104.578 -43.164  1.00  0.00    -0.067 NA
ATOM     21  H1  UNL     1      93.427 102.252 -45.507  1.00  0.00     0.161 HD
ENDBRANCH  16  17
ENDBRANCH   9  16
BRANCH  13  22
HETATM   22  C10 UNL     1      91.505  94.085 -44.841  1.00  0.00    -0.003 C 
HETATM   23  C11 UNL     1      91.470  93.257 -45.717  1.00  0.00    -0.065 C 
BRANCH  23  24
HETATM   24  C12 UNL     1      91.448  92.243 -46.776  1.00  0.00     0.316 C 
HETATM   25  F1  UNL     1      91.204  91.015 -46.215  1.00  0.00    -0.242 F 
ENDBRANCH  23  24
ENDBRANCH  13  22
ENDBRANCH   1   4
TORSDOF 5
ENDMDL
MODEL 4
REMARK VINA RESULT: -4.893047426      1.524      1.915
REMARK  5 active torsions:
REMARK  status: ('A' for Active; 'I' for Inactive)
REMARK    1  A    between atoms: C2_2  and  C3_3 
REMARK    2  A    between atoms: C3_3  and  N1_4 
REMARK       I    between atoms: N4_13  and  C9_14 
REMARK    3  A    between atoms: C9_14  and  C10_16 
REMARK    4  A    between atoms: C11_17  and  C12_18 
REMARK    5  A    between atoms: C14_21  and  C15_22 
ROOT
HETATM    1  C15 UNL     1      90.310  99.741 -42.832  1.00  0.00    -0.082 C 
HETATM    2  C16 UNL     1      89.112  99.822 -43.020  1.00  0.00    -0.023 C 
HETATM    3 BR1  UNL     1      87.259  99.937 -43.297  1.00  0.00     0.010 Br
ENDROOT
BRANCH   1   4
HETATM    4  C14 UNL     1      91.742  99.624 -42.607  1.00  0.00     0.046 C 
HETATM    5  C7  UNL     1      92.419  99.467 -43.979  1.00  0.00     0.026 C 
HETATM    6  C6  UNL     1      92.043 100.660 -44.776  1.00  0.00     0.009 C 
HETATM    7  C8  UNL     1      91.841  98.170 -44.410  1.00  0.00     0.133 C 
HETATM    8  C5  UNL     1      92.785 101.839 -44.133  1.00  0.00     0.011 C 
HETATM    9  C2  UNL     1      92.478 102.016 -42.697  1.00  0.00    -0.026 C 
HETATM   10  C1  UNL     1      91.249 102.925 -42.590  1.00  0.00     0.017 C 
HETATM   11  C17 UNL     1      92.334 100.779 -41.892  1.00  0.00     0.035 C 
HETATM   12  N4  UNL     1      91.832  97.408 -43.173  1.00  0.00    -0.339 N 
HETATM   13  C9  UNL     1      91.645  96.007 -43.113  1.00  0.00     0.298 C 
HETATM   14  C13 UNL     1      92.042  98.281 -42.033  1.00  0.00     0.149 C 
HETATM   15  O1  UNL     1      91.650  95.408 -41.994  1.00  0.00    -0.258 OA
BRANCH   9  16
HETATM   16  C3  UNL     1      93.625 102.828 -42.079  1.00  0.00     0.131 C 
BRANCH  16  17
HETATM   17  N1  UNL     1      94.731 102.926 -43.010  1.00  0.00    -0.366 N 
HETATM   18  C4  UNL     1      95.546 103.906 -42.849  1.00  0.00     0.196 C 
HETATM   19  N2  UNL     1      96.636 104.014 -43.754  1.00  0.00    -0.067 NA
HETATM   20  N3  UNL     1      95.434 104.890 -41.829  1.00  0.00    -0.067 NA
ATOM     21  H1  UNL     1      94.857 102.246 -43.760  1.00  0.00     0.161 HD
ENDBRANCH  16  17
ENDBRANCH   9  16
BRANCH  13  22
HETATM   22  C10 UNL     1      91.443  95.190 -44.266  1.00  0.00    -0.003 C 
HETATM   23  C11 UNL     1      91.261  94.514 -45.248  1.00  0.00    -0.065 C 
BRANCH  23  24
HETATM   24  C12 UNL     1      91.018  93.698 -46.441  1.00  0.00     0.316 C 
HETATM   25  F1  UNL     1      91.179  92.374 -46.118  1.00  0.00    -0.242 F 
ENDBRANCH  23  24
ENDBRANCH  13  22
ENDBRANCH   1   4
TORSDOF 5
ENDMDL
MODEL 5
REMARK VINA RESULT: -4.865462629      4.662      7.767
REMARK  5 active torsions:
REMARK  status: ('A' for Active; 'I' for Inactive)
REMARK    1  A    between atoms: C2_2  and  C3_3 
REMARK    2  A    between atoms: C3_3  and  N1_4 
REMARK       I    between atoms: N4_13  and  C9_14 
REMARK    3  A    between atoms: C9_14  and  C10_16 
REMARK    4  A    between atoms: C11_17  and  C12_18 
REMARK    5  A    between atoms: C14_21  and  C15_22 
ROOT
HETATM    1  C15 UNL     1      92.199 101.029 -43.587  1.00  0.00    -0.082 C 
HETATM    2  C16 UNL     1      92.473 101.884 -44.406  1.00  0.00    -0.023 C 
HETATM    3 BR1  UNL     1      92.882 103.212 -45.669  1.00  0.00     0.010 Br
ENDROOT
BRANCH   1   4
HETATM    4  C14 UNL     1      91.853 100.003 -42.617  1.00  0.00     0.046 C 
HETATM    5  C7  UNL     1      90.342 100.102 -42.352  1.00  0.00     0.026 C 
HETATM    6  C6  UNL     1      89.668  99.926 -43.661  1.00  0.00     0.009 C 
HETATM    7  C8  UNL     1      90.270 101.453 -41.743  1.00  0.00     0.133 C 
HETATM    8  C5  UNL     1      89.879  98.455 -44.042  1.00  0.00     0.011 C 
HETATM    9  C2  UNL     1      91.303  98.058 -44.095  1.00  0.00    -0.026 C 
HETATM   10  C1  UNL     1      91.814  98.341 -45.512  1.00  0.00     0.017 C 
HETATM   11  C17 UNL     1      92.190  98.627 -43.053  1.00  0.00     0.035 C 
HETATM   12  N4  UNL     1      91.465 101.485 -40.917  1.00  0.00    -0.339 N 
HETATM   13  C9  UNL     1      91.699 102.449 -39.907  1.00  0.00     0.298 C 
HETATM   14  C13 UNL     1      92.362 100.403 -41.274  1.00  0.00     0.149 C 
HETATM   15  O1  UNL     1      92.768 102.413 -39.225  1.00  0.00    -0.258 OA
BRANCH   9  16
HETATM   16  C3  UNL     1      91.358  96.530 -43.954  1.00  0.00     0.131 C 
BRANCH  16  17
HETATM   17  N1  UNL     1      91.505  96.158 -42.561  1.00  0.00    -0.366 N 
HETATM   18  C4  UNL     1      91.667  94.910 -42.304  1.00  0.00     0.196 C 
HETATM   19  N2  UNL     1      91.812  94.530 -40.942  1.00  0.00    -0.067 NA
HETATM   20  N3  UNL     1      91.712  93.882 -43.285  1.00  0.00    -0.067 NA
ATOM     21  H1  UNL     1      91.479  96.856 -41.818  1.00  0.00     0.161 HD
ENDBRANCH  16  17
ENDBRANCH   9  16
BRANCH  13  22
HETATM   22  C10 UNL     1      90.782 103.496 -39.593  1.00  0.00    -0.003 C 
HETATM   23  C11 UNL     1      90.003 104.372 -39.310  1.00  0.00    -0.065 C 
BRANCH  23  24
HETATM   24  C12 UNL     1      89.040 105.422 -38.960  1.00  0.00     0.316 C 
HETATM   25  F1  UNL     1      87.892 105.238 -39.689  1.00  0.00    -0.242 F 
ENDBRANCH  23  24
ENDBRANCH  13  22
ENDBRANCH   1   4
TORSDOF 5
ENDMDL
