MODEL 1
REMARK VINA RESULT: -5.341473709      0.000      0.000
REMARK  2 active torsions:
REMARK  status: ('A' for Active; 'I' for Inactive)
REMARK    1  A    between atoms: C5_5  and  C6_6 
REMARK       I    between atoms: N2_9  and  C7_10 
REMARK       I    between atoms: C7_10  and  N4_19 
REMARK       I    between atoms: N3_11  and  C8_13 
REMARK    2  A    between atoms: C8_13  and  C9_15 
ROOT
HETATM    1  C1  UNL     1      86.493  97.802 -44.684  1.00  0.00     0.012 C 
HETATM    2  C2  UNL     1      87.496  98.414 -44.430  1.00  0.00    -0.111 C 
HETATM    3  C3  UNL     1      88.720  99.142 -44.139  1.00  0.00     0.085 C 
HETATM    4  C4  UNL     1      89.721  98.937 -45.287  1.00  0.00     0.054 C 
HETATM    5  C5  UNL     1      90.970  99.529 -44.623  1.00  0.00     0.192 C 
HETATM    6  N2  UNL     1      90.889  98.981 -43.297  1.00  0.00    -0.203 N 
HETATM    7  C7  UNL     1      91.885  98.826 -42.298  1.00  0.00     0.679 C 
HETATM    8  N3  UNL     1      92.261  99.835 -41.611  1.00  0.00    -0.158 N 
ATOM      9  H3  UNL     1      92.978  99.683 -40.901  1.00  0.00     0.187 HD
HETATM   10  C8  UNL     1      91.752 101.154 -41.763  1.00  0.00     0.266 C 
HETATM   11  O2  UNL     1      90.524 101.376 -41.889  1.00  0.00    -0.270 OA
HETATM   12  N4  UNL     1      92.488  97.571 -42.022  1.00  0.00    -0.230 N 
ATOM     13  H4  UNL     1      93.504  97.515 -41.950  1.00  0.00     0.177 HD
HETATM   14  C11 UNL     1      91.708  96.373 -41.839  1.00  0.00     0.165 C 
HETATM   15  C12 UNL     1      89.512  98.529 -43.013  1.00  0.00     0.159 C 
ENDROOT
BRANCH   5  16
HETATM   16  C6  UNL     1      92.186  99.194 -45.369  1.00  0.00     0.254 C 
HETATM   17  N1  UNL     1      92.671  97.914 -45.677  1.00  0.00    -0.060 NA
HETATM   18  O1  UNL     1      92.871 100.193 -45.781  1.00  0.00    -0.275 OA
ENDBRANCH   5  16
BRANCH  10  19
HETATM   19  C9  UNL     1      92.674 102.314 -41.776  1.00  0.00     0.153 C 
HETATM   20  C10 UNL     1      93.668 102.119 -42.891  1.00  0.00     0.051 C 
HETATM   21 BR1  UNL     1      93.675 102.414 -40.108  1.00  0.00    -0.063 Br
HETATM   22 BR2  UNL     1      91.724 103.967 -42.088  1.00  0.00    -0.063 Br
ENDBRANCH  10  19
TORSDOF 2
ENDMDL
MODEL 2
REMARK VINA RESULT: -5.138277033      0.820      1.064
REMARK  2 active torsions:
REMARK  status: ('A' for Active; 'I' for Inactive)
REMARK    1  A    between atoms: C5_5  and  C6_6 
REMARK       I    between atoms: N2_9  and  C7_10 
REMARK       I    between atoms: C7_10  and  N4_19 
REMARK       I    between atoms: N3_11  and  C8_13 
REMARK    2  A    between atoms: C8_13  and  C9_15 
ROOT
HETATM    1  C1  UNL     1      86.550  97.670 -44.841  1.00  0.00     0.012 C 
HETATM    2  C2  UNL     1      87.498  98.344 -44.535  1.00  0.00    -0.111 C 
HETATM    3  C3  UNL     1      88.658  99.146 -44.183  1.00  0.00     0.085 C 
HETATM    4  C4  UNL     1      89.708  99.044 -45.300  1.00  0.00     0.054 C 
HETATM    5  C5  UNL     1      90.890  99.703 -44.578  1.00  0.00     0.192 C 
HETATM    6  N2  UNL     1      90.804  99.113 -43.271  1.00  0.00    -0.203 N 
HETATM    7  C7  UNL     1      91.775  98.999 -42.242  1.00  0.00     0.679 C 
HETATM    8  N3  UNL     1      92.056 100.011 -41.516  1.00  0.00    -0.158 N 
ATOM      9  H3  UNL     1      92.758  99.889 -40.786  1.00  0.00     0.187 HD
HETATM   10  C8  UNL     1      91.461 101.296 -41.651  1.00  0.00     0.266 C 
HETATM   11  O2  UNL     1      90.224 101.435 -41.814  1.00  0.00    -0.270 OA
HETATM   12  N4  UNL     1      92.456  97.781 -41.978  1.00  0.00    -0.230 N 
ATOM     13  H4  UNL     1      93.471  97.794 -41.873  1.00  0.00     0.177 HD
HETATM   14  C11 UNL     1      91.757  96.527 -41.854  1.00  0.00     0.165 C 
HETATM   15  C12 UNL     1      89.454  98.558 -43.047  1.00  0.00     0.159 C 
ENDROOT
BRANCH   5  16
HETATM   16  C6  UNL     1      92.150  99.475 -45.290  1.00  0.00     0.254 C 
HETATM   17  N1  UNL     1      92.720  98.242 -45.641  1.00  0.00    -0.060 NA
HETATM   18  O1  UNL     1      92.791 100.531 -45.624  1.00  0.00    -0.275 OA
ENDBRANCH   5  16
BRANCH  10  19
HETATM   19  C9  UNL     1      92.299 102.517 -41.601  1.00  0.00     0.153 C 
HETATM   20  C10 UNL     1      91.513 103.657 -42.194  1.00  0.00     0.051 C 
HETATM   21 BR1  UNL     1      93.908 102.291 -42.674  1.00  0.00    -0.063 Br
HETATM   22 BR2  UNL     1      92.764 102.979 -39.783  1.00  0.00    -0.063 Br
ENDBRANCH  10  19
TORSDOF 2
ENDMDL
MODEL 3
REMARK VINA RESULT: -5.079949759      1.069      1.198
REMARK  2 active torsions:
REMARK  status: ('A' for Active; 'I' for Inactive)
REMARK    1  A    between atoms: C5_5  and  C6_6 
REMARK       I    between atoms: N2_9  and  C7_10 
REMARK       I    between atoms: C7_10  and  N4_19 
REMARK       I    between atoms: N3_11  and  C8_13 
REMARK    2  A    between atoms: C8_13  and  C9_15 
ROOT
HETATM    1  C1  UNL     1      86.487  98.512 -44.227  1.00  0.00     0.012 C 
HETATM    2  C2  UNL     1      87.530  99.028 -43.924  1.00  0.00    -0.111 C 
HETATM    3  C3  UNL     1      88.801  99.641 -43.576  1.00  0.00     0.085 C 
HETATM    4  C4  UNL     1      89.752  99.563 -44.780  1.00  0.00     0.054 C 
HETATM    5  C5  UNL     1      91.053  99.985 -44.085  1.00  0.00     0.192 C 
HETATM    6  N2  UNL     1      90.983  99.246 -42.854  1.00  0.00    -0.203 N 
HETATM    7  C7  UNL     1      92.000  98.892 -41.930  1.00  0.00     0.679 C 
HETATM    8  N3  UNL     1      92.453  99.764 -41.115  1.00  0.00    -0.158 N 
ATOM      9  H3  UNL     1      93.182  99.471 -40.465  1.00  0.00     0.187 HD
HETATM   10  C8  UNL     1      92.013 101.115 -41.047  1.00  0.00     0.266 C 
HETATM   11  O2  UNL     1      90.795 101.415 -41.089  1.00  0.00    -0.270 OA
HETATM   12  N4  UNL     1      92.541  97.580 -41.869  1.00  0.00    -0.230 N 
ATOM     13  H4  UNL     1      93.554  97.463 -41.847  1.00  0.00     0.177 HD
HETATM   14  C11 UNL     1      91.703  96.409 -41.837  1.00  0.00     0.165 C 
HETATM   15  C12 UNL     1      89.593  98.825 -42.587  1.00  0.00     0.159 C 
ENDROOT
BRANCH   5  16
HETATM   16  C6  UNL     1      92.224  99.707 -44.921  1.00  0.00     0.254 C 
HETATM   17  N1  UNL     1      92.843  98.466 -45.134  1.00  0.00    -0.060 NA
HETATM   18  O1  UNL     1      92.726 100.721 -45.517  1.00  0.00    -0.275 OA
ENDBRANCH   5  16
BRANCH  10  19
HETATM   19  C9  UNL     1      92.997 102.216 -40.922  1.00  0.00     0.153 C 
HETATM   20  C10 UNL     1      94.011 101.831 -39.876  1.00  0.00     0.051 C 
HETATM   21 BR1  UNL     1      92.126 103.851 -40.321  1.00  0.00    -0.063 Br
HETATM   22 BR2  UNL     1      93.927 102.525 -42.587  1.00  0.00    -0.063 Br
ENDBRANCH  10  19
TORSDOF 2
ENDMDL
MODEL 4
REMARK VINA RESULT: -4.861628915      3.040      4.236
REMARK  2 active torsions:
REMARK  status: ('A' for Active; 'I' for Inactive)
REMARK    1  A    between atoms: C5_5  and  C6_6 
REMARK       I    between atoms: N2_9  and  C7_10 
REMARK       I    between atoms: C7_10  and  N4_19 
REMARK       I    between atoms: N3_11  and  C8_13 
REMARK    2  A    between atoms: C8_13  and  C9_15 
ROOT
HETATM    1  C1  UNL     1      91.714  92.915 -44.832  1.00  0.00     0.012 C 
HETATM    2  C2  UNL     1      91.392  94.072 -44.880  1.00  0.00    -0.111 C 
HETATM    3  C3  UNL     1      91.026  95.478 -44.943  1.00  0.00     0.085 C 
HETATM    4  C4  UNL     1      92.143  96.265 -45.645  1.00  0.00     0.054 C 
HETATM    5  C5  UNL     1      91.668  97.689 -45.326  1.00  0.00     0.192 C 
HETATM    6  N2  UNL     1      91.284  97.570 -43.946  1.00  0.00    -0.203 N 
HETATM    7  C7  UNL     1      91.106  98.563 -42.947  1.00  0.00     0.679 C 
HETATM    8  N3  UNL     1      90.049  99.279 -42.942  1.00  0.00    -0.158 N 
ATOM      9  H3  UNL     1      89.957  99.981 -42.208  1.00  0.00     0.187 HD
HETATM   10  C8  UNL     1      88.991  99.170 -43.887  1.00  0.00     0.266 C 
HETATM   11  O2  UNL     1      88.540  98.055 -44.245  1.00  0.00    -0.270 OA
HETATM   12  N4  UNL     1      92.070  98.792 -41.930  1.00  0.00    -0.230 N 
ATOM     13  H4  UNL     1      92.365  99.749 -41.735  1.00  0.00     0.177 HD
HETATM   14  C11 UNL     1      92.644  97.714 -41.166  1.00  0.00     0.165 C 
HETATM   15  C12 UNL     1      91.062  96.153 -43.596  1.00  0.00     0.159 C 
ENDROOT
BRANCH   5  16
HETATM   16  C6  UNL     1      92.710  98.679 -45.607  1.00  0.00     0.254 C 
HETATM   17  N1  UNL     1      92.845  99.473 -46.756  1.00  0.00    -0.060 NA
HETATM   18  O1  UNL     1      93.590  98.826 -44.689  1.00  0.00    -0.275 OA
ENDBRANCH   5  16
BRANCH  10  19
HETATM   19  C9  UNL     1      88.387 100.387 -44.477  1.00  0.00     0.153 C 
HETATM   20  C10 UNL     1      88.219 101.411 -43.385  1.00  0.00     0.051 C 
HETATM   21 BR1  UNL     1      86.618  99.998 -45.195  1.00  0.00    -0.063 Br
HETATM   22 BR2  UNL     1      89.517 101.140 -45.851  1.00  0.00    -0.063 Br
ENDBRANCH  10  19
TORSDOF 2
ENDMDL
MODEL 5
REMARK VINA RESULT: -4.818756421      3.678      5.820
REMARK  2 active torsions:
REMARK  status: ('A' for Active; 'I' for Inactive)
REMARK    1  A    between atoms: C5_5  and  C6_6 
REMARK       I    between atoms: N2_9  and  C7_10 
REMARK       I    between atoms: C7_10  and  N4_19 
REMARK       I    between atoms: N3_11  and  C8_13 
REMARK    2  A    between atoms: C8_13  and  C9_15 
ROOT
HETATM    1  C1  UNL     1      92.774 101.038 -40.862  1.00  0.00     0.012 C 
HETATM    2  C2  UNL     1      92.061 100.425 -41.613  1.00  0.00    -0.111 C 
HETATM    3  C3  UNL     1      91.219  99.670 -42.526  1.00  0.00     0.085 C 
HETATM    4  C4  UNL     1      91.896  98.331 -42.855  1.00  0.00     0.054 C 
HETATM    5  C5  UNL     1      90.991  97.885 -44.011  1.00  0.00     0.192 C 
HETATM    6  N2  UNL     1      90.839  99.104 -44.755  1.00  0.00    -0.203 N 
HETATM    7  C7  UNL     1      90.442  99.323 -46.101  1.00  0.00     0.679 C 
HETATM    8  N3  UNL     1      89.209  99.242 -46.422  1.00  0.00    -0.158 N 
ATOM      9  H3  UNL     1      88.962  99.407 -47.398  1.00  0.00     0.187 HD
HETATM   10  C8  UNL     1      88.154  98.937 -45.518  1.00  0.00     0.266 C 
HETATM   11  O2  UNL     1      88.086  99.467 -44.382  1.00  0.00    -0.270 OA
HETATM   12  N4  UNL     1      91.376  99.641 -47.122  1.00  0.00    -0.230 N 
ATOM     13  H4  UNL     1      91.336  99.132 -48.005  1.00  0.00     0.177 HD
HETATM   14  C11 UNL     1      92.379 100.661 -46.948  1.00  0.00     0.165 C 
HETATM   15  C12 UNL     1      91.173 100.267 -43.909  1.00  0.00     0.159 C 
ENDROOT
BRANCH   5  16
HETATM   16  C6  UNL     1      91.578  96.764 -44.751  1.00  0.00     0.254 C 
HETATM   17  N1  UNL     1      91.319  95.397 -44.573  1.00  0.00    -0.060 NA
HETATM   18  O1  UNL     1      92.419  97.086 -45.660  1.00  0.00    -0.275 OA
ENDBRANCH   5  16
BRANCH  10  19
HETATM   19  C9  UNL     1      87.094  97.975 -45.901  1.00  0.00     0.153 C 
HETATM   20  C10 UNL     1      87.752  96.682 -46.308  1.00  0.00     0.051 C 
HETATM   21 BR1  UNL     1      86.091  98.632 -47.436  1.00  0.00    -0.063 Br
HETATM   22 BR2  UNL     1      85.901  97.613 -44.425  1.00  0.00    -0.063 Br
ENDBRANCH  10  19
TORSDOF 2
ENDMDL
