MODEL 1
REMARK VINA RESULT: -7.334244925      0.000      0.000
REMARK  6 active torsions:
REMARK  status: ('A' for Active; 'I' for Inactive)
REMARK       I    between atoms: C1_2  and  N6_24 
REMARK    1  A    between atoms: N2_3  and  C2_5 
REMARK    2  A    between atoms: C2_5  and  N3_6 
REMARK    3  A    between atoms: C5_9  and  C6_10 
REMARK    4  A    between atoms: C6_10  and  C7_11 
REMARK    5  A    between atoms: C7_11  and  C8_12 
REMARK    6  A    between atoms: C8_12  and  C9_13 
ROOT
HETATM    1  N3  UNL     1      91.339  93.889 -44.645  1.00  0.00    -0.333 N 
HETATM    2  C3  UNL     1      90.897  94.759 -45.572  1.00  0.00     0.094 A 
HETATM    3  C4  UNL     1      90.590  96.087 -45.247  1.00  0.00     0.026 A 
HETATM    4  C5  UNL     1      90.740  96.526 -43.952  1.00  0.00    -0.037 A 
HETATM    5  C12 UNL     1      91.194  95.626 -43.018  1.00  0.00     0.051 A 
HETATM    6 BR1  UNL     1      91.430  96.179 -41.190  1.00  0.00    -0.048 Br
HETATM    7  C13 UNL     1      91.481  94.332 -43.390  1.00  0.00     0.101 A 
HETATM    8 BR2  UNL     1      92.107  93.107 -42.071  1.00  0.00    -0.029 Br
ENDROOT
BRANCH   1   9
HETATM    9  C2  UNL     1      91.650  92.514 -45.022  1.00  0.00     0.254 C 
BRANCH   9  10
HETATM   10  N2  UNL     1      90.801  92.031 -46.064  1.00  0.00    -0.347 N 
HETATM   11  C1  UNL     1      91.287  91.308 -47.006  1.00  0.00     0.207 C 
HETATM   12  N1  UNL     1      92.671  90.999 -46.996  1.00  0.00    -0.062 NA
HETATM   13  N6  UNL     1      90.453  90.825 -48.041  1.00  0.00    -0.250 N 
HETATM   14  N7  UNL     1      89.416  89.911 -47.876  1.00  0.00    -0.310 N 
HETATM   15  C16 UNL     1      90.504  91.167 -49.447  1.00  0.00     0.187 C 
HETATM   16  C14 UNL     1      89.143  89.336 -49.007  1.00  0.00     0.083 C 
ATOM     17  H7  UNL     1      88.939  89.722 -46.995  1.00  0.00     0.186 HD
HETATM   18  C15 UNL     1      90.039  89.865 -50.062  1.00  0.00     0.085 C 
HETATM   19 BR3  UNL     1      89.162  92.499 -49.889  1.00  0.00    -0.066 Br
ATOM     20  H2  UNL     1      89.807  92.261 -46.059  1.00  0.00     0.163 HD
ENDBRANCH   9  10
ENDBRANCH   1   9
BRANCH   4  21
HETATM   21  C6  UNL     1      90.416  97.930 -43.600  1.00  0.00     0.040 C 
BRANCH  21  22
HETATM   22  C7  UNL     1      91.521  98.879 -43.919  1.00  0.00     0.011 C 
BRANCH  22  23
HETATM   23  C8  UNL     1      91.054 100.292 -43.718  1.00  0.00     0.059 C 
BRANCH  23  24
HETATM   24  C9  UNL     1      91.146 100.746 -42.331  1.00  0.00     0.025 A 
HETATM   25  C10 UNL     1      90.119 101.266 -41.553  1.00  0.00     0.113 A 
HETATM   26  N4  UNL     1      90.602 101.567 -40.336  1.00  0.00    -0.360 N 
HETATM   27  C11 UNL     1      91.903 101.252 -40.323  1.00  0.00     0.180 A 
ATOM     28  H4  UNL     1      90.073 101.964 -39.560  1.00  0.00     0.166 HD
HETATM   29  N5  UNL     1      92.220 100.764 -41.518  1.00  0.00    -0.355 N 
ATOM     30  H5  UNL     1      93.151 100.445 -41.783  1.00  0.00     0.166 HD
ENDBRANCH  23  24
ENDBRANCH  22  23
ENDBRANCH  21  22
ENDBRANCH   4  21
TORSDOF 6
ENDMDL
MODEL 2
REMARK VINA RESULT: -7.248456599      2.461      3.171
REMARK  6 active torsions:
REMARK  status: ('A' for Active; 'I' for Inactive)
REMARK       I    between atoms: C1_2  and  N6_24 
REMARK    1  A    between atoms: N2_3  and  C2_5 
REMARK    2  A    between atoms: C2_5  and  N3_6 
REMARK    3  A    between atoms: C5_9  and  C6_10 
REMARK    4  A    between atoms: C6_10  and  C7_11 
REMARK    5  A    between atoms: C7_11  and  C8_12 
REMARK    6  A    between atoms: C8_12  and  C9_13 
ROOT
HETATM    1  N3  UNL     1      91.294  93.897 -44.690  1.00  0.00    -0.333 N 
HETATM    2  C3  UNL     1      90.821  94.745 -45.624  1.00  0.00     0.094 A 
HETATM    3  C4  UNL     1      90.499  96.072 -45.316  1.00  0.00     0.026 A 
HETATM    4  C5  UNL     1      90.664  96.536 -44.031  1.00  0.00    -0.037 A 
HETATM    5  C12 UNL     1      91.148  95.659 -43.090  1.00  0.00     0.051 A 
HETATM    6 BR1  UNL     1      91.406  96.246 -41.276  1.00  0.00    -0.048 Br
HETATM    7  C13 UNL     1      91.450  94.364 -43.445  1.00  0.00     0.101 A 
HETATM    8 BR2  UNL     1      92.118  93.171 -42.117  1.00  0.00    -0.029 Br
ENDROOT
BRANCH   1   9
HETATM    9  C2  UNL     1      91.621  92.521 -45.049  1.00  0.00     0.254 C 
BRANCH   9  10
HETATM   10  N2  UNL     1      90.786  92.019 -46.095  1.00  0.00    -0.347 N 
HETATM   11  C1  UNL     1      91.284  91.278 -47.015  1.00  0.00     0.207 C 
HETATM   12  N1  UNL     1      92.667  90.966 -46.978  1.00  0.00    -0.062 NA
HETATM   13  N6  UNL     1      90.465  90.776 -48.053  1.00  0.00    -0.250 N 
HETATM   14  N7  UNL     1      89.423  89.868 -47.886  1.00  0.00    -0.310 N 
HETATM   15  C16 UNL     1      90.538  91.091 -49.465  1.00  0.00     0.187 C 
HETATM   16  C14 UNL     1      89.166  89.271 -49.009  1.00  0.00     0.083 C 
ATOM     17  H7  UNL     1      88.933  89.697 -47.008  1.00  0.00     0.186 HD
HETATM   18  C15 UNL     1      90.080  89.778 -50.061  1.00  0.00     0.085 C 
HETATM   19 BR3  UNL     1      89.206  92.417 -49.953  1.00  0.00    -0.066 Br
ATOM     20  H2  UNL     1      89.792  92.251 -46.109  1.00  0.00     0.163 HD
ENDBRANCH   9  10
ENDBRANCH   1   9
BRANCH   4  21
HETATM   21  C6  UNL     1      90.323  97.940 -43.697  1.00  0.00     0.040 C 
BRANCH  21  22
HETATM   22  C7  UNL     1      89.331  98.537 -44.638  1.00  0.00     0.011 C 
BRANCH  22  23
HETATM   23  C8  UNL     1      88.246  99.228 -43.865  1.00  0.00     0.059 C 
BRANCH  23  24
HETATM   24  C9  UNL     1      86.941  98.580 -43.981  1.00  0.00     0.025 A 
HETATM   25  C10 UNL     1      86.518  97.727 -44.992  1.00  0.00     0.113 A 
HETATM   26  N4  UNL     1      85.256  97.341 -44.741  1.00  0.00    -0.360 N 
HETATM   27  C11 UNL     1      84.869  97.926 -43.601  1.00  0.00     0.180 A 
ATOM     28  H4  UNL     1      84.693  96.715 -45.315  1.00  0.00     0.166 HD
HETATM   29  N5  UNL     1      85.880  98.665 -43.154  1.00  0.00    -0.355 N 
ATOM     30  H5  UNL     1      85.856  99.221 -42.300  1.00  0.00     0.166 HD
ENDBRANCH  23  24
ENDBRANCH  22  23
ENDBRANCH  21  22
ENDBRANCH   4  21
TORSDOF 6
ENDMDL
MODEL 3
REMARK VINA RESULT: -7.093642601      1.102      1.434
REMARK  6 active torsions:
REMARK  status: ('A' for Active; 'I' for Inactive)
REMARK       I    between atoms: C1_2  and  N6_24 
REMARK    1  A    between atoms: N2_3  and  C2_5 
REMARK    2  A    between atoms: C2_5  and  N3_6 
REMARK    3  A    between atoms: C5_9  and  C6_10 
REMARK    4  A    between atoms: C6_10  and  C7_11 
REMARK    5  A    between atoms: C7_11  and  C8_12 
REMARK    6  A    between atoms: C8_12  and  C9_13 
ROOT
HETATM    1  N3  UNL     1      91.331  93.860 -44.665  1.00  0.00    -0.333 N 
HETATM    2  C3  UNL     1      90.854  94.732 -45.574  1.00  0.00     0.094 A 
HETATM    3  C4  UNL     1      90.523  96.048 -45.228  1.00  0.00     0.026 A 
HETATM    4  C5  UNL     1      90.684  96.474 -43.930  1.00  0.00    -0.037 A 
HETATM    5  C12 UNL     1      91.173  95.573 -43.014  1.00  0.00     0.051 A 
HETATM    6 BR1  UNL     1      91.426  96.109 -41.184  1.00  0.00    -0.048 Br
HETATM    7  C13 UNL     1      91.483  94.291 -43.407  1.00  0.00     0.101 A 
HETATM    8 BR2  UNL     1      92.158  93.065 -42.114  1.00  0.00    -0.029 Br
ENDROOT
BRANCH   1   9
HETATM    9  C2  UNL     1      91.667  92.498 -45.064  1.00  0.00     0.254 C 
BRANCH   9  10
HETATM   10  N2  UNL     1      90.812  92.008 -46.099  1.00  0.00    -0.347 N 
HETATM   11  C1  UNL     1      91.291  91.273 -47.034  1.00  0.00     0.207 C 
HETATM   12  N1  UNL     1      92.673  90.956 -47.025  1.00  0.00    -0.062 NA
HETATM   13  N6  UNL     1      90.451  90.782 -48.061  1.00  0.00    -0.250 N 
HETATM   14  N7  UNL     1      89.410  89.876 -47.883  1.00  0.00    -0.310 N 
HETATM   15  C16 UNL     1      90.500  91.109 -49.471  1.00  0.00     0.187 C 
HETATM   16  C14 UNL     1      89.130  89.290 -49.006  1.00  0.00     0.083 C 
ATOM     17  H7  UNL     1      88.935  89.699 -46.998  1.00  0.00     0.186 HD
HETATM   18  C15 UNL     1      90.026  89.803 -50.071  1.00  0.00     0.085 C 
HETATM   19 BR3  UNL     1      89.163  92.444 -49.923  1.00  0.00    -0.066 Br
ATOM     20  H2  UNL     1      89.819  92.243 -46.093  1.00  0.00     0.163 HD
ENDBRANCH   9  10
ENDBRANCH   1   9
BRANCH   4  21
HETATM   21  C6  UNL     1      90.334  97.866 -43.555  1.00  0.00     0.040 C 
BRANCH  21  22
HETATM   22  C7  UNL     1      91.458  98.824 -43.762  1.00  0.00     0.011 C 
BRANCH  22  23
HETATM   23  C8  UNL     1      91.392  99.919 -42.737  1.00  0.00     0.059 C 
BRANCH  23  24
HETATM   24  C9  UNL     1      92.211 101.083 -43.069  1.00  0.00     0.025 A 
HETATM   25  C10 UNL     1      92.377 101.657 -44.323  1.00  0.00     0.113 A 
HETATM   26  N4  UNL     1      93.206 102.709 -44.216  1.00  0.00    -0.360 N 
HETATM   27  C11 UNL     1      93.569 102.815 -42.932  1.00  0.00     0.180 A 
ATOM     28  H4  UNL     1      93.506 103.318 -44.977  1.00  0.00     0.166 HD
HETATM   29  N5  UNL     1      92.971 101.840 -42.254  1.00  0.00    -0.355 N 
ATOM     30  H5  UNL     1      93.074 101.686 -41.252  1.00  0.00     0.166 HD
ENDBRANCH  23  24
ENDBRANCH  22  23
ENDBRANCH  21  22
ENDBRANCH   4  21
TORSDOF 6
ENDMDL
MODEL 4
REMARK VINA RESULT: -7.040112177      2.066      2.461
REMARK  6 active torsions:
REMARK  status: ('A' for Active; 'I' for Inactive)
REMARK       I    between atoms: C1_2  and  N6_24 
REMARK    1  A    between atoms: N2_3  and  C2_5 
REMARK    2  A    between atoms: C2_5  and  N3_6 
REMARK    3  A    between atoms: C5_9  and  C6_10 
REMARK    4  A    between atoms: C6_10  and  C7_11 
REMARK    5  A    between atoms: C7_11  and  C8_12 
REMARK    6  A    between atoms: C8_12  and  C9_13 
ROOT
HETATM    1  N3  UNL     1      91.347  93.928 -44.651  1.00  0.00    -0.333 N 
HETATM    2  C3  UNL     1      90.986  94.792 -45.619  1.00  0.00     0.094 A 
HETATM    3  C4  UNL     1      90.733  96.141 -45.343  1.00  0.00     0.026 A 
HETATM    4  C5  UNL     1      90.853  96.610 -44.055  1.00  0.00    -0.037 A 
HETATM    5  C12 UNL     1      91.224  95.716 -43.078  1.00  0.00     0.051 A 
HETATM    6 BR1  UNL     1      91.415  96.309 -41.258  1.00  0.00    -0.048 Br
HETATM    7  C13 UNL     1      91.461  94.400 -43.403  1.00  0.00     0.101 A 
HETATM    8 BR2  UNL     1      91.972  93.184 -42.028  1.00  0.00    -0.029 Br
ENDROOT
BRANCH   1   9
HETATM    9  C2  UNL     1      91.604  92.529 -44.978  1.00  0.00     0.254 C 
BRANCH   9  10
HETATM   10  N2  UNL     1      90.767  92.055 -46.035  1.00  0.00    -0.347 N 
HETATM   11  C1  UNL     1      91.267  91.354 -46.985  1.00  0.00     0.207 C 
HETATM   12  N1  UNL     1      92.654  91.057 -46.969  1.00  0.00    -0.062 NA
HETATM   13  N6  UNL     1      90.446  90.879 -48.034  1.00  0.00    -0.250 N 
HETATM   14  N7  UNL     1      89.416  89.953 -47.892  1.00  0.00    -0.310 N 
HETATM   15  C16 UNL     1      90.504  91.246 -49.434  1.00  0.00     0.187 C 
HETATM   16  C14 UNL     1      89.158  89.394 -49.034  1.00  0.00     0.083 C 
ATOM     17  H7  UNL     1      88.935  89.745 -47.018  1.00  0.00     0.186 HD
HETATM   18  C15 UNL     1      90.057  89.949 -50.074  1.00  0.00     0.085 C 
HETATM   19 BR3  UNL     1      89.153  92.572 -49.864  1.00  0.00    -0.066 Br
ATOM     20  H2  UNL     1      89.771  92.275 -46.033  1.00  0.00     0.163 HD
ENDBRANCH   9  10
ENDBRANCH   1   9
BRANCH   4  21
HETATM   21  C6  UNL     1      90.585  98.037 -43.754  1.00  0.00     0.040 C 
BRANCH  21  22
HETATM   22  C7  UNL     1      89.132  98.372 -43.773  1.00  0.00     0.011 C 
BRANCH  22  23
HETATM   23  C8  UNL     1      88.807  99.302 -42.640  1.00  0.00     0.059 C 
BRANCH  23  24
HETATM   24  C9  UNL     1      87.471  99.889 -42.729  1.00  0.00     0.025 A 
HETATM   25  C10 UNL     1      86.411  99.439 -43.504  1.00  0.00     0.113 A 
HETATM   26  N4  UNL     1      85.353 100.246 -43.312  1.00  0.00    -0.360 N 
HETATM   27  C11 UNL     1      85.716 101.193 -42.438  1.00  0.00     0.180 A 
ATOM     28  H4  UNL     1      84.439 100.154 -43.752  1.00  0.00     0.166 HD
HETATM   29  N5  UNL     1      86.982 100.973 -42.096  1.00  0.00    -0.355 N 
ATOM     30  H5  UNL     1      87.512 101.549 -41.442  1.00  0.00     0.166 HD
ENDBRANCH  23  24
ENDBRANCH  22  23
ENDBRANCH  21  22
ENDBRANCH   4  21
TORSDOF 6
ENDMDL
MODEL 5
REMARK VINA RESULT: -6.969019043      2.377      9.627
REMARK  6 active torsions:
REMARK  status: ('A' for Active; 'I' for Inactive)
REMARK       I    between atoms: C1_2  and  N6_24 
REMARK    1  A    between atoms: N2_3  and  C2_5 
REMARK    2  A    between atoms: C2_5  and  N3_6 
REMARK    3  A    between atoms: C5_9  and  C6_10 
REMARK    4  A    between atoms: C6_10  and  C7_11 
REMARK    5  A    between atoms: C7_11  and  C8_12 
REMARK    6  A    between atoms: C8_12  and  C9_13 
ROOT
HETATM    1  N3  UNL     1      90.664  96.769 -43.446  1.00  0.00    -0.333 N 
HETATM    2  C3  UNL     1      90.420  96.448 -44.731  1.00  0.00     0.094 A 
HETATM    3  C4  UNL     1      90.721  95.179 -45.241  1.00  0.00     0.026 A 
HETATM    4  C5  UNL     1      91.280  94.227 -44.421  1.00  0.00    -0.037 A 
HETATM    5  C12 UNL     1      91.522  94.570 -43.112  1.00  0.00     0.051 A 
HETATM    6 BR1  UNL     1      92.298  93.281 -41.911  1.00  0.00    -0.048 Br
HETATM    7  C13 UNL     1      91.207  95.831 -42.660  1.00  0.00     0.101 A 
HETATM    8 BR2  UNL     1      91.555  96.277 -40.840  1.00  0.00    -0.029 Br
ENDROOT
BRANCH   1   9
HETATM    9  C2  UNL     1      90.334  98.101 -42.949  1.00  0.00     0.254 C 
BRANCH   9  10
HETATM   10  N2  UNL     1      91.238  99.098 -43.428  1.00  0.00    -0.347 N 
HETATM   11  C1  UNL     1      90.982 100.341 -43.242  1.00  0.00     0.207 C 
HETATM   12  N1  UNL     1      89.794 100.707 -42.558  1.00  0.00    -0.062 NA
HETATM   13  N6  UNL     1      91.872 101.335 -43.711  1.00  0.00    -0.250 N 
HETATM   14  N7  UNL     1      93.169 101.534 -43.248  1.00  0.00    -0.310 N 
HETATM   15  C16 UNL     1      91.626 102.325 -44.739  1.00  0.00     0.187 C 
HETATM   16  C14 UNL     1      93.561 102.741 -43.521  1.00  0.00     0.083 C 
ATOM     17  H7  UNL     1      93.730 100.833 -42.764  1.00  0.00     0.186 HD
HETATM   18  C15 UNL     1      92.479 103.466 -44.228  1.00  0.00     0.085 C 
HETATM   19 BR3  UNL     1      92.395 101.774 -46.435  1.00  0.00    -0.066 Br
ATOM     20  H2  UNL     1      92.090  98.822 -43.918  1.00  0.00     0.163 HD
ENDBRANCH   9  10
ENDBRANCH   1   9
BRANCH   4  21
HETATM   21  C6  UNL     1      91.604  92.881 -44.954  1.00  0.00     0.040 C 
BRANCH  21  22
HETATM   22  C7  UNL     1      90.900  92.579 -46.234  1.00  0.00     0.011 C 
BRANCH  22  23
HETATM   23  C8  UNL     1      91.516  91.374 -46.883  1.00  0.00     0.059 C 
BRANCH  23  24
HETATM   24  C9  UNL     1      90.935  91.049 -48.185  1.00  0.00     0.025 A 
HETATM   25  C10 UNL     1      89.792  90.296 -48.426  1.00  0.00     0.113 A 
HETATM   26  N4  UNL     1      89.588  90.224 -49.752  1.00  0.00    -0.360 N 
HETATM   27  C11 UNL     1      90.567  90.908 -50.355  1.00  0.00     0.180 A 
ATOM     28  H4  UNL     1      88.823  89.735 -50.216  1.00  0.00     0.166 HD
HETATM   29  N5  UNL     1      91.368  91.396 -49.413  1.00  0.00    -0.355 N 
ATOM     30  H5  UNL     1      92.198  91.959 -49.595  1.00  0.00     0.166 HD
ENDBRANCH  23  24
ENDBRANCH  22  23
ENDBRANCH  21  22
ENDBRANCH   4  21
TORSDOF 6
ENDMDL
