MODEL 1
REMARK VINA RESULT: -7.545120466      0.000      0.000
REMARK  6 active torsions:
REMARK  status: ('A' for Active; 'I' for Inactive)
REMARK    1  A    between atoms: C4_8  and  C5_9 
REMARK    2  A    between atoms: C6_10  and  C7_11 
REMARK    3  A    between atoms: C7_11  and  C8_12 
REMARK    4  A    between atoms: C8_12  and  N3_14 
REMARK    5  A    between atoms: N3_14  and  C10_16 
REMARK    6  A    between atoms: C13_19  and  C14_20 
ROOT
HETATM    1  C5  UNL     1      90.535  97.866 -44.278  1.00  0.00     0.044 A 
HETATM    2  C6  UNL     1      90.972  98.428 -43.108  1.00  0.00    -0.007 A 
HETATM    3  C24 UNL     1      91.490  97.565 -42.108  1.00  0.00     0.055 A 
HETATM    4 CL1  UNL     1      92.046  98.262 -40.617  1.00  0.00    -0.083 Cl
HETATM    5  C25 UNL     1      91.566  96.212 -42.280  1.00  0.00     0.013 A 
HETATM    6  C26 UNL     1      92.075  95.370 -41.302  1.00  0.00     0.015 A 
HETATM    7  C27 UNL     1      92.150  94.002 -41.486  1.00  0.00     0.001 A 
HETATM    8  C28 UNL     1      91.700  93.484 -42.682  1.00  0.00     0.002 A 
HETATM    9  C29 UNL     1      91.192  94.315 -43.661  1.00  0.00     0.030 A 
HETATM   10  C30 UNL     1      91.117  95.694 -43.476  1.00  0.00     0.046 A 
HETATM   11  N5  UNL     1      90.627  96.511 -44.414  1.00  0.00    -0.350 N 
HETATM   12  C31 UNL     1      90.164  95.929 -45.660  1.00  0.00     0.156 C 
ENDROOT
BRANCH   2  13
HETATM   13  C7  UNL     1      90.986  99.864 -42.877  1.00  0.00     0.067 C 
BRANCH  13  14
HETATM   14  C8  UNL     1      89.874 100.468 -42.100  1.00  0.00     0.082 C 
HETATM   15  C9  UNL     1      90.311 101.523 -41.126  1.00  0.00     0.032 C 
BRANCH  14  16
HETATM   16  N3  UNL     1      88.860 101.052 -42.975  1.00  0.00    -0.385 N 
ATOM     17  H3  UNL     1      88.976 102.035 -43.219  1.00  0.00     0.160 HD
BRANCH  16  18
HETATM   18  C10 UNL     1      87.754 100.404 -43.508  1.00  0.00     0.028 A 
HETATM   19  C11 UNL     1      87.304  99.216 -42.999  1.00  0.00     0.030 A 
HETATM   20  C12 UNL     1      86.192  98.544 -43.501  1.00  0.00     0.014 A 
HETATM   21  C13 UNL     1      85.510  99.103 -44.564  1.00  0.00    -0.019 A 
HETATM   22  C22 UNL     1      85.959 100.300 -45.081  1.00  0.00     0.014 A 
HETATM   23  C23 UNL     1      87.072 100.961 -44.569  1.00  0.00     0.030 A 
BRANCH  21  24
HETATM   24  C14 UNL     1      84.343  98.401 -45.092  1.00  0.00     0.055 A 
HETATM   25  C15 UNL     1      84.310  97.469 -46.041  1.00  0.00     0.007 A 
HETATM   26  C16 UNL     1      85.324  96.911 -46.779  1.00  0.00     0.015 A 
HETATM   27  C20 UNL     1      83.022  97.041 -46.270  1.00  0.00     0.046 A 
HETATM   28  C17 UNL     1      85.094  95.942 -47.736  1.00  0.00     0.001 A 
HETATM   29  C18 UNL     1      83.810  95.500 -47.979  1.00  0.00     0.002 A 
HETATM   30  C19 UNL     1      82.790  96.060 -47.238  1.00  0.00     0.030 A 
HETATM   31  N4  UNL     1      82.202  97.667 -45.495  1.00  0.00    -0.322 N 
HETATM   32  C21 UNL     1      82.948  98.569 -44.692  1.00  0.00     0.258 A 
ATOM     33  H4  UNL     1      81.191  97.535 -45.464  1.00  0.00     0.169 HD
HETATM   34  O1  UNL     1      82.498  99.357 -43.811  1.00  0.00    -0.267 OA
ENDBRANCH  21  24
ENDBRANCH  16  18
ENDBRANCH  14  16
ENDBRANCH  13  14
ENDBRANCH   2  13
BRANCH   1  35
HETATM   35  C4  UNL     1      89.915  98.612 -45.367  1.00  0.00     0.065 C 
HETATM   36  C3  UNL     1      90.661  99.237 -46.294  1.00  0.00     0.102 A 
HETATM   37  N2  UNL     1      91.998  99.280 -46.371  1.00  0.00    -0.296 N 
HETATM   38  C32 UNL     1      90.150  99.959 -47.348  1.00  0.00     0.227 A 
HETATM   39  N1  UNL     1      92.337  99.994 -47.421  1.00  0.00    -0.297 N 
ATOM     40  H2  UNL     1      92.645  98.832 -45.722  1.00  0.00     0.187 HD
HETATM   41  C2  UNL     1      91.224 100.434 -48.056  1.00  0.00     0.091 A 
ATOM     42  H1  UNL     1      93.295 100.188 -47.714  1.00  0.00     0.187 HD
HETATM   43  C1  UNL     1      91.190 101.185 -49.158  1.00  0.00     0.049 C 
HETATM   44  O2  UNL     1      88.922 100.163 -47.634  1.00  0.00    -0.283 OA
ENDBRANCH   1  35
TORSDOF 6
ENDMDL
MODEL 2
REMARK VINA RESULT: -7.471630836      2.723      4.089
REMARK  6 active torsions:
REMARK  status: ('A' for Active; 'I' for Inactive)
REMARK    1  A    between atoms: C4_8  and  C5_9 
REMARK    2  A    between atoms: C6_10  and  C7_11 
REMARK    3  A    between atoms: C7_11  and  C8_12 
REMARK    4  A    between atoms: C8_12  and  N3_14 
REMARK    5  A    between atoms: N3_14  and  C10_16 
REMARK    6  A    between atoms: C13_19  and  C14_20 
ROOT
HETATM    1  C5  UNL     1      90.315  98.627 -43.278  1.00  0.00     0.044 A 
HETATM    2  C6  UNL     1      89.705  98.882 -44.478  1.00  0.00    -0.007 A 
HETATM    3  C24 UNL     1      89.688  97.848 -45.449  1.00  0.00     0.055 A 
HETATM    4 CL1  UNL     1      88.919  98.156 -46.976  1.00  0.00    -0.083 Cl
HETATM    5  C25 UNL     1      90.252  96.624 -45.222  1.00  0.00     0.013 A 
HETATM    6  C26 UNL     1      90.232  95.613 -46.172  1.00  0.00     0.015 A 
HETATM    7  C27 UNL     1      90.804  94.379 -45.932  1.00  0.00     0.001 A 
HETATM    8  C28 UNL     1      91.404  94.169 -44.709  1.00  0.00     0.002 A 
HETATM    9  C29 UNL     1      91.428  95.170 -43.758  1.00  0.00     0.030 A 
HETATM   10  C30 UNL     1      90.852  96.415 -43.999  1.00  0.00     0.046 A 
HETATM   11  N5  UNL     1      90.867  97.393 -43.088  1.00  0.00    -0.350 N 
HETATM   12  C31 UNL     1      91.508  97.135 -41.812  1.00  0.00     0.156 C 
ENDROOT
BRANCH   2  13
HETATM   13  C7  UNL     1      89.024 100.134 -44.769  1.00  0.00     0.067 C 
BRANCH  13  14
HETATM   14  C8  UNL     1      88.047 100.656 -43.779  1.00  0.00     0.082 C 
HETATM   15  C9  UNL     1      88.217 102.113 -43.464  1.00  0.00     0.032 C 
BRANCH  14  16
HETATM   16  N3  UNL     1      86.669 100.446 -44.220  1.00  0.00    -0.385 N 
ATOM     17  H3  UNL     1      86.003 101.190 -44.012  1.00  0.00     0.160 HD
BRANCH  16  18
HETATM   18  C10 UNL     1      86.175  99.338 -44.893  1.00  0.00     0.028 A 
HETATM   19  C11 UNL     1      85.678  99.432 -46.164  1.00  0.00     0.030 A 
HETATM   20  C12 UNL     1      85.185  98.338 -46.873  1.00  0.00     0.014 A 
HETATM   21  C13 UNL     1      85.198  97.100 -46.263  1.00  0.00    -0.019 A 
HETATM   22  C22 UNL     1      85.698  96.999 -44.983  1.00  0.00     0.014 A 
HETATM   23  C23 UNL     1      86.188  98.099 -44.286  1.00  0.00     0.030 A 
BRANCH  21  24
HETATM   24  C14 UNL     1      84.682  95.951 -47.005  1.00  0.00     0.055 A 
HETATM   25  C15 UNL     1      85.226  95.348 -48.058  1.00  0.00     0.007 A 
HETATM   26  C16 UNL     1      86.388  95.615 -48.738  1.00  0.00     0.015 A 
HETATM   27  C20 UNL     1      84.445  94.298 -48.485  1.00  0.00     0.046 A 
HETATM   28  C17 UNL     1      86.795  94.869 -49.828  1.00  0.00     0.001 A 
HETATM   29  C18 UNL     1      86.025  93.812 -50.269  1.00  0.00     0.002 A 
HETATM   30  C19 UNL     1      84.857  93.543 -49.587  1.00  0.00     0.030 A 
HETATM   31  N4  UNL     1      83.398  94.191 -47.738  1.00  0.00    -0.322 N 
HETATM   32  C21 UNL     1      83.450  95.209 -46.750  1.00  0.00     0.258 A 
ATOM     33  H4  UNL     1      82.660  93.494 -47.840  1.00  0.00     0.169 HD
HETATM   34  O1  UNL     1      82.603  95.428 -45.835  1.00  0.00    -0.267 OA
ENDBRANCH  21  24
ENDBRANCH  16  18
ENDBRANCH  14  16
ENDBRANCH  13  14
ENDBRANCH   2  13
BRANCH   1  35
HETATM   35  C4  UNL     1      90.474  99.609 -42.212  1.00  0.00     0.065 C 
HETATM   36  C3  UNL     1      91.482 100.498 -42.231  1.00  0.00     0.102 A 
HETATM   37  N2  UNL     1      92.439 100.625 -43.161  1.00  0.00    -0.296 N 
HETATM   38  C32 UNL     1      91.698 101.452 -41.264  1.00  0.00     0.227 A 
HETATM   39  N1  UNL     1      93.235 101.611 -42.814  1.00  0.00    -0.297 N 
ATOM     40  H2  UNL     1      92.533 100.051 -43.999  1.00  0.00     0.187 HD
HETATM   41  C2  UNL     1      92.814 102.153 -41.646  1.00  0.00     0.091 A 
ATOM     42  H1  UNL     1      94.050 101.922 -43.344  1.00  0.00     0.187 HD
HETATM   43  C1  UNL     1      93.382 103.172 -40.998  1.00  0.00     0.049 C 
HETATM   44  O2  UNL     1      91.011 101.666 -40.208  1.00  0.00    -0.283 OA
ENDBRANCH   1  35
TORSDOF 6
ENDMDL
MODEL 3
REMARK VINA RESULT: -7.339902172      3.122      4.676
REMARK  6 active torsions:
REMARK  status: ('A' for Active; 'I' for Inactive)
REMARK    1  A    between atoms: C4_8  and  C5_9 
REMARK    2  A    between atoms: C6_10  and  C7_11 
REMARK    3  A    between atoms: C7_11  and  C8_12 
REMARK    4  A    between atoms: C8_12  and  N3_14 
REMARK    5  A    between atoms: N3_14  and  C10_16 
REMARK    6  A    between atoms: C13_19  and  C14_20 
ROOT
HETATM    1  C5  UNL     1      90.450  97.562 -43.371  1.00  0.00     0.044 A 
HETATM    2  C6  UNL     1      89.976  97.414 -44.648  1.00  0.00    -0.007 A 
HETATM    3  C24 UNL     1      90.207  96.178 -45.304  1.00  0.00     0.055 A 
HETATM    4 CL1  UNL     1      89.615  95.975 -46.924  1.00  0.00    -0.083 Cl
HETATM    5  C25 UNL     1      90.876  95.147 -44.705  1.00  0.00     0.013 A 
HETATM    6  C26 UNL     1      91.098  93.938 -45.347  1.00  0.00     0.015 A 
HETATM    7  C27 UNL     1      91.774  92.901 -44.732  1.00  0.00     0.001 A 
HETATM    8  C28 UNL     1      92.229  93.097 -43.446  1.00  0.00     0.002 A 
HETATM    9  C29 UNL     1      92.012  94.298 -42.799  1.00  0.00     0.030 A 
HETATM   10  C30 UNL     1      91.330  95.343 -43.419  1.00  0.00     0.046 A 
HETATM   11  N5  UNL     1      91.112  96.511 -42.805  1.00  0.00    -0.350 N 
HETATM   12  C31 UNL     1      91.607  96.680 -41.452  1.00  0.00     0.156 C 
ENDROOT
BRANCH   2  13
HETATM   13  C7  UNL     1      89.198  98.439 -45.327  1.00  0.00     0.067 C 
BRANCH  13  14
HETATM   14  C8  UNL     1      87.750  98.549 -45.018  1.00  0.00     0.082 C 
HETATM   15  C9  UNL     1      87.376  99.806 -44.287  1.00  0.00     0.032 C 
BRANCH  14  16
HETATM   16  N3  UNL     1      86.933  98.469 -46.227  1.00  0.00    -0.385 N 
ATOM     17  H3  UNL     1      86.977  99.264 -46.864  1.00  0.00     0.160 HD
BRANCH  16  18
HETATM   18  C10 UNL     1      86.103  97.420 -46.597  1.00  0.00     0.028 A 
HETATM   19  C11 UNL     1      86.256  96.770 -47.792  1.00  0.00     0.030 A 
HETATM   20  C12 UNL     1      85.449  95.707 -48.190  1.00  0.00     0.014 A 
HETATM   21  C13 UNL     1      84.446  95.287 -47.338  1.00  0.00    -0.019 A 
HETATM   22  C22 UNL     1      84.288  95.938 -46.134  1.00  0.00     0.014 A 
HETATM   23  C23 UNL     1      85.102  96.999 -45.748  1.00  0.00     0.030 A 
BRANCH  21  24
HETATM   24  C14 UNL     1      83.599  94.171 -47.753  1.00  0.00     0.055 A 
HETATM   25  C15 UNL     1      83.438  92.999 -47.147  1.00  0.00     0.007 A 
HETATM   26  C16 UNL     1      83.998  92.505 -45.995  1.00  0.00     0.015 A 
HETATM   27  C20 UNL     1      82.556  92.200 -47.839  1.00  0.00     0.046 A 
HETATM   28  C17 UNL     1      83.707  91.243 -45.513  1.00  0.00     0.001 A 
HETATM   29  C18 UNL     1      82.825  90.430 -46.194  1.00  0.00     0.002 A 
HETATM   30  C19 UNL     1      82.261  90.924 -47.352  1.00  0.00     0.030 A 
HETATM   31  N4  UNL     1      82.129  92.818 -48.889  1.00  0.00    -0.322 N 
HETATM   32  C21 UNL     1      82.738  94.099 -48.931  1.00  0.00     0.258 A 
ATOM     33  H4  UNL     1      81.466  92.448 -49.571  1.00  0.00     0.169 HD
HETATM   34  O1  UNL     1      82.570  94.995 -49.809  1.00  0.00    -0.267 OA
ENDBRANCH  21  24
ENDBRANCH  16  18
ENDBRANCH  14  16
ENDBRANCH  13  14
ENDBRANCH   2  13
BRANCH   1  35
HETATM   35  C4  UNL     1      90.353  98.793 -42.596  1.00  0.00     0.065 C 
HETATM   36  C3  UNL     1      91.253  99.780 -42.744  1.00  0.00     0.102 A 
HETATM   37  N2  UNL     1      92.313  99.801 -43.564  1.00  0.00    -0.296 N 
HETATM   38  C32 UNL     1      91.229 100.968 -42.050  1.00  0.00     0.227 A 
HETATM   39  N1  UNL     1      92.944 100.943 -43.410  1.00  0.00    -0.297 N 
ATOM     40  H2  UNL     1      92.584  99.053 -44.203  1.00  0.00     0.187 HD
HETATM   41  C2  UNL     1      92.307 101.698 -42.483  1.00  0.00     0.091 A 
ATOM     42  H1  UNL     1      93.787 101.220 -43.913  1.00  0.00     0.187 HD
HETATM   43  C1  UNL     1      92.668 102.916 -42.073  1.00  0.00     0.049 C 
HETATM   44  O2  UNL     1      90.381 101.344 -41.171  1.00  0.00    -0.283 OA
ENDBRANCH   1  35
TORSDOF 6
ENDMDL
MODEL 4
REMARK VINA RESULT: -7.306121709      2.623      3.893
REMARK  6 active torsions:
REMARK  status: ('A' for Active; 'I' for Inactive)
REMARK    1  A    between atoms: C4_8  and  C5_9 
REMARK    2  A    between atoms: C6_10  and  C7_11 
REMARK    3  A    between atoms: C7_11  and  C8_12 
REMARK    4  A    between atoms: C8_12  and  N3_14 
REMARK    5  A    between atoms: N3_14  and  C10_16 
REMARK    6  A    between atoms: C13_19  and  C14_20 
ROOT
HETATM    1  C5  UNL     1      90.511  99.216 -43.117  1.00  0.00     0.044 A 
HETATM    2  C6  UNL     1      89.782  99.550 -44.227  1.00  0.00    -0.007 A 
HETATM    3  C24 UNL     1      89.593  98.557 -45.222  1.00  0.00     0.055 A 
HETATM    4 CL1  UNL     1      88.673  98.965 -46.638  1.00  0.00    -0.083 Cl
HETATM    5  C25 UNL     1      90.107  97.296 -45.102  1.00  0.00     0.013 A 
HETATM    6  C26 UNL     1      89.919  96.326 -46.076  1.00  0.00     0.015 A 
HETATM    7  C27 UNL     1      90.442  95.053 -45.944  1.00  0.00     0.001 A 
HETATM    8  C28 UNL     1      91.166  94.764 -44.807  1.00  0.00     0.002 A 
HETATM    9  C29 UNL     1      91.358  95.725 -43.834  1.00  0.00     0.030 A 
HETATM   10  C30 UNL     1      90.831  97.008 -43.966  1.00  0.00     0.046 A 
HETATM   11  N5  UNL     1      91.009  97.948 -43.032  1.00  0.00    -0.350 N 
HETATM   12  C31 UNL     1      91.776  97.606 -41.849  1.00  0.00     0.156 C 
ENDROOT
BRANCH   2  13
HETATM   13  C7  UNL     1      89.146 100.848 -44.396  1.00  0.00     0.067 C 
BRANCH  13  14
HETATM   14  C8  UNL     1      88.237 101.335 -43.328  1.00  0.00     0.082 C 
HETATM   15  C9  UNL     1      88.418 102.786 -42.988  1.00  0.00     0.032 C 
BRANCH  14  16
HETATM   16  N3  UNL     1      86.833 101.124 -43.677  1.00  0.00    -0.385 N 
ATOM     17  H3  UNL     1      86.176 101.850 -43.395  1.00  0.00     0.160 HD
BRANCH  16  18
HETATM   18  C10 UNL     1      86.304 100.034 -44.354  1.00  0.00     0.028 A 
HETATM   19  C11 UNL     1      86.373  98.768 -43.840  1.00  0.00     0.030 A 
HETATM   20  C12 UNL     1      85.843  97.653 -44.487  1.00  0.00     0.014 A 
HETATM   21  C13 UNL     1      85.219  97.835 -45.705  1.00  0.00    -0.019 A 
HETATM   22  C22 UNL     1      85.147  99.108 -46.228  1.00  0.00     0.014 A 
HETATM   23  C23 UNL     1      85.681 100.213 -45.571  1.00  0.00     0.030 A 
BRANCH  21  24
HETATM   24  C14 UNL     1      84.662  96.667 -46.385  1.00  0.00     0.055 A 
HETATM   25  C15 UNL     1      85.163  96.014 -47.430  1.00  0.00     0.007 A 
HETATM   26  C16 UNL     1      86.308  96.233 -48.154  1.00  0.00     0.015 A 
HETATM   27  C20 UNL     1      84.352  94.963 -47.792  1.00  0.00     0.046 A 
HETATM   28  C17 UNL     1      86.669  95.438 -49.225  1.00  0.00     0.001 A 
HETATM   29  C18 UNL     1      85.869  94.379 -49.601  1.00  0.00     0.002 A 
HETATM   30  C19 UNL     1      84.717  94.158 -48.875  1.00  0.00     0.030 A 
HETATM   31  N4  UNL     1      83.327  94.903 -47.010  1.00  0.00    -0.322 N 
HETATM   32  C21 UNL     1      83.426  95.958 -46.065  1.00  0.00     0.258 A 
ATOM     33  H4  UNL     1      82.574  94.216 -47.062  1.00  0.00     0.169 HD
HETATM   34  O1  UNL     1      82.611  96.228 -45.135  1.00  0.00    -0.267 OA
ENDBRANCH  21  24
ENDBRANCH  16  18
ENDBRANCH  14  16
ENDBRANCH  13  14
ENDBRANCH   2  13
BRANCH   1  35
HETATM   35  C4  UNL     1      90.849 100.146 -42.046  1.00  0.00     0.065 C 
HETATM   36  C3  UNL     1      91.909 100.966 -42.147  1.00  0.00     0.102 A 
HETATM   37  N2  UNL     1      92.770 101.063 -43.169  1.00  0.00    -0.296 N 
HETATM   38  C32 UNL     1      92.292 101.869 -41.181  1.00  0.00     0.227 A 
HETATM   39  N1  UNL     1      93.666 101.981 -42.881  1.00  0.00    -0.297 N 
ATOM     40  H2  UNL     1      92.735 100.515 -44.029  1.00  0.00     0.187 HD
HETATM   41  C2  UNL     1      93.407 102.507 -41.659  1.00  0.00     0.091 A 
ATOM     42  H1  UNL     1      94.439 102.256 -43.486  1.00  0.00     0.187 HD
HETATM   43  C1  UNL     1      94.110 103.461 -41.047  1.00  0.00     0.049 C 
HETATM   44  O2  UNL     1      91.735 102.089 -40.052  1.00  0.00    -0.283 OA
ENDBRANCH   1  35
TORSDOF 6
ENDMDL
MODEL 5
REMARK VINA RESULT: -7.203372717      4.008      5.728
REMARK  6 active torsions:
REMARK  status: ('A' for Active; 'I' for Inactive)
REMARK    1  A    between atoms: C4_8  and  C5_9 
REMARK    2  A    between atoms: C6_10  and  C7_11 
REMARK    3  A    between atoms: C7_11  and  C8_12 
REMARK    4  A    between atoms: C8_12  and  N3_14 
REMARK    5  A    between atoms: N3_14  and  C10_16 
REMARK    6  A    between atoms: C13_19  and  C14_20 
ROOT
HETATM    1  C5  UNL     1      90.669  97.600 -43.181  1.00  0.00     0.044 A 
HETATM    2  C6  UNL     1      90.279  97.280 -44.455  1.00  0.00    -0.007 A 
HETATM    3  C24 UNL     1      90.529  95.962 -44.916  1.00  0.00     0.055 A 
HETATM    4 CL1  UNL     1      90.043  95.541 -46.529  1.00  0.00    -0.083 Cl
HETATM    5  C25 UNL     1      91.137  95.019 -44.135  1.00  0.00     0.013 A 
HETATM    6  C26 UNL     1      91.378  93.730 -44.588  1.00  0.00     0.015 A 
HETATM    7  C27 UNL     1      91.991  92.782 -43.790  1.00  0.00     0.001 A 
HETATM    8  C28 UNL     1      92.364  93.151 -42.515  1.00  0.00     0.002 A 
HETATM    9  C29 UNL     1      92.126  94.432 -42.057  1.00  0.00     0.030 A 
HETATM   10  C30 UNL     1      91.508  95.388 -42.861  1.00  0.00     0.046 A 
HETATM   11  N5  UNL     1      91.272  96.632 -42.431  1.00  0.00    -0.350 N 
HETATM   12  C31 UNL     1      91.678  96.983 -41.083  1.00  0.00     0.156 C 
ENDROOT
BRANCH   2  13
HETATM   13  C7  UNL     1      89.568  98.208 -45.321  1.00  0.00     0.067 C 
BRANCH  13  14
HETATM   14  C8  UNL     1      88.083  98.206 -45.293  1.00  0.00     0.082 C 
HETATM   15  C9  UNL     1      87.489  99.195 -44.333  1.00  0.00     0.032 C 
BRANCH  14  16
HETATM   16  N3  UNL     1      87.519  98.466 -46.616  1.00  0.00    -0.385 N 
ATOM     17  H3  UNL     1      87.081  99.375 -46.758  1.00  0.00     0.160 HD
BRANCH  16  18
HETATM   18  C10 UNL     1      87.518  97.599 -47.700  1.00  0.00     0.028 A 
HETATM   19  C11 UNL     1      88.386  97.757 -48.746  1.00  0.00     0.030 A 
HETATM   20  C12 UNL     1      88.421  96.900 -49.844  1.00  0.00     0.014 A 
HETATM   21  C13 UNL     1      87.536  95.840 -49.879  1.00  0.00    -0.019 A 
HETATM   22  C22 UNL     1      86.660  95.676 -48.829  1.00  0.00     0.014 A 
HETATM   23  C23 UNL     1      86.636  96.540 -47.737  1.00  0.00     0.030 A 
BRANCH  21  24
HETATM   24  C14 UNL     1      87.571  94.939 -51.029  1.00  0.00     0.055 A 
HETATM   25  C15 UNL     1      88.217  93.782 -51.141  1.00  0.00     0.007 A 
HETATM   26  C16 UNL     1      89.013  93.114 -50.244  1.00  0.00     0.015 A 
HETATM   27  C20 UNL     1      88.012  93.218 -52.380  1.00  0.00     0.046 A 
HETATM   28  C17 UNL     1      89.609  91.904 -50.543  1.00  0.00     0.001 A 
HETATM   29  C18 UNL     1      89.414  91.324 -51.780  1.00  0.00     0.002 A 
HETATM   30  C19 UNL     1      88.615  91.994 -52.683  1.00  0.00     0.030 A 
HETATM   31  N4  UNL     1      87.244  93.975 -53.090  1.00  0.00    -0.322 N 
HETATM   32  C21 UNL     1      86.901  95.114 -52.316  1.00  0.00     0.258 A 
ATOM     33  H4  UNL     1      86.937  93.786 -54.044  1.00  0.00     0.169 HD
HETATM   34  O1  UNL     1      86.165  96.081 -52.667  1.00  0.00    -0.267 OA
ENDBRANCH  21  24
ENDBRANCH  16  18
ENDBRANCH  14  16
ENDBRANCH  13  14
ENDBRANCH   2  13
BRANCH   1  35
HETATM   35  C4  UNL     1      90.544  98.928 -42.593  1.00  0.00     0.065 C 
HETATM   36  C3  UNL     1      91.443  99.892 -42.856  1.00  0.00     0.102 A 
HETATM   37  N2  UNL     1      92.524  99.805 -43.643  1.00  0.00    -0.296 N 
HETATM   38  C32 UNL     1      91.393 101.167 -42.340  1.00  0.00     0.227 A 
HETATM   39  N1  UNL     1      93.144 100.964 -43.637  1.00  0.00    -0.297 N 
ATOM     40  H2  UNL     1      92.817  98.977 -44.161  1.00  0.00     0.187 HD
HETATM   41  C2  UNL     1      92.478 101.837 -42.844  1.00  0.00     0.091 A 
ATOM     42  H1  UNL     1      93.999 101.175 -44.152  1.00  0.00     0.187 HD
HETATM   43  C1  UNL     1      92.821 103.104 -42.603  1.00  0.00     0.049 C 
HETATM   44  O2  UNL     1      90.520 101.656 -41.546  1.00  0.00    -0.283 OA
ENDBRANCH   1  35
TORSDOF 6
ENDMDL
