MODEL 1
REMARK VINA RESULT: -6.409580192      0.000      0.000
REMARK  9 active torsions:
REMARK  status: ('A' for Active; 'I' for Inactive)
REMARK    1  A    between atoms: C3_5  and  C4_6 
REMARK    2  A    between atoms: C4_6  and  C6_8 
REMARK    3  A    between atoms: C14_17  and  C15_18 
REMARK       I    between atoms: C15_18  and  N2_20 
REMARK    4  A    between atoms: N2_20  and  C16_22 
REMARK    5  A    between atoms: N3_25  and  C19_26 
REMARK    6  A    between atoms: C19_26  and  C20_27 
REMARK    7  A    between atoms: C23_30  and  C24_31 
REMARK    8  A    between atoms: C24_31  and  C25_32 
REMARK    9  A    between atoms: C25_32  and  N4_33 
REMARK       I    between atoms: N4_33  and  C26_35 
ROOT
HETATM    1  C16 UNL     1      89.337  97.912 -46.290  1.00  0.00     0.037 A 
HETATM    2  C17 UNL     1      89.216  96.582 -46.586  1.00  0.00     0.046 A 
HETATM    3  C18 UNL     1      88.797  96.164 -47.862  1.00  0.00     0.093 A 
HETATM    4  N3  UNL     1      88.497  97.005 -48.847  1.00  0.00    -0.361 N 
HETATM    5  C30 UNL     1      88.612  98.341 -48.570  1.00  0.00     0.093 A 
HETATM    6  C31 UNL     1      89.017  98.789 -47.337  1.00  0.00     0.046 A 
ENDROOT
BRANCH   1   7
HETATM    7  N2  UNL     1      89.717  98.455 -45.039  1.00  0.00    -0.323 N 
HETATM    8  C15 UNL     1      91.025  98.711 -44.623  1.00  0.00     0.259 C 
HETATM    9  O1  UNL     1      91.950  98.420 -45.467  1.00  0.00    -0.267 OA
ATOM     10  H2  UNL     1      88.969  98.679 -44.383  1.00  0.00     0.169 HD
BRANCH   8  11
HETATM   11  C14 UNL     1      91.356  99.272 -43.337  1.00  0.00     0.066 A 
HETATM   12  C2  UNL     1      91.652  98.529 -42.199  1.00  0.00     0.039 A 
HETATM   13  C1  UNL     1      91.715  97.202 -42.139  1.00  0.00     0.044 C 
HETATM   14  N1  UNL     1      91.858  99.392 -41.229  1.00  0.00    -0.355 N 
HETATM   15  C3  UNL     1      91.725 100.692 -41.622  1.00  0.00     0.046 A 
ATOM     16  H1  UNL     1      92.096  99.117 -40.276  1.00  0.00     0.166 HD
HETATM   17  C12 UNL     1      91.403 100.619 -42.956  1.00  0.00    -0.017 A 
HETATM   18  C13 UNL     1      91.071 101.758 -43.867  1.00  0.00     0.052 C 
BRANCH  15  19
HETATM   19  C4  UNL     1      91.902 101.705 -40.818  1.00  0.00    -0.025 C 
HETATM   20  C5  UNL     1      90.744 102.138 -39.936  1.00  0.00     0.051 C 
BRANCH  19  21
HETATM   21  C6  UNL     1      93.100 102.448 -40.638  1.00  0.00    -0.028 A 
HETATM   22  C7  UNL     1      93.508 102.905 -39.398  1.00  0.00     0.015 A 
HETATM   23  C8  UNL     1      94.639 103.661 -39.255  1.00  0.00     0.043 A 
HETATM   24  C9  UNL     1      95.371 103.961 -40.382  1.00  0.00     0.116 A 
HETATM   25  F1  UNL     1      96.488 104.706 -40.248  1.00  0.00    -0.206 F 
HETATM   26  C10 UNL     1      95.013 103.534 -41.639  1.00  0.00     0.043 A 
HETATM   27  C11 UNL     1      93.871 102.776 -41.742  1.00  0.00     0.015 A 
ENDBRANCH  19  21
ENDBRANCH  15  19
ENDBRANCH   8  11
ENDBRANCH   1   7
BRANCH   4  28
HETATM   28  C19 UNL     1      88.078  96.590 -50.178  1.00  0.00     0.184 C 
BRANCH  28  29
HETATM   29  C20 UNL     1      89.144  96.071 -51.022  1.00  0.00     0.029 A 
HETATM   30  C21 UNL     1      90.064  96.978 -51.516  1.00  0.00     0.027 A 
HETATM   31  C22 UNL     1      91.100  96.565 -52.328  1.00  0.00     0.010 A 
HETATM   32  C23 UNL     1      91.225  95.226 -52.655  1.00  0.00    -0.041 A 
HETATM   33  C28 UNL     1      90.293  94.370 -52.142  1.00  0.00     0.097 A 
HETATM   34  N5  UNL     1      89.267  94.787 -51.337  1.00  0.00    -0.362 N 
HETATM   35  C29 UNL     1      88.341  93.765 -50.876  1.00  0.00     0.155 C 
BRANCH  32  36
HETATM   36  C24 UNL     1      92.337  94.830 -53.514  1.00  0.00     0.059 C 
BRANCH  36  37
HETATM   37  C25 UNL     1      93.260  93.821 -52.898  1.00  0.00     0.127 C 
BRANCH  37  38
HETATM   38  N4  UNL     1      94.496  94.434 -52.498  1.00  0.00    -0.361 N 
HETATM   39  C26 UNL     1      95.722  94.205 -53.198  1.00  0.00     0.213 C 
HETATM   40  C27 UNL     1      96.993  94.825 -52.799  1.00  0.00     0.117 C 
HETATM   41  O2  UNL     1      95.699  93.439 -54.194  1.00  0.00    -0.274 OA
ATOM     42  H4  UNL     1      94.499  95.053 -51.687  1.00  0.00     0.162 HD
ENDBRANCH  37  38
ENDBRANCH  36  37
ENDBRANCH  32  36
ENDBRANCH  28  29
ENDBRANCH   4  28
TORSDOF 9
ENDMDL
MODEL 2
REMARK VINA RESULT: -6.356106202      2.989      4.169
REMARK  9 active torsions:
REMARK  status: ('A' for Active; 'I' for Inactive)
REMARK    1  A    between atoms: C3_5  and  C4_6 
REMARK    2  A    between atoms: C4_6  and  C6_8 
REMARK    3  A    between atoms: C14_17  and  C15_18 
REMARK       I    between atoms: C15_18  and  N2_20 
REMARK    4  A    between atoms: N2_20  and  C16_22 
REMARK    5  A    between atoms: N3_25  and  C19_26 
REMARK    6  A    between atoms: C19_26  and  C20_27 
REMARK    7  A    between atoms: C23_30  and  C24_31 
REMARK    8  A    between atoms: C24_31  and  C25_32 
REMARK    9  A    between atoms: C25_32  and  N4_33 
REMARK       I    between atoms: N4_33  and  C26_35 
ROOT
HETATM    1  C16 UNL     1      89.024  97.594 -47.067  1.00  0.00     0.037 A 
HETATM    2  C17 UNL     1      88.765  98.267 -48.229  1.00  0.00     0.046 A 
HETATM    3  C18 UNL     1      88.520  97.570 -49.426  1.00  0.00     0.093 A 
HETATM    4  N3  UNL     1      88.522  96.243 -49.514  1.00  0.00    -0.361 N 
HETATM    5  C30 UNL     1      88.780  95.552 -48.360  1.00  0.00     0.093 A 
HETATM    6  C31 UNL     1      89.023  96.196 -47.173  1.00  0.00     0.046 A 
ENDROOT
BRANCH   1   7
HETATM    7  N2  UNL     1      89.315  98.182 -45.812  1.00  0.00    -0.323 N 
HETATM    8  C15 UNL     1      90.580  98.290 -45.233  1.00  0.00     0.259 C 
HETATM    9  O1  UNL     1      91.555  97.805 -45.919  1.00  0.00    -0.267 OA
ATOM     10  H2  UNL     1      88.529  98.561 -45.284  1.00  0.00     0.169 HD
BRANCH   8  11
HETATM   11  C14 UNL     1      90.821  98.906 -43.952  1.00  0.00     0.066 A 
HETATM   12  C2  UNL     1      91.072  98.212 -42.773  1.00  0.00     0.039 A 
HETATM   13  C1  UNL     1      91.171  96.891 -42.661  1.00  0.00     0.044 C 
HETATM   14  N1  UNL     1      91.198  99.115 -41.825  1.00  0.00    -0.355 N 
HETATM   15  C3  UNL     1      91.049 100.396 -42.273  1.00  0.00     0.046 A 
ATOM     16  H1  UNL     1      91.388  98.881 -40.851  1.00  0.00     0.166 HD
HETATM   17  C12 UNL     1      90.806 100.266 -43.619  1.00  0.00    -0.017 A 
HETATM   18  C13 UNL     1      90.495 101.361 -44.588  1.00  0.00     0.052 C 
BRANCH  15  19
HETATM   19  C4  UNL     1      91.151 101.441 -41.497  1.00  0.00    -0.025 C 
HETATM   20  C5  UNL     1      89.876 102.074 -40.969  1.00  0.00     0.051 C 
BRANCH  19  21
HETATM   21  C6  UNL     1      92.352 102.051 -41.045  1.00  0.00    -0.028 A 
HETATM   22  C7  UNL     1      93.354 102.445 -41.913  1.00  0.00     0.015 A 
HETATM   23  C8  UNL     1      94.523 102.985 -41.453  1.00  0.00     0.043 A 
HETATM   24  C9  UNL     1      94.685 103.128 -40.093  1.00  0.00     0.116 A 
HETATM   25  F1  UNL     1      95.836 103.660 -39.632  1.00  0.00    -0.206 F 
HETATM   26  C10 UNL     1      93.724 102.753 -39.184  1.00  0.00     0.043 A 
HETATM   27  C11 UNL     1      92.562 102.216 -39.685  1.00  0.00     0.015 A 
ENDBRANCH  19  21
ENDBRANCH  15  19
ENDBRANCH   8  11
ENDBRANCH   1   7
BRANCH   4  28
HETATM   28  C19 UNL     1      88.255  95.504 -50.740  1.00  0.00     0.184 C 
BRANCH  28  29
HETATM   29  C20 UNL     1      88.475  94.068 -50.650  1.00  0.00     0.029 A 
HETATM   30  C21 UNL     1      89.773  93.613 -50.801  1.00  0.00     0.027 A 
HETATM   31  C22 UNL     1      90.063  92.265 -50.735  1.00  0.00     0.010 A 
HETATM   32  C23 UNL     1      89.046  91.354 -50.514  1.00  0.00    -0.041 A 
HETATM   33  C28 UNL     1      87.782  91.852 -50.371  1.00  0.00     0.097 A 
HETATM   34  N5  UNL     1      87.502  93.191 -50.438  1.00  0.00    -0.362 N 
HETATM   35  C29 UNL     1      86.108  93.575 -50.282  1.00  0.00     0.155 C 
BRANCH  32  36
HETATM   36  C24 UNL     1      89.395  89.937 -50.449  1.00  0.00     0.059 C 
BRANCH  36  37
HETATM   37  C25 UNL     1      90.200  89.559 -49.242  1.00  0.00     0.127 C 
BRANCH  37  38
HETATM   38  N4  UNL     1      89.534  88.539 -48.480  1.00  0.00    -0.361 N 
HETATM   39  C26 UNL     1      89.764  87.146 -48.707  1.00  0.00     0.213 C 
HETATM   40  C27 UNL     1      89.090  86.092 -47.934  1.00  0.00     0.117 C 
HETATM   41  O2  UNL     1      90.579  86.821 -49.606  1.00  0.00    -0.274 OA
ATOM     42  H4  UNL     1      88.875  88.818 -47.753  1.00  0.00     0.162 HD
ENDBRANCH  37  38
ENDBRANCH  36  37
ENDBRANCH  32  36
ENDBRANCH  28  29
ENDBRANCH   4  28
TORSDOF 9
ENDMDL
MODEL 3
REMARK VINA RESULT: -6.324602963      1.518      2.262
REMARK  9 active torsions:
REMARK  status: ('A' for Active; 'I' for Inactive)
REMARK    1  A    between atoms: C3_5  and  C4_6 
REMARK    2  A    between atoms: C4_6  and  C6_8 
REMARK    3  A    between atoms: C14_17  and  C15_18 
REMARK       I    between atoms: C15_18  and  N2_20 
REMARK    4  A    between atoms: N2_20  and  C16_22 
REMARK    5  A    between atoms: N3_25  and  C19_26 
REMARK    6  A    between atoms: C19_26  and  C20_27 
REMARK    7  A    between atoms: C23_30  and  C24_31 
REMARK    8  A    between atoms: C24_31  and  C25_32 
REMARK    9  A    between atoms: C25_32  and  N4_33 
REMARK       I    between atoms: N4_33  and  C26_35 
ROOT
HETATM    1  C16 UNL     1      89.399  97.951 -46.255  1.00  0.00     0.037 A 
HETATM    2  C17 UNL     1      89.301  96.614 -46.523  1.00  0.00     0.046 A 
HETATM    3  C18 UNL     1      88.856  96.162 -47.778  1.00  0.00     0.093 A 
HETATM    4  N3  UNL     1      88.509  96.978 -48.770  1.00  0.00    -0.361 N 
HETATM    5  C30 UNL     1      88.600  98.321 -48.520  1.00  0.00     0.093 A 
HETATM    6  C31 UNL     1      89.030  98.801 -47.308  1.00  0.00     0.046 A 
ENDROOT
BRANCH   1   7
HETATM    7  N2  UNL     1      89.803  98.526 -45.024  1.00  0.00    -0.323 N 
HETATM    8  C15 UNL     1      91.117  98.795 -44.641  1.00  0.00     0.259 C 
HETATM    9  O1  UNL     1      92.027  98.487 -45.496  1.00  0.00    -0.267 OA
ATOM     10  H2  UNL     1      89.066  98.764 -44.360  1.00  0.00     0.169 HD
BRANCH   8  11
HETATM   11  C14 UNL     1      91.471  99.390 -43.376  1.00  0.00     0.066 A 
HETATM   12  C2  UNL     1      91.630  98.687 -42.185  1.00  0.00     0.039 A 
HETATM   13  C1  UNL     1      91.521  97.369 -42.048  1.00  0.00     0.044 C 
HETATM   14  N1  UNL     1      91.910  99.576 -41.259  1.00  0.00    -0.355 N 
HETATM   15  C3  UNL     1      91.957 100.856 -41.730  1.00  0.00     0.046 A 
ATOM     16  H1  UNL     1      92.077  99.332 -40.282  1.00  0.00     0.166 HD
HETATM   17  C12 UNL     1      91.675 100.741 -43.070  1.00  0.00    -0.017 A 
HETATM   18  C13 UNL     1      91.524 101.853 -44.058  1.00  0.00     0.052 C 
BRANCH  15  19
HETATM   19  C4  UNL     1      92.234 101.886 -40.978  1.00  0.00    -0.025 C 
HETATM   20  C5  UNL     1      93.687 102.299 -40.826  1.00  0.00     0.051 C 
BRANCH  19  21
HETATM   21  C6  UNL     1      91.302 102.714 -40.295  1.00  0.00    -0.028 A 
HETATM   22  C7  UNL     1      90.225 103.299 -40.935  1.00  0.00     0.015 A 
HETATM   23  C8  UNL     1      89.369 104.133 -40.269  1.00  0.00     0.043 A 
HETATM   24  C9  UNL     1      89.604 104.382 -38.936  1.00  0.00     0.116 A 
HETATM   25  F1  UNL     1      88.764 105.203 -38.273  1.00  0.00    -0.206 F 
HETATM   26  C10 UNL     1      90.660 103.828 -38.249  1.00  0.00     0.043 A 
HETATM   27  C11 UNL     1      91.497 102.996 -38.952  1.00  0.00     0.015 A 
ENDBRANCH  19  21
ENDBRANCH  15  19
ENDBRANCH   8  11
ENDBRANCH   1   7
BRANCH   4  28
HETATM   28  C19 UNL     1      88.062  96.528 -50.081  1.00  0.00     0.184 C 
BRANCH  28  29
HETATM   29  C20 UNL     1      89.116  96.019 -50.945  1.00  0.00     0.029 A 
HETATM   30  C21 UNL     1      90.012  96.936 -51.464  1.00  0.00     0.027 A 
HETATM   31  C22 UNL     1      91.036  96.533 -52.297  1.00  0.00     0.010 A 
HETATM   32  C23 UNL     1      91.172  95.194 -52.620  1.00  0.00    -0.041 A 
HETATM   33  C28 UNL     1      90.263  94.329 -52.083  1.00  0.00     0.097 A 
HETATM   34  N5  UNL     1      89.249  94.736 -51.257  1.00  0.00    -0.362 N 
HETATM   35  C29 UNL     1      88.348  93.704 -50.772  1.00  0.00     0.155 C 
BRANCH  32  36
HETATM   36  C24 UNL     1      92.269  94.809 -53.503  1.00  0.00     0.059 C 
BRANCH  36  37
HETATM   37  C25 UNL     1      93.211  93.805 -52.908  1.00  0.00     0.127 C 
BRANCH  37  38
HETATM   38  N4  UNL     1      94.438  94.433 -52.499  1.00  0.00    -0.361 N 
HETATM   39  C26 UNL     1      95.675  94.206 -53.180  1.00  0.00     0.213 C 
HETATM   40  C27 UNL     1      96.935  94.841 -52.773  1.00  0.00     0.117 C 
HETATM   41  O2  UNL     1      95.670  93.428 -54.167  1.00  0.00    -0.274 OA
ATOM     42  H4  UNL     1      94.425  95.062 -51.696  1.00  0.00     0.162 HD
ENDBRANCH  37  38
ENDBRANCH  36  37
ENDBRANCH  32  36
ENDBRANCH  28  29
ENDBRANCH   4  28
TORSDOF 9
ENDMDL
MODEL 4
REMARK VINA RESULT: -6.152519142      2.551      2.927
REMARK  9 active torsions:
REMARK  status: ('A' for Active; 'I' for Inactive)
REMARK    1  A    between atoms: C3_5  and  C4_6 
REMARK    2  A    between atoms: C4_6  and  C6_8 
REMARK    3  A    between atoms: C14_17  and  C15_18 
REMARK       I    between atoms: C15_18  and  N2_20 
REMARK    4  A    between atoms: N2_20  and  C16_22 
REMARK    5  A    between atoms: N3_25  and  C19_26 
REMARK    6  A    between atoms: C19_26  and  C20_27 
REMARK    7  A    between atoms: C23_30  and  C24_31 
REMARK    8  A    between atoms: C24_31  and  C25_32 
REMARK    9  A    between atoms: C25_32  and  N4_33 
REMARK       I    between atoms: N4_33  and  C26_35 
ROOT
HETATM    1  C16 UNL     1      89.115  98.006 -46.297  1.00  0.00     0.037 A 
HETATM    2  C17 UNL     1      88.906  96.679 -46.557  1.00  0.00     0.046 A 
HETATM    3  C18 UNL     1      88.427  96.258 -47.810  1.00  0.00     0.093 A 
HETATM    4  N3  UNL     1      88.151  97.093 -48.808  1.00  0.00    -0.361 N 
HETATM    5  C30 UNL     1      88.354  98.426 -48.566  1.00  0.00     0.093 A 
HETATM    6  C31 UNL     1      88.820  98.876 -47.357  1.00  0.00     0.046 A 
ENDROOT
BRANCH   1   7
HETATM    7  N2  UNL     1      89.563  98.553 -45.070  1.00  0.00    -0.323 N 
HETATM    8  C15 UNL     1      90.893  98.662 -44.661  1.00  0.00     0.259 C 
HETATM    9  O1  UNL     1      91.774  98.220 -45.488  1.00  0.00    -0.267 OA
ATOM     10  H2  UNL     1      88.849  98.898 -44.428  1.00  0.00     0.169 HD
BRANCH   8  11
HETATM   11  C14 UNL     1      91.293  99.235 -43.400  1.00  0.00     0.066 A 
HETATM   12  C2  UNL     1      91.623  98.503 -42.264  1.00  0.00     0.039 A 
HETATM   13  C1  UNL     1      91.660  97.176 -42.185  1.00  0.00     0.044 C 
HETATM   14  N1  UNL     1      91.893  99.376 -41.319  1.00  0.00    -0.355 N 
HETATM   15  C3  UNL     1      91.770 100.673 -41.727  1.00  0.00     0.046 A 
ATOM     16  H1  UNL     1      92.166  99.110 -40.373  1.00  0.00     0.166 HD
HETATM   17  C12 UNL     1      91.387 100.586 -43.044  1.00  0.00    -0.017 A 
HETATM   18  C13 UNL     1      91.041 101.718 -43.958  1.00  0.00     0.052 C 
BRANCH  15  19
HETATM   19  C4  UNL     1      92.006 101.694 -40.948  1.00  0.00    -0.025 C 
HETATM   20  C5  UNL     1      90.930 102.114 -39.963  1.00  0.00     0.051 C 
BRANCH  19  21
HETATM   21  C6  UNL     1      93.203 102.456 -40.885  1.00  0.00    -0.028 A 
HETATM   22  C7  UNL     1      93.723 102.921 -39.691  1.00  0.00     0.015 A 
HETATM   23  C8  UNL     1      94.850 103.696 -39.659  1.00  0.00     0.043 A 
HETATM   24  C9  UNL     1      95.463 104.007 -40.851  1.00  0.00     0.116 A 
HETATM   25  F1  UNL     1      96.575 104.771 -40.827  1.00  0.00    -0.206 F 
HETATM   26  C10 UNL     1      94.991 103.573 -42.068  1.00  0.00     0.043 A 
HETATM   27  C11 UNL     1      93.857 102.796 -42.060  1.00  0.00     0.015 A 
ENDBRANCH  19  21
ENDBRANCH  15  19
ENDBRANCH   8  11
ENDBRANCH   1   7
BRANCH   4  28
HETATM   28  C19 UNL     1      87.671  96.674 -50.117  1.00  0.00     0.184 C 
BRANCH  28  29
HETATM   29  C20 UNL     1      88.010  95.307 -50.485  1.00  0.00     0.029 A 
HETATM   30  C21 UNL     1      89.245  95.093 -51.068  1.00  0.00     0.027 A 
HETATM   31  C22 UNL     1      89.638  93.827 -51.451  1.00  0.00     0.010 A 
HETATM   32  C23 UNL     1      88.788  92.754 -51.249  1.00  0.00    -0.041 A 
HETATM   33  C28 UNL     1      87.580  93.016 -50.670  1.00  0.00     0.097 A 
HETATM   34  N5  UNL     1      87.197  94.276 -50.293  1.00  0.00    -0.362 N 
HETATM   35  C29 UNL     1      85.875  94.407 -49.701  1.00  0.00     0.155 C 
BRANCH  32  36
HETATM   36  C24 UNL     1      89.242  91.430 -51.666  1.00  0.00     0.059 C 
BRANCH  36  37
HETATM   37  C25 UNL     1      89.567  90.507 -50.530  1.00  0.00     0.127 C 
BRANCH  37  38
HETATM   38  N4  UNL     1      90.179  91.225 -49.446  1.00  0.00    -0.361 N 
HETATM   39  C26 UNL     1      91.183  90.638 -48.614  1.00  0.00     0.213 C 
HETATM   40  C27 UNL     1      91.818  91.361 -47.503  1.00  0.00     0.117 C 
HETATM   41  O2  UNL     1      91.530  89.454 -48.853  1.00  0.00    -0.274 OA
ATOM     42  H4  UNL     1      89.888  92.185 -49.264  1.00  0.00     0.162 HD
ENDBRANCH  37  38
ENDBRANCH  36  37
ENDBRANCH  32  36
ENDBRANCH  28  29
ENDBRANCH   4  28
TORSDOF 9
ENDMDL
MODEL 5
REMARK VINA RESULT: -6.141492630      3.599      4.641
REMARK  9 active torsions:
REMARK  status: ('A' for Active; 'I' for Inactive)
REMARK    1  A    between atoms: C3_5  and  C4_6 
REMARK    2  A    between atoms: C4_6  and  C6_8 
REMARK    3  A    between atoms: C14_17  and  C15_18 
REMARK       I    between atoms: C15_18  and  N2_20 
REMARK    4  A    between atoms: N2_20  and  C16_22 
REMARK    5  A    between atoms: N3_25  and  C19_26 
REMARK    6  A    between atoms: C19_26  and  C20_27 
REMARK    7  A    between atoms: C23_30  and  C24_31 
REMARK    8  A    between atoms: C24_31  and  C25_32 
REMARK    9  A    between atoms: C25_32  and  N4_33 
REMARK       I    between atoms: N4_33  and  C26_35 
ROOT
HETATM    1  C16 UNL     1      87.150  98.453 -45.056  1.00  0.00     0.037 A 
HETATM    2  C17 UNL     1      86.740  99.043 -46.219  1.00  0.00     0.046 A 
HETATM    3  C18 UNL     1      85.770  98.431 -47.034  1.00  0.00     0.093 A 
HETATM    4  N3  UNL     1      85.195  97.267 -46.741  1.00  0.00    -0.361 N 
HETATM    5  C30 UNL     1      85.594  96.662 -45.579  1.00  0.00     0.093 A 
HETATM    6  C31 UNL     1      86.537  97.227 -44.758  1.00  0.00     0.046 A 
ENDROOT
BRANCH   1   7
HETATM    7  N2  UNL     1      88.137  98.953 -44.172  1.00  0.00    -0.323 N 
HETATM    8  C15 UNL     1      89.518  98.828 -44.333  1.00  0.00     0.259 C 
HETATM    9  O1  UNL     1      89.906  98.198 -45.386  1.00  0.00    -0.267 OA
ATOM     10  H2  UNL     1      87.809  99.450 -43.343  1.00  0.00     0.169 HD
BRANCH   8  11
HETATM   11  C14 UNL     1      90.480  99.364 -43.403  1.00  0.00     0.066 A 
HETATM   12  C2  UNL     1      91.207  98.608 -42.489  1.00  0.00     0.039 A 
HETATM   13  C1  UNL     1      91.154  97.285 -42.367  1.00  0.00     0.044 C 
HETATM   14  N1  UNL     1      91.940  99.454 -41.800  1.00  0.00    -0.355 N 
HETATM   15  C3  UNL     1      91.769 100.754 -42.179  1.00  0.00     0.046 A 
ATOM     16  H1  UNL     1      92.575  99.167 -41.056  1.00  0.00     0.166 HD
HETATM   17  C12 UNL     1      90.842 100.700 -43.192  1.00  0.00    -0.017 A 
HETATM   18  C13 UNL     1      90.234 101.856 -43.919  1.00  0.00     0.052 C 
BRANCH  15  19
HETATM   19  C4  UNL     1      92.413 101.750 -41.633  1.00  0.00    -0.025 C 
HETATM   20  C5  UNL     1      93.513 102.424 -42.434  1.00  0.00     0.051 C 
BRANCH  19  21
HETATM   21  C6  UNL     1      92.173 102.318 -40.353  1.00  0.00    -0.028 A 
HETATM   22  C7  UNL     1      90.902 102.643 -39.915  1.00  0.00     0.015 A 
HETATM   23  C8  UNL     1      90.698 103.235 -38.699  1.00  0.00     0.043 A 
HETATM   24  C9  UNL     1      91.795 103.504 -37.911  1.00  0.00     0.116 A 
HETATM   25  F1  UNL     1      91.601 104.087 -36.710  1.00  0.00    -0.206 F 
HETATM   26  C10 UNL     1      93.081 103.202 -38.295  1.00  0.00     0.043 A 
HETATM   27  C11 UNL     1      93.245 102.608 -39.523  1.00  0.00     0.015 A 
ENDBRANCH  19  21
ENDBRANCH  15  19
ENDBRANCH   8  11
ENDBRANCH   1   7
BRANCH   4  28
HETATM   28  C19 UNL     1      84.178  96.628 -47.563  1.00  0.00     0.184 C 
BRANCH  28  29
HETATM   29  C20 UNL     1      84.582  95.365 -48.165  1.00  0.00     0.029 A 
HETATM   30  C21 UNL     1      85.527  95.414 -49.173  1.00  0.00     0.027 A 
HETATM   31  C22 UNL     1      85.957  94.261 -49.797  1.00  0.00     0.010 A 
HETATM   32  C23 UNL     1      85.439  93.037 -49.412  1.00  0.00    -0.041 A 
HETATM   33  C28 UNL     1      84.509  93.041 -48.413  1.00  0.00     0.097 A 
HETATM   34  N5  UNL     1      84.087  94.190 -47.797  1.00  0.00    -0.362 N 
HETATM   35  C29 UNL     1      83.080  94.042 -46.759  1.00  0.00     0.155 C 
BRANCH  32  36
HETATM   36  C24 UNL     1      85.922  91.841 -50.096  1.00  0.00     0.059 C 
BRANCH  36  37
HETATM   37  C25 UNL     1      86.997  92.105 -51.108  1.00  0.00     0.127 C 
BRANCH  37  38
HETATM   38  N4  UNL     1      88.194  91.377 -50.785  1.00  0.00    -0.361 N 
HETATM   39  C26 UNL     1      89.412  92.033 -50.425  1.00  0.00     0.213 C 
HETATM   40  C27 UNL     1      90.642  91.301 -50.092  1.00  0.00     0.117 C 
HETATM   41  O2  UNL     1      89.418  93.290 -50.393  1.00  0.00    -0.274 OA
ATOM     42  H4  UNL     1      88.173  90.357 -50.815  1.00  0.00     0.162 HD
ENDBRANCH  37  38
ENDBRANCH  36  37
ENDBRANCH  32  36
ENDBRANCH  28  29
ENDBRANCH   4  28
TORSDOF 9
ENDMDL
