MODEL 1
REMARK VINA RESULT: -5.922856994      0.000      0.000
REMARK  3 active torsions:
REMARK  status: ('A' for Active; 'I' for Inactive)
REMARK    1  A    between atoms: C2_2  and  C3_3 
REMARK    2  A    between atoms: C3_3  and  C5_8 
REMARK    3  A    between atoms: N1_4  and  O1_6 
ROOT
HETATM    1  C5  UNL     1      17.174 -24.385  12.620  1.00  0.00     0.036 C 
HETATM    2  C6  UNL     1      16.104 -23.868  11.701  1.00  0.00     0.022 C 
HETATM    3  C7  UNL     1      16.541 -22.463  11.362  1.00  0.00     0.011 C 
HETATM    4  C8  UNL     1      17.872 -22.242  12.076  1.00  0.00     0.025 C 
HETATM    5  C9  UNL     1      17.541 -21.754  13.461  1.00  0.00     0.065 C 
HETATM    6  N2  UNL     1      17.304 -22.736  14.423  1.00  0.00    -0.381 N 
ATOM      7  H2  UNL     1      17.470 -22.538  15.409  1.00  0.00     0.164 HD
HETATM    8  C10 UNL     1      16.833 -24.004  14.024  1.00  0.00     0.076 C 
HETATM    9  C11 UNL     1      18.441 -23.652  12.246  1.00  0.00     0.031 C 
ENDROOT
BRANCH   1  10
HETATM   10  C3  UNL     1      17.371 -25.878  12.456  1.00  0.00     0.045 C 
HETATM   11  N1  UNL     1      18.217 -26.405  13.233  1.00  0.00    -0.270 N 
ATOM     12  H1  UNL     1      18.668 -25.757  13.879  1.00  0.00     0.194 HD
BRANCH  10  13
HETATM   13  C2  UNL     1      16.569 -26.521  11.434  1.00  0.00     0.018 C 
HETATM   14  C1  UNL     1      17.091 -27.265  10.509  1.00  0.00     0.013 C 
ENDBRANCH  10  13
BRANCH  11  15
HETATM   15  O1  UNL     1      18.612 -27.663  13.344  1.00  0.00    -0.285 OA
HETATM   16  C4  UNL     1      19.907 -28.147  12.973  1.00  0.00     0.237 C 
ENDBRANCH  11  15
ENDBRANCH   1  10
TORSDOF 3
ENDMDL
MODEL 2
REMARK VINA RESULT: -5.744330347      2.701      5.028
REMARK  3 active torsions:
REMARK  status: ('A' for Active; 'I' for Inactive)
REMARK    1  A    between atoms: C2_2  and  C3_3 
REMARK    2  A    between atoms: C3_3  and  C5_8 
REMARK    3  A    between atoms: N1_4  and  O1_6 
ROOT
HETATM    1  C5  UNL     1      17.281 -23.624  12.520  1.00  0.00     0.036 C 
HETATM    2  C6  UNL     1      17.108 -23.423  13.999  1.00  0.00     0.022 C 
HETATM    3  C7  UNL     1      18.044 -24.426  14.630  1.00  0.00     0.011 C 
HETATM    4  C8  UNL     1      18.748 -25.142  13.481  1.00  0.00     0.025 C 
HETATM    5  C9  UNL     1      17.861 -26.291  13.083  1.00  0.00     0.065 C 
HETATM    6  N2  UNL     1      16.857 -26.006  12.157  1.00  0.00    -0.381 N 
ATOM      7  H2  UNL     1      16.495 -26.743  11.551  1.00  0.00     0.164 HD
HETATM    8  C10 UNL     1      16.345 -24.696  12.064  1.00  0.00     0.076 C 
HETATM    9  C11 UNL     1      18.688 -24.139  12.327  1.00  0.00     0.031 C 
ENDROOT
BRANCH   1  10
HETATM   10  C3  UNL     1      17.093 -22.329  11.759  1.00  0.00     0.045 C 
HETATM   11  N1  UNL     1      16.052 -22.260  11.047  1.00  0.00    -0.270 N 
ATOM     12  H1  UNL     1      15.461 -23.091  11.072  1.00  0.00     0.194 HD
BRANCH  10  13
HETATM   13  C2  UNL     1      18.125 -21.326  11.938  1.00  0.00     0.018 C 
HETATM   14  C1  UNL     1      17.865 -20.135  12.380  1.00  0.00     0.013 C 
ENDBRANCH  10  13
BRANCH  11  15
HETATM   15  O1  UNL     1      15.603 -21.284  10.276  1.00  0.00    -0.285 OA
HETATM   16  C4  UNL     1      14.290 -20.720  10.351  1.00  0.00     0.237 C 
ENDBRANCH  11  15
ENDBRANCH   1  10
TORSDOF 3
ENDMDL
MODEL 3
REMARK VINA RESULT: -5.737803234      1.246      1.912
REMARK  3 active torsions:
REMARK  status: ('A' for Active; 'I' for Inactive)
REMARK    1  A    between atoms: C2_2  and  C3_3 
REMARK    2  A    between atoms: C3_3  and  C5_8 
REMARK    3  A    between atoms: N1_4  and  O1_6 
ROOT
HETATM    1  C5  UNL     1      17.194 -24.257  12.495  1.00  0.00     0.036 C 
HETATM    2  C6  UNL     1      16.112 -23.697  11.615  1.00  0.00     0.022 C 
HETATM    3  C7  UNL     1      16.525 -22.265  11.374  1.00  0.00     0.011 C 
HETATM    4  C8  UNL     1      17.853 -22.070  12.100  1.00  0.00     0.025 C 
HETATM    5  C9  UNL     1      17.516 -21.685  13.515  1.00  0.00     0.065 C 
HETATM    6  N2  UNL     1      17.298 -22.735  14.407  1.00  0.00    -0.381 N 
ATOM      7  H2  UNL     1      17.463 -22.602  15.405  1.00  0.00     0.164 HD
HETATM    8  C10 UNL     1      16.849 -23.981  13.923  1.00  0.00     0.076 C 
HETATM    9  C11 UNL     1      18.447 -23.478  12.171  1.00  0.00     0.031 C 
ENDROOT
BRANCH   1  10
HETATM   10  C3  UNL     1      17.416 -25.731  12.228  1.00  0.00     0.045 C 
HETATM   11  N1  UNL     1      16.776 -26.212  11.251  1.00  0.00    -0.270 N 
ATOM     12  H1  UNL     1      16.182 -25.545  10.758  1.00  0.00     0.194 HD
BRANCH  10  13
HETATM   13  C2  UNL     1      18.334 -26.412  13.121  1.00  0.00     0.018 C 
HETATM   14  C1  UNL     1      19.492 -26.844  12.727  1.00  0.00     0.013 C 
ENDBRANCH  10  13
BRANCH  11  15
HETATM   15  O1  UNL     1      16.750 -27.441  10.764  1.00  0.00    -0.285 OA
HETATM   16  C4  UNL     1      17.421 -27.861   9.571  1.00  0.00     0.237 C 
ENDBRANCH  11  15
ENDBRANCH   1  10
TORSDOF 3
ENDMDL
MODEL 4
REMARK VINA RESULT: -5.591665189      1.927      2.152
REMARK  3 active torsions:
REMARK  status: ('A' for Active; 'I' for Inactive)
REMARK    1  A    between atoms: C2_2  and  C3_3 
REMARK    2  A    between atoms: C3_3  and  C5_8 
REMARK    3  A    between atoms: N1_4  and  O1_6 
ROOT
HETATM    1  C5  UNL     1      17.670 -23.665  13.279  1.00  0.00     0.036 C 
HETATM    2  C6  UNL     1      16.372 -24.085  12.650  1.00  0.00     0.022 C 
HETATM    3  C7  UNL     1      16.186 -23.134  11.493  1.00  0.00     0.011 C 
HETATM    4  C8  UNL     1      17.411 -22.224  11.482  1.00  0.00     0.025 C 
HETATM    5  C9  UNL     1      17.104 -21.079  12.410  1.00  0.00     0.065 C 
HETATM    6  N2  UNL     1      17.392 -21.283  13.760  1.00  0.00    -0.381 N 
ATOM      7  H2  UNL     1      17.598 -20.488  14.365  1.00  0.00     0.164 HD
HETATM    8  C10 UNL     1      17.398 -22.592  14.283  1.00  0.00     0.076 C 
HETATM    9  C11 UNL     1      18.496 -23.053  12.173  1.00  0.00     0.031 C 
ENDROOT
BRANCH   1  10
HETATM   10  C3  UNL     1      18.403 -24.847  13.880  1.00  0.00     0.045 C 
HETATM   11  N1  UNL     1      18.256 -25.005  15.125  1.00  0.00    -0.270 N 
ATOM     12  H1  UNL     1      17.659 -24.312  15.577  1.00  0.00     0.194 HD
BRANCH  10  13
HETATM   13  C2  UNL     1      19.181 -25.653  12.959  1.00  0.00     0.018 C 
HETATM   14  C1  UNL     1      18.772 -26.808  12.533  1.00  0.00     0.013 C 
ENDBRANCH  10  13
BRANCH  11  15
HETATM   15  O1  UNL     1      18.752 -25.923  15.937  1.00  0.00    -0.285 OA
HETATM   16  C4  UNL     1      20.050 -25.868  16.537  1.00  0.00     0.237 C 
ENDBRANCH  11  15
ENDBRANCH   1  10
TORSDOF 3
ENDMDL
MODEL 5
REMARK VINA RESULT: -5.436716783      1.935      2.267
REMARK  3 active torsions:
REMARK  status: ('A' for Active; 'I' for Inactive)
REMARK    1  A    between atoms: C2_2  and  C3_3 
REMARK    2  A    between atoms: C3_3  and  C5_8 
REMARK    3  A    between atoms: N1_4  and  O1_6 
ROOT
HETATM    1  C5  UNL     1      17.728 -23.562  13.018  1.00  0.00     0.036 C 
HETATM    2  C6  UNL     1      16.425 -23.864  12.332  1.00  0.00     0.022 C 
HETATM    3  C7  UNL     1      16.225 -22.713  11.376  1.00  0.00     0.011 C 
HETATM    4  C8  UNL     1      17.445 -21.809  11.526  1.00  0.00     0.025 C 
HETATM    5  C9  UNL     1      17.141 -20.862  12.656  1.00  0.00     0.065 C 
HETATM    6  N2  UNL     1      17.443 -21.314  13.941  1.00  0.00    -0.381 N 
ATOM      7  H2  UNL     1      17.651 -20.646  14.683  1.00  0.00     0.164 HD
HETATM    8  C10 UNL     1      17.459 -22.698  14.208  1.00  0.00     0.076 C 
HETATM    9  C11 UNL     1      18.540 -22.747  12.040  1.00  0.00     0.031 C 
ENDROOT
BRANCH   1  10
HETATM   10  C3  UNL     1      18.471 -24.831  13.379  1.00  0.00     0.045 C 
HETATM   11  N1  UNL     1      19.513 -25.064  12.704  1.00  0.00    -0.270 N 
ATOM     12  H1  UNL     1      19.727 -24.365  11.992  1.00  0.00     0.194 HD
BRANCH  10  13
HETATM   13  C2  UNL     1      17.902 -25.622  14.452  1.00  0.00     0.018 C 
HETATM   14  C1  UNL     1      18.443 -25.684  15.630  1.00  0.00     0.013 C 
ENDBRANCH  10  13
BRANCH  11  15
HETATM   15  O1  UNL     1      20.371 -26.068  12.770  1.00  0.00    -0.285 OA
HETATM   16  C4  UNL     1      21.579 -26.061  13.538  1.00  0.00     0.237 C 
ENDBRANCH  11  15
ENDBRANCH   1  10
TORSDOF 3
ENDMDL
