MODEL 1
REMARK VINA RESULT: -4.990392234      0.000      0.000
REMARK  3 active torsions:
REMARK  status: ('A' for Active; 'I' for Inactive)
REMARK    1  A    between atoms: C2_2  and  C4_4 
REMARK    2  A    between atoms: C5_5  and  C6_6 
REMARK    3  A    between atoms: C8_8  and  C9_9 
ROOT
HETATM    1  C6  UNL     1     -16.480  17.048 -12.692  1.00  0.00     0.070 A 
HETATM    2  C7  UNL     1     -16.221  18.085 -11.612  1.00  0.00     0.024 A 
HETATM    3  C8  UNL     1     -17.473  18.114 -12.362  1.00  0.00     0.012 A 
ENDROOT
BRANCH   1   4
HETATM    4  C5  UNL     1     -16.766  15.663 -12.250  1.00  0.00    -0.101 C 
HETATM    5  C4  UNL     1     -16.997  14.541 -11.871  1.00  0.00    -0.102 C 
BRANCH   5   6
HETATM    6  C2  UNL     1     -17.270  13.187 -11.387  1.00  0.00     0.057 C 
HETATM    7  C1  UNL     1     -18.713  12.853 -11.689  1.00  0.00     0.023 C 
HETATM    8  C3  UNL     1     -17.053  13.094  -9.887  1.00  0.00     0.023 C 
ENDBRANCH   5   6
ENDBRANCH   1   4
BRANCH   3   9
HETATM    9  C9  UNL     1     -17.780  19.110 -13.433  1.00  0.00     0.092 C 
HETATM   10  S1  UNL     1     -17.777  20.814 -12.856  1.00  0.00    -0.097 SA
ENDBRANCH   3   9
TORSDOF 3
ENDMDL
MODEL 2
REMARK VINA RESULT: -4.945387047      0.576      1.172
REMARK  3 active torsions:
REMARK  status: ('A' for Active; 'I' for Inactive)
REMARK    1  A    between atoms: C2_2  and  C4_4 
REMARK    2  A    between atoms: C5_5  and  C6_6 
REMARK    3  A    between atoms: C8_8  and  C9_9 
ROOT
HETATM    1  C6  UNL     1     -16.493  16.739 -12.765  1.00  0.00     0.070 A 
HETATM    2  C7  UNL     1     -16.241  17.851 -11.760  1.00  0.00     0.024 A 
HETATM    3  C8  UNL     1     -17.442  17.878 -12.590  1.00  0.00     0.012 A 
ENDROOT
BRANCH   1   4
HETATM    4  C5  UNL     1     -16.882  15.414 -12.230  1.00  0.00    -0.101 C 
HETATM    5  C4  UNL     1     -17.211  14.343 -11.780  1.00  0.00    -0.102 C 
BRANCH   5   6
HETATM    6  C2  UNL     1     -17.619  13.057 -11.214  1.00  0.00     0.057 C 
HETATM    7  C1  UNL     1     -16.997  12.919  -9.843  1.00  0.00     0.023 C 
HETATM    8  C3  UNL     1     -17.142  11.907 -12.082  1.00  0.00     0.023 C 
ENDBRANCH   5   6
ENDBRANCH   1   4
BRANCH   3   9
HETATM    9  C9  UNL     1     -17.628  18.793 -13.757  1.00  0.00     0.092 C 
HETATM   10  S1  UNL     1     -17.698  20.533 -13.306  1.00  0.00    -0.097 SA
ENDBRANCH   3   9
TORSDOF 3
ENDMDL
MODEL 3
REMARK VINA RESULT: -4.937520791      2.883      5.506
REMARK  3 active torsions:
REMARK  status: ('A' for Active; 'I' for Inactive)
REMARK    1  A    between atoms: C2_2  and  C4_4 
REMARK    2  A    between atoms: C5_5  and  C6_6 
REMARK    3  A    between atoms: C8_8  and  C9_9 
ROOT
HETATM    1  C6  UNL     1     -16.535  15.926 -12.863  1.00  0.00     0.070 A 
HETATM    2  C7  UNL     1     -17.655  15.517 -13.805  1.00  0.00     0.024 A 
HETATM    3  C8  UNL     1     -17.625  14.998 -12.441  1.00  0.00     0.012 A 
ENDROOT
BRANCH   1   4
HETATM    4  C5  UNL     1     -16.556  17.314 -12.343  1.00  0.00    -0.101 C 
HETATM    5  C4  UNL     1     -16.569  18.437 -11.902  1.00  0.00    -0.102 C 
BRANCH   5   6
HETATM    6  C2  UNL     1     -16.584  19.789 -11.343  1.00  0.00     0.057 C 
HETATM    7  C1  UNL     1     -16.882  20.765 -12.459  1.00  0.00     0.023 C 
HETATM    8  C3  UNL     1     -15.236  20.141 -10.738  1.00  0.00     0.023 C 
ENDBRANCH   5   6
ENDBRANCH   1   4
BRANCH   3   9
HETATM    9  C9  UNL     1     -17.228  13.600 -12.089  1.00  0.00     0.092 C 
HETATM   10  S1  UNL     1     -17.275  13.259 -10.323  1.00  0.00    -0.097 SA
ENDBRANCH   3   9
TORSDOF 3
ENDMDL
MODEL 4
REMARK VINA RESULT: -4.788856509      1.027      1.107
REMARK  3 active torsions:
REMARK  status: ('A' for Active; 'I' for Inactive)
REMARK    1  A    between atoms: C2_2  and  C4_4 
REMARK    2  A    between atoms: C5_5  and  C6_6 
REMARK    3  A    between atoms: C8_8  and  C9_9 
ROOT
HETATM    1  C6  UNL     1     -16.056  16.270 -12.368  1.00  0.00     0.070 A 
HETATM    2  C7  UNL     1     -15.778  17.490 -11.506  1.00  0.00     0.024 A 
HETATM    3  C8  UNL     1     -16.978  17.443 -12.335  1.00  0.00     0.012 A 
ENDROOT
BRANCH   1   4
HETATM    4  C5  UNL     1     -16.475  15.029 -11.676  1.00  0.00    -0.101 C 
HETATM    5  C4  UNL     1     -16.828  14.029 -11.100  1.00  0.00    -0.102 C 
BRANCH   5   6
HETATM    6  C2  UNL     1     -17.266  12.831 -10.382  1.00  0.00     0.057 C 
HETATM    7  C1  UNL     1     -17.558  11.747 -11.394  1.00  0.00     0.023 C 
HETATM    8  C3  UNL     1     -18.529  13.107  -9.587  1.00  0.00     0.023 C 
ENDBRANCH   5   6
ENDBRANCH   1   4
BRANCH   3   9
HETATM    9  C9  UNL     1     -17.145  18.213 -13.605  1.00  0.00     0.092 C 
HETATM   10  S1  UNL     1     -17.746  19.891 -13.359  1.00  0.00    -0.097 SA
ENDBRANCH   3   9
TORSDOF 3
ENDMDL
MODEL 5
REMARK VINA RESULT: -4.756400736      3.006      5.430
REMARK  3 active torsions:
REMARK  status: ('A' for Active; 'I' for Inactive)
REMARK    1  A    between atoms: C2_2  and  C4_4 
REMARK    2  A    between atoms: C5_5  and  C6_6 
REMARK    3  A    between atoms: C8_8  and  C9_9 
ROOT
HETATM    1  C6  UNL     1     -17.236  16.299 -13.634  1.00  0.00     0.070 A 
HETATM    2  C7  UNL     1     -18.325  16.249 -14.693  1.00  0.00     0.024 A 
HETATM    3  C8  UNL     1     -18.483  15.499 -13.451  1.00  0.00     0.012 A 
ENDROOT
BRANCH   1   4
HETATM    4  C5  UNL     1     -17.092  17.558 -12.866  1.00  0.00    -0.101 C 
HETATM    5  C4  UNL     1     -16.973  18.593 -12.258  1.00  0.00    -0.102 C 
BRANCH   5   6
HETATM    6  C2  UNL     1     -16.821  19.860 -11.542  1.00  0.00     0.057 C 
HETATM    7  C1  UNL     1     -16.905  20.989 -12.544  1.00  0.00     0.023 C 
HETATM    8  C3  UNL     1     -15.475  19.930 -10.843  1.00  0.00     0.023 C 
ENDBRANCH   5   6
ENDBRANCH   1   4
BRANCH   3   9
HETATM    9  C9  UNL     1     -18.329  14.015 -13.348  1.00  0.00     0.092 C 
HETATM   10  S1  UNL     1     -17.194  13.497 -12.052  1.00  0.00    -0.097 SA
ENDBRANCH   3   9
TORSDOF 3
ENDMDL
