MODEL 1
REMARK VINA RESULT: -3.841409176      0.000      0.000
REMARK  1 active torsions:
REMARK  status: ('A' for Active; 'I' for Inactive)
REMARK    1  A    between atoms: C2_2  and  C4_4 
ROOT
HETATM    1  C4  UNL     1     -17.773  16.665 -12.314  1.00  0.00     0.009 C 
HETATM    2  C5  UNL     1     -18.729  15.950 -13.196  1.00  0.00     0.091 C 
HETATM    3  S1  UNL     1     -18.344  16.429 -14.925  1.00  0.00    -0.097 SA
HETATM    4  S2  UNL     1     -17.495  18.347 -14.390  1.00  0.00    -0.097 SA
HETATM    5  C6  UNL     1     -17.772  18.120 -12.588  1.00  0.00     0.091 C 
ENDROOT
BRANCH   1   6
HETATM    6  C2  UNL     1     -16.444  16.008 -12.205  1.00  0.00    -0.017 C 
HETATM    7  C1  UNL     1     -16.577  14.530 -11.892  1.00  0.00     0.010 C 
HETATM    8  C3  UNL     1     -15.476  16.609 -11.258  1.00  0.00     0.010 C 
ENDBRANCH   1   6
TORSDOF 1
ENDMDL
MODEL 2
REMARK VINA RESULT: -3.766363939      1.633      2.307
REMARK  1 active torsions:
REMARK  status: ('A' for Active; 'I' for Inactive)
REMARK    1  A    between atoms: C2_2  and  C4_4 
ROOT
HETATM    1  C4  UNL     1     -17.381  18.524 -11.786  1.00  0.00     0.009 C 
HETATM    2  C5  UNL     1     -17.883  17.577 -12.812  1.00  0.00     0.091 C 
HETATM    3  S1  UNL     1     -17.550  18.320 -14.457  1.00  0.00    -0.097 SA
HETATM    4  S2  UNL     1     -17.586  20.361 -13.737  1.00  0.00    -0.097 SA
HETATM    5  C6  UNL     1     -17.928  19.885 -11.996  1.00  0.00     0.091 C 
ENDROOT
BRANCH   1   6
HETATM    6  C2  UNL     1     -15.918  18.427 -11.539  1.00  0.00    -0.017 C 
HETATM    7  C1  UNL     1     -15.517  17.027 -11.116  1.00  0.00     0.010 C 
HETATM    8  C3  UNL     1     -15.334  19.398 -10.584  1.00  0.00     0.010 C 
ENDBRANCH   1   6
TORSDOF 1
ENDMDL
MODEL 3
REMARK VINA RESULT: -3.679538110      1.319      2.417
REMARK  1 active torsions:
REMARK  status: ('A' for Active; 'I' for Inactive)
REMARK    1  A    between atoms: C2_2  and  C4_4 
ROOT
HETATM    1  C4  UNL     1     -16.643  16.068 -13.075  1.00  0.00     0.009 C 
HETATM    2  C5  UNL     1     -16.744  17.529 -13.311  1.00  0.00     0.091 C 
HETATM    3  S1  UNL     1     -18.462  18.034 -12.906  1.00  0.00    -0.097 SA
HETATM    4  S2  UNL     1     -19.318  16.091 -13.327  1.00  0.00    -0.097 SA
HETATM    5  C6  UNL     1     -17.711  15.332 -13.791  1.00  0.00     0.091 C 
ENDROOT
BRANCH   1   6
HETATM    6  C2  UNL     1     -16.421  15.699 -11.652  1.00  0.00    -0.017 C 
HETATM    7  C1  UNL     1     -15.079  16.197 -11.151  1.00  0.00     0.010 C 
HETATM    8  C3  UNL     1     -16.557  14.266 -11.303  1.00  0.00     0.010 C 
ENDBRANCH   1   6
TORSDOF 1
ENDMDL
MODEL 4
REMARK VINA RESULT: -3.640790970      2.151      3.182
REMARK  1 active torsions:
REMARK  status: ('A' for Active; 'I' for Inactive)
REMARK    1  A    between atoms: C2_2  and  C4_4 
ROOT
HETATM    1  C4  UNL     1     -16.909  14.851 -12.869  1.00  0.00     0.009 C 
HETATM    2  C5  UNL     1     -18.041  14.929 -13.825  1.00  0.00     0.091 C 
HETATM    3  S1  UNL     1     -19.580  14.594 -12.882  1.00  0.00    -0.097 SA
HETATM    4  S2  UNL     1     -18.600  13.403 -11.364  1.00  0.00    -0.097 SA
HETATM    5  C6  UNL     1     -16.930  13.579 -12.110  1.00  0.00     0.091 C 
ENDROOT
BRANCH   1   6
HETATM    6  C2  UNL     1     -16.700  16.093 -12.078  1.00  0.00    -0.017 C 
HETATM    7  C1  UNL     1     -16.845  17.333 -12.940  1.00  0.00     0.010 C 
HETATM    8  C3  UNL     1     -15.438  16.194 -11.309  1.00  0.00     0.010 C 
ENDBRANCH   1   6
TORSDOF 1
ENDMDL
MODEL 5
REMARK VINA RESULT: -3.517527939      2.024      3.027
REMARK  1 active torsions:
REMARK  status: ('A' for Active; 'I' for Inactive)
REMARK    1  A    between atoms: C2_2  and  C4_4 
ROOT
HETATM    1  C4  UNL     1     -17.372  15.755 -13.727  1.00  0.00     0.009 C 
HETATM    2  C5  UNL     1     -18.058  15.470 -15.011  1.00  0.00     0.091 C 
HETATM    3  S1  UNL     1     -19.794  15.021 -14.619  1.00  0.00    -0.097 SA
HETATM    4  S2  UNL     1     -19.341  14.291 -12.632  1.00  0.00    -0.097 SA
HETATM    5  C6  UNL     1     -17.543  14.641 -12.766  1.00  0.00     0.091 C 
ENDROOT
BRANCH   1   6
HETATM    6  C2  UNL     1     -17.613  17.126 -13.204  1.00  0.00    -0.017 C 
HETATM    7  C1  UNL     1     -17.636  18.152 -14.322  1.00  0.00     0.010 C 
HETATM    8  C3  UNL     1     -16.704  17.606 -12.138  1.00  0.00     0.010 C 
ENDBRANCH   1   6
TORSDOF 1
ENDMDL
