MODEL 1
REMARK VINA RESULT: -4.712699207      0.000      0.000
REMARK  1 active torsions:
REMARK  status: ('A' for Active; 'I' for Inactive)
REMARK    1  A    between atoms: N1_2  and  C2_4 
ROOT
HETATM    1  C2  UNL     1     -17.626  18.490   0.895  1.00  0.00     0.025 C 
HETATM    2  C3  UNL     1     -17.370  18.515  -0.590  1.00  0.00     0.031 C 
HETATM    3  C4  UNL     1     -17.489  17.148  -1.216  1.00  0.00     0.007 C 
HETATM    4  C5  UNL     1     -17.602  16.118  -0.101  1.00  0.00    -0.011 C 
HETATM    5  C6  UNL     1     -18.909  16.352   0.599  1.00  0.00     0.007 C 
HETATM    6  C7  UNL     1     -18.916  17.729   1.157  1.00  0.00     0.031 C 
HETATM    7  C8  UNL     1     -16.414  16.348   0.801  1.00  0.00    -0.012 C 
HETATM    8  C9  UNL     1     -16.240  15.217   1.815  1.00  0.00     0.010 C 
HETATM    9  C10 UNL     1     -16.479  17.688   1.491  1.00  0.00     0.035 C 
ENDROOT
BRANCH   1  10
HETATM   10  N1  UNL     1     -17.783  19.767   1.474  1.00  0.00    -0.417 N 
HETATM   11  C1  UNL     1     -17.104  20.874   0.932  1.00  0.00     0.140 C 
ATOM     12  H1  UNL     1     -18.390  19.888   2.284  1.00  0.00     0.153 HD
ENDBRANCH   1  10
TORSDOF 1
ENDMDL
MODEL 2
REMARK VINA RESULT: -4.643890325      3.941      5.645
REMARK  1 active torsions:
REMARK  status: ('A' for Active; 'I' for Inactive)
REMARK    1  A    between atoms: N1_2  and  C2_4 
ROOT
HETATM    1  C2  UNL     1     -17.869  13.200   1.318  1.00  0.00     0.025 C 
HETATM    2  C3  UNL     1     -19.323  13.325   1.694  1.00  0.00     0.031 C 
HETATM    3  C4  UNL     1     -19.628  12.684   3.025  1.00  0.00     0.007 C 
HETATM    4  C5  UNL     1     -18.404  11.896   3.470  1.00  0.00    -0.011 C 
HETATM    5  C6  UNL     1     -17.307  12.883   3.745  1.00  0.00     0.007 C 
HETATM    6  C7  UNL     1     -17.017  13.639   2.500  1.00  0.00     0.031 C 
HETATM    7  C8  UNL     1     -18.071  10.964   2.331  1.00  0.00    -0.012 C 
HETATM    8  C9  UNL     1     -17.032   9.918   2.734  1.00  0.00     0.010 C 
HETATM    9  C10 UNL     1     -17.633  11.714   1.097  1.00  0.00     0.035 C 
ENDROOT
BRANCH   1  10
HETATM   10  N1  UNL     1     -17.487  14.002   0.222  1.00  0.00    -0.417 N 
HETATM   11  C1  UNL     1     -17.438  15.402   0.358  1.00  0.00     0.140 C 
ATOM     12  H1  UNL     1     -17.246  13.568  -0.668  1.00  0.00     0.153 HD
ENDBRANCH   1  10
TORSDOF 1
ENDMDL
MODEL 3
REMARK VINA RESULT: -4.589090149      4.909      6.406
REMARK  1 active torsions:
REMARK  status: ('A' for Active; 'I' for Inactive)
REMARK    1  A    between atoms: N1_2  and  C2_4 
ROOT
HETATM    1  C2  UNL     1     -17.571  12.292   3.673  1.00  0.00     0.025 C 
HETATM    2  C3  UNL     1     -17.217  11.039   2.914  1.00  0.00     0.031 C 
HETATM    3  C4  UNL     1     -17.485  11.171   1.435  1.00  0.00     0.007 C 
HETATM    4  C5  UNL     1     -18.256  12.462   1.199  1.00  0.00    -0.011 C 
HETATM    5  C6  UNL     1     -17.343  13.602   1.543  1.00  0.00     0.007 C 
HETATM    6  C7  UNL     1     -16.943  13.486   2.969  1.00  0.00     0.031 C 
HETATM    7  C8  UNL     1     -19.464  12.397   2.102  1.00  0.00    -0.012 C 
HETATM    8  C9  UNL     1     -20.477  13.495   1.780  1.00  0.00     0.010 C 
HETATM    9  C10 UNL     1     -19.081  12.423   3.560  1.00  0.00     0.035 C 
ENDROOT
BRANCH   1  10
HETATM   10  N1  UNL     1     -17.098  12.311   5.003  1.00  0.00    -0.417 N 
HETATM   11  C1  UNL     1     -17.815  13.007   5.994  1.00  0.00     0.140 C 
ATOM     12  H1  UNL     1     -16.238  11.820   5.245  1.00  0.00     0.153 HD
ENDBRANCH   1  10
TORSDOF 1
ENDMDL
MODEL 4
REMARK VINA RESULT: -4.569399971      4.000      5.616
REMARK  1 active torsions:
REMARK  status: ('A' for Active; 'I' for Inactive)
REMARK    1  A    between atoms: N1_2  and  C2_4 
ROOT
HETATM    1  C2  UNL     1     -17.680  13.054   1.592  1.00  0.00     0.025 C 
HETATM    2  C3  UNL     1     -17.350  11.621   1.262  1.00  0.00     0.031 C 
HETATM    3  C4  UNL     1     -17.969  10.652   2.238  1.00  0.00     0.007 C 
HETATM    4  C5  UNL     1     -18.549  11.445   3.400  1.00  0.00    -0.011 C 
HETATM    5  C6  UNL     1     -19.692  12.259   2.867  1.00  0.00     0.007 C 
HETATM    6  C7  UNL     1     -19.180  13.174   1.813  1.00  0.00     0.031 C 
HETATM    7  C8  UNL     1     -17.423  12.303   3.923  1.00  0.00    -0.012 C 
HETATM    8  C9  UNL     1     -17.774  12.954   5.260  1.00  0.00     0.010 C 
HETATM    9  C10 UNL     1     -16.987  13.337   2.915  1.00  0.00     0.035 C 
ENDROOT
BRANCH   1  10
HETATM   10  N1  UNL     1     -17.347  13.970   0.571  1.00  0.00    -0.417 N 
HETATM   11  C1  UNL     1     -17.264  15.346   0.859  1.00  0.00     0.140 C 
ATOM     12  H1  UNL     1     -17.166  13.636  -0.375  1.00  0.00     0.153 HD
ENDBRANCH   1  10
TORSDOF 1
ENDMDL
MODEL 5
REMARK VINA RESULT: -4.554229631      4.888      6.311
REMARK  1 active torsions:
REMARK  status: ('A' for Active; 'I' for Inactive)
REMARK    1  A    between atoms: N1_2  and  C2_4 
ROOT
HETATM    1  C2  UNL     1     -17.561  12.357   3.673  1.00  0.00     0.025 C 
HETATM    2  C3  UNL     1     -17.001  13.459   2.811  1.00  0.00     0.031 C 
HETATM    3  C4  UNL     1     -17.779  13.638   1.531  1.00  0.00     0.007 C 
HETATM    4  C5  UNL     1     -18.759  12.480   1.400  1.00  0.00    -0.011 C 
HETATM    5  C6  UNL     1     -19.767  12.615   2.503  1.00  0.00     0.007 C 
HETATM    6  C7  UNL     1     -19.063  12.557   3.809  1.00  0.00     0.031 C 
HETATM    7  C8  UNL     1     -17.935  11.221   1.520  1.00  0.00    -0.012 C 
HETATM    8  C9  UNL     1     -18.736   9.977   1.137  1.00  0.00     0.010 C 
HETATM    9  C10 UNL     1     -17.327  11.073   2.893  1.00  0.00     0.035 C 
ENDROOT
BRANCH   1  10
HETATM   10  N1  UNL     1     -17.035  12.327   4.982  1.00  0.00    -0.417 N 
HETATM   11  C1  UNL     1     -17.714  12.979   6.028  1.00  0.00     0.140 C 
ATOM     12  H1  UNL     1     -16.162  11.834   5.170  1.00  0.00     0.153 HD
ENDBRANCH   1  10
TORSDOF 1
ENDMDL
