MODEL 1
REMARK VINA RESULT: -4.595206949      0.000      0.000
REMARK  3 active torsions:
REMARK  status: ('A' for Active; 'I' for Inactive)
REMARK    1  A    between atoms: C2_2  and  O1_6 
REMARK    2  A    between atoms: O1_6  and  C3_7 
REMARK       I    between atoms: C3_7  and  N2_9 
REMARK    3  A    between atoms: N2_9  and  C4_11 
ROOT
HETATM    1  O1  UNL     1      29.907 -19.932   0.361  1.00  0.00    -0.248 OA
ENDROOT
BRANCH   1   2
HETATM    2  C2  UNL     1      30.906 -20.317  -0.518  1.00  0.00     0.131 C 
HETATM    3  C1  UNL     1      31.703 -21.534  -0.240  1.00  0.00     0.098 C 
HETATM    4  N1  UNL     1      31.117 -19.606  -1.558  1.00  0.00    -0.304 N 
HETATM    5  S1  UNL     1      32.337 -19.955  -2.762  1.00  0.00     0.044 SA
ATOM      6  H1  UNL     1      30.535 -18.780  -1.696  1.00  0.00     0.176 HD
ENDBRANCH   1   2
BRANCH   1   7
HETATM    7  C3  UNL     1      28.645 -20.512   0.355  1.00  0.00     0.373 C 
HETATM    8  O2  UNL     1      28.180 -20.871  -0.738  1.00  0.00    -0.238 OA
HETATM    9  N2  UNL     1      27.983 -20.649   1.601  1.00  0.00    -0.280 N 
ATOM     10  H2  UNL     1      28.522 -20.725   2.464  1.00  0.00     0.173 HD
BRANCH   9  11
HETATM   11  C4  UNL     1      26.714 -20.675   1.633  1.00  0.00     0.357 C 
HETATM   12  O3  UNL     1      25.577 -21.026   1.897  1.00  0.00    -0.283 OA
ENDBRANCH   9  11
ENDBRANCH   1   7
TORSDOF 3
ENDMDL
MODEL 2
REMARK VINA RESULT: -4.396868230      3.026      4.906
REMARK  3 active torsions:
REMARK  status: ('A' for Active; 'I' for Inactive)
REMARK    1  A    between atoms: C2_2  and  O1_6 
REMARK    2  A    between atoms: O1_6  and  C3_7 
REMARK       I    between atoms: C3_7  and  N2_9 
REMARK    3  A    between atoms: N2_9  and  C4_11 
ROOT
HETATM    1  O1  UNL     1      29.830 -21.508  -0.579  1.00  0.00    -0.248 OA
ENDROOT
BRANCH   1   2
HETATM    2  C2  UNL     1      28.793 -21.518   0.339  1.00  0.00     0.131 C 
HETATM    3  C1  UNL     1      28.637 -22.664   1.264  1.00  0.00     0.098 C 
HETATM    4  N1  UNL     1      27.987 -20.526   0.366  1.00  0.00    -0.304 N 
HETATM    5  S1  UNL     1      26.631 -20.385   1.462  1.00  0.00     0.044 SA
ATOM      6  H1  UNL     1      28.146 -19.766  -0.295  1.00  0.00     0.176 HD
ENDBRANCH   1   2
BRANCH   1   7
HETATM    7  C3  UNL     1      30.719 -20.446  -0.688  1.00  0.00     0.373 C 
HETATM    8  O2  UNL     1      30.768 -19.637   0.252  1.00  0.00    -0.238 OA
HETATM    9  N2  UNL     1      31.502 -20.368  -1.867  1.00  0.00    -0.280 N 
ATOM     10  H2  UNL     1      31.727 -21.213  -2.392  1.00  0.00     0.173 HD
BRANCH   9  11
HETATM   11  C4  UNL     1      31.919 -19.236  -2.263  1.00  0.00     0.357 C 
HETATM   12  O3  UNL     1      31.919 -18.072  -2.624  1.00  0.00    -0.283 OA
ENDBRANCH   9  11
ENDBRANCH   1   7
TORSDOF 3
ENDMDL
MODEL 3
REMARK VINA RESULT: -4.382775627      1.642      1.642
REMARK  3 active torsions:
REMARK  status: ('A' for Active; 'I' for Inactive)
REMARK    1  A    between atoms: C2_2  and  O1_6 
REMARK    2  A    between atoms: O1_6  and  C3_7 
REMARK       I    between atoms: C3_7  and  N2_9 
REMARK    3  A    between atoms: N2_9  and  C4_11 
ROOT
HETATM    1  O1  UNL     1      30.114 -20.440   0.111  1.00  0.00    -0.248 OA
ENDROOT
BRANCH   1   2
HETATM    2  C2  UNL     1      31.049 -20.410  -0.911  1.00  0.00     0.131 C 
HETATM    3  C1  UNL     1      31.919 -21.584  -1.149  1.00  0.00     0.098 C 
HETATM    4  N1  UNL     1      31.138 -19.357  -1.630  1.00  0.00    -0.304 N 
HETATM    5  S1  UNL     1      32.264 -19.159  -2.954  1.00  0.00     0.044 SA
ATOM      6  H1  UNL     1      30.512 -18.582  -1.418  1.00  0.00     0.176 HD
ENDBRANCH   1   2
BRANCH   1   7
HETATM    7  C3  UNL     1      29.090 -21.378   0.155  1.00  0.00     0.373 C 
HETATM    8  O2  UNL     1      28.139 -21.231  -0.629  1.00  0.00    -0.238 OA
HETATM    9  N2  UNL     1      29.210 -22.432   1.095  1.00  0.00    -0.280 N 
ATOM     10  H2  UNL     1      30.130 -22.740   1.409  1.00  0.00     0.173 HD
BRANCH   9  11
HETATM   11  C4  UNL     1      28.160 -22.989   1.544  1.00  0.00     0.357 C 
HETATM   12  O3  UNL     1      27.388 -23.854   1.919  1.00  0.00    -0.283 OA
ENDBRANCH   9  11
ENDBRANCH   1   7
TORSDOF 3
ENDMDL
MODEL 4
REMARK VINA RESULT: -4.274362258      1.941      2.022
REMARK  3 active torsions:
REMARK  status: ('A' for Active; 'I' for Inactive)
REMARK    1  A    between atoms: C2_2  and  O1_6 
REMARK    2  A    between atoms: O1_6  and  C3_7 
REMARK       I    between atoms: C3_7  and  N2_9 
REMARK    3  A    between atoms: N2_9  and  C4_11 
ROOT
HETATM    1  O1  UNL     1      30.025 -19.148   2.099  1.00  0.00    -0.248 OA
ENDROOT
BRANCH   1   2
HETATM    2  C2  UNL     1      31.136 -19.381   1.304  1.00  0.00     0.131 C 
HETATM    3  C1  UNL     1      32.494 -19.176   1.856  1.00  0.00     0.098 C 
HETATM    4  N1  UNL     1      30.959 -19.773   0.101  1.00  0.00    -0.304 N 
HETATM    5  S1  UNL     1      32.251 -20.109  -1.029  1.00  0.00     0.044 SA
ATOM      6  H1  UNL     1      30.000 -19.897  -0.222  1.00  0.00     0.176 HD
ENDBRANCH   1   2
BRANCH   1   7
HETATM    7  C3  UNL     1      28.993 -20.070   2.225  1.00  0.00     0.373 C 
HETATM    8  O2  UNL     1      29.299 -21.268   2.329  1.00  0.00    -0.238 OA
HETATM    9  N2  UNL     1      27.667 -19.569   2.225  1.00  0.00    -0.280 N 
ATOM     10  H2  UNL     1      27.476 -18.617   2.538  1.00  0.00     0.173 HD
BRANCH   9  11
HETATM   11  C4  UNL     1      26.720 -20.316   1.830  1.00  0.00     0.357 C 
HETATM   12  O3  UNL     1      25.876 -21.196   1.820  1.00  0.00    -0.283 OA
ENDBRANCH   9  11
ENDBRANCH   1   7
TORSDOF 3
ENDMDL
MODEL 5
REMARK VINA RESULT: -4.258869472      2.490      2.963
REMARK  3 active torsions:
REMARK  status: ('A' for Active; 'I' for Inactive)
REMARK    1  A    between atoms: C2_2  and  O1_6 
REMARK    2  A    between atoms: O1_6  and  C3_7 
REMARK       I    between atoms: C3_7  and  N2_9 
REMARK    3  A    between atoms: N2_9  and  C4_11 
ROOT
HETATM    1  O1  UNL     1      28.063 -19.738   1.559  1.00  0.00    -0.248 OA
ENDROOT
BRANCH   1   2
HETATM    2  C2  UNL     1      29.432 -19.619   1.743  1.00  0.00     0.131 C 
HETATM    3  C1  UNL     1      29.974 -19.339   3.092  1.00  0.00     0.098 C 
HETATM    4  N1  UNL     1      30.201 -19.757   0.732  1.00  0.00    -0.304 N 
HETATM    5  S1  UNL     1      31.945 -19.638   0.794  1.00  0.00     0.044 SA
ATOM      6  H1  UNL     1      29.769 -19.950  -0.172  1.00  0.00     0.176 HD
ENDBRANCH   1   2
BRANCH   1   7
HETATM    7  C3  UNL     1      27.414 -20.965   1.572  1.00  0.00     0.373 C 
HETATM    8  O2  UNL     1      26.221 -20.983   1.913  1.00  0.00    -0.238 OA
HETATM    9  N2  UNL     1      28.166 -22.106   1.193  1.00  0.00    -0.280 N 
ATOM     10  H2  UNL     1      28.961 -22.011   0.562  1.00  0.00     0.173 HD
BRANCH   9  11
HETATM   11  C4  UNL     1      27.840 -23.246   1.649  1.00  0.00     0.357 C 
HETATM   12  O3  UNL     1      27.184 -24.245   1.885  1.00  0.00    -0.283 OA
ENDBRANCH   9  11
ENDBRANCH   1   7
TORSDOF 3
ENDMDL
