MODEL 1
REMARK VINA RESULT: -5.813169575      0.000      0.000
REMARK  6 active torsions:
REMARK  status: ('A' for Active; 'I' for Inactive)
REMARK    1  A    between atoms: N1_4  and  N2_6 
REMARK    2  A    between atoms: N2_6  and  C3_8 
REMARK    3  A    between atoms: C3_8  and  N3_10 
REMARK    4  A    between atoms: N3_10  and  C4_12 
REMARK    5  A    between atoms: C4_12  and  C5_13 
REMARK    6  A    between atoms: C5_13  and  N4_14 
ROOT
HETATM    1  N3  UNL     1      12.853 -15.216  10.433  1.00  0.00    -0.361 N 
ATOM      2  H3  UNL     1      12.412 -14.592  11.109  1.00  0.00     0.162 HD
ENDROOT
BRANCH   1   3
HETATM    3  C3  UNL     1      12.031 -16.154   9.721  1.00  0.00     0.186 C 
HETATM    4  S1  UNL     1      12.211 -17.762   9.899  1.00  0.00    -0.040 SA
BRANCH   3   5
HETATM    5  N2  UNL     1      11.032 -15.690   8.828  1.00  0.00    -0.275 N 
ATOM      6  H2  UNL     1      10.297 -16.317   8.501  1.00  0.00     0.189 HD
BRANCH   5   7
HETATM    7  N1  UNL     1      11.073 -14.363   8.406  1.00  0.00    -0.292 N 
HETATM    8  C2  UNL     1      10.796 -14.011   7.219  1.00  0.00     0.091 C 
HETATM    9  C1  UNL     1      10.409 -15.030   6.223  1.00  0.00     0.083 C 
HETATM   10 CL1  UNL     1      10.860 -12.345   6.732  1.00  0.00    -0.068 Cl
ATOM     11  H1  UNL     1      11.336 -13.643   9.079  1.00  0.00     0.187 HD
ENDBRANCH   5   7
ENDBRANCH   3   5
ENDBRANCH   1   3
BRANCH   1  12
HETATM   12  C4  UNL     1      14.269 -15.122  10.231  1.00  0.00     0.166 C 
BRANCH  12  13
HETATM   13  C5  UNL     1      14.771 -13.766   9.808  1.00  0.00     0.082 C 
BRANCH  13  14
HETATM   14  N4  UNL     1      15.123 -13.631   8.466  1.00  0.00    -0.372 N 
HETATM   15  C6  UNL     1      16.319 -13.044   8.089  1.00  0.00     0.063 C 
HETATM   16  C7  UNL     1      16.805 -13.310   6.705  1.00  0.00     0.044 C 
HETATM   17  C8  UNL     1      15.775 -13.646   5.686  1.00  0.00     0.007 C 
HETATM   18  C9  UNL     1      14.363 -13.446   6.228  1.00  0.00     0.021 C 
HETATM   19  C10 UNL     1      14.333 -14.297   7.503  1.00  0.00     0.127 C 
ENDBRANCH  13  14
ENDBRANCH  12  13
ENDBRANCH   1  12
TORSDOF 6
ENDMDL
MODEL 2
REMARK VINA RESULT: -5.773275643      2.424      4.516
REMARK  6 active torsions:
REMARK  status: ('A' for Active; 'I' for Inactive)
REMARK    1  A    between atoms: N1_4  and  N2_6 
REMARK    2  A    between atoms: N2_6  and  C3_8 
REMARK    3  A    between atoms: C3_8  and  N3_10 
REMARK    4  A    between atoms: N3_10  and  C4_12 
REMARK    5  A    between atoms: C4_12  and  C5_13 
REMARK    6  A    between atoms: C5_13  and  N4_14 
ROOT
HETATM    1  N3  UNL     1      15.750 -14.124   8.127  1.00  0.00    -0.361 N 
ATOM      2  H3  UNL     1      16.723 -14.419   8.210  1.00  0.00     0.162 HD
ENDROOT
BRANCH   1   3
HETATM    3  C3  UNL     1      15.191 -13.953   6.815  1.00  0.00     0.186 C 
HETATM    4  S1  UNL     1      16.075 -14.180   5.468  1.00  0.00    -0.040 SA
BRANCH   3   5
HETATM    5  N2  UNL     1      13.834 -13.569   6.665  1.00  0.00    -0.275 N 
ATOM      6  H2  UNL     1      13.567 -12.584   6.694  1.00  0.00     0.189 HD
BRANCH   5   7
HETATM    7  N1  UNL     1      12.872 -14.559   6.478  1.00  0.00    -0.292 N 
HETATM    8  C2  UNL     1      11.627 -14.332   6.567  1.00  0.00     0.091 C 
HETATM    9  C1  UNL     1      11.149 -12.970   6.879  1.00  0.00     0.083 C 
HETATM   10 CL1  UNL     1      10.459 -15.596   6.328  1.00  0.00    -0.068 Cl
ATOM     11  H1  UNL     1      13.181 -15.506   6.261  1.00  0.00     0.187 HD
ENDBRANCH   5   7
ENDBRANCH   3   5
ENDBRANCH   1   3
BRANCH   1  12
HETATM   12  C4  UNL     1      14.994 -13.896   9.323  1.00  0.00     0.166 C 
BRANCH  12  13
HETATM   13  C5  UNL     1      15.104 -14.974  10.370  1.00  0.00     0.082 C 
BRANCH  13  14
HETATM   14  N4  UNL     1      13.994 -15.803  10.519  1.00  0.00    -0.372 N 
HETATM   15  C6  UNL     1      13.887 -16.680  11.586  1.00  0.00     0.063 C 
HETATM   16  C7  UNL     1      12.530 -17.208  11.903  1.00  0.00     0.044 C 
HETATM   17  C8  UNL     1      11.550 -17.256  10.785  1.00  0.00     0.007 C 
HETATM   18  C9  UNL     1      12.210 -16.937   9.447  1.00  0.00     0.021 C 
HETATM   19  C10 UNL     1      12.881 -15.578   9.680  1.00  0.00     0.127 C 
ENDBRANCH  13  14
ENDBRANCH  12  13
ENDBRANCH   1  12
TORSDOF 6
ENDMDL
MODEL 3
REMARK VINA RESULT: -5.743563145      2.422      4.584
REMARK  6 active torsions:
REMARK  status: ('A' for Active; 'I' for Inactive)
REMARK    1  A    between atoms: N1_4  and  N2_6 
REMARK    2  A    between atoms: N2_6  and  C3_8 
REMARK    3  A    between atoms: C3_8  and  N3_10 
REMARK    4  A    between atoms: N3_10  and  C4_12 
REMARK    5  A    between atoms: C4_12  and  C5_13 
REMARK    6  A    between atoms: C5_13  and  N4_14 
ROOT
HETATM    1  N3  UNL     1      15.792 -14.140   8.113  1.00  0.00    -0.361 N 
ATOM      2  H3  UNL     1      16.757 -14.469   8.164  1.00  0.00     0.162 HD
ENDROOT
BRANCH   1   3
HETATM    3  C3  UNL     1      15.200 -13.942   6.819  1.00  0.00     0.186 C 
HETATM    4  S1  UNL     1      16.044 -14.158   5.445  1.00  0.00    -0.040 SA
BRANCH   3   5
HETATM    5  N2  UNL     1      13.844 -13.539   6.712  1.00  0.00    -0.275 N 
ATOM      6  H2  UNL     1      13.583 -12.559   6.831  1.00  0.00     0.189 HD
BRANCH   5   7
HETATM    7  N1  UNL     1      12.875 -14.503   6.443  1.00  0.00    -0.292 N 
HETATM    8  C2  UNL     1      11.631 -14.263   6.506  1.00  0.00     0.091 C 
HETATM    9  C1  UNL     1      11.162 -12.913   6.877  1.00  0.00     0.083 C 
HETATM   10 CL1  UNL     1      10.455 -15.495   6.164  1.00  0.00    -0.068 Cl
ATOM     11  H1  UNL     1      13.179 -15.442   6.184  1.00  0.00     0.187 HD
ENDBRANCH   5   7
ENDBRANCH   3   5
ENDBRANCH   1   3
BRANCH   1  12
HETATM   12  C4  UNL     1      15.081 -13.895   9.332  1.00  0.00     0.166 C 
BRANCH  12  13
HETATM   13  C5  UNL     1      15.125 -15.014  10.340  1.00  0.00     0.082 C 
BRANCH  13  14
HETATM   14  N4  UNL     1      13.947 -15.741  10.505  1.00  0.00    -0.372 N 
HETATM   15  C6  UNL     1      12.952 -15.730   9.542  1.00  0.00     0.063 C 
HETATM   16  C7  UNL     1      11.944 -16.827   9.588  1.00  0.00     0.044 C 
HETATM   17  C8  UNL     1      11.709 -17.466  10.910  1.00  0.00     0.007 C 
HETATM   18  C9  UNL     1      12.416 -16.712  12.031  1.00  0.00     0.021 C 
HETATM   19  C10 UNL     1      13.879 -16.659  11.576  1.00  0.00     0.127 C 
ENDBRANCH  13  14
ENDBRANCH  12  13
ENDBRANCH   1  12
TORSDOF 6
ENDMDL
MODEL 4
REMARK VINA RESULT: -5.729820244      0.197      1.243
REMARK  6 active torsions:
REMARK  status: ('A' for Active; 'I' for Inactive)
REMARK    1  A    between atoms: N1_4  and  N2_6 
REMARK    2  A    between atoms: N2_6  and  C3_8 
REMARK    3  A    between atoms: C3_8  and  N3_10 
REMARK    4  A    between atoms: N3_10  and  C4_12 
REMARK    5  A    between atoms: C4_12  and  C5_13 
REMARK    6  A    between atoms: C5_13  and  N4_14 
ROOT
HETATM    1  N3  UNL     1      12.939 -15.198  10.399  1.00  0.00    -0.361 N 
ATOM      2  H3  UNL     1      12.518 -14.485  10.995  1.00  0.00     0.162 HD
ENDROOT
BRANCH   1   3
HETATM    3  C3  UNL     1      12.081 -16.153   9.754  1.00  0.00     0.186 C 
HETATM    4  S1  UNL     1      12.241 -17.754   9.997  1.00  0.00    -0.040 SA
BRANCH   3   5
HETATM    5  N2  UNL     1      11.063 -15.711   8.871  1.00  0.00    -0.275 N 
ATOM      6  H2  UNL     1      10.329 -16.350   8.564  1.00  0.00     0.189 HD
BRANCH   5   7
HETATM    7  N1  UNL     1      11.082 -14.390   8.431  1.00  0.00    -0.292 N 
HETATM    8  C2  UNL     1      10.807 -14.060   7.237  1.00  0.00     0.091 C 
HETATM    9  C1  UNL     1      10.448 -15.099   6.253  1.00  0.00     0.083 C 
HETATM   10 CL1  UNL     1      10.844 -12.399   6.728  1.00  0.00    -0.068 Cl
ATOM     11  H1  UNL     1      11.327 -13.656   9.096  1.00  0.00     0.187 HD
ENDBRANCH   5   7
ENDBRANCH   3   5
ENDBRANCH   1   3
BRANCH   1  12
HETATM   12  C4  UNL     1      14.363 -15.209  10.239  1.00  0.00     0.166 C 
BRANCH  12  13
HETATM   13  C5  UNL     1      14.977 -13.891   9.845  1.00  0.00     0.082 C 
BRANCH  13  14
HETATM   14  N4  UNL     1      15.202 -13.698   8.483  1.00  0.00    -0.372 N 
HETATM   15  C6  UNL     1      14.279 -14.106   7.535  1.00  0.00     0.063 C 
HETATM   16  C7  UNL     1      14.386 -13.505   6.175  1.00  0.00     0.044 C 
HETATM   17  C8  UNL     1      15.728 -13.018   5.761  1.00  0.00     0.007 C 
HETATM   18  C9  UNL     1      16.806 -13.425   6.760  1.00  0.00     0.021 C 
HETATM   19  C10 UNL     1      16.292 -12.886   8.100  1.00  0.00     0.127 C 
ENDBRANCH  13  14
ENDBRANCH  12  13
ENDBRANCH   1  12
TORSDOF 6
ENDMDL
MODEL 5
REMARK VINA RESULT: -5.709579744      2.296      4.669
REMARK  6 active torsions:
REMARK  status: ('A' for Active; 'I' for Inactive)
REMARK    1  A    between atoms: N1_4  and  N2_6 
REMARK    2  A    between atoms: N2_6  and  C3_8 
REMARK    3  A    between atoms: C3_8  and  N3_10 
REMARK    4  A    between atoms: N3_10  and  C4_12 
REMARK    5  A    between atoms: C4_12  and  C5_13 
REMARK    6  A    between atoms: C5_13  and  N4_14 
ROOT
HETATM    1  N3  UNL     1      14.175 -16.367  10.853  1.00  0.00    -0.361 N 
ATOM      2  H3  UNL     1      14.095 -17.291  11.277  1.00  0.00     0.162 HD
ENDROOT
BRANCH   1   3
HETATM    3  C3  UNL     1      15.485 -15.806  10.664  1.00  0.00     0.186 C 
HETATM    4  S1  UNL     1      16.801 -16.437  11.382  1.00  0.00    -0.040 SA
BRANCH   3   5
HETATM    5  N2  UNL     1      15.657 -14.667   9.837  1.00  0.00    -0.275 N 
ATOM      6  H2  UNL     1      15.830 -13.749  10.249  1.00  0.00     0.189 HD
BRANCH   5   7
HETATM    7  N1  UNL     1      15.587 -14.823   8.455  1.00  0.00    -0.292 N 
HETATM    8  C2  UNL     1      16.005 -13.942   7.643  1.00  0.00     0.091 C 
HETATM    9  C1  UNL     1      16.596 -12.690   8.157  1.00  0.00     0.083 C 
HETATM   10 CL1  UNL     1      15.898 -14.174   5.924  1.00  0.00    -0.068 Cl
ATOM     11  H1  UNL     1      15.184 -15.681   8.080  1.00  0.00     0.187 HD
ENDBRANCH   5   7
ENDBRANCH   3   5
ENDBRANCH   1   3
BRANCH   1  12
HETATM   12  C4  UNL     1      12.979 -15.678  10.469  1.00  0.00     0.166 C 
BRANCH  12  13
HETATM   13  C5  UNL     1      12.155 -16.360   9.408  1.00  0.00     0.082 C 
BRANCH  13  14
HETATM   14  N4  UNL     1      11.682 -15.547   8.379  1.00  0.00    -0.372 N 
HETATM   15  C6  UNL     1      10.762 -16.015   7.456  1.00  0.00     0.063 C 
HETATM   16  C7  UNL     1      10.006 -14.999   6.669  1.00  0.00     0.044 C 
HETATM   17  C8  UNL     1      10.658 -13.676   6.482  1.00  0.00     0.007 C 
HETATM   18  C9  UNL     1      12.102 -13.687   6.972  1.00  0.00     0.021 C 
HETATM   19  C10 UNL     1      11.996 -14.171   8.423  1.00  0.00     0.127 C 
ENDBRANCH  13  14
ENDBRANCH  12  13
ENDBRANCH   1  12
TORSDOF 6
ENDMDL
