MODEL 1
REMARK VINA RESULT: -7.201341972      0.000      0.000
REMARK  6 active torsions:
REMARK  status: ('A' for Active; 'I' for Inactive)
REMARK    1  A    between atoms: C3_5  and  C4_6 
REMARK    2  A    between atoms: C4_6  and  N2_7 
REMARK    3  A    between atoms: C8_11  and  C9_12 
REMARK    4  A    between atoms: C9_12  and  N3_13 
REMARK    5  A    between atoms: N3_13  and  C10_15 
REMARK    6  A    between atoms: C10_15  and  C11_16 
ROOT
HETATM    1  N2  UNL     1      12.472 -14.543   6.839  1.00  0.00     0.103 N 
HETATM    2  C5  UNL     1      11.621 -13.334   6.970  1.00  0.00     0.274 C 
HETATM    3  C6  UNL     1      10.259 -13.851   6.556  1.00  0.00     0.033 C 
HETATM    4  C7  UNL     1      10.317 -15.339   6.904  1.00  0.00     0.043 C 
HETATM    5  C8  UNL     1      11.635 -15.472   7.590  1.00  0.00     0.261 C 
ENDROOT
BRANCH   5   6
HETATM    6  C9  UNL     1      12.193 -16.842   7.597  1.00  0.00     0.091 C 
BRANCH   6   7
HETATM    7  N3  UNL     1      11.907 -17.672   8.675  1.00  0.00    -0.398 N 
ATOM      8  H3  UNL     1      11.877 -18.680   8.518  1.00  0.00     0.158 HD
BRANCH   7   9
HETATM    9  C10 UNL     1      11.659 -17.191   9.964  1.00  0.00     0.150 C 
BRANCH   9  10
HETATM   10  C11 UNL     1      12.640 -17.926  10.906  1.00  0.00     0.139 C 
HETATM   11  C12 UNL     1      12.417 -17.596  12.340  1.00  0.00     0.035 C 
HETATM   12  C13 UNL     1      13.436 -16.515  12.597  1.00  0.00     0.029 C 
HETATM   13  C14 UNL     1      14.106 -16.360  11.250  1.00  0.00     0.168 C 
HETATM   14  O1  UNL     1      13.930 -17.560  10.569  1.00  0.00    -0.384 OA
ENDBRANCH   9  10
ENDBRANCH   7   9
ENDBRANCH   6   7
ENDBRANCH   5   6
BRANCH   1  15
HETATM   15  C4  UNL     1      13.748 -14.317   7.483  1.00  0.00     0.331 C 
BRANCH  15  16
HETATM   16  C3  UNL     1      14.779 -13.985   6.460  1.00  0.00     0.054 A 
HETATM   17  C2  UNL     1      15.533 -14.893   5.765  1.00  0.00     0.115 A 
HETATM   18  N1  UNL     1      16.339 -14.208   4.959  1.00  0.00    -0.360 N 
HETATM   19  C1  UNL     1      16.121 -12.883   5.123  1.00  0.00     0.180 A 
ATOM     20  H1  UNL     1      17.017 -14.618   4.316  1.00  0.00     0.166 HD
HETATM   21  N4  UNL     1      15.149 -12.761   6.060  1.00  0.00    -0.353 N 
ATOM     22  H4  UNL     1      14.762 -11.882   6.404  1.00  0.00     0.166 HD
ENDBRANCH  15  16
ENDBRANCH   1  15
TORSDOF 6
ENDMDL
MODEL 2
REMARK VINA RESULT: -6.908640830      1.796      4.129
REMARK  6 active torsions:
REMARK  status: ('A' for Active; 'I' for Inactive)
REMARK    1  A    between atoms: C3_5  and  C4_6 
REMARK    2  A    between atoms: C4_6  and  N2_7 
REMARK    3  A    between atoms: C8_11  and  C9_12 
REMARK    4  A    between atoms: C9_12  and  N3_13 
REMARK    5  A    between atoms: N3_13  and  C10_15 
REMARK    6  A    between atoms: C10_15  and  C11_16 
ROOT
HETATM    1  N2  UNL     1      14.477 -13.834   7.265  1.00  0.00     0.103 N 
HETATM    2  C5  UNL     1      15.333 -13.675   6.062  1.00  0.00     0.274 C 
HETATM    3  C6  UNL     1      16.343 -12.642   6.519  1.00  0.00     0.033 C 
HETATM    4  C7  UNL     1      16.403 -12.841   8.033  1.00  0.00     0.043 C 
HETATM    5  C8  UNL     1      15.535 -14.036   8.250  1.00  0.00     0.261 C 
ENDROOT
BRANCH   5   6
HETATM    6  C9  UNL     1      14.998 -14.170   9.622  1.00  0.00     0.091 C 
BRANCH   6   7
HETATM    7  N3  UNL     1      15.613 -15.061  10.494  1.00  0.00    -0.398 N 
ATOM      8  H3  UNL     1      16.612 -14.959  10.670  1.00  0.00     0.158 HD
BRANCH   7   9
HETATM    9  C10 UNL     1      14.924 -16.093  11.141  1.00  0.00     0.150 C 
BRANCH   9  10
HETATM   10  C11 UNL     1      13.420 -15.850  10.883  1.00  0.00     0.139 C 
HETATM   11  C12 UNL     1      12.603 -15.930  12.124  1.00  0.00     0.035 C 
HETATM   12  C13 UNL     1      12.082 -17.344  12.091  1.00  0.00     0.029 C 
HETATM   13  C14 UNL     1      12.692 -17.895  10.822  1.00  0.00     0.168 C 
HETATM   14  O1  UNL     1      12.965 -16.809   9.997  1.00  0.00    -0.384 OA
ENDBRANCH   9  10
ENDBRANCH   7   9
ENDBRANCH   6   7
ENDBRANCH   5   6
BRANCH   1  15
HETATM   15  C4  UNL     1      13.639 -15.006   7.119  1.00  0.00     0.331 C 
BRANCH  15  16
HETATM   16  C3  UNL     1      12.219 -14.592   6.945  1.00  0.00     0.054 A 
HETATM   17  C2  UNL     1      11.694 -13.376   7.296  1.00  0.00     0.115 A 
HETATM   18  N1  UNL     1      10.400 -13.398   6.993  1.00  0.00    -0.360 N 
HETATM   19  C1  UNL     1      10.082 -14.599   6.458  1.00  0.00     0.180 A 
ATOM     20  H1  UNL     1       9.747 -12.628   7.141  1.00  0.00     0.166 HD
HETATM   21  N4  UNL     1      11.224 -15.330   6.436  1.00  0.00    -0.353 N 
ATOM     22  H4  UNL     1      11.311 -16.285   6.088  1.00  0.00     0.166 HD
ENDBRANCH  15  16
ENDBRANCH   1  15
TORSDOF 6
ENDMDL
MODEL 3
REMARK VINA RESULT: -6.774114948      0.753      1.080
REMARK  6 active torsions:
REMARK  status: ('A' for Active; 'I' for Inactive)
REMARK    1  A    between atoms: C3_5  and  C4_6 
REMARK    2  A    between atoms: C4_6  and  N2_7 
REMARK    3  A    between atoms: C8_11  and  C9_12 
REMARK    4  A    between atoms: C9_12  and  N3_13 
REMARK    5  A    between atoms: N3_13  and  C10_15 
REMARK    6  A    between atoms: C10_15  and  C11_16 
ROOT
HETATM    1  N2  UNL     1      12.406 -14.496   6.802  1.00  0.00     0.103 N 
HETATM    2  C5  UNL     1      11.546 -13.290   6.907  1.00  0.00     0.274 C 
HETATM    3  C6  UNL     1      10.193 -13.820   6.475  1.00  0.00     0.033 C 
HETATM    4  C7  UNL     1      10.254 -15.303   6.840  1.00  0.00     0.043 C 
HETATM    5  C8  UNL     1      11.562 -15.422   7.550  1.00  0.00     0.261 C 
ENDROOT
BRANCH   5   6
HETATM    6  C9  UNL     1      12.128 -16.788   7.580  1.00  0.00     0.091 C 
BRANCH   6   7
HETATM    7  N3  UNL     1      11.724 -17.654   8.590  1.00  0.00    -0.398 N 
ATOM      8  H3  UNL     1      10.841 -18.152   8.480  1.00  0.00     0.158 HD
BRANCH   7   9
HETATM    9  C10 UNL     1      12.473 -17.874   9.751  1.00  0.00     0.150 C 
BRANCH   9  10
HETATM   10  C11 UNL     1      12.333 -16.601  10.615  1.00  0.00     0.139 C 
HETATM   11  C12 UNL     1      13.635 -16.128  11.159  1.00  0.00     0.035 C 
HETATM   12  C13 UNL     1      13.651 -16.717  12.547  1.00  0.00     0.029 C 
HETATM   13  C14 UNL     1      12.341 -17.470  12.606  1.00  0.00     0.168 C 
HETATM   14  O1  UNL     1      11.491 -16.880  11.677  1.00  0.00    -0.384 OA
ENDBRANCH   9  10
ENDBRANCH   7   9
ENDBRANCH   6   7
ENDBRANCH   5   6
BRANCH   1  15
HETATM   15  C4  UNL     1      13.670 -14.255   7.466  1.00  0.00     0.331 C 
BRANCH  15  16
HETATM   16  C3  UNL     1      14.725 -13.967   6.454  1.00  0.00     0.054 A 
HETATM   17  C2  UNL     1      15.472 -14.907   5.793  1.00  0.00     0.115 A 
HETATM   18  N1  UNL     1      16.306 -14.257   4.986  1.00  0.00    -0.360 N 
HETATM   19  C1  UNL     1      16.112 -12.924   5.116  1.00  0.00     0.180 A 
ATOM     20  H1  UNL     1      16.986 -14.695   4.365  1.00  0.00     0.166 HD
HETATM   21  N4  UNL     1      15.126 -12.761   6.033  1.00  0.00    -0.353 N 
ATOM     22  H4  UNL     1      14.752 -11.867   6.349  1.00  0.00     0.166 HD
ENDBRANCH  15  16
ENDBRANCH   1  15
TORSDOF 6
ENDMDL
MODEL 4
REMARK VINA RESULT: -6.715585263      0.904      1.308
REMARK  6 active torsions:
REMARK  status: ('A' for Active; 'I' for Inactive)
REMARK    1  A    between atoms: C3_5  and  C4_6 
REMARK    2  A    between atoms: C4_6  and  N2_7 
REMARK    3  A    between atoms: C8_11  and  C9_12 
REMARK    4  A    between atoms: C9_12  and  N3_13 
REMARK    5  A    between atoms: N3_13  and  C10_15 
REMARK    6  A    between atoms: C10_15  and  C11_16 
ROOT
HETATM    1  N2  UNL     1      12.310 -14.809   7.053  1.00  0.00     0.103 N 
HETATM    2  C5  UNL     1      11.415 -13.667   6.741  1.00  0.00     0.274 C 
HETATM    3  C6  UNL     1      10.101 -14.360   6.438  1.00  0.00     0.033 C 
HETATM    4  C7  UNL     1      10.181 -15.653   7.249  1.00  0.00     0.043 C 
HETATM    5  C8  UNL     1      11.451 -15.492   8.015  1.00  0.00     0.261 C 
ENDROOT
BRANCH   5   6
HETATM    6  C9  UNL     1      12.050 -16.757   8.493  1.00  0.00     0.091 C 
BRANCH   6   7
HETATM    7  N3  UNL     1      11.968 -17.063   9.847  1.00  0.00    -0.398 N 
ATOM      8  H3  UNL     1      11.085 -16.898  10.330  1.00  0.00     0.158 HD
BRANCH   7   9
HETATM    9  C10 UNL     1      13.040 -17.587  10.577  1.00  0.00     0.150 C 
BRANCH   9  10
HETATM   10  C11 UNL     1      13.426 -16.517  11.623  1.00  0.00     0.139 C 
HETATM   11  C12 UNL     1      13.577 -15.161  11.029  1.00  0.00     0.035 C 
HETATM   12  C13 UNL     1      15.064 -15.059  10.803  1.00  0.00     0.029 C 
HETATM   13  C14 UNL     1      15.570 -16.397  11.293  1.00  0.00     0.168 C 
HETATM   14  O1  UNL     1      14.630 -16.879  12.198  1.00  0.00    -0.384 OA
ENDBRANCH   9  10
ENDBRANCH   7   9
ENDBRANCH   6   7
ENDBRANCH   5   6
BRANCH   1  15
HETATM   15  C4  UNL     1      13.530 -14.322   7.662  1.00  0.00     0.331 C 
BRANCH  15  16
HETATM   16  C3  UNL     1      14.545 -14.046   6.607  1.00  0.00     0.054 A 
HETATM   17  C2  UNL     1      15.265 -14.992   5.926  1.00  0.00     0.115 A 
HETATM   18  N1  UNL     1      16.068 -14.351   5.082  1.00  0.00    -0.360 N 
HETATM   19  C1  UNL     1      15.881 -13.017   5.207  1.00  0.00     0.180 A 
ATOM     20  H1  UNL     1      16.723 -14.796   4.439  1.00  0.00     0.166 HD
HETATM   21  N4  UNL     1      14.932 -12.844   6.160  1.00  0.00    -0.353 N 
ATOM     22  H4  UNL     1      14.572 -11.946   6.484  1.00  0.00     0.166 HD
ENDBRANCH  15  16
ENDBRANCH   1  15
TORSDOF 6
ENDMDL
MODEL 5
REMARK VINA RESULT: -6.653173959      2.460      4.486
REMARK  6 active torsions:
REMARK  status: ('A' for Active; 'I' for Inactive)
REMARK    1  A    between atoms: C3_5  and  C4_6 
REMARK    2  A    between atoms: C4_6  and  N2_7 
REMARK    3  A    between atoms: C8_11  and  C9_12 
REMARK    4  A    between atoms: C9_12  and  N3_13 
REMARK    5  A    between atoms: N3_13  and  C10_15 
REMARK    6  A    between atoms: C10_15  and  C11_16 
ROOT
HETATM    1  N2  UNL     1      15.384 -12.817   6.403  1.00  0.00     0.103 N 
HETATM    2  C5  UNL     1      16.458 -12.280   7.276  1.00  0.00     0.274 C 
HETATM    3  C6  UNL     1      16.205 -13.005   8.583  1.00  0.00     0.033 C 
HETATM    4  C7  UNL     1      15.531 -14.307   8.147  1.00  0.00     0.043 C 
HETATM    5  C8  UNL     1      15.596 -14.238   6.658  1.00  0.00     0.261 C 
ENDROOT
BRANCH   5   6
HETATM    6  C9  UNL     1      14.606 -15.082   5.956  1.00  0.00     0.091 C 
BRANCH   6   7
HETATM    7  N3  UNL     1      13.428 -15.415   6.614  1.00  0.00    -0.398 N 
ATOM      8  H3  UNL     1      13.366 -16.325   7.071  1.00  0.00     0.158 HD
BRANCH   7   9
HETATM    9  C10 UNL     1      12.323 -14.559   6.681  1.00  0.00     0.150 C 
BRANCH   9  10
HETATM   10  C11 UNL     1      11.808 -14.616   8.137  1.00  0.00     0.139 C 
HETATM   11  C12 UNL     1      12.174 -15.882   8.828  1.00  0.00     0.035 C 
HETATM   12  C13 UNL     1      10.933 -16.722   8.665  1.00  0.00     0.029 C 
HETATM   13  C14 UNL     1      10.015 -15.814   7.878  1.00  0.00     0.168 C 
HETATM   14  O1  UNL     1      10.430 -14.509   8.121  1.00  0.00    -0.384 OA
ENDBRANCH   9  10
ENDBRANCH   7   9
ENDBRANCH   6   7
ENDBRANCH   5   6
BRANCH   1  15
HETATM   15  C4  UNL     1      15.652 -12.465   5.025  1.00  0.00     0.331 C 
BRANCH  15  16
HETATM   16  C3  UNL     1      15.084 -11.120   4.728  1.00  0.00     0.054 A 
HETATM   17  C2  UNL     1      13.909 -10.623   5.228  1.00  0.00     0.115 A 
HETATM   18  N1  UNL     1      13.746  -9.403   4.723  1.00  0.00    -0.360 N 
HETATM   19  C1  UNL     1      14.786  -9.109   3.910  1.00  0.00     0.180 A 
ATOM     20  H1  UNL     1      12.958  -8.786   4.919  1.00  0.00     0.166 HD
HETATM   21  N4  UNL     1      15.608 -10.187   3.923  1.00  0.00    -0.353 N 
ATOM     22  H4  UNL     1      16.483 -10.273   3.405  1.00  0.00     0.166 HD
ENDBRANCH  15  16
ENDBRANCH   1  15
TORSDOF 6
ENDMDL
