MODEL 1
REMARK VINA RESULT: -5.316692845      0.000      0.000
REMARK  8 active torsions:
REMARK  status: ('A' for Active; 'I' for Inactive)
REMARK    1  A    between atoms: C2_2  and  S1_3 
REMARK    2  A    between atoms: S1_3  and  C3_4 
REMARK    3  A    between atoms: C3_4  and  C4_5 
REMARK    4  A    between atoms: C4_5  and  N1_6 
REMARK    5  A    between atoms: N1_6  and  C5_8 
REMARK    6  A    between atoms: C5_8  and  N2_10 
REMARK    7  A    between atoms: N2_10  and  C6_12 
REMARK    8  A    between atoms: C6_12  and  C7_13 
ROOT
HETATM    1  C5  UNL     1      10.972 -14.919   7.710  1.00  0.00     0.167 C 
HETATM    2  S2  UNL     1      10.042 -14.768   6.398  1.00  0.00    -0.041 SA
ENDROOT
BRANCH   1   3
HETATM    3  N1  UNL     1      12.053 -14.045   7.928  1.00  0.00    -0.367 N 
ATOM      4  H1  UNL     1      12.179 -13.646   8.858  1.00  0.00     0.161 HD
BRANCH   3   5
HETATM    5  C4  UNL     1      12.982 -13.693   6.899  1.00  0.00     0.132 C 
BRANCH   5   6
HETATM    6  C3  UNL     1      13.859 -14.853   6.539  1.00  0.00     0.093 C 
BRANCH   6   7
HETATM    7  S1  UNL     1      15.614 -14.393   6.626  1.00  0.00    -0.168 SA
BRANCH   7   8
HETATM    8  C2  UNL     1      15.983 -13.619   8.223  1.00  0.00     0.069 C 
HETATM    9  C1  UNL     1      16.706 -12.317   7.947  1.00  0.00     0.016 C 
ENDBRANCH   7   8
ENDBRANCH   6   7
ENDBRANCH   5   6
ENDBRANCH   3   5
ENDBRANCH   1   3
BRANCH   1  10
HETATM   10  N2  UNL     1      10.718 -15.955   8.647  1.00  0.00    -0.363 N 
ATOM     11  H2  UNL     1       9.912 -15.874   9.266  1.00  0.00     0.162 HD
BRANCH  10  12
HETATM   12  C6  UNL     1      11.571 -17.124   8.751  1.00  0.00     0.182 C 
BRANCH  12  13
HETATM   13  C7  UNL     1      12.422 -16.989   9.977  1.00  0.00     0.277 C 
HETATM   14  O1  UNL     1      13.503 -16.119   9.801  1.00  0.00    -0.358 OA
HETATM   15  C8  UNL     1      13.973 -15.925  11.120  1.00  0.00     0.197 C 
HETATM   16  C9  UNL     1      12.783 -16.304  11.989  1.00  0.00     0.197 C 
HETATM   17  O2  UNL     1      11.754 -16.340  11.032  1.00  0.00    -0.358 OA
ENDBRANCH  12  13
ENDBRANCH  10  12
ENDBRANCH   1  10
TORSDOF 8
ENDMDL
MODEL 2
REMARK VINA RESULT: -5.147075210      1.162      1.218
REMARK  8 active torsions:
REMARK  status: ('A' for Active; 'I' for Inactive)
REMARK    1  A    between atoms: C2_2  and  S1_3 
REMARK    2  A    between atoms: S1_3  and  C3_4 
REMARK    3  A    between atoms: C3_4  and  C4_5 
REMARK    4  A    between atoms: C4_5  and  N1_6 
REMARK    5  A    between atoms: N1_6  and  C5_8 
REMARK    6  A    between atoms: C5_8  and  N2_10 
REMARK    7  A    between atoms: N2_10  and  C6_12 
REMARK    8  A    between atoms: C6_12  and  C7_13 
ROOT
HETATM    1  C5  UNL     1      10.817 -15.106   7.858  1.00  0.00     0.167 C 
HETATM    2  S2  UNL     1      10.437 -15.065   6.289  1.00  0.00    -0.041 SA
ENDROOT
BRANCH   1   3
HETATM    3  N1  UNL     1      11.319 -13.961   8.505  1.00  0.00    -0.367 N 
ATOM      4  H1  UNL     1      10.725 -13.135   8.569  1.00  0.00     0.161 HD
BRANCH   3   5
HETATM    5  C4  UNL     1      12.629 -13.910   9.077  1.00  0.00     0.132 C 
BRANCH   5   6
HETATM    6  C3  UNL     1      13.681 -14.204   8.051  1.00  0.00     0.093 C 
BRANCH   6   7
HETATM    7  S1  UNL     1      15.346 -14.016   8.753  1.00  0.00    -0.168 SA
BRANCH   7   8
HETATM    8  C2  UNL     1      16.248 -12.704   7.886  1.00  0.00     0.069 C 
HETATM    9  C1  UNL     1      15.410 -12.275   6.700  1.00  0.00     0.016 C 
ENDBRANCH   7   8
ENDBRANCH   6   7
ENDBRANCH   5   6
ENDBRANCH   3   5
ENDBRANCH   1   3
BRANCH   1  10
HETATM   10  N2  UNL     1      10.667 -16.309   8.596  1.00  0.00    -0.363 N 
ATOM     11  H2  UNL     1       9.796 -16.473   9.101  1.00  0.00     0.162 HD
BRANCH  10  12
HETATM   12  C6  UNL     1      11.714 -17.312   8.654  1.00  0.00     0.182 C 
BRANCH  12  13
HETATM   13  C7  UNL     1      12.151 -17.467  10.079  1.00  0.00     0.277 C 
HETATM   14  O1  UNL     1      13.407 -16.905  10.331  1.00  0.00    -0.358 OA
HETATM   15  C8  UNL     1      13.479 -16.906  11.742  1.00  0.00     0.197 C 
HETATM   16  C9  UNL     1      12.025 -17.000  12.179  1.00  0.00     0.197 C 
HETATM   17  O2  UNL     1      11.363 -16.717  10.972  1.00  0.00    -0.358 OA
ENDBRANCH  12  13
ENDBRANCH  10  12
ENDBRANCH   1  10
TORSDOF 8
ENDMDL
MODEL 3
REMARK VINA RESULT: -5.053052475      1.066      1.077
REMARK  8 active torsions:
REMARK  status: ('A' for Active; 'I' for Inactive)
REMARK    1  A    between atoms: C2_2  and  S1_3 
REMARK    2  A    between atoms: S1_3  and  C3_4 
REMARK    3  A    between atoms: C3_4  and  C4_5 
REMARK    4  A    between atoms: C4_5  and  N1_6 
REMARK    5  A    between atoms: N1_6  and  C5_8 
REMARK    6  A    between atoms: C5_8  and  N2_10 
REMARK    7  A    between atoms: N2_10  and  C6_12 
REMARK    8  A    between atoms: C6_12  and  C7_13 
ROOT
HETATM    1  C5  UNL     1      10.989 -15.003   7.743  1.00  0.00     0.167 C 
HETATM    2  S2  UNL     1      10.071 -14.794   6.431  1.00  0.00    -0.041 SA
ENDROOT
BRANCH   1   3
HETATM    3  N1  UNL     1      12.080 -14.152   7.999  1.00  0.00    -0.367 N 
ATOM      4  H1  UNL     1      12.170 -13.738   8.927  1.00  0.00     0.161 HD
BRANCH   3   5
HETATM    5  C4  UNL     1      13.069 -13.846   7.012  1.00  0.00     0.132 C 
BRANCH   5   6
HETATM    6  C3  UNL     1      13.758 -15.085   6.530  1.00  0.00     0.093 C 
BRANCH   6   7
HETATM    7  S1  UNL     1      15.439 -14.714   5.952  1.00  0.00    -0.168 SA
BRANCH   7   8
HETATM    8  C2  UNL     1      15.767 -12.935   6.075  1.00  0.00     0.069 C 
HETATM    9  C1  UNL     1      15.874 -12.388   4.667  1.00  0.00     0.016 C 
ENDBRANCH   7   8
ENDBRANCH   6   7
ENDBRANCH   5   6
ENDBRANCH   3   5
ENDBRANCH   1   3
BRANCH   1  10
HETATM   10  N2  UNL     1      10.714 -16.066   8.642  1.00  0.00    -0.363 N 
ATOM     11  H2  UNL     1       9.870 -16.025   9.213  1.00  0.00     0.162 HD
BRANCH  10  12
HETATM   12  C6  UNL     1      11.596 -17.212   8.773  1.00  0.00     0.182 C 
BRANCH  12  13
HETATM   13  C7  UNL     1      12.393 -17.062  10.033  1.00  0.00     0.277 C 
HETATM   14  O1  UNL     1      13.497 -16.216   9.886  1.00  0.00    -0.358 OA
HETATM   15  C8  UNL     1      13.911 -15.997  11.219  1.00  0.00     0.197 C 
HETATM   16  C9  UNL     1      12.675 -16.332  12.041  1.00  0.00     0.197 C 
HETATM   17  O2  UNL     1      11.690 -16.374  11.040  1.00  0.00    -0.358 OA
ENDBRANCH  12  13
ENDBRANCH  10  12
ENDBRANCH   1  10
TORSDOF 8
ENDMDL
MODEL 4
REMARK VINA RESULT: -5.035160484      2.577      3.823
REMARK  8 active torsions:
REMARK  status: ('A' for Active; 'I' for Inactive)
REMARK    1  A    between atoms: C2_2  and  S1_3 
REMARK    2  A    between atoms: S1_3  and  C3_4 
REMARK    3  A    between atoms: C3_4  and  C4_5 
REMARK    4  A    between atoms: C4_5  and  N1_6 
REMARK    5  A    between atoms: N1_6  and  C5_8 
REMARK    6  A    between atoms: C5_8  and  N2_10 
REMARK    7  A    between atoms: N2_10  and  C6_12 
REMARK    8  A    between atoms: C6_12  and  C7_13 
ROOT
HETATM    1  C5  UNL     1      12.674 -15.892  10.917  1.00  0.00     0.167 C 
HETATM    2  S2  UNL     1      13.365 -16.592  12.198  1.00  0.00    -0.041 SA
ENDROOT
BRANCH   1   3
HETATM    3  N1  UNL     1      13.024 -14.582  10.538  1.00  0.00    -0.367 N 
ATOM      4  H1  UNL     1      12.318 -13.849  10.605  1.00  0.00     0.161 HD
BRANCH   3   5
HETATM    5  C4  UNL     1      14.329 -14.238  10.064  1.00  0.00     0.132 C 
BRANCH   5   6
HETATM    6  C3  UNL     1      14.369 -14.200   8.567  1.00  0.00     0.093 C 
BRANCH   6   7
HETATM    7  S1  UNL     1      15.876 -13.373   7.977  1.00  0.00    -0.168 SA
BRANCH   7   8
HETATM    8  C2  UNL     1      16.066 -13.614   6.190  1.00  0.00     0.069 C 
HETATM    9  C1  UNL     1      15.386 -14.918   5.827  1.00  0.00     0.016 C 
ENDBRANCH   7   8
ENDBRANCH   6   7
ENDBRANCH   5   6
ENDBRANCH   3   5
ENDBRANCH   1   3
BRANCH   1  10
HETATM   10  N2  UNL     1      11.687 -16.588  10.172  1.00  0.00    -0.363 N 
ATOM     11  H2  UNL     1      10.792 -16.799  10.613  1.00  0.00     0.162 HD
BRANCH  10  12
HETATM   12  C6  UNL     1      11.911 -17.008   8.801  1.00  0.00     0.182 C 
BRANCH  12  13
HETATM   13  C7  UNL     1      11.071 -16.159   7.895  1.00  0.00     0.277 C 
HETATM   14  O1  UNL     1      10.879 -14.862   8.382  1.00  0.00    -0.358 OA
HETATM   15  C8  UNL     1      10.332 -14.183   7.270  1.00  0.00     0.197 C 
HETATM   16  C9  UNL     1      10.744 -15.040   6.083  1.00  0.00     0.197 C 
HETATM   17  O2  UNL     1      11.710 -15.871   6.675  1.00  0.00    -0.358 OA
ENDBRANCH  12  13
ENDBRANCH  10  12
ENDBRANCH   1  10
TORSDOF 8
ENDMDL
MODEL 5
REMARK VINA RESULT: -5.030656585      2.833      5.391
REMARK  8 active torsions:
REMARK  status: ('A' for Active; 'I' for Inactive)
REMARK    1  A    between atoms: C2_2  and  S1_3 
REMARK    2  A    between atoms: S1_3  and  C3_4 
REMARK    3  A    between atoms: C3_4  and  C4_5 
REMARK    4  A    between atoms: C4_5  and  N1_6 
REMARK    5  A    between atoms: N1_6  and  C5_8 
REMARK    6  A    between atoms: C5_8  and  N2_10 
REMARK    7  A    between atoms: N2_10  and  C6_12 
REMARK    8  A    between atoms: C6_12  and  C7_13 
ROOT
HETATM    1  C5  UNL     1      13.763 -15.420  10.629  1.00  0.00     0.167 C 
HETATM    2  S2  UNL     1      15.049 -16.156  11.269  1.00  0.00    -0.041 SA
ENDROOT
BRANCH   1   3
HETATM    3  N1  UNL     1      12.462 -15.892  10.889  1.00  0.00    -0.367 N 
ATOM      4  H1  UNL     1      11.777 -15.246  11.281  1.00  0.00     0.161 HD
BRANCH   3   5
HETATM    5  C4  UNL     1      12.063 -17.240  10.626  1.00  0.00     0.132 C 
BRANCH   5   6
HETATM    6  C3  UNL     1      12.075 -17.533   9.157  1.00  0.00     0.093 C 
BRANCH   6   7
HETATM    7  S1  UNL     1      10.785 -16.589   8.294  1.00  0.00    -0.168 SA
BRANCH   7   8
HETATM    8  C2  UNL     1      11.532 -15.488   7.061  1.00  0.00     0.069 C 
HETATM    9  C1  UNL     1      10.434 -15.039   6.120  1.00  0.00     0.016 C 
ENDBRANCH   7   8
ENDBRANCH   6   7
ENDBRANCH   5   6
ENDBRANCH   3   5
ENDBRANCH   1   3
BRANCH   1  10
HETATM   10  N2  UNL     1      13.935 -14.298   9.777  1.00  0.00    -0.363 N 
ATOM     11  H2  UNL     1      13.131 -13.705   9.573  1.00  0.00     0.162 HD
BRANCH  10  12
HETATM   12  C6  UNL     1      15.219 -13.969   9.187  1.00  0.00     0.182 C 
BRANCH  12  13
HETATM   13  C7  UNL     1      15.093 -14.036   7.695  1.00  0.00     0.277 C 
HETATM   14  O1  UNL     1      15.422 -12.832   7.063  1.00  0.00    -0.358 OA
HETATM   15  C8  UNL     1      15.514 -13.202   5.702  1.00  0.00     0.197 C 
HETATM   16  C9  UNL     1      15.735 -14.707   5.750  1.00  0.00     0.197 C 
HETATM   17  O2  UNL     1      16.046 -14.889   7.109  1.00  0.00    -0.358 OA
ENDBRANCH  12  13
ENDBRANCH  10  12
ENDBRANCH   1  10
TORSDOF 8
ENDMDL
