MODEL 1
REMARK VINA RESULT: -6.433335660      0.000      0.000
REMARK  6 active torsions:
REMARK  status: ('A' for Active; 'I' for Inactive)
REMARK    1  A    between atoms: C2_2  and  O1_3 
REMARK    2  A    between atoms: O1_3  and  C3_4 
REMARK    3  A    between atoms: C3_4  and  C4_6 
REMARK    4  A    between atoms: C11_14  and  N1_15 
REMARK       I    between atoms: N1_15  and  C12_17 
REMARK    5  A    between atoms: C12_17  and  O4_19 
REMARK    6  A    between atoms: O4_19  and  N2_20 
ROOT
HETATM    1  C4  UNL     1      19.301   9.845  41.012  1.00  0.00     0.068 A 
HETATM    2  C5  UNL     1      19.077   9.834  39.649  1.00  0.00     0.039 A 
HETATM    3  C6  UNL     1      18.391  10.869  39.067  1.00  0.00     0.018 A 
HETATM    4 BR1  UNL     1      18.067  10.875  37.170  1.00  0.00    -0.051 Br
HETATM    5  C7  UNL     1      17.935  11.910  39.855  1.00  0.00    -0.036 A 
HETATM    6  C8  UNL     1      17.193  13.010  39.162  1.00  0.00     0.050 C 
HETATM    7  C9  UNL     1      18.144  11.946  41.214  1.00  0.00    -0.027 A 
HETATM    8  C10 UNL     1      17.642  13.064  41.993  1.00  0.00     0.051 C 
HETATM    9  C11 UNL     1      18.836  10.899  41.794  1.00  0.00     0.059 A 
ENDROOT
BRANCH   9  10
HETATM   10  N1  UNL     1      19.029  10.991  43.192  1.00  0.00    -0.300 N 
HETATM   11  C12 UNL     1      20.083  11.714  43.798  1.00  0.00     0.386 C 
HETATM   12  O3  UNL     1      20.950  12.343  43.145  1.00  0.00    -0.236 OA
ATOM     13  H1  UNL     1      18.369  10.507  43.800  1.00  0.00     0.171 HD
BRANCH  11  14
HETATM   14  O4  UNL     1      20.184  11.743  45.178  1.00  0.00    -0.188 OA
BRANCH  14  15
HETATM   15  N2  UNL     1      19.641  12.783  45.890  1.00  0.00    -0.301 N 
ATOM     16  H22 UNL     1      18.706  12.675  46.284  1.00  0.00     0.184 HD
ATOM     17  H21 UNL     1      20.168  13.647  46.020  1.00  0.00     0.184 HD
ENDBRANCH  14  15
ENDBRANCH  11  14
ENDBRANCH   9  10
BRANCH   1  18
HETATM   18  C3  UNL     1      20.024   8.755  41.666  1.00  0.00     0.295 C 
HETATM   19  O2  UNL     1      19.630   8.167  42.687  1.00  0.00    -0.259 OA
BRANCH  18  20
HETATM   20  O1  UNL     1      21.234   8.337  41.119  1.00  0.00    -0.318 OA
BRANCH  20  21
HETATM   21  C2  UNL     1      22.491   8.699  41.633  1.00  0.00     0.174 C 
HETATM   22  C1  UNL     1      23.580   8.709  40.598  1.00  0.00     0.034 C 
ENDBRANCH  20  21
ENDBRANCH  18  20
ENDBRANCH   1  18
TORSDOF 6
ENDMDL
MODEL 2
REMARK VINA RESULT: -6.361319146      1.937      4.207
REMARK  6 active torsions:
REMARK  status: ('A' for Active; 'I' for Inactive)
REMARK    1  A    between atoms: C2_2  and  O1_3 
REMARK    2  A    between atoms: O1_3  and  C3_4 
REMARK    3  A    between atoms: C3_4  and  C4_6 
REMARK    4  A    between atoms: C11_14  and  N1_15 
REMARK       I    between atoms: N1_15  and  C12_17 
REMARK    5  A    between atoms: C12_17  and  O4_19 
REMARK    6  A    between atoms: O4_19  and  N2_20 
ROOT
HETATM    1  C4  UNL     1      18.473  11.574  41.675  1.00  0.00     0.068 A 
HETATM    2  C5  UNL     1      18.080  11.476  40.355  1.00  0.00     0.039 A 
HETATM    3  C6  UNL     1      18.548  10.442  39.584  1.00  0.00     0.018 A 
HETATM    4 BR1  UNL     1      18.015  10.284  37.741  1.00  0.00    -0.051 Br
HETATM    5  C7  UNL     1      19.407   9.513  40.142  1.00  0.00    -0.036 A 
HETATM    6  C8  UNL     1      19.883   8.409  39.251  1.00  0.00     0.050 C 
HETATM    7  C9  UNL     1      19.814   9.587  41.454  1.00  0.00    -0.027 A 
HETATM    8  C10 UNL     1      20.717   8.583  41.989  1.00  0.00     0.051 C 
HETATM    9  C11 UNL     1      19.338  10.632  42.225  1.00  0.00     0.059 A 
ENDROOT
BRANCH   9  10
HETATM   10  N1  UNL     1      19.783  10.655  43.568  1.00  0.00    -0.300 N 
HETATM   11  C12 UNL     1      20.767  11.545  44.058  1.00  0.00     0.386 C 
HETATM   12  O3  UNL     1      21.340  12.400  43.343  1.00  0.00    -0.236 OA
ATOM     13  H1  UNL     1      19.369   9.990  44.221  1.00  0.00     0.171 HD
BRANCH  11  14
HETATM   14  O4  UNL     1      21.133  11.487  45.393  1.00  0.00    -0.188 OA
BRANCH  14  15
HETATM   15  N2  UNL     1      20.271  10.965  46.324  1.00  0.00    -0.301 N 
ATOM     16  H22 UNL     1      20.656  10.559  47.177  1.00  0.00     0.184 HD
ATOM     17  H21 UNL     1      19.264  10.984  46.161  1.00  0.00     0.184 HD
ENDBRANCH  14  15
ENDBRANCH  11  14
ENDBRANCH   9  10
BRANCH   1  18
HETATM   18  C3  UNL     1      17.998  12.666  42.523  1.00  0.00     0.295 C 
HETATM   19  O2  UNL     1      17.944  13.855  42.170  1.00  0.00    -0.259 OA
BRANCH  18  20
HETATM   20  O1  UNL     1      17.574  12.368  43.816  1.00  0.00    -0.318 OA
BRANCH  20  21
HETATM   21  C2  UNL     1      17.717  13.240  44.907  1.00  0.00     0.174 C 
HETATM   22  C1  UNL     1      16.607  14.248  45.018  1.00  0.00     0.034 C 
ENDBRANCH  20  21
ENDBRANCH  18  20
ENDBRANCH   1  18
TORSDOF 6
ENDMDL
MODEL 3
REMARK VINA RESULT: -6.133596747      2.345      4.941
REMARK  6 active torsions:
REMARK  status: ('A' for Active; 'I' for Inactive)
REMARK    1  A    between atoms: C2_2  and  O1_3 
REMARK    2  A    between atoms: O1_3  and  C3_4 
REMARK    3  A    between atoms: C3_4  and  C4_6 
REMARK    4  A    between atoms: C11_14  and  N1_15 
REMARK       I    between atoms: N1_15  and  C12_17 
REMARK    5  A    between atoms: C12_17  and  O4_19 
REMARK    6  A    between atoms: O4_19  and  N2_20 
ROOT
HETATM    1  C4  UNL     1      18.042  12.819  43.058  1.00  0.00     0.068 A 
HETATM    2  C5  UNL     1      17.592  13.215  41.814  1.00  0.00     0.039 A 
HETATM    3  C6  UNL     1      17.811  12.408  40.727  1.00  0.00     0.018 A 
HETATM    4 BR1  UNL     1      17.194  12.939  38.982  1.00  0.00    -0.051 Br
HETATM    5  C7  UNL     1      18.479  11.209  40.893  1.00  0.00    -0.036 A 
HETATM    6  C8  UNL     1      18.687  10.373  39.669  1.00  0.00     0.050 C 
HETATM    7  C9  UNL     1      18.937  10.791  42.121  1.00  0.00    -0.027 A 
HETATM    8  C10 UNL     1      19.632   9.521  42.239  1.00  0.00     0.051 C 
HETATM    9  C11 UNL     1      18.713  11.609  43.213  1.00  0.00     0.059 A 
ENDROOT
BRANCH   9  10
HETATM   10  N1  UNL     1      19.198  11.126  44.451  1.00  0.00    -0.300 N 
HETATM   11  C12 UNL     1      20.470  11.448  44.980  1.00  0.00     0.386 C 
HETATM   12  O3  UNL     1      21.289  12.196  44.396  1.00  0.00    -0.236 OA
ATOM     13  H1  UNL     1      18.595  10.509  44.994  1.00  0.00     0.171 HD
BRANCH  11  14
HETATM   14  O4  UNL     1      20.851  10.924  46.203  1.00  0.00    -0.188 OA
BRANCH  14  15
HETATM   15  N2  UNL     1      19.903  10.515  47.107  1.00  0.00    -0.301 N 
ATOM     16  H22 UNL     1      20.173   9.864  47.844  1.00  0.00     0.184 HD
ATOM     17  H21 UNL     1      18.945  10.861  47.039  1.00  0.00     0.184 HD
ENDBRANCH  14  15
ENDBRANCH  11  14
ENDBRANCH   9  10
BRANCH   1  18
HETATM   18  C3  UNL     1      17.831  13.657  44.238  1.00  0.00     0.295 C 
HETATM   19  O2  UNL     1      18.268  13.395  45.370  1.00  0.00    -0.259 OA
BRANCH  18  20
HETATM   20  O1  UNL     1      17.093  14.830  44.097  1.00  0.00    -0.318 OA
BRANCH  20  21
HETATM   21  C2  UNL     1      16.116  15.254  45.013  1.00  0.00     0.174 C 
HETATM   22  C1  UNL     1      16.609  16.300  45.972  1.00  0.00     0.034 C 
ENDBRANCH  20  21
ENDBRANCH  18  20
ENDBRANCH   1  18
TORSDOF 6
ENDMDL
MODEL 4
REMARK VINA RESULT: -5.961307480      3.464      5.867
REMARK  6 active torsions:
REMARK  status: ('A' for Active; 'I' for Inactive)
REMARK    1  A    between atoms: C2_2  and  O1_3 
REMARK    2  A    between atoms: O1_3  and  C3_4 
REMARK    3  A    between atoms: C3_4  and  C4_6 
REMARK    4  A    between atoms: C11_14  and  N1_15 
REMARK       I    between atoms: N1_15  and  C12_17 
REMARK    5  A    between atoms: C12_17  and  O4_19 
REMARK    6  A    between atoms: O4_19  and  N2_20 
ROOT
HETATM    1  C4  UNL     1      20.374   9.260  41.430  1.00  0.00     0.068 A 
HETATM    2  C5  UNL     1      21.504   9.404  42.209  1.00  0.00     0.039 A 
HETATM    3  C6  UNL     1      22.725   9.037  41.703  1.00  0.00     0.018 A 
HETATM    4 BR1  UNL     1      24.317   9.229  42.770  1.00  0.00    -0.051 Br
HETATM    5  C7  UNL     1      22.805   8.529  40.420  1.00  0.00    -0.036 A 
HETATM    6  C8  UNL     1      24.165   8.146  39.925  1.00  0.00     0.050 C 
HETATM    7  C9  UNL     1      21.694   8.375  39.624  1.00  0.00    -0.027 A 
HETATM    8  C10 UNL     1      21.836   7.836  38.282  1.00  0.00     0.051 C 
HETATM    9  C11 UNL     1      20.467   8.747  40.140  1.00  0.00     0.059 A 
ENDROOT
BRANCH   9  10
HETATM   10  N1  UNL     1      19.360   8.574  39.275  1.00  0.00    -0.300 N 
HETATM   11  C12 UNL     1      18.961   9.522  38.305  1.00  0.00     0.386 C 
HETATM   12  O3  UNL     1      19.556  10.611  38.121  1.00  0.00    -0.236 OA
ATOM     13  H1  UNL     1      18.818   7.714  39.356  1.00  0.00     0.171 HD
BRANCH  11  14
HETATM   14  O4  UNL     1      17.862   9.258  37.505  1.00  0.00    -0.188 OA
BRANCH  14  15
HETATM   15  N2  UNL     1      17.017  10.273  37.133  1.00  0.00    -0.301 N 
ATOM     16  H22 UNL     1      16.028  10.203  37.373  1.00  0.00     0.184 HD
ATOM     17  H21 UNL     1      17.377  11.082  36.626  1.00  0.00     0.184 HD
ENDBRANCH  14  15
ENDBRANCH  11  14
ENDBRANCH   9  10
BRANCH   1  18
HETATM   18  C3  UNL     1      19.055   9.635  41.939  1.00  0.00     0.295 C 
HETATM   19  O2  UNL     1      18.406   8.970  42.763  1.00  0.00    -0.259 OA
BRANCH  18  20
HETATM   20  O1  UNL     1      18.476  10.815  41.480  1.00  0.00    -0.318 OA
BRANCH  20  21
HETATM   21  C2  UNL     1      18.203  11.924  42.299  1.00  0.00     0.174 C 
HETATM   22  C1  UNL     1      19.375  12.354  43.135  1.00  0.00     0.034 C 
ENDBRANCH  20  21
ENDBRANCH  18  20
ENDBRANCH   1  18
TORSDOF 6
ENDMDL
MODEL 5
REMARK VINA RESULT: -5.943004941      2.476      3.408
REMARK  6 active torsions:
REMARK  status: ('A' for Active; 'I' for Inactive)
REMARK    1  A    between atoms: C2_2  and  O1_3 
REMARK    2  A    between atoms: O1_3  and  C3_4 
REMARK    3  A    between atoms: C3_4  and  C4_6 
REMARK    4  A    between atoms: C11_14  and  N1_15 
REMARK       I    between atoms: N1_15  and  C12_17 
REMARK    5  A    between atoms: C12_17  and  O4_19 
REMARK    6  A    between atoms: O4_19  and  N2_20 
ROOT
HETATM    1  C4  UNL     1      19.139  11.331  42.563  1.00  0.00     0.068 A 
HETATM    2  C5  UNL     1      19.356  10.152  41.878  1.00  0.00     0.039 A 
HETATM    3  C6  UNL     1      18.901  10.024  40.590  1.00  0.00     0.018 A 
HETATM    4 BR1  UNL     1      19.191   8.391  39.615  1.00  0.00    -0.051 Br
HETATM    5  C7  UNL     1      18.232  11.079  39.997  1.00  0.00    -0.036 A 
HETATM    6  C8  UNL     1      17.759  10.878  38.591  1.00  0.00     0.050 C 
HETATM    7  C9  UNL     1      18.002  12.264  40.658  1.00  0.00    -0.027 A 
HETATM    8  C10 UNL     1      17.294  13.339  39.987  1.00  0.00     0.051 C 
HETATM    9  C11 UNL     1      18.463  12.386  41.955  1.00  0.00     0.059 A 
ENDROOT
BRANCH   9  10
HETATM   10  N1  UNL     1      18.206  13.628  42.583  1.00  0.00    -0.300 N 
HETATM   11  C12 UNL     1      17.339  13.789  43.689  1.00  0.00     0.386 C 
HETATM   12  O3  UNL     1      16.714  12.839  44.217  1.00  0.00    -0.236 OA
ATOM     13  H1  UNL     1      18.674  14.456  42.216  1.00  0.00     0.171 HD
BRANCH  11  14
HETATM   14  O4  UNL     1      17.155  15.049  44.232  1.00  0.00    -0.188 OA
BRANCH  14  15
HETATM   15  N2  UNL     1      17.334  15.255  45.577  1.00  0.00    -0.301 N 
ATOM     16  H22 UNL     1      16.531  15.526  46.145  1.00  0.00     0.184 HD
ATOM     17  H21 UNL     1      18.256  15.137  45.998  1.00  0.00     0.184 HD
ENDBRANCH  14  15
ENDBRANCH  11  14
ENDBRANCH   9  10
BRANCH   1  18
HETATM   18  C3  UNL     1      19.605  11.500  43.939  1.00  0.00     0.295 C 
HETATM   19  O2  UNL     1      19.080  10.963  44.928  1.00  0.00    -0.259 OA
BRANCH  18  20
HETATM   20  O1  UNL     1      20.710  12.315  44.171  1.00  0.00    -0.318 OA
BRANCH  20  21
HETATM   21  C2  UNL     1      22.002  11.826  44.425  1.00  0.00     0.174 C 
HETATM   22  C1  UNL     1      22.526  12.195  45.785  1.00  0.00     0.034 C 
ENDBRANCH  20  21
ENDBRANCH  18  20
ENDBRANCH   1  18
TORSDOF 6
ENDMDL
