MODEL 1
REMARK VINA RESULT: -8.674156389      0.000      0.000
REMARK  10 active torsions:
REMARK  status: ('A' for Active; 'I' for Inactive)
REMARK       I    between atoms: N1_2  and  C2_4 
REMARK    1  A    between atoms: C2_4  and  C3_6 
REMARK    2  A    between atoms: C3_6  and  N2_7 
REMARK    3  A    between atoms: C3_6  and  C27_41 
REMARK       I    between atoms: N2_7  and  C4_9 
REMARK    4  A    between atoms: C4_9  and  C5_11 
REMARK    5  A    between atoms: C5_11  and  C6_12 
REMARK    6  A    between atoms: C5_11  and  N3_20 
REMARK    7  A    between atoms: C6_12  and  C7_13 
REMARK       I    between atoms: N3_20  and  C14_22 
REMARK       I    between atoms: C14_22  and  N4_24 
REMARK    8  A    between atoms: N5_27  and  C17_28 
REMARK    9  A    between atoms: C17_28  and  O4_29 
REMARK   10  A    between atoms: C17_28  and  N6_31 
ROOT
HETATM    1  C5  UNL     1      46.198  24.509  16.124  1.00  0.00     0.178 C 
ENDROOT
BRANCH   1   2
HETATM    2  C4  UNL     1      45.849  23.464  15.140  1.00  0.00     0.241 C 
HETATM    3  N2  UNL     1      44.555  23.198  14.697  1.00  0.00    -0.345 N 
ATOM      4  H2  UNL     1      43.777  23.750  15.057  1.00  0.00     0.163 HD
HETATM    5  O2  UNL     1      46.797  22.756  14.660  1.00  0.00    -0.271 OA
BRANCH   3   6
HETATM    6  C3  UNL     1      44.296  22.133  13.717  1.00  0.00     0.184 C 
BRANCH   6   7
HETATM    7  C2  UNL     1      43.849  22.756  12.433  1.00  0.00     0.240 C 
HETATM    8  N1  UNL     1      42.966  23.839  12.311  1.00  0.00    -0.364 N 
HETATM    9  C1  UNL     1      42.606  24.360  10.987  1.00  0.00     0.149 C 
ATOM     10  H1  UNL     1      42.572  24.267  13.148  1.00  0.00     0.161 HD
HETATM   11  O1  UNL     1      44.305  22.262  11.337  1.00  0.00    -0.271 OA
ENDBRANCH   6   7
BRANCH   6  12
HETATM   12  C27 UNL     1      43.285  21.193  14.311  1.00  0.00    -0.022 C 
HETATM   13  C28 UNL     1      42.578  21.838  15.500  1.00  0.00     0.017 C 
HETATM   14  C29 UNL     1      42.289  20.667  13.334  1.00  0.00     0.017 C 
HETATM   15  C30 UNL     1      44.019  19.979  14.932  1.00  0.00     0.017 C 
ENDBRANCH   6  12
ENDBRANCH   3   6
ENDBRANCH   1   2
BRANCH   1  16
HETATM   16  C6  UNL     1      45.452  24.363  17.433  1.00  0.00     0.039 C 
BRANCH  16  17
HETATM   17  C7  UNL     1      45.922  23.236  18.282  1.00  0.00    -0.012 C 
HETATM   18  C8  UNL     1      44.842  22.197  18.521  1.00  0.00     0.005 C 
HETATM   19  C9  UNL     1      45.356  21.267  19.597  1.00  0.00     0.000 C 
HETATM   20  C10 UNL     1      44.671  21.481  20.908  1.00  0.00     0.000 C 
HETATM   21  C11 UNL     1      45.008  22.795  21.547  1.00  0.00     0.000 C 
HETATM   22  C12 UNL     1      45.092  23.932  20.559  1.00  0.00     0.000 C 
HETATM   23  C13 UNL     1      46.276  23.814  19.646  1.00  0.00     0.005 C 
ENDBRANCH  16  17
ENDBRANCH   1  16
BRANCH   1  24
HETATM   24  N3  UNL     1      46.132  25.789  15.512  1.00  0.00    -0.330 N 
HETATM   25  C14 UNL     1      47.154  26.417  14.770  1.00  0.00     0.319 C 
HETATM   26  O3  UNL     1      48.284  25.849  14.592  1.00  0.00    -0.247 OA
HETATM   27  N4  UNL     1      47.033  27.690  14.172  1.00  0.00    -0.327 N 
HETATM   28  C15 UNL     1      48.116  28.280  13.391  1.00  0.00     0.148 C 
HETATM   29  C25 UNL     1      45.840  28.468  14.306  1.00  0.00     0.102 C 
HETATM   30  C16 UNL     1      47.553  29.285  12.405  1.00  0.00     0.146 C 
HETATM   31  N5  UNL     1      46.843  30.355  13.143  1.00  0.00    -0.344 N 
HETATM   32  C24 UNL     1      46.132  29.989  14.323  1.00  0.00     0.151 C 
HETATM   33  C26 UNL     1      44.826  28.220  13.215  1.00  0.00     0.034 C 
ATOM     34  H3  UNL     1      45.259  26.306  15.620  1.00  0.00     0.165 HD
BRANCH  31  35
HETATM   35  C17 UNL     1      46.946  31.642  12.574  1.00  0.00     0.217 C 
BRANCH  35  36
HETATM   36  O4  UNL     1      47.271  32.614  13.389  1.00  0.00    -0.332 OA
ATOM     37  H4  UNL     1      47.761  33.335  13.012  1.00  0.00     0.220 HD
ENDBRANCH  35  36
BRANCH  35  38
HETATM   38  N6  UNL     1      46.752  32.039  11.260  1.00  0.00    -0.343 N 
HETATM   39  C18 UNL     1      47.594  32.986  10.540  1.00  0.00     0.127 C 
HETATM   40  C19 UNL     1      47.479  32.770   9.041  1.00  0.00     0.020 C 
HETATM   41  C20 UNL     1      47.282  31.360   8.648  1.00  0.00     0.004 C 
HETATM   42  C21 UNL     1      46.333  30.555   9.492  1.00  0.00     0.025 C 
HETATM   43  C22 UNL     1      45.650  31.524  10.440  1.00  0.00     0.083 C 
HETATM   44  C23 UNL     1      44.470  31.014  11.144  1.00  0.00     0.032 C 
ENDBRANCH  35  38
ENDBRANCH  31  35
ENDBRANCH   1  24
TORSDOF 10
ENDMDL
MODEL 2
REMARK VINA RESULT: -8.226256658      7.527     11.555
REMARK  10 active torsions:
REMARK  status: ('A' for Active; 'I' for Inactive)
REMARK       I    between atoms: N1_2  and  C2_4 
REMARK    1  A    between atoms: C2_4  and  C3_6 
REMARK    2  A    between atoms: C3_6  and  N2_7 
REMARK    3  A    between atoms: C3_6  and  C27_41 
REMARK       I    between atoms: N2_7  and  C4_9 
REMARK    4  A    between atoms: C4_9  and  C5_11 
REMARK    5  A    between atoms: C5_11  and  C6_12 
REMARK    6  A    between atoms: C5_11  and  N3_20 
REMARK    7  A    between atoms: C6_12  and  C7_13 
REMARK       I    between atoms: N3_20  and  C14_22 
REMARK       I    between atoms: C14_22  and  N4_24 
REMARK    8  A    between atoms: N5_27  and  C17_28 
REMARK    9  A    between atoms: C17_28  and  O4_29 
REMARK   10  A    between atoms: C17_28  and  N6_31 
ROOT
HETATM    1  C5  UNL     1      44.974  15.000  18.880  1.00  0.00     0.178 C 
ENDROOT
BRANCH   1   2
HETATM    2  C4  UNL     1      43.774  14.178  19.142  1.00  0.00     0.241 C 
HETATM    3  N2  UNL     1      43.300  13.181  18.292  1.00  0.00    -0.345 N 
ATOM      4  H2  UNL     1      43.799  12.981  17.425  1.00  0.00     0.163 HD
HETATM    5  O2  UNL     1      43.127  14.394  20.221  1.00  0.00    -0.271 OA
BRANCH   3   6
HETATM    6  C3  UNL     1      42.093  12.413  18.628  1.00  0.00     0.184 C 
BRANCH   6   7
HETATM    7  C2  UNL     1      42.487  11.004  18.939  1.00  0.00     0.240 C 
HETATM    8  N1  UNL     1      41.649  10.020  19.483  1.00  0.00    -0.364 N 
HETATM    9  C1  UNL     1      42.159   8.668  19.742  1.00  0.00     0.149 C 
ATOM     10  H1  UNL     1      40.678  10.245  19.699  1.00  0.00     0.161 HD
HETATM   11  O1  UNL     1      43.700  10.653  18.697  1.00  0.00    -0.271 OA
ENDBRANCH   6   7
BRANCH   6  12
HETATM   12  C27 UNL     1      41.136  12.526  17.475  1.00  0.00    -0.022 C 
HETATM   13  C28 UNL     1      41.598  11.667  16.301  1.00  0.00     0.017 C 
HETATM   14  C29 UNL     1      39.719  12.220  17.821  1.00  0.00     0.017 C 
HETATM   15  C30 UNL     1      41.179  13.970  16.914  1.00  0.00     0.017 C 
ENDBRANCH   6  12
ENDBRANCH   3   6
ENDBRANCH   1   2
BRANCH   1  16
HETATM   16  C6  UNL     1      46.265  14.286  19.213  1.00  0.00     0.039 C 
BRANCH  16  17
HETATM   17  C7  UNL     1      46.287  13.657  20.560  1.00  0.00    -0.012 C 
HETATM   18  C8  UNL     1      47.188  14.394  21.533  1.00  0.00     0.005 C 
HETATM   19  C9  UNL     1      47.329  13.517  22.756  1.00  0.00     0.000 C 
HETATM   20  C10 UNL     1      48.678  12.878  22.845  1.00  0.00     0.000 C 
HETATM   21  C11 UNL     1      48.919  11.848  21.782  1.00  0.00     0.000 C 
HETATM   22  C12 UNL     1      48.374  12.248  20.433  1.00  0.00     0.000 C 
HETATM   23  C13 UNL     1      46.875  12.261  20.399  1.00  0.00     0.005 C 
ENDBRANCH  16  17
ENDBRANCH   1  16
BRANCH   1  24
HETATM   24  N3  UNL     1      44.810  16.289  19.456  1.00  0.00    -0.330 N 
HETATM   25  C14 UNL     1      45.319  17.503  18.952  1.00  0.00     0.319 C 
HETATM   26  O3  UNL     1      46.014  17.532  17.880  1.00  0.00    -0.247 OA
HETATM   27  N4  UNL     1      45.118  18.761  19.559  1.00  0.00    -0.327 N 
HETATM   28  C15 UNL     1      45.647  19.991  18.977  1.00  0.00     0.148 C 
HETATM   29  C25 UNL     1      44.388  18.892  20.782  1.00  0.00     0.102 C 
HETATM   30  C16 UNL     1      44.821  21.177  19.436  1.00  0.00     0.146 C 
HETATM   31  N5  UNL     1      44.876  21.272  20.913  1.00  0.00    -0.344 N 
HETATM   32  C24 UNL     1      44.914  20.056  21.657  1.00  0.00     0.151 C 
HETATM   33  C26 UNL     1      42.907  19.116  20.585  1.00  0.00     0.034 C 
ATOM     34  H3  UNL     1      44.270  16.340  20.320  1.00  0.00     0.165 HD
BRANCH  31  35
HETATM   35  C17 UNL     1      44.873  22.586  21.427  1.00  0.00     0.217 C 
BRANCH  35  36
HETATM   36  O4  UNL     1      44.170  22.785  22.513  1.00  0.00    -0.332 OA
ATOM     37  H4  UNL     1      44.652  23.061  23.284  1.00  0.00     0.220 HD
ENDBRANCH  35  36
BRANCH  35  38
HETATM   38  N6  UNL     1      45.514  23.718  20.947  1.00  0.00    -0.343 N 
HETATM   39  C18 UNL     1      46.937  23.998  21.093  1.00  0.00     0.127 C 
HETATM   40  C19 UNL     1      47.405  24.960  20.014  1.00  0.00     0.020 C 
HETATM   41  C20 UNL     1      46.714  24.796  18.719  1.00  0.00     0.004 C 
HETATM   42  C21 UNL     1      45.230  24.561  18.776  1.00  0.00     0.025 C 
HETATM   43  C22 UNL     1      44.802  24.772  20.217  1.00  0.00     0.083 C 
HETATM   44  C23 UNL     1      43.360  24.894  20.449  1.00  0.00     0.032 C 
ENDBRANCH  35  38
ENDBRANCH  31  35
ENDBRANCH   1  24
TORSDOF 10
ENDMDL
MODEL 3
REMARK VINA RESULT: -8.181149123      2.590      5.732
REMARK  10 active torsions:
REMARK  status: ('A' for Active; 'I' for Inactive)
REMARK       I    between atoms: N1_2  and  C2_4 
REMARK    1  A    between atoms: C2_4  and  C3_6 
REMARK    2  A    between atoms: C3_6  and  N2_7 
REMARK    3  A    between atoms: C3_6  and  C27_41 
REMARK       I    between atoms: N2_7  and  C4_9 
REMARK    4  A    between atoms: C4_9  and  C5_11 
REMARK    5  A    between atoms: C5_11  and  C6_12 
REMARK    6  A    between atoms: C5_11  and  N3_20 
REMARK    7  A    between atoms: C6_12  and  C7_13 
REMARK       I    between atoms: N3_20  and  C14_22 
REMARK       I    between atoms: C14_22  and  N4_24 
REMARK    8  A    between atoms: N5_27  and  C17_28 
REMARK    9  A    between atoms: C17_28  and  O4_29 
REMARK   10  A    between atoms: C17_28  and  N6_31 
ROOT
HETATM    1  C5  UNL     1      45.107  21.190  16.166  1.00  0.00     0.178 C 
ENDROOT
BRANCH   1   2
HETATM    2  C4  UNL     1      44.481  21.360  17.494  1.00  0.00     0.241 C 
HETATM    3  N2  UNL     1      45.182  21.415  18.696  1.00  0.00    -0.345 N 
ATOM      4  H2  UNL     1      46.200  21.340  18.688  1.00  0.00     0.163 HD
HETATM    5  O2  UNL     1      43.209  21.465  17.544  1.00  0.00    -0.271 OA
BRANCH   3   6
HETATM    6  C3  UNL     1      44.478  21.580  19.975  1.00  0.00     0.184 C 
BRANCH   6   7
HETATM    7  C2  UNL     1      45.061  22.751  20.701  1.00  0.00     0.240 C 
HETATM    8  N1  UNL     1      46.416  23.112  20.720  1.00  0.00    -0.364 N 
HETATM    9  C1  UNL     1      46.863  24.290  21.473  1.00  0.00     0.149 C 
ATOM     10  H1  UNL     1      47.097  22.551  20.206  1.00  0.00     0.161 HD
HETATM   11  O1  UNL     1      44.260  23.499  21.373  1.00  0.00    -0.271 OA
ENDBRANCH   6   7
BRANCH   6  12
HETATM   12  C27 UNL     1      44.588  20.289  20.736  1.00  0.00    -0.022 C 
HETATM   13  C28 UNL     1      45.745  19.446  20.207  1.00  0.00     0.017 C 
HETATM   14  C29 UNL     1      44.695  20.454  22.213  1.00  0.00     0.017 C 
HETATM   15  C30 UNL     1      43.338  19.419  20.450  1.00  0.00     0.017 C 
ENDBRANCH   6  12
ENDBRANCH   3   6
ENDBRANCH   1   2
BRANCH   1  16
HETATM   16  C6  UNL     1      46.102  20.051  16.122  1.00  0.00     0.039 C 
BRANCH  16  17
HETATM   17  C7  UNL     1      45.609  18.835  15.424  1.00  0.00    -0.012 C 
HETATM   18  C8  UNL     1      44.224  19.023  14.834  1.00  0.00     0.005 C 
HETATM   19  C9  UNL     1      43.740  17.658  14.399  1.00  0.00     0.000 C 
HETATM   20  C10 UNL     1      42.680  17.116  15.304  1.00  0.00     0.000 C 
HETATM   21  C11 UNL     1      43.189  16.766  16.671  1.00  0.00     0.000 C 
HETATM   22  C12 UNL     1      44.185  17.764  17.208  1.00  0.00     0.000 C 
HETATM   23  C13 UNL     1      45.488  17.731  16.467  1.00  0.00     0.005 C 
ENDBRANCH  16  17
ENDBRANCH   1  16
BRANCH   1  24
HETATM   24  N3  UNL     1      45.577  22.444  15.691  1.00  0.00    -0.330 N 
HETATM   25  C14 UNL     1      45.224  23.066  14.477  1.00  0.00     0.319 C 
HETATM   26  O3  UNL     1      44.412  22.509  13.662  1.00  0.00    -0.247 OA
HETATM   27  N4  UNL     1      45.713  24.322  14.056  1.00  0.00    -0.327 N 
HETATM   28  C15 UNL     1      45.290  24.931  12.799  1.00  0.00     0.148 C 
HETATM   29  C25 UNL     1      46.653  25.059  14.842  1.00  0.00     0.102 C 
HETATM   30  C16 UNL     1      45.451  26.437  12.874  1.00  0.00     0.146 C 
HETATM   31  N5  UNL     1      46.872  26.769  13.125  1.00  0.00    -0.344 N 
HETATM   32  C24 UNL     1      47.619  25.895  13.968  1.00  0.00     0.151 C 
HETATM   33  C26 UNL     1      46.011  26.006  15.829  1.00  0.00     0.034 C 
ATOM     34  H3  UNL     1      46.236  22.944  16.289  1.00  0.00     0.165 HD
BRANCH  31  35
HETATM   35  C17 UNL     1      47.331  27.944  12.494  1.00  0.00     0.217 C 
BRANCH  35  36
HETATM   36  O4  UNL     1      48.558  27.919  12.040  1.00  0.00    -0.332 OA
ATOM     37  H4  UNL     1      49.221  28.318  12.592  1.00  0.00     0.220 HD
ENDBRANCH  35  36
BRANCH  35  38
HETATM   38  N6  UNL     1      46.666  29.142  12.280  1.00  0.00    -0.343 N 
HETATM   39  C18 UNL     1      46.565  29.824  10.995  1.00  0.00     0.127 C 
HETATM   40  C19 UNL     1      45.352  30.738  10.971  1.00  0.00     0.020 C 
HETATM   41  C20 UNL     1      44.199  30.231  11.741  1.00  0.00     0.004 C 
HETATM   42  C21 UNL     1      44.505  29.600  13.071  1.00  0.00     0.025 C 
HETATM   43  C22 UNL     1      45.973  29.858  13.356  1.00  0.00     0.083 C 
HETATM   44  C23 UNL     1      46.418  29.601  14.729  1.00  0.00     0.032 C 
ENDBRANCH  35  38
ENDBRANCH  31  35
ENDBRANCH   1  24
TORSDOF 10
ENDMDL
MODEL 4
REMARK VINA RESULT: -8.175059897      4.287     10.953
REMARK  10 active torsions:
REMARK  status: ('A' for Active; 'I' for Inactive)
REMARK       I    between atoms: N1_2  and  C2_4 
REMARK    1  A    between atoms: C2_4  and  C3_6 
REMARK    2  A    between atoms: C3_6  and  N2_7 
REMARK    3  A    between atoms: C3_6  and  C27_41 
REMARK       I    between atoms: N2_7  and  C4_9 
REMARK    4  A    between atoms: C4_9  and  C5_11 
REMARK    5  A    between atoms: C5_11  and  C6_12 
REMARK    6  A    between atoms: C5_11  and  N3_20 
REMARK    7  A    between atoms: C6_12  and  C7_13 
REMARK       I    between atoms: N3_20  and  C14_22 
REMARK       I    between atoms: C14_22  and  N4_24 
REMARK    8  A    between atoms: N5_27  and  C17_28 
REMARK    9  A    between atoms: C17_28  and  O4_29 
REMARK   10  A    between atoms: C17_28  and  N6_31 
ROOT
HETATM    1  C5  UNL     1      43.906  23.075  16.523  1.00  0.00     0.178 C 
ENDROOT
BRANCH   1   2
HETATM    2  C4  UNL     1      44.732  23.298  15.318  1.00  0.00     0.241 C 
HETATM    3  N2  UNL     1      44.227  23.665  14.073  1.00  0.00    -0.345 N 
ATOM      4  H2  UNL     1      43.223  23.801  13.958  1.00  0.00     0.163 HD
HETATM    5  O2  UNL     1      45.995  23.145  15.424  1.00  0.00    -0.271 OA
BRANCH   3   6
HETATM    6  C3  UNL     1      45.121  23.861  12.923  1.00  0.00     0.184 C 
BRANCH   6   7
HETATM    7  C2  UNL     1      45.243  25.327  12.650  1.00  0.00     0.240 C 
HETATM    8  N1  UNL     1      44.190  26.188  12.310  1.00  0.00    -0.364 N 
HETATM    9  C1  UNL     1      44.443  27.613  12.067  1.00  0.00     0.149 C 
ATOM     10  H1  UNL     1      43.241  25.821  12.231  1.00  0.00     0.161 HD
HETATM   11  O1  UNL     1      46.413  25.854  12.726  1.00  0.00    -0.271 OA
ENDBRANCH   6   7
BRANCH   6  12
HETATM   12  C27 UNL     1      44.565  23.080  11.765  1.00  0.00    -0.022 C 
HETATM   13  C28 UNL     1      43.041  23.032  11.826  1.00  0.00     0.017 C 
HETATM   14  C29 UNL     1      45.019  23.558  10.429  1.00  0.00     0.017 C 
HETATM   15  C30 UNL     1      44.987  21.596  11.901  1.00  0.00     0.017 C 
ENDBRANCH   6  12
ENDBRANCH   3   6
ENDBRANCH   1   2
BRANCH   1  16
HETATM   16  C6  UNL     1      44.194  24.066  17.629  1.00  0.00     0.039 C 
BRANCH  16  17
HETATM   17  C7  UNL     1      44.569  23.443  18.926  1.00  0.00    -0.012 C 
HETATM   18  C8  UNL     1      44.361  24.378  20.104  1.00  0.00     0.005 C 
HETATM   19  C9  UNL     1      45.021  23.733  21.301  1.00  0.00     0.000 C 
HETATM   20  C10 UNL     1      46.292  24.420  21.688  1.00  0.00     0.000 C 
HETATM   21  C11 UNL     1      47.391  24.244  20.683  1.00  0.00     0.000 C 
HETATM   22  C12 UNL     1      46.910  24.321  19.255  1.00  0.00     0.000 C 
HETATM   23  C13 UNL     1      46.062  23.145  18.870  1.00  0.00     0.005 C 
ENDBRANCH  16  17
ENDBRANCH   1  16
BRANCH   1  24
HETATM   24  N3  UNL     1      43.950  21.704  16.891  1.00  0.00    -0.330 N 
HETATM   25  C14 UNL     1      43.447  20.619  16.144  1.00  0.00     0.319 C 
HETATM   26  O3  UNL     1      42.872  20.803  15.018  1.00  0.00    -0.247 OA
HETATM   27  N4  UNL     1      43.526  19.270  16.552  1.00  0.00    -0.327 N 
HETATM   28  C15 UNL     1      43.012  18.184  15.724  1.00  0.00     0.148 C 
HETATM   29  C25 UNL     1      44.113  18.901  17.803  1.00  0.00     0.102 C 
HETATM   30  C16 UNL     1      43.730  16.892  16.061  1.00  0.00     0.146 C 
HETATM   31  N5  UNL     1      43.511  16.564  17.489  1.00  0.00    -0.344 N 
HETATM   32  C24 UNL     1      43.445  17.645  18.416  1.00  0.00     0.151 C 
HETATM   33  C26 UNL     1      45.595  18.622  17.721  1.00  0.00     0.034 C 
ATOM     34  H3  UNL     1      44.390  21.482  17.785  1.00  0.00     0.165 HD
BRANCH  31  35
HETATM   35  C17 UNL     1      43.401  15.187  17.776  1.00  0.00     0.217 C 
BRANCH  35  36
HETATM   36  O4  UNL     1      42.308  14.594  17.367  1.00  0.00    -0.332 OA
ATOM     37  H4  UNL     1      42.060  13.801  17.829  1.00  0.00     0.220 HD
ENDBRANCH  35  36
BRANCH  35  38
HETATM   38  N6  UNL     1      44.291  14.354  18.436  1.00  0.00    -0.343 N 
HETATM   39  C18 UNL     1      45.198  13.416  17.786  1.00  0.00     0.127 C 
HETATM   40  C19 UNL     1      46.380  13.106  18.688  1.00  0.00     0.020 C 
HETATM   41  C20 UNL     1      46.813  14.241  19.527  1.00  0.00     0.004 C 
HETATM   42  C21 UNL     1      45.723  15.067  20.153  1.00  0.00     0.025 C 
HETATM   43  C22 UNL     1      44.415  14.340  19.898  1.00  0.00     0.083 C 
HETATM   44  C23 UNL     1      43.261  14.801  20.674  1.00  0.00     0.032 C 
ENDBRANCH  35  38
ENDBRANCH  31  35
ENDBRANCH   1  24
TORSDOF 10
ENDMDL
MODEL 5
REMARK VINA RESULT: -8.168744954      4.364     11.136
REMARK  10 active torsions:
REMARK  status: ('A' for Active; 'I' for Inactive)
REMARK       I    between atoms: N1_2  and  C2_4 
REMARK    1  A    between atoms: C2_4  and  C3_6 
REMARK    2  A    between atoms: C3_6  and  N2_7 
REMARK    3  A    between atoms: C3_6  and  C27_41 
REMARK       I    between atoms: N2_7  and  C4_9 
REMARK    4  A    between atoms: C4_9  and  C5_11 
REMARK    5  A    between atoms: C5_11  and  C6_12 
REMARK    6  A    between atoms: C5_11  and  N3_20 
REMARK    7  A    between atoms: C6_12  and  C7_13 
REMARK       I    between atoms: N3_20  and  C14_22 
REMARK       I    between atoms: C14_22  and  N4_24 
REMARK    8  A    between atoms: N5_27  and  C17_28 
REMARK    9  A    between atoms: C17_28  and  O4_29 
REMARK   10  A    between atoms: C17_28  and  N6_31 
ROOT
HETATM    1  C5  UNL     1      43.848  22.863  15.752  1.00  0.00     0.178 C 
ENDROOT
BRANCH   1   2
HETATM    2  C4  UNL     1      44.654  23.227  14.568  1.00  0.00     0.241 C 
HETATM    3  N2  UNL     1      44.124  23.676  13.361  1.00  0.00    -0.345 N 
ATOM      4  H2  UNL     1      43.114  23.774  13.260  1.00  0.00     0.163 HD
HETATM    5  O2  UNL     1      45.924  23.124  14.657  1.00  0.00    -0.271 OA
BRANCH   3   6
HETATM    6  C3  UNL     1      45.000  24.011  12.229  1.00  0.00     0.184 C 
BRANCH   6   7
HETATM    7  C2  UNL     1      44.960  25.490  12.007  1.00  0.00     0.240 C 
HETATM    8  N1  UNL     1      43.814  26.244  11.713  1.00  0.00    -0.364 N 
HETATM    9  C1  UNL     1      43.907  27.695  11.518  1.00  0.00     0.149 C 
ATOM     10  H1  UNL     1      42.909  25.779  11.633  1.00  0.00     0.161 HD
HETATM   11  O1  UNL     1      46.067  26.139  12.087  1.00  0.00    -0.271 OA
ENDBRANCH   6   7
BRANCH   6  12
HETATM   12  C27 UNL     1      44.546  23.214  11.039  1.00  0.00    -0.022 C 
HETATM   13  C28 UNL     1      43.035  22.998  11.076  1.00  0.00     0.017 C 
HETATM   14  C29 UNL     1      44.960  23.784   9.725  1.00  0.00     0.017 C 
HETATM   15  C30 UNL     1      45.126  21.781  11.132  1.00  0.00     0.017 C 
ENDBRANCH   6  12
ENDBRANCH   3   6
ENDBRANCH   1   2
BRANCH   1  16
HETATM   16  C6  UNL     1      44.224  23.650  16.988  1.00  0.00     0.039 C 
BRANCH  16  17
HETATM   17  C7  UNL     1      45.153  22.938  17.906  1.00  0.00    -0.012 C 
HETATM   18  C8  UNL     1      44.582  22.777  19.303  1.00  0.00     0.005 C 
HETATM   19  C9  UNL     1      45.709  22.292  20.187  1.00  0.00     0.000 C 
HETATM   20  C10 UNL     1      46.207  23.358  21.109  1.00  0.00     0.000 C 
HETATM   21  C11 UNL     1      46.919  24.472  20.401  1.00  0.00     0.000 C 
HETATM   22  C12 UNL     1      46.265  24.862  19.098  1.00  0.00     0.000 C 
HETATM   23  C13 UNL     1      46.400  23.802  18.046  1.00  0.00     0.005 C 
ENDBRANCH  16  17
ENDBRANCH   1  16
BRANCH   1  24
HETATM   24  N3  UNL     1      43.817  21.451  15.899  1.00  0.00    -0.330 N 
HETATM   25  C14 UNL     1      43.266  20.524  14.990  1.00  0.00     0.319 C 
HETATM   26  O3  UNL     1      42.712  20.914  13.907  1.00  0.00    -0.247 OA
HETATM   27  N4  UNL     1      43.272  19.126  15.181  1.00  0.00    -0.327 N 
HETATM   28  C15 UNL     1      42.709  18.212  14.191  1.00  0.00     0.148 C 
HETATM   29  C25 UNL     1      43.826  18.535  16.359  1.00  0.00     0.102 C 
HETATM   30  C16 UNL     1      43.357  16.847  14.322  1.00  0.00     0.146 C 
HETATM   31  N5  UNL     1      43.108  16.311  15.680  1.00  0.00    -0.344 N 
HETATM   32  C24 UNL     1      43.089  17.235  16.765  1.00  0.00     0.151 C 
HETATM   33  C26 UNL     1      45.293  18.195  16.236  1.00  0.00     0.034 C 
ATOM     34  H3  UNL     1      44.236  21.068  16.747  1.00  0.00     0.165 HD
BRANCH  31  35
HETATM   35  C17 UNL     1      42.924  14.914  15.746  1.00  0.00     0.217 C 
BRANCH  35  36
HETATM   36  O4  UNL     1      43.526  14.204  14.826  1.00  0.00    -0.332 OA
ATOM     37  H4  UNL     1      42.968  13.806  14.168  1.00  0.00     0.220 HD
ENDBRANCH  35  36
BRANCH  35  38
HETATM   38  N6  UNL     1      42.190  14.168  16.655  1.00  0.00    -0.343 N 
HETATM   39  C18 UNL     1      40.748  13.956  16.592  1.00  0.00     0.127 C 
HETATM   40  C19 UNL     1      40.362  12.691  17.337  1.00  0.00     0.020 C 
HETATM   41  C20 UNL     1      41.369  11.613  17.260  1.00  0.00     0.004 C 
HETATM   42  C21 UNL     1      42.808  12.029  17.395  1.00  0.00     0.025 C 
HETATM   43  C22 UNL     1      42.811  13.492  17.799  1.00  0.00     0.083 C 
HETATM   44  C23 UNL     1      44.088  14.024  18.281  1.00  0.00     0.032 C 
ENDBRANCH  35  38
ENDBRANCH  31  35
ENDBRANCH   1  24
TORSDOF 10
ENDMDL
