MODEL 1
REMARK VINA RESULT: -9.948659630      0.000      0.000
REMARK  7 active torsions:
REMARK  status: ('A' for Active; 'I' for Inactive)
REMARK    1  A    between atoms: C2_2  and  O1_3 
REMARK    2  A    between atoms: C2_2  and  C3_5 
REMARK    3  A    between atoms: C3_5  and  N1_6 
REMARK    4  A    between atoms: C3_5  and  C15_20 
REMARK       I    between atoms: N1_6  and  C4_8 
REMARK    5  A    between atoms: C4_8  and  C5_10 
REMARK       I    between atoms: C15_20  and  N2_22 
REMARK    6  A    between atoms: C16_23  and  N3_24 
REMARK       I    between atoms: N3_24  and  C17_26 
REMARK    7  A    between atoms: C17_26  and  C18_28 
ROOT
HETATM    1  C15 UNL     1      43.789  19.546  15.477  1.00  0.00     0.247 C 
HETATM    2  O3  UNL     1      42.707  18.980  15.872  1.00  0.00    -0.271 OA
HETATM    3  N2  UNL     1      43.760  20.237  14.253  1.00  0.00    -0.324 N 
HETATM    4  C16 UNL     1      44.857  20.873  13.622  1.00  0.00     0.190 C 
HETATM    5  C30 UNL     1      45.066  20.256  12.244  1.00  0.00     0.047 C 
HETATM    6  C31 UNL     1      43.841  20.014  11.466  1.00  0.00     0.010 C 
HETATM    7  C32 UNL     1      42.554  20.340  12.109  1.00  0.00     0.011 A 
HETATM    8  C33 UNL     1      41.912  19.159  12.867  1.00  0.00     0.032 A 
HETATM    9  C34 UNL     1      42.480  20.317  13.557  1.00  0.00     0.094 A 
ENDROOT
BRANCH   1  10
HETATM   10  C3  UNL     1      44.950  19.393  16.380  1.00  0.00     0.205 C 
BRANCH  10  11
HETATM   11  C2  UNL     1      46.158  18.861  15.611  1.00  0.00     0.146 C 
HETATM   12  C1  UNL     1      46.823  17.761  16.373  1.00  0.00     0.042 C 
BRANCH  11  13
HETATM   13  O1  UNL     1      47.022  19.926  15.344  1.00  0.00    -0.393 OA
ATOM     14  H1  UNL     1      47.240  19.996  14.421  1.00  0.00     0.210 HD
ENDBRANCH  11  13
ENDBRANCH  10  11
BRANCH  10  15
HETATM   15  N1  UNL     1      45.322  20.707  16.923  1.00  0.00    -0.345 N 
HETATM   16  C4  UNL     1      44.655  21.221  18.072  1.00  0.00     0.227 C 
HETATM   17  O2  UNL     1      43.750  20.528  18.599  1.00  0.00    -0.273 OA
ATOM     18  H1  UNL     1      46.059  21.252  16.477  1.00  0.00     0.163 HD
BRANCH  16  19
HETATM   19  C5  UNL     1      44.987  22.524  18.656  1.00  0.00     0.042 C 
HETATM   20  C6  UNL     1      43.944  23.570  18.320  1.00  0.00     0.024 C 
HETATM   21  C7  UNL     1      44.332  24.867  18.963  1.00  0.00    -0.013 C 
HETATM   22  C8  UNL     1      45.638  25.357  18.423  1.00  0.00     0.009 C 
HETATM   23  C12 UNL     1      44.389  24.664  20.461  1.00  0.00     0.009 C 
HETATM   24  C9  UNL     1      46.717  24.329  18.697  1.00  0.00    -0.013 C 
HETATM   25  C10 UNL     1      46.833  24.153  20.198  1.00  0.00     0.009 C 
HETATM   26  C14 UNL     1      46.303  23.030  18.051  1.00  0.00     0.024 C 
HETATM   27  C11 UNL     1      45.506  23.712  20.764  1.00  0.00    -0.013 C 
HETATM   28  C13 UNL     1      45.156  22.383  20.139  1.00  0.00     0.024 C 
ENDBRANCH  16  19
ENDBRANCH  10  15
ENDBRANCH   1  10
BRANCH   4  29
HETATM   29  N3  UNL     1      44.753  22.300  13.442  1.00  0.00    -0.339 N 
HETATM   30  C17 UNL     1      45.549  23.284  14.025  1.00  0.00     0.223 C 
HETATM   31  O4  UNL     1      46.473  22.961  14.799  1.00  0.00    -0.273 OA
ATOM     32  H3  UNL     1      44.015  22.625  12.817  1.00  0.00     0.164 HD
BRANCH  30  33
HETATM   33  C18 UNL     1      45.325  24.714  13.746  1.00  0.00     0.078 C 
HETATM   34  C19 UNL     1      46.456  25.511  14.299  1.00  0.00     0.014 C 
HETATM   35  C20 UNL     1      46.896  26.648  13.430  1.00  0.00     0.006 C 
HETATM   36  C21 UNL     1      45.695  27.284  12.784  1.00  0.00    -0.007 C 
HETATM   37  C22 UNL     1      46.020  28.523  12.011  1.00  0.00    -0.014 C 
HETATM   38  C28 UNL     1      45.081  26.295  11.802  1.00  0.00    -0.009 C 
HETATM   39  C23 UNL     1      47.308  29.178  12.503  1.00  0.00     0.010 C 
HETATM   40  C24 UNL     1      44.917  29.523  12.098  1.00  0.00     0.005 C 
HETATM   41  C25 UNL     1      43.736  29.246  11.248  1.00  0.00     0.000 C 
HETATM   42  C26 UNL     1      43.752  27.909  10.563  1.00  0.00     0.000 C 
HETATM   43  C27 UNL     1      43.672  26.751  11.539  1.00  0.00     0.005 C 
HETATM   44  C29 UNL     1      45.191  24.881  12.247  1.00  0.00     0.019 C 
ENDBRANCH  30  33
ENDBRANCH   4  29
TORSDOF 7
ENDMDL
MODEL 2
REMARK VINA RESULT: -9.934480434      0.059      1.168
REMARK  7 active torsions:
REMARK  status: ('A' for Active; 'I' for Inactive)
REMARK    1  A    between atoms: C2_2  and  O1_3 
REMARK    2  A    between atoms: C2_2  and  C3_5 
REMARK    3  A    between atoms: C3_5  and  N1_6 
REMARK    4  A    between atoms: C3_5  and  C15_20 
REMARK       I    between atoms: N1_6  and  C4_8 
REMARK    5  A    between atoms: C4_8  and  C5_10 
REMARK       I    between atoms: C15_20  and  N2_22 
REMARK    6  A    between atoms: C16_23  and  N3_24 
REMARK       I    between atoms: N3_24  and  C17_26 
REMARK    7  A    between atoms: C17_26  and  C18_28 
ROOT
HETATM    1  C15 UNL     1      43.827  19.535  15.447  1.00  0.00     0.247 C 
HETATM    2  O3  UNL     1      42.749  18.967  15.848  1.00  0.00    -0.271 OA
HETATM    3  N2  UNL     1      43.788  20.230  14.225  1.00  0.00    -0.324 N 
HETATM    4  C16 UNL     1      44.879  20.869  13.588  1.00  0.00     0.190 C 
HETATM    5  C30 UNL     1      45.079  20.257  12.206  1.00  0.00     0.047 C 
HETATM    6  C31 UNL     1      43.849  20.015  11.437  1.00  0.00     0.010 C 
HETATM    7  C32 UNL     1      42.566  20.337  12.090  1.00  0.00     0.011 A 
HETATM    8  C33 UNL     1      41.932  19.152  12.850  1.00  0.00     0.032 A 
HETATM    9  C34 UNL     1      42.502  20.310  13.539  1.00  0.00     0.094 A 
ENDROOT
BRANCH   1  10
HETATM   10  C3  UNL     1      44.995  19.382  16.340  1.00  0.00     0.205 C 
BRANCH  10  11
HETATM   11  C2  UNL     1      46.197  18.848  15.562  1.00  0.00     0.146 C 
HETATM   12  C1  UNL     1      46.838  17.716  16.297  1.00  0.00     0.042 C 
BRANCH  11  13
HETATM   13  O1  UNL     1      47.081  19.904  15.328  1.00  0.00    -0.393 OA
ATOM     14  H1  UNL     1      46.982  20.609  15.957  1.00  0.00     0.210 HD
ENDBRANCH  11  13
ENDBRANCH  10  11
BRANCH  10  15
HETATM   15  N1  UNL     1      45.372  20.695  16.881  1.00  0.00    -0.345 N 
HETATM   16  C4  UNL     1      44.723  21.205  18.041  1.00  0.00     0.227 C 
HETATM   17  O2  UNL     1      43.829  20.508  18.582  1.00  0.00    -0.273 OA
ATOM     18  H1  UNL     1      46.100  21.244  16.423  1.00  0.00     0.163 HD
BRANCH  16  19
HETATM   19  C5  UNL     1      45.061  22.508  18.623  1.00  0.00     0.042 C 
HETATM   20  C6  UNL     1      46.414  22.999  18.148  1.00  0.00     0.024 C 
HETATM   21  C7  UNL     1      46.686  24.340  18.760  1.00  0.00    -0.013 C 
HETATM   22  C8  UNL     1      46.753  24.238  20.251  1.00  0.00     0.009 C 
HETATM   23  C12 UNL     1      45.606  25.301  18.317  1.00  0.00     0.009 C 
HETATM   24  C9  UNL     1      45.436  23.711  20.783  1.00  0.00    -0.013 C 
HETATM   25  C10 UNL     1      44.344  24.691  20.400  1.00  0.00     0.009 C 
HETATM   26  C14 UNL     1      45.175  22.368  20.146  1.00  0.00     0.024 C 
HETATM   27  C11 UNL     1      44.303  24.846  18.900  1.00  0.00    -0.013 C 
HETATM   28  C13 UNL     1      43.981  23.497  18.304  1.00  0.00     0.024 C 
ENDBRANCH  16  19
ENDBRANCH  10  15
ENDBRANCH   1  10
BRANCH   4  29
HETATM   29  N3  UNL     1      44.772  22.297  13.412  1.00  0.00    -0.339 N 
HETATM   30  C17 UNL     1      45.548  23.282  14.020  1.00  0.00     0.223 C 
HETATM   31  O4  UNL     1      46.454  22.960  14.814  1.00  0.00    -0.273 OA
ATOM     32  H3  UNL     1      44.047  22.621  12.772  1.00  0.00     0.164 HD
BRANCH  30  33
HETATM   33  C18 UNL     1      45.321  24.712  13.744  1.00  0.00     0.078 C 
HETATM   34  C19 UNL     1      46.453  25.509  14.295  1.00  0.00     0.014 C 
HETATM   35  C20 UNL     1      46.891  26.648  13.427  1.00  0.00     0.006 C 
HETATM   36  C21 UNL     1      45.689  27.284  12.784  1.00  0.00    -0.007 C 
HETATM   37  C22 UNL     1      46.012  28.524  12.012  1.00  0.00    -0.014 C 
HETATM   38  C28 UNL     1      45.074  26.295  11.801  1.00  0.00    -0.009 C 
HETATM   39  C23 UNL     1      47.299  29.179  12.502  1.00  0.00     0.010 C 
HETATM   40  C24 UNL     1      44.908  29.523  12.101  1.00  0.00     0.005 C 
HETATM   41  C25 UNL     1      43.726  29.247  11.253  1.00  0.00     0.000 C 
HETATM   42  C26 UNL     1      43.742  27.910  10.566  1.00  0.00     0.000 C 
HETATM   43  C27 UNL     1      43.664  26.751  11.541  1.00  0.00     0.005 C 
HETATM   44  C29 UNL     1      45.186  24.881  12.244  1.00  0.00     0.019 C 
ENDBRANCH  30  33
ENDBRANCH   4  29
TORSDOF 7
ENDMDL
MODEL 3
REMARK VINA RESULT: -9.598080730      4.890      8.071
REMARK  7 active torsions:
REMARK  status: ('A' for Active; 'I' for Inactive)
REMARK    1  A    between atoms: C2_2  and  O1_3 
REMARK    2  A    between atoms: C2_2  and  C3_5 
REMARK    3  A    between atoms: C3_5  and  N1_6 
REMARK    4  A    between atoms: C3_5  and  C15_20 
REMARK       I    between atoms: N1_6  and  C4_8 
REMARK    5  A    between atoms: C4_8  and  C5_10 
REMARK       I    between atoms: C15_20  and  N2_22 
REMARK    6  A    between atoms: C16_23  and  N3_24 
REMARK       I    between atoms: N3_24  and  C17_26 
REMARK    7  A    between atoms: C17_26  and  C18_28 
ROOT
HETATM    1  C15 UNL     1      41.799  15.785  13.893  1.00  0.00     0.247 C 
HETATM    2  O3  UNL     1      40.690  15.777  13.248  1.00  0.00    -0.271 OA
HETATM    3  N2  UNL     1      42.557  16.969  13.884  1.00  0.00    -0.324 N 
HETATM    4  C16 UNL     1      43.826  17.159  14.482  1.00  0.00     0.190 C 
HETATM    5  C30 UNL     1      44.827  17.569  13.409  1.00  0.00     0.047 C 
HETATM    6  C31 UNL     1      44.343  18.563  12.438  1.00  0.00     0.010 C 
HETATM    7  C32 UNL     1      42.945  19.015  12.570  1.00  0.00     0.011 A 
HETATM    8  C33 UNL     1      41.938  18.196  11.737  1.00  0.00     0.032 A 
HETATM    9  C34 UNL     1      41.987  18.124  13.197  1.00  0.00     0.094 A 
ENDROOT
BRANCH   1  10
HETATM   10  C3  UNL     1      42.144  14.519  14.576  1.00  0.00     0.205 C 
BRANCH  10  11
HETATM   11  C2  UNL     1      42.711  13.510  13.578  1.00  0.00     0.146 C 
HETATM   12  C1  UNL     1      44.134  13.832  13.256  1.00  0.00     0.042 C 
BRANCH  11  13
HETATM   13  O1  UNL     1      41.894  13.497  12.445  1.00  0.00    -0.393 OA
ATOM     14  H1  UNL     1      41.366  12.708  12.386  1.00  0.00     0.210 HD
ENDBRANCH  11  13
ENDBRANCH  10  11
BRANCH  10  15
HETATM   15  N1  UNL     1      43.187  14.775  15.579  1.00  0.00    -0.345 N 
HETATM   16  C4  UNL     1      43.155  14.101  16.834  1.00  0.00     0.227 C 
HETATM   17  O2  UNL     1      42.219  13.294  17.054  1.00  0.00    -0.273 OA
ATOM     18  H1  UNL     1      43.936  15.437  15.377  1.00  0.00     0.163 HD
BRANCH  16  19
HETATM   19  C5  UNL     1      44.169  14.318  17.869  1.00  0.00     0.042 C 
HETATM   20  C6  UNL     1      44.762  13.010  18.354  1.00  0.00     0.024 C 
HETATM   21  C7  UNL     1      45.804  13.304  19.391  1.00  0.00    -0.013 C 
HETATM   22  C8  UNL     1      45.193  13.978  20.579  1.00  0.00     0.009 C 
HETATM   23  C12 UNL     1      46.884  14.156  18.763  1.00  0.00     0.009 C 
HETATM   24  C9  UNL     1      44.546  15.278  20.148  1.00  0.00    -0.013 C 
HETATM   25  C10 UNL     1      45.623  16.173  19.567  1.00  0.00     0.009 C 
HETATM   26  C14 UNL     1      43.511  14.962  19.096  1.00  0.00     0.024 C 
HETATM   27  C11 UNL     1      46.286  15.482  18.401  1.00  0.00    -0.013 C 
HETATM   28  C13 UNL     1      45.232  15.237  17.349  1.00  0.00     0.024 C 
ENDBRANCH  16  19
ENDBRANCH  10  15
ENDBRANCH   1  10
BRANCH   4  29
HETATM   29  N3  UNL     1      43.898  18.142  15.534  1.00  0.00    -0.339 N 
HETATM   30  C17 UNL     1      43.137  18.187  16.701  1.00  0.00     0.223 C 
HETATM   31  O4  UNL     1      42.281  17.307  16.921  1.00  0.00    -0.273 OA
ATOM     32  H3  UNL     1      44.582  18.889  15.410  1.00  0.00     0.164 HD
BRANCH  30  33
HETATM   33  C18 UNL     1      43.321  19.261  17.694  1.00  0.00     0.078 C 
HETATM   34  C19 UNL     1      42.973  18.750  19.049  1.00  0.00     0.014 C 
HETATM   35  C20 UNL     1      43.873  19.230  20.144  1.00  0.00     0.006 C 
HETATM   36  C21 UNL     1      44.255  20.664  19.892  1.00  0.00    -0.007 C 
HETATM   37  C22 UNL     1      45.036  21.279  21.009  1.00  0.00    -0.014 C 
HETATM   38  C28 UNL     1      45.131  20.730  18.647  1.00  0.00    -0.009 C 
HETATM   39  C23 UNL     1      44.782  20.571  22.336  1.00  0.00     0.010 C 
HETATM   40  C24 UNL     1      44.707  22.724  21.172  1.00  0.00     0.005 C 
HETATM   41  C25 UNL     1      45.321  23.635  20.179  1.00  0.00     0.000 C 
HETATM   42  C26 UNL     1      46.038  22.948  19.052  1.00  0.00     0.000 C 
HETATM   43  C27 UNL     1      45.102  22.153  18.162  1.00  0.00     0.005 C 
HETATM   44  C29 UNL     1      44.761  19.726  17.615  1.00  0.00     0.019 C 
ENDBRANCH  30  33
ENDBRANCH   4  29
TORSDOF 7
ENDMDL
MODEL 4
REMARK VINA RESULT: -9.572320501      4.883      8.021
REMARK  7 active torsions:
REMARK  status: ('A' for Active; 'I' for Inactive)
REMARK    1  A    between atoms: C2_2  and  O1_3 
REMARK    2  A    between atoms: C2_2  and  C3_5 
REMARK    3  A    between atoms: C3_5  and  N1_6 
REMARK    4  A    between atoms: C3_5  and  C15_20 
REMARK       I    between atoms: N1_6  and  C4_8 
REMARK    5  A    between atoms: C4_8  and  C5_10 
REMARK       I    between atoms: C15_20  and  N2_22 
REMARK    6  A    between atoms: C16_23  and  N3_24 
REMARK       I    between atoms: N3_24  and  C17_26 
REMARK    7  A    between atoms: C17_26  and  C18_28 
ROOT
HETATM    1  C15 UNL     1      41.800  15.785  13.894  1.00  0.00     0.247 C 
HETATM    2  O3  UNL     1      40.688  15.774  13.254  1.00  0.00    -0.271 OA
HETATM    3  N2  UNL     1      42.554  16.973  13.882  1.00  0.00    -0.324 N 
HETATM    4  C16 UNL     1      43.825  17.166  14.475  1.00  0.00     0.190 C 
HETATM    5  C30 UNL     1      44.820  17.581  13.397  1.00  0.00     0.047 C 
HETATM    6  C31 UNL     1      44.329  18.574  12.429  1.00  0.00     0.010 C 
HETATM    7  C32 UNL     1      42.929  19.021  12.568  1.00  0.00     0.011 A 
HETATM    8  C33 UNL     1      41.921  18.198  11.739  1.00  0.00     0.032 A 
HETATM    9  C34 UNL     1      41.978  18.126  13.199  1.00  0.00     0.094 A 
ENDROOT
BRANCH   1  10
HETATM   10  C3  UNL     1      42.153  14.521  14.574  1.00  0.00     0.205 C 
BRANCH  10  11
HETATM   11  C2  UNL     1      42.714  13.513  13.572  1.00  0.00     0.146 C 
HETATM   12  C1  UNL     1      44.133  13.839  13.237  1.00  0.00     0.042 C 
BRANCH  11  13
HETATM   13  O1  UNL     1      41.888  13.496  12.446  1.00  0.00    -0.393 OA
ATOM     14  H1  UNL     1      42.254  13.986  11.718  1.00  0.00     0.210 HD
ENDBRANCH  11  13
ENDBRANCH  10  11
BRANCH  10  15
HETATM   15  N1  UNL     1      43.203  14.778  15.570  1.00  0.00    -0.345 N 
HETATM   16  C4  UNL     1      43.148  14.151  16.847  1.00  0.00     0.227 C 
HETATM   17  O2  UNL     1      42.187  13.382  17.094  1.00  0.00    -0.273 OA
ATOM     18  H1  UNL     1      43.973  15.409  15.346  1.00  0.00     0.163 HD
BRANCH  16  19
HETATM   19  C5  UNL     1      44.169  14.371  17.876  1.00  0.00     0.042 C 
HETATM   20  C6  UNL     1      45.281  15.272  17.378  1.00  0.00     0.024 C 
HETATM   21  C7  UNL     1      46.275  15.473  18.482  1.00  0.00    -0.013 C 
HETATM   22  C8  UNL     1      46.902  14.172  18.873  1.00  0.00     0.009 C 
HETATM   23  C12 UNL     1      45.572  16.125  19.651  1.00  0.00     0.009 C 
HETATM   24  C9  UNL     1      45.829  13.213  19.344  1.00  0.00    -0.013 C 
HETATM   25  C10 UNL     1      45.149  13.821  20.555  1.00  0.00     0.009 C 
HETATM   26  C14 UNL     1      44.833  13.033  18.224  1.00  0.00     0.024 C 
HETATM   27  C11 UNL     1      44.558  15.160  20.188  1.00  0.00    -0.013 C 
HETATM   28  C13 UNL     1      43.528  14.931  19.109  1.00  0.00     0.024 C 
ENDBRANCH  16  19
ENDBRANCH  10  15
ENDBRANCH   1  10
BRANCH   4  29
HETATM   29  N3  UNL     1      43.899  18.149  15.527  1.00  0.00    -0.339 N 
HETATM   30  C17 UNL     1      43.140  18.193  16.695  1.00  0.00     0.223 C 
HETATM   31  O4  UNL     1      42.284  17.313  16.916  1.00  0.00    -0.273 OA
ATOM     32  H3  UNL     1      44.583  18.895  15.402  1.00  0.00     0.164 HD
BRANCH  30  33
HETATM   33  C18 UNL     1      43.325  19.267  17.688  1.00  0.00     0.078 C 
HETATM   34  C19 UNL     1      42.982  18.753  19.044  1.00  0.00     0.014 C 
HETATM   35  C20 UNL     1      43.885  19.234  20.137  1.00  0.00     0.006 C 
HETATM   36  C21 UNL     1      44.263  20.669  19.884  1.00  0.00    -0.007 C 
HETATM   37  C22 UNL     1      45.047  21.284  21.000  1.00  0.00    -0.014 C 
HETATM   38  C28 UNL     1      45.136  20.737  18.637  1.00  0.00    -0.009 C 
HETATM   39  C23 UNL     1      44.798  20.575  22.327  1.00  0.00     0.010 C 
HETATM   40  C24 UNL     1      44.716  22.729  21.165  1.00  0.00     0.005 C 
HETATM   41  C25 UNL     1      45.326  23.641  20.171  1.00  0.00     0.000 C 
HETATM   42  C26 UNL     1      46.041  22.956  19.041  1.00  0.00     0.000 C 
HETATM   43  C27 UNL     1      45.103  22.161  18.153  1.00  0.00     0.005 C 
HETATM   44  C29 UNL     1      44.764  19.734  17.605  1.00  0.00     0.019 C 
ENDBRANCH  30  33
ENDBRANCH   4  29
TORSDOF 7
ENDMDL
MODEL 5
REMARK VINA RESULT: -9.538379818      4.897      8.011
REMARK  7 active torsions:
REMARK  status: ('A' for Active; 'I' for Inactive)
REMARK    1  A    between atoms: C2_2  and  O1_3 
REMARK    2  A    between atoms: C2_2  and  C3_5 
REMARK    3  A    between atoms: C3_5  and  N1_6 
REMARK    4  A    between atoms: C3_5  and  C15_20 
REMARK       I    between atoms: N1_6  and  C4_8 
REMARK    5  A    between atoms: C4_8  and  C5_10 
REMARK       I    between atoms: C15_20  and  N2_22 
REMARK    6  A    between atoms: C16_23  and  N3_24 
REMARK       I    between atoms: N3_24  and  C17_26 
REMARK    7  A    between atoms: C17_26  and  C18_28 
ROOT
HETATM    1  C15 UNL     1      41.804  15.751  13.925  1.00  0.00     0.247 C 
HETATM    2  O3  UNL     1      40.694  15.742  13.281  1.00  0.00    -0.271 OA
HETATM    3  N2  UNL     1      42.563  16.934  13.910  1.00  0.00    -0.324 N 
HETATM    4  C16 UNL     1      43.833  17.124  14.507  1.00  0.00     0.190 C 
HETATM    5  C30 UNL     1      44.834  17.529  13.430  1.00  0.00     0.047 C 
HETATM    6  C31 UNL     1      44.351  18.520  12.456  1.00  0.00     0.010 C 
HETATM    7  C32 UNL     1      42.953  18.975  12.588  1.00  0.00     0.011 A 
HETATM    8  C33 UNL     1      41.944  18.153  11.759  1.00  0.00     0.032 A 
HETATM    9  C34 UNL     1      41.995  18.087  13.219  1.00  0.00     0.094 A 
ENDROOT
BRANCH   1  10
HETATM   10  C3  UNL     1      42.148  14.488  14.613  1.00  0.00     0.205 C 
BRANCH  10  11
HETATM   11  C2  UNL     1      42.732  13.481  13.622  1.00  0.00     0.146 C 
HETATM   12  C1  UNL     1      44.168  13.788  13.346  1.00  0.00     0.042 C 
BRANCH  11  13
HETATM   13  O1  UNL     1      41.950  13.489  12.465  1.00  0.00    -0.393 OA
ATOM     14  H1  UNL     1      41.030  13.645  12.647  1.00  0.00     0.210 HD
ENDBRANCH  11  13
ENDBRANCH  10  11
BRANCH  10  15
HETATM   15  N1  UNL     1      43.178  14.750  15.628  1.00  0.00    -0.345 N 
HETATM   16  C4  UNL     1      43.122  14.094  16.891  1.00  0.00     0.227 C 
HETATM   17  O2  UNL     1      42.176  13.297  17.109  1.00  0.00    -0.273 OA
ATOM     18  H1  UNL     1      43.935  15.403  15.428  1.00  0.00     0.163 HD
BRANCH  16  19
HETATM   19  C5  UNL     1      44.122  14.318  17.939  1.00  0.00     0.042 C 
HETATM   20  C6  UNL     1      43.520  14.996  19.153  1.00  0.00     0.024 C 
HETATM   21  C7  UNL     1      44.588  15.174  20.190  1.00  0.00    -0.013 C 
HETATM   22  C8  UNL     1      45.676  16.065  19.681  1.00  0.00     0.009 C 
HETATM   23  C12 UNL     1      45.119  13.811  20.574  1.00  0.00     0.009 C 
HETATM   24  C9  UNL     1      46.292  15.456  18.439  1.00  0.00    -0.013 C 
HETATM   25  C10 UNL     1      46.884  14.112  18.814  1.00  0.00     0.009 C 
HETATM   26  C14 UNL     1      45.200  15.274  17.413  1.00  0.00     0.024 C 
HETATM   27  C11 UNL     1      45.807  13.220  19.380  1.00  0.00    -0.013 C 
HETATM   28  C13 UNL     1      44.765  13.015  18.307  1.00  0.00     0.024 C 
ENDBRANCH  16  19
ENDBRANCH  10  15
ENDBRANCH   1  10
BRANCH   4  29
HETATM   29  N3  UNL     1      43.908  18.112  15.555  1.00  0.00    -0.339 N 
HETATM   30  C17 UNL     1      43.136  18.173  16.714  1.00  0.00     0.223 C 
HETATM   31  O4  UNL     1      42.266  17.305  16.929  1.00  0.00    -0.273 OA
ATOM     32  H3  UNL     1      44.603  18.849  15.434  1.00  0.00     0.164 HD
BRANCH  30  33
HETATM   33  C18 UNL     1      43.324  19.249  17.703  1.00  0.00     0.078 C 
HETATM   34  C19 UNL     1      42.988  18.739  19.062  1.00  0.00     0.014 C 
HETATM   35  C20 UNL     1      43.896  19.224  20.149  1.00  0.00     0.006 C 
HETATM   36  C21 UNL     1      44.270  20.659  19.891  1.00  0.00    -0.007 C 
HETATM   37  C22 UNL     1      45.059  21.279  21.001  1.00  0.00    -0.014 C 
HETATM   38  C28 UNL     1      45.137  20.726  18.639  1.00  0.00    -0.009 C 
HETATM   39  C23 UNL     1      44.817  20.572  22.332  1.00  0.00     0.010 C 
HETATM   40  C24 UNL     1      44.725  22.723  21.164  1.00  0.00     0.005 C 
HETATM   41  C25 UNL     1      45.328  23.634  20.165  1.00  0.00     0.000 C 
HETATM   42  C26 UNL     1      46.039  22.947  19.033  1.00  0.00     0.000 C 
HETATM   43  C27 UNL     1      45.099  22.148  18.151  1.00  0.00     0.005 C 
HETATM   44  C29 UNL     1      44.762  19.719  17.612  1.00  0.00     0.019 C 
ENDBRANCH  30  33
ENDBRANCH   4  29
TORSDOF 7
ENDMDL
