MODEL 1
REMARK VINA RESULT: -6.316602034      0.000      0.000
REMARK  4 active torsions:
REMARK  status: ('A' for Active; 'I' for Inactive)
REMARK    1  A    between atoms: O1_2  and  C2_3 
REMARK    2  A    between atoms: C2_3  and  N2_7 
REMARK    3  A    between atoms: N2_7  and  N3_9 
REMARK    4  A    between atoms: N3_9  and  C3_10 
ROOT
HETATM    1  N2  UNL     1      17.801  42.394  -0.034  1.00  0.00    -0.269 N 
ATOM      2  H2  UNL     1      18.799  42.318  -0.224  1.00  0.00     0.186 HD
ENDROOT
BRANCH   1   3
HETATM    3  C2  UNL     1      17.322  42.975   1.188  1.00  0.00     0.228 C 
HETATM    4  N1  UNL     1      16.133  43.437   1.317  1.00  0.00    -0.364 N 
ATOM      5  H12 UNL     1      15.793  43.850   2.186  1.00  0.00     0.159 HD
ATOM      6  H11 UNL     1      15.508  43.387   0.512  1.00  0.00     0.159 HD
BRANCH   3   7
HETATM    7  O1  UNL     1      18.174  43.043   2.285  1.00  0.00    -0.327 OA
HETATM    8  C1  UNL     1      19.555  43.143   2.111  1.00  0.00     0.213 C 
ENDBRANCH   3   7
ENDBRANCH   1   3
BRANCH   1   9
HETATM    9  N3  UNL     1      16.869  41.945  -0.939  1.00  0.00    -0.133 NA
BRANCH   9  10
HETATM   10  C3  UNL     1      16.972  42.575  -2.245  1.00  0.00     0.099 C 
HETATM   11  C4  UNL     1      17.856  43.803  -2.203  1.00  0.00     0.023 C 
HETATM   12  C5  UNL     1      17.790  44.371  -3.628  1.00  0.00     0.002 C 
HETATM   13  C6  UNL     1      18.643  43.465  -4.454  1.00  0.00     0.000 C 
HETATM   14  C7  UNL     1      18.456  42.018  -4.207  1.00  0.00     0.002 C 
HETATM   15  C8  UNL     1      17.327  41.629  -3.337  1.00  0.00     0.023 C 
ENDBRANCH   9  10
ENDBRANCH   1   9
TORSDOF 4
ENDMDL
MODEL 2
REMARK VINA RESULT: -6.117992330      1.187      1.516
REMARK  4 active torsions:
REMARK  status: ('A' for Active; 'I' for Inactive)
REMARK    1  A    between atoms: O1_2  and  C2_3 
REMARK    2  A    between atoms: C2_3  and  N2_7 
REMARK    3  A    between atoms: N2_7  and  N3_9 
REMARK    4  A    between atoms: N3_9  and  C3_10 
ROOT
HETATM    1  N2  UNL     1      18.028  42.117  -0.042  1.00  0.00    -0.269 N 
ATOM      2  H2  UNL     1      18.093  41.183  -0.445  1.00  0.00     0.186 HD
ENDROOT
BRANCH   1   3
HETATM    3  C2  UNL     1      18.948  42.552   0.971  1.00  0.00     0.228 C 
HETATM    4  N1  UNL     1      19.836  43.453   0.760  1.00  0.00    -0.364 N 
ATOM      5  H12 UNL     1      20.489  43.762   1.480  1.00  0.00     0.159 HD
ATOM      6  H11 UNL     1      19.885  43.871  -0.169  1.00  0.00     0.159 HD
BRANCH   3   7
HETATM    7  O1  UNL     1      18.880  41.982   2.237  1.00  0.00    -0.327 OA
HETATM    8  C1  UNL     1      17.682  41.969   2.952  1.00  0.00     0.213 C 
ENDBRANCH   3   7
ENDBRANCH   1   3
BRANCH   1   9
HETATM    9  N3  UNL     1      17.059  43.000  -0.450  1.00  0.00    -0.133 NA
BRANCH   9  10
HETATM   10  C3  UNL     1      17.067  43.258  -1.881  1.00  0.00     0.099 C 
HETATM   11  C4  UNL     1      18.150  44.244  -2.262  1.00  0.00     0.023 C 
HETATM   12  C5  UNL     1      17.965  44.451  -3.773  1.00  0.00     0.002 C 
HETATM   13  C6  UNL     1      18.506  43.213  -4.409  1.00  0.00     0.000 C 
HETATM   14  C7  UNL     1      18.107  41.942  -3.764  1.00  0.00     0.002 C 
HETATM   15  C8  UNL     1      17.076  42.022  -2.709  1.00  0.00     0.023 C 
ENDBRANCH   9  10
ENDBRANCH   1   9
TORSDOF 4
ENDMDL
MODEL 3
REMARK VINA RESULT: -6.096065987      1.028      1.602
REMARK  4 active torsions:
REMARK  status: ('A' for Active; 'I' for Inactive)
REMARK    1  A    between atoms: O1_2  and  C2_3 
REMARK    2  A    between atoms: C2_3  and  N2_7 
REMARK    3  A    between atoms: N2_7  and  N3_9 
REMARK    4  A    between atoms: N3_9  and  C3_10 
ROOT
HETATM    1  N2  UNL     1      16.898  43.406  -0.295  1.00  0.00    -0.269 N 
ATOM      2  H2  UNL     1      15.932  43.081  -0.269  1.00  0.00     0.186 HD
ENDROOT
BRANCH   1   3
HETATM    3  C2  UNL     1      17.878  42.889   0.617  1.00  0.00     0.228 C 
HETATM    4  N1  UNL     1      18.762  42.027   0.271  1.00  0.00    -0.364 N 
ATOM      5  H12 UNL     1      19.458  41.659   0.919  1.00  0.00     0.159 HD
ATOM      6  H11 UNL     1      18.759  41.698  -0.695  1.00  0.00     0.159 HD
BRANCH   3   7
HETATM    7  O1  UNL     1      17.881  43.337   1.933  1.00  0.00    -0.327 OA
HETATM    8  C1  UNL     1      19.017  43.934   2.482  1.00  0.00     0.213 C 
ENDBRANCH   3   7
ENDBRANCH   1   3
BRANCH   1   9
HETATM    9  N3  UNL     1      17.304  44.352  -1.205  1.00  0.00    -0.133 NA
BRANCH   9  10
HETATM   10  C3  UNL     1      17.366  43.861  -2.572  1.00  0.00     0.099 C 
HETATM   11  C4  UNL     1      18.750  44.027  -3.161  1.00  0.00     0.023 C 
HETATM   12  C5  UNL     1      18.612  43.533  -4.608  1.00  0.00     0.002 C 
HETATM   13  C6  UNL     1      18.549  42.044  -4.511  1.00  0.00     0.000 C 
HETATM   14  C7  UNL     1      17.671  41.514  -3.444  1.00  0.00     0.002 C 
HETATM   15  C8  UNL     1      16.814  42.489  -2.738  1.00  0.00     0.023 C 
ENDBRANCH   9  10
ENDBRANCH   1   9
TORSDOF 4
ENDMDL
MODEL 4
REMARK VINA RESULT: -6.026207836      1.200      1.426
REMARK  4 active torsions:
REMARK  status: ('A' for Active; 'I' for Inactive)
REMARK    1  A    between atoms: O1_2  and  C2_3 
REMARK    2  A    between atoms: C2_3  and  N2_7 
REMARK    3  A    between atoms: N2_7  and  N3_9 
REMARK    4  A    between atoms: N3_9  and  C3_10 
ROOT
HETATM    1  N2  UNL     1      16.695  43.196  -0.211  1.00  0.00    -0.269 N 
ATOM      2  H2  UNL     1      15.771  42.780  -0.321  1.00  0.00     0.186 HD
ENDROOT
BRANCH   1   3
HETATM    3  C2  UNL     1      17.584  42.759   0.827  1.00  0.00     0.228 C 
HETATM    4  N1  UNL     1      17.265  42.781   2.069  1.00  0.00    -0.364 N 
ATOM      5  H12 UNL     1      17.897  42.471   2.807  1.00  0.00     0.159 HD
ATOM      6  H11 UNL     1      16.338  43.124   2.320  1.00  0.00     0.159 HD
BRANCH   3   7
HETATM    7  O1  UNL     1      18.848  42.291   0.484  1.00  0.00    -0.327 OA
HETATM    8  C1  UNL     1      19.996  42.967   0.897  1.00  0.00     0.213 C 
ENDBRANCH   3   7
ENDBRANCH   1   3
BRANCH   1   9
HETATM    9  N3  UNL     1      17.129  44.192  -1.052  1.00  0.00    -0.133 NA
BRANCH   9  10
HETATM   10  C3  UNL     1      17.234  43.780  -2.442  1.00  0.00     0.099 C 
HETATM   11  C4  UNL     1      18.599  44.095  -3.014  1.00  0.00     0.023 C 
HETATM   12  C5  UNL     1      18.505  43.667  -4.486  1.00  0.00     0.002 C 
HETATM   13  C6  UNL     1      18.569  42.175  -4.467  1.00  0.00     0.000 C 
HETATM   14  C7  UNL     1      17.740  41.517  -3.433  1.00  0.00     0.002 C 
HETATM   15  C8  UNL     1      16.802  42.377  -2.682  1.00  0.00     0.023 C 
ENDBRANCH   9  10
ENDBRANCH   1   9
TORSDOF 4
ENDMDL
MODEL 5
REMARK VINA RESULT: -6.001289795      0.520      1.531
REMARK  4 active torsions:
REMARK  status: ('A' for Active; 'I' for Inactive)
REMARK    1  A    between atoms: O1_2  and  C2_3 
REMARK    2  A    between atoms: C2_3  and  N2_7 
REMARK    3  A    between atoms: N2_7  and  N3_9 
REMARK    4  A    between atoms: N3_9  and  C3_10 
ROOT
HETATM    1  N2  UNL     1      17.416  42.126   0.426  1.00  0.00    -0.269 N 
ATOM      2  H2  UNL     1      18.122  41.432   0.672  1.00  0.00     0.186 HD
ENDROOT
BRANCH   1   3
HETATM    3  C2  UNL     1      16.964  43.093   1.385  1.00  0.00     0.228 C 
HETATM    4  N1  UNL     1      15.753  43.515   1.428  1.00  0.00    -0.364 N 
ATOM      5  H12 UNL     1      15.432  44.203   2.109  1.00  0.00     0.159 HD
ATOM      6  H11 UNL     1      15.091  43.142   0.747  1.00  0.00     0.159 HD
BRANCH   3   7
HETATM    7  O1  UNL     1      17.867  43.600   2.313  1.00  0.00    -0.327 OA
HETATM    8  C1  UNL     1      19.239  43.580   2.059  1.00  0.00     0.213 C 
ENDBRANCH   3   7
ENDBRANCH   1   3
BRANCH   1   9
HETATM    9  N3  UNL     1      16.866  42.164  -0.832  1.00  0.00    -0.133 NA
BRANCH   9  10
HETATM   10  C3  UNL     1      17.822  42.484  -1.879  1.00  0.00     0.099 C 
HETATM   11  C4  UNL     1      17.386  41.932  -3.219  1.00  0.00     0.023 C 
HETATM   12  C5  UNL     1      18.533  42.294  -4.174  1.00  0.00     0.002 C 
HETATM   13  C6  UNL     1      18.381  43.757  -4.434  1.00  0.00     0.000 C 
HETATM   14  C7  UNL     1      18.098  44.587  -3.242  1.00  0.00     0.002 C 
HETATM   15  C8  UNL     1      18.195  43.923  -1.926  1.00  0.00     0.023 C 
ENDBRANCH   9  10
ENDBRANCH   1   9
TORSDOF 4
ENDMDL
