MODEL 1
REMARK VINA RESULT: -5.124635509      0.000      0.000
REMARK  3 active torsions:
REMARK  status: ('A' for Active; 'I' for Inactive)
REMARK    1  A    between atoms: C2_2  and  N1_4 
REMARK    2  A    between atoms: N1_4  and  C4_6 
REMARK    3  A    between atoms: C6_10  and  O1_11 
ROOT
HETATM    1  C4  UNL     1      18.022  42.922  -1.595  1.00  0.00     0.133 C 
HETATM    2  C5  UNL     1      17.788  42.284  -2.945  1.00  0.00     0.121 C 
HETATM    3  S1  UNL     1      18.311  43.707  -3.999  1.00  0.00    -0.061 SA
HETATM    4  N2  UNL     1      18.215  44.964  -2.721  1.00  0.00    -0.145 NA
HETATM    5  C6  UNL     1      17.296  44.263  -1.803  1.00  0.00     0.243 C 
ENDROOT
BRANCH   1   6
HETATM    6  N1  UNL     1      17.464  42.288  -0.488  1.00  0.00    -0.409 N 
ATOM      7  H1  UNL     1      16.572  41.804  -0.590  1.00  0.00     0.154 HD
BRANCH   6   8
HETATM    8  C2  UNL     1      18.096  42.297   0.761  1.00  0.00     0.069 C 
HETATM    9  C1  UNL     1      19.444  42.937   0.834  1.00  0.00     0.031 C 
HETATM   10  C3  UNL     1      17.199  43.111   1.707  1.00  0.00     0.031 C 
ENDBRANCH   6   8
ENDBRANCH   1   6
BRANCH   5  11
HETATM   11  O1  UNL     1      16.065  44.063  -2.431  1.00  0.00    -0.377 OA
ATOM     12  H1  UNL     1      15.351  44.296  -1.849  1.00  0.00     0.211 HD
ENDBRANCH   5  11
TORSDOF 3
ENDMDL
MODEL 2
REMARK VINA RESULT: -5.001929632      0.539      1.144
REMARK  3 active torsions:
REMARK  status: ('A' for Active; 'I' for Inactive)
REMARK    1  A    between atoms: C2_2  and  N1_4 
REMARK    2  A    between atoms: N1_4  and  C4_6 
REMARK    3  A    between atoms: C6_10  and  O1_11 
ROOT
HETATM    1  C4  UNL     1      18.254  42.997  -1.460  1.00  0.00     0.133 C 
HETATM    2  C5  UNL     1      17.842  42.286  -2.729  1.00  0.00     0.121 C 
HETATM    3  S1  UNL     1      18.175  43.659  -3.916  1.00  0.00    -0.061 SA
HETATM    4  N2  UNL     1      18.236  44.979  -2.703  1.00  0.00    -0.145 NA
HETATM    5  C6  UNL     1      17.476  44.314  -1.627  1.00  0.00     0.243 C 
ENDROOT
BRANCH   1   6
HETATM    6  N1  UNL     1      17.877  42.413  -0.254  1.00  0.00    -0.409 N 
ATOM      7  H1  UNL     1      17.324  41.557  -0.269  1.00  0.00     0.154 HD
BRANCH   6   8
HETATM    8  C2  UNL     1      18.237  42.971   0.978  1.00  0.00     0.069 C 
HETATM    9  C1  UNL     1      17.910  42.180   2.202  1.00  0.00     0.031 C 
HETATM   10  C3  UNL     1      19.769  43.111   0.972  1.00  0.00     0.031 C 
ENDBRANCH   6   8
ENDBRANCH   1   6
BRANCH   5  11
HETATM   11  O1  UNL     1      16.171  44.063  -2.058  1.00  0.00    -0.377 OA
ATOM     12  H1  UNL     1      16.166  43.796  -2.970  1.00  0.00     0.211 HD
ENDBRANCH   5  11
TORSDOF 3
ENDMDL
MODEL 3
REMARK VINA RESULT: -4.946527313      2.514      4.021
REMARK  3 active torsions:
REMARK  status: ('A' for Active; 'I' for Inactive)
REMARK    1  A    between atoms: C2_2  and  N1_4 
REMARK    2  A    between atoms: N1_4  and  C4_6 
REMARK    3  A    between atoms: C6_10  and  O1_11 
ROOT
HETATM    1  C4  UNL     1      17.893  43.180  -0.677  1.00  0.00     0.133 C 
HETATM    2  C5  UNL     1      18.876  44.148  -0.060  1.00  0.00     0.121 C 
HETATM    3  S1  UNL     1      19.503  43.057   1.290  1.00  0.00    -0.061 SA
HETATM    4  N2  UNL     1      18.163  41.864   1.239  1.00  0.00    -0.145 NA
HETATM    5  C6  UNL     1      17.148  42.714   0.586  1.00  0.00     0.243 C 
ENDROOT
BRANCH   1   6
HETATM    6  N1  UNL     1      16.961  43.703  -1.570  1.00  0.00    -0.409 N 
ATOM      7  H1  UNL     1      16.200  44.280  -1.211  1.00  0.00     0.154 HD
BRANCH   6   8
HETATM    8  C2  UNL     1      17.042  43.459  -2.946  1.00  0.00     0.069 C 
HETATM    9  C1  UNL     1      17.974  44.321  -3.733  1.00  0.00     0.031 C 
HETATM   10  C3  UNL     1      17.564  42.023  -3.113  1.00  0.00     0.031 C 
ENDBRANCH   6   8
ENDBRANCH   1   6
BRANCH   5  11
HETATM   11  O1  UNL     1      16.845  43.802   1.407  1.00  0.00    -0.377 OA
ATOM     12  H1  UNL     1      16.388  44.475   0.917  1.00  0.00     0.211 HD
ENDBRANCH   5  11
TORSDOF 3
ENDMDL
MODEL 4
REMARK VINA RESULT: -4.739135195      2.671      4.123
REMARK  3 active torsions:
REMARK  status: ('A' for Active; 'I' for Inactive)
REMARK    1  A    between atoms: C2_2  and  N1_4 
REMARK    2  A    between atoms: N1_4  and  C4_6 
REMARK    3  A    between atoms: C6_10  and  O1_11 
ROOT
HETATM    1  C4  UNL     1      17.987  42.359   0.244  1.00  0.00     0.133 C 
HETATM    2  C5  UNL     1      18.739  43.668   0.318  1.00  0.00     0.121 C 
HETATM    3  S1  UNL     1      19.204  43.599   2.104  1.00  0.00    -0.061 SA
HETATM    4  N2  UNL     1      18.018  42.340   2.583  1.00  0.00    -0.145 NA
HETATM    5  C6  UNL     1      17.067  42.510   1.468  1.00  0.00     0.243 C 
ENDROOT
BRANCH   1   6
HETATM    6  N1  UNL     1      17.193  42.147  -0.880  1.00  0.00    -0.409 N 
ATOM      7  H1  UNL     1      16.305  41.657  -0.774  1.00  0.00     0.154 HD
BRANCH   6   8
HETATM    8  C2  UNL     1      17.582  42.588  -2.150  1.00  0.00     0.069 C 
HETATM    9  C1  UNL     1      17.629  41.564  -3.237  1.00  0.00     0.031 C 
HETATM   10  C3  UNL     1      16.538  43.623  -2.601  1.00  0.00     0.031 C 
ENDBRANCH   6   8
ENDBRANCH   1   6
BRANCH   5  11
HETATM   11  O1  UNL     1      16.512  43.791   1.512  1.00  0.00    -0.377 OA
ATOM     12  H1  UNL     1      15.920  43.873   2.250  1.00  0.00     0.211 HD
ENDBRANCH   5  11
TORSDOF 3
ENDMDL
MODEL 5
REMARK VINA RESULT: -4.701869045      2.441      4.033
REMARK  3 active torsions:
REMARK  status: ('A' for Active; 'I' for Inactive)
REMARK    1  A    between atoms: C2_2  and  N1_4 
REMARK    2  A    between atoms: N1_4  and  C4_6 
REMARK    3  A    between atoms: C6_10  and  O1_11 
ROOT
HETATM    1  C4  UNL     1      18.289  42.874  -1.146  1.00  0.00     0.133 C 
HETATM    2  C5  UNL     1      18.846  44.115  -0.485  1.00  0.00     0.121 C 
HETATM    3  S1  UNL     1      19.095  43.418   1.206  1.00  0.00    -0.061 SA
HETATM    4  N2  UNL     1      18.038  41.982   1.003  1.00  0.00    -0.145 NA
HETATM    5  C6  UNL     1      17.215  42.482  -0.116  1.00  0.00     0.243 C 
ENDROOT
BRANCH   1   6
HETATM    6  N1  UNL     1      17.672  43.037  -2.383  1.00  0.00    -0.409 N 
ATOM      7  H1  UNL     1      16.811  42.527  -2.579  1.00  0.00     0.154 HD
BRANCH   6   8
HETATM    8  C2  UNL     1      18.204  43.880  -3.366  1.00  0.00     0.069 C 
HETATM    9  C1  UNL     1      18.778  43.228  -4.581  1.00  0.00     0.031 C 
HETATM   10  C3  UNL     1      17.047  44.756  -3.874  1.00  0.00     0.031 C 
ENDBRANCH   6   8
ENDBRANCH   1   6
BRANCH   5  11
HETATM   11  O1  UNL     1      16.494  43.606   0.294  1.00  0.00    -0.377 OA
ATOM     12  H1  UNL     1      15.585  43.535   0.029  1.00  0.00     0.211 HD
ENDBRANCH   5  11
TORSDOF 3
ENDMDL
