MODEL 1
REMARK VINA RESULT: -8.993597673      0.000      0.000
REMARK  7 active torsions:
REMARK  status: ('A' for Active; 'I' for Inactive)
REMARK    1  A    between atoms: C2_2  and  C3_3 
REMARK    2  A    between atoms: C3_3  and  C4_4 
REMARK    3  A    between atoms: C4_4  and  C5_5 
REMARK    4  A    between atoms: C5_5  and  C6_6 
REMARK    5  A    between atoms: C6_6  and  S1_7 
REMARK    6  A    between atoms: S1_7  and  N1_10 
REMARK    7  A    between atoms: C14_20  and  C15_21 
ROOT
HETATM    1  N1  UNL     1      28.940  21.692  14.175  1.00  0.00    -0.295 N 
HETATM    2  C7  UNL     1      29.624  21.241  15.317  1.00  0.00     0.141 C 
HETATM    3  C8  UNL     1      28.688  20.440  16.233  1.00  0.00     0.020 C 
HETATM    4  C9  UNL     1      29.462  19.856  17.395  1.00  0.00     0.117 C 
HETATM    5  C10 UNL     1      28.520  19.050  18.191  1.00  0.00     0.259 C 
HETATM    6  O3  UNL     1      28.669  18.931  19.424  1.00  0.00    -0.265 OA
HETATM    7  O4  UNL     1      27.459  18.415  17.580  1.00  0.00    -0.321 OA
HETATM    8  C11 UNL     1      27.412  18.265  16.193  1.00  0.00     0.183 C 
HETATM    9  C12 UNL     1      28.115  19.307  15.407  1.00  0.00     0.018 C 
HETATM   10  C13 UNL     1      27.226  19.972  14.370  1.00  0.00     0.044 C 
HETATM   11  C14 UNL     1      28.129  20.803  13.447  1.00  0.00     0.197 C 
ENDROOT
BRANCH   1  12
HETATM   12  S1  UNL     1      29.576  23.031  13.350  1.00  0.00     0.229 S 
HETATM   13  O1  UNL     1      31.050  23.180  13.593  1.00  0.00    -0.206 OA
HETATM   14  O2  UNL     1      28.929  24.265  13.968  1.00  0.00    -0.206 OA
BRANCH  12  15
HETATM   15  C6  UNL     1      29.295  23.012  11.626  1.00  0.00     0.163 C 
BRANCH  15  16
HETATM   16  C5  UNL     1      30.552  22.767  10.877  1.00  0.00     0.017 C 
BRANCH  16  17
HETATM   17  C4  UNL     1      30.485  21.824   9.730  1.00  0.00     0.005 C 
BRANCH  17  18
HETATM   18  C3  UNL     1      31.438  22.187   8.602  1.00  0.00     0.026 C 
BRANCH  18  19
HETATM   19  C2  UNL     1      32.664  22.738   9.228  1.00  0.00    -0.037 C 
HETATM   20  C1  UNL     1      33.666  23.145   8.472  1.00  0.00     0.007 C 
ENDBRANCH  18  19
ENDBRANCH  17  18
ENDBRANCH  16  17
ENDBRANCH  15  16
ENDBRANCH  12  15
ENDBRANCH   1  12
BRANCH  11  21
HETATM   21  C15 UNL     1      28.940  19.829  12.692  1.00  0.00     0.197 C 
HETATM   22  O5  UNL     1      28.405  19.017  11.910  1.00  0.00    -0.646 OA
HETATM   23  O6  UNL     1      30.306  19.817  12.851  1.00  0.00    -0.646 OA
ENDBRANCH  11  21
TORSDOF 7
ENDMDL
MODEL 2
REMARK VINA RESULT: -8.990819351      2.203      3.634
REMARK  7 active torsions:
REMARK  status: ('A' for Active; 'I' for Inactive)
REMARK    1  A    between atoms: C2_2  and  C3_3 
REMARK    2  A    between atoms: C3_3  and  C4_4 
REMARK    3  A    between atoms: C4_4  and  C5_5 
REMARK    4  A    between atoms: C5_5  and  C6_6 
REMARK    5  A    between atoms: C6_6  and  S1_7 
REMARK    6  A    between atoms: S1_7  and  N1_10 
REMARK    7  A    between atoms: C14_20  and  C15_21 
ROOT
HETATM    1  N1  UNL     1      29.486  21.955  13.348  1.00  0.00    -0.295 N 
HETATM    2  C7  UNL     1      28.107  21.855  13.599  1.00  0.00     0.141 C 
HETATM    3  C8  UNL     1      27.758  20.481  14.187  1.00  0.00     0.020 C 
HETATM    4  C9  UNL     1      26.294  20.427  14.567  1.00  0.00     0.117 C 
HETATM    5  C10 UNL     1      26.046  19.113  15.184  1.00  0.00     0.259 C 
HETATM    6  O3  UNL     1      24.934  18.559  15.076  1.00  0.00    -0.265 OA
HETATM    7  O4  UNL     1      27.045  18.476  15.890  1.00  0.00    -0.321 OA
HETATM    8  C11 UNL     1      28.191  19.163  16.294  1.00  0.00     0.183 C 
HETATM    9  C12 UNL     1      28.596  20.304  15.437  1.00  0.00     0.018 C 
HETATM   10  C13 UNL     1      30.031  20.204  14.952  1.00  0.00     0.044 C 
HETATM   11  C14 UNL     1      30.408  21.558  14.334  1.00  0.00     0.197 C 
ENDROOT
BRANCH   1  12
HETATM   12  S1  UNL     1      30.001  23.098  12.205  1.00  0.00     0.229 S 
HETATM   13  O1  UNL     1      31.380  23.604  12.514  1.00  0.00    -0.206 OA
HETATM   14  O2  UNL     1      29.078  24.301  12.352  1.00  0.00    -0.206 OA
BRANCH  12  15
HETATM   15  C6  UNL     1      29.974  22.526  10.554  1.00  0.00     0.163 C 
BRANCH  15  16
HETATM   16  C5  UNL     1      29.787  21.056  10.496  1.00  0.00     0.017 C 
BRANCH  16  17
HETATM   17  C4  UNL     1      31.009  20.213  10.575  1.00  0.00     0.005 C 
BRANCH  17  18
HETATM   18  C3  UNL     1      30.873  19.052  11.549  1.00  0.00     0.026 C 
BRANCH  18  19
HETATM   19  C2  UNL     1      29.455  18.619  11.513  1.00  0.00    -0.037 C 
HETATM   20  C1  UNL     1      29.025  17.703  12.359  1.00  0.00     0.007 C 
ENDBRANCH  18  19
ENDBRANCH  17  18
ENDBRANCH  16  17
ENDBRANCH  15  16
ENDBRANCH  12  15
ENDBRANCH   1  12
BRANCH  11  21
HETATM   21  C15 UNL     1      30.446  22.517  15.453  1.00  0.00     0.197 C 
HETATM   22  O5  UNL     1      29.821  23.596  15.395  1.00  0.00    -0.646 OA
HETATM   23  O6  UNL     1      31.178  22.219  16.579  1.00  0.00    -0.646 OA
ENDBRANCH  11  21
TORSDOF 7
ENDMDL
MODEL 3
REMARK VINA RESULT: -8.745200306      1.874      2.826
REMARK  7 active torsions:
REMARK  status: ('A' for Active; 'I' for Inactive)
REMARK    1  A    between atoms: C2_2  and  C3_3 
REMARK    2  A    between atoms: C3_3  and  C4_4 
REMARK    3  A    between atoms: C4_4  and  C5_5 
REMARK    4  A    between atoms: C5_5  and  C6_6 
REMARK    5  A    between atoms: C6_6  and  S1_7 
REMARK    6  A    between atoms: S1_7  and  N1_10 
REMARK    7  A    between atoms: C14_20  and  C15_21 
ROOT
HETATM    1  N1  UNL     1      29.411  21.904  13.288  1.00  0.00    -0.295 N 
HETATM    2  C7  UNL     1      28.036  21.803  13.561  1.00  0.00     0.141 C 
HETATM    3  C8  UNL     1      27.697  20.429  14.155  1.00  0.00     0.020 C 
HETATM    4  C9  UNL     1      26.239  20.375  14.559  1.00  0.00     0.117 C 
HETATM    5  C10 UNL     1      26.003  19.060  15.179  1.00  0.00     0.259 C 
HETATM    6  O3  UNL     1      24.888  18.506  15.089  1.00  0.00    -0.265 OA
HETATM    7  O4  UNL     1      27.013  18.423  15.869  1.00  0.00    -0.321 OA
HETATM    8  C11 UNL     1      28.165  19.111  16.254  1.00  0.00     0.183 C 
HETATM    9  C12 UNL     1      28.555  20.252  15.391  1.00  0.00     0.018 C 
HETATM   10  C13 UNL     1      29.983  20.153  14.882  1.00  0.00     0.044 C 
HETATM   11  C14 UNL     1      30.349  21.507  14.258  1.00  0.00     0.197 C 
ENDROOT
BRANCH   1  12
HETATM   12  S1  UNL     1      29.906  23.047  12.137  1.00  0.00     0.229 S 
HETATM   13  O1  UNL     1      31.314  23.506  12.386  1.00  0.00    -0.206 OA
HETATM   14  O2  UNL     1      29.029  24.276  12.344  1.00  0.00    -0.206 OA
BRANCH  12  15
HETATM   15  C6  UNL     1      29.783  22.501  10.481  1.00  0.00     0.163 C 
BRANCH  15  16
HETATM   16  C5  UNL     1      30.324  21.129  10.325  1.00  0.00     0.017 C 
BRANCH  16  17
HETATM   17  C4  UNL     1      31.467  20.953   9.391  1.00  0.00     0.005 C 
BRANCH  17  18
HETATM   18  C3  UNL     1      31.517  22.014   8.301  1.00  0.00     0.026 C 
BRANCH  18  19
HETATM   19  C2  UNL     1      32.885  22.587   8.315  1.00  0.00    -0.037 C 
HETATM   20  C1  UNL     1      33.367  23.115   9.424  1.00  0.00     0.007 C 
ENDBRANCH  18  19
ENDBRANCH  17  18
ENDBRANCH  16  17
ENDBRANCH  15  16
ENDBRANCH  12  15
ENDBRANCH   1  12
BRANCH  11  21
HETATM   21  C15 UNL     1      30.404  22.466  15.377  1.00  0.00     0.197 C 
HETATM   22  O5  UNL     1      29.802  23.558  15.318  1.00  0.00    -0.646 OA
HETATM   23  O6  UNL     1      31.129  22.153  16.504  1.00  0.00    -0.646 OA
ENDBRANCH  11  21
TORSDOF 7
ENDMDL
MODEL 4
REMARK VINA RESULT: -8.678287016      3.152      5.909
REMARK  7 active torsions:
REMARK  status: ('A' for Active; 'I' for Inactive)
REMARK    1  A    between atoms: C2_2  and  C3_3 
REMARK    2  A    between atoms: C3_3  and  C4_4 
REMARK    3  A    between atoms: C4_4  and  C5_5 
REMARK    4  A    between atoms: C5_5  and  C6_6 
REMARK    5  A    between atoms: C6_6  and  S1_7 
REMARK    6  A    between atoms: S1_7  and  N1_10 
REMARK    7  A    between atoms: C14_20  and  C15_21 
ROOT
HETATM    1  N1  UNL     1      30.109  21.814  14.864  1.00  0.00    -0.295 N 
HETATM    2  C7  UNL     1      30.650  20.786  14.074  1.00  0.00     0.141 C 
HETATM    3  C8  UNL     1      29.538  19.917  13.471  1.00  0.00     0.020 C 
HETATM    4  C9  UNL     1      30.125  18.891  12.526  1.00  0.00     0.117 C 
HETATM    5  C10 UNL     1      29.003  18.142  11.936  1.00  0.00     0.259 C 
HETATM    6  O3  UNL     1      29.139  16.946  11.607  1.00  0.00    -0.265 OA
HETATM    7  O4  UNL     1      27.782  18.755  11.741  1.00  0.00    -0.321 OA
HETATM    8  C11 UNL     1      27.657  20.144  11.807  1.00  0.00     0.183 C 
HETATM    9  C12 UNL     1      28.625  20.839  12.689  1.00  0.00     0.018 C 
HETATM   10  C13 UNL     1      27.956  21.723  13.728  1.00  0.00     0.044 C 
HETATM   11  C14 UNL     1      29.046  22.592  14.370  1.00  0.00     0.197 C 
ENDROOT
BRANCH   1  12
HETATM   12  S1  UNL     1      31.102  22.505  16.052  1.00  0.00     0.229 S 
HETATM   13  O1  UNL     1      30.752  23.945  16.296  1.00  0.00    -0.206 OA
HETATM   14  O2  UNL     1      32.515  22.517  15.480  1.00  0.00    -0.206 OA
BRANCH  12  15
HETATM   15  C6  UNL     1      31.087  21.662  17.583  1.00  0.00     0.163 C 
BRANCH  15  16
HETATM   16  C5  UNL     1      30.349  20.379  17.484  1.00  0.00     0.017 C 
BRANCH  16  17
HETATM   17  C4  UNL     1      29.322  20.106  18.522  1.00  0.00     0.005 C 
BRANCH  17  18
HETATM   18  C3  UNL     1      28.310  19.051  18.099  1.00  0.00     0.026 C 
BRANCH  18  19
HETATM   19  C2  UNL     1      28.142  19.174  16.631  1.00  0.00    -0.037 C 
HETATM   20  C1  UNL     1      27.274  18.407  16.000  1.00  0.00     0.007 C 
ENDBRANCH  18  19
ENDBRANCH  17  18
ENDBRANCH  16  17
ENDBRANCH  15  16
ENDBRANCH  12  15
ENDBRANCH   1  12
BRANCH  11  21
HETATM   21  C15 UNL     1      29.501  23.515  13.313  1.00  0.00     0.197 C 
HETATM   22  O5  UNL     1      28.803  24.490  12.968  1.00  0.00    -0.646 OA
HETATM   23  O6  UNL     1      30.713  23.300  12.700  1.00  0.00    -0.646 OA
ENDBRANCH  11  21
TORSDOF 7
ENDMDL
MODEL 5
REMARK VINA RESULT: -8.633318040      1.396      2.929
REMARK  7 active torsions:
REMARK  status: ('A' for Active; 'I' for Inactive)
REMARK    1  A    between atoms: C2_2  and  C3_3 
REMARK    2  A    between atoms: C3_3  and  C4_4 
REMARK    3  A    between atoms: C4_4  and  C5_5 
REMARK    4  A    between atoms: C5_5  and  C6_6 
REMARK    5  A    between atoms: C6_6  and  S1_7 
REMARK    6  A    between atoms: S1_7  and  N1_10 
REMARK    7  A    between atoms: C14_20  and  C15_21 
ROOT
HETATM    1  N1  UNL     1      29.221  20.762  13.156  1.00  0.00    -0.295 N 
HETATM    2  C7  UNL     1      28.055  20.161  13.657  1.00  0.00     0.141 C 
HETATM    3  C8  UNL     1      28.335  19.455  14.991  1.00  0.00     0.020 C 
HETATM    4  C9  UNL     1      27.049  18.917  15.582  1.00  0.00     0.117 C 
HETATM    5  C10 UNL     1      27.381  18.315  16.885  1.00  0.00     0.259 C 
HETATM    6  O3  UNL     1      26.729  17.345  17.322  1.00  0.00    -0.265 OA
HETATM    7  O4  UNL     1      28.420  18.818  17.640  1.00  0.00    -0.321 OA
HETATM    8  C11 UNL     1      28.980  20.063  17.352  1.00  0.00     0.183 C 
HETATM    9  C12 UNL     1      28.911  20.491  15.934  1.00  0.00     0.018 C 
HETATM   10  C13 UNL     1      30.268  20.855  15.355  1.00  0.00     0.044 C 
HETATM   11  C14 UNL     1      30.027  21.545  14.005  1.00  0.00     0.197 C 
ENDROOT
BRANCH   1  12
HETATM   12  S1  UNL     1      29.296  21.078  11.491  1.00  0.00     0.229 S 
HETATM   13  O1  UNL     1      27.931  21.074  10.867  1.00  0.00    -0.206 OA
HETATM   14  O2  UNL     1      30.040  19.905  10.863  1.00  0.00    -0.206 OA
BRANCH  12  15
HETATM   15  C6  UNL     1      30.093  22.577  11.078  1.00  0.00     0.163 C 
BRANCH  15  16
HETATM   16  C5  UNL     1      30.669  22.523   9.712  1.00  0.00     0.017 C 
BRANCH  16  17
HETATM   17  C4  UNL     1      32.119  22.822   9.576  1.00  0.00     0.005 C 
BRANCH  17  18
HETATM   18  C3  UNL     1      32.740  22.212   8.328  1.00  0.00     0.026 C 
BRANCH  18  19
HETATM   19  C2  UNL     1      31.631  21.645   7.523  1.00  0.00    -0.037 C 
HETATM   20  C1  UNL     1      31.661  21.730   6.207  1.00  0.00     0.007 C 
ENDBRANCH  18  19
ENDBRANCH  17  18
ENDBRANCH  16  17
ENDBRANCH  15  16
ENDBRANCH  12  15
ENDBRANCH   1  12
BRANCH  11  21
HETATM   21  C15 UNL     1      29.383  22.834  14.319  1.00  0.00     0.197 C 
HETATM   22  O5  UNL     1      28.179  23.032  14.055  1.00  0.00    -0.646 OA
HETATM   23  O6  UNL     1      30.119  23.833  14.912  1.00  0.00    -0.646 OA
ENDBRANCH  11  21
TORSDOF 7
ENDMDL
