MODEL 1
REMARK VINA RESULT: -7.286133930      0.000      0.000
REMARK  8 active torsions:
REMARK  status: ('A' for Active; 'I' for Inactive)
REMARK    1  A    between atoms: C4_4  and  C5_5 
REMARK    2  A    between atoms: C5_5  and  O2_7 
REMARK    3  A    between atoms: O2_7  and  C6_8 
REMARK    4  A    between atoms: C6_8  and  C7_9 
REMARK       I    between atoms: C7_9  and  N1_11 
REMARK    5  A    between atoms: N1_11  and  C8_13 
REMARK    6  A    between atoms: C8_13  and  C10_15 
REMARK    7  A    between atoms: C10_15  and  O4_16 
REMARK    8  A    between atoms: C10_15  and  C11_18 
ROOT
HETATM    1  C7  UNL     1      36.085   1.109   9.166  1.00  0.00     0.242 C 
HETATM    2  O3  UNL     1      36.025   0.098   9.899  1.00  0.00    -0.271 OA
HETATM    3  N1  UNL     1      36.632   2.301   9.642  1.00  0.00    -0.352 N 
ATOM      4  H1  UNL     1      36.662   3.102   9.011  1.00  0.00     0.163 HD
ENDROOT
BRANCH   1   5
HETATM    5  C6  UNL     1      35.571   1.051   7.776  1.00  0.00     0.281 C 
BRANCH   5   6
HETATM    6  O2  UNL     1      34.233   0.536   7.757  1.00  0.00    -0.312 OA
BRANCH   6   7
HETATM    7  C5  UNL     1      33.174   1.372   8.077  1.00  0.00     0.266 C 
HETATM    8  O1  UNL     1      32.812   2.206   7.208  1.00  0.00    -0.265 OA
BRANCH   7   9
HETATM    9  C4  UNL     1      32.466   1.334   9.355  1.00  0.00     0.115 C 
HETATM   10  C3  UNL     1      33.048   2.301  10.337  1.00  0.00     0.024 C 
HETATM   11  C2  UNL     1      32.518   1.978  11.705  1.00  0.00     0.011 C 
HETATM   12  C1  UNL     1      31.308   2.793  12.048  1.00  0.00     0.012 C 
HETATM   13  C18 UNL     1      32.307   0.498  11.867  1.00  0.00     0.128 C 
HETATM   14  C17 UNL     1      31.276  -0.066  10.950  1.00  0.00     0.065 C 
HETATM   15  O5  UNL     1      33.289  -0.138  11.083  1.00  0.00    -0.379 OA
HETATM   16  C16 UNL     1      32.460  -0.037   9.992  1.00  0.00     0.138 C 
ENDBRANCH   7   9
ENDBRANCH   6   7
ENDBRANCH   5   6
ENDBRANCH   1   5
BRANCH   3  17
HETATM   17  C8  UNL     1      37.171   2.466  11.006  1.00  0.00     0.109 C 
HETATM   18  C9  UNL     1      36.892   3.874  11.391  1.00  0.00     0.035 C 
BRANCH  17  19
HETATM   19  C10 UNL     1      38.587   2.053  10.913  1.00  0.00     0.146 C 
BRANCH  19  20
HETATM   20  O4  UNL     1      38.691   0.669  11.130  1.00  0.00    -0.393 OA
ATOM     21  H4  UNL     1      39.606   0.414  11.133  1.00  0.00     0.210 HD
ENDBRANCH  19  20
BRANCH  19  22
HETATM   22  C11 UNL     1      39.385   2.432   9.752  1.00  0.00     0.046 C 
HETATM   23  C12 UNL     1      40.238   1.345   9.156  1.00  0.00     0.039 C 
HETATM   24  C13 UNL     1      41.181   2.140   8.278  1.00  0.00     0.272 C 
HETATM   25  N2  UNL     1      41.295   3.460   8.811  1.00  0.00     0.084 N 
HETATM   26  C14 UNL     1      41.174   4.511   7.844  1.00  0.00     0.309 C 
HETATM   27  C15 UNL     1      40.268   3.617   9.840  1.00  0.00     0.279 C 
ENDBRANCH  19  22
ENDBRANCH  17  19
ENDBRANCH   3  17
TORSDOF 8
ENDMDL
MODEL 2
REMARK VINA RESULT: -7.267423273      1.669      2.758
REMARK  8 active torsions:
REMARK  status: ('A' for Active; 'I' for Inactive)
REMARK    1  A    between atoms: C4_4  and  C5_5 
REMARK    2  A    between atoms: C5_5  and  O2_7 
REMARK    3  A    between atoms: O2_7  and  C6_8 
REMARK    4  A    between atoms: C6_8  and  C7_9 
REMARK       I    between atoms: C7_9  and  N1_11 
REMARK    5  A    between atoms: N1_11  and  C8_13 
REMARK    6  A    between atoms: C8_13  and  C10_15 
REMARK    7  A    between atoms: C10_15  and  O4_16 
REMARK    8  A    between atoms: C10_15  and  C11_18 
ROOT
HETATM    1  C7  UNL     1      36.613   2.401   7.090  1.00  0.00     0.242 C 
HETATM    2  O3  UNL     1      36.844   3.620   7.246  1.00  0.00    -0.271 OA
HETATM    3  N1  UNL     1      37.544   1.443   7.493  1.00  0.00    -0.352 N 
ATOM      4  H1  UNL     1      37.316   0.459   7.347  1.00  0.00     0.163 HD
ENDROOT
BRANCH   1   5
HETATM    5  C6  UNL     1      35.341   1.959   6.469  1.00  0.00     0.281 C 
BRANCH   5   6
HETATM    6  O2  UNL     1      34.562   1.201   7.405  1.00  0.00    -0.312 OA
BRANCH   6   7
HETATM    7  C5  UNL     1      33.331   1.684   7.819  1.00  0.00     0.266 C 
HETATM    8  O1  UNL     1      32.663   2.355   6.991  1.00  0.00    -0.265 OA
BRANCH   7   9
HETATM    9  C4  UNL     1      32.775   1.456   9.152  1.00  0.00     0.115 C 
HETATM   10  C3  UNL     1      33.192   2.523  10.114  1.00  0.00     0.024 C 
HETATM   11  C2  UNL     1      32.887   2.061  11.510  1.00  0.00     0.011 C 
HETATM   12  C1  UNL     1      31.551   2.549  11.985  1.00  0.00     0.012 C 
HETATM   13  C18 UNL     1      33.058   0.572  11.637  1.00  0.00     0.128 C 
HETATM   14  C17 UNL     1      32.115  -0.215  10.793  1.00  0.00     0.065 C 
HETATM   15  O5  UNL     1      34.089   0.208  10.748  1.00  0.00    -0.379 OA
HETATM   16  C16 UNL     1      33.162   0.116   9.737  1.00  0.00     0.138 C 
ENDBRANCH   7   9
ENDBRANCH   6   7
ENDBRANCH   5   6
ENDBRANCH   1   5
BRANCH   3  17
HETATM   17  C8  UNL     1      38.838   1.774   8.121  1.00  0.00     0.109 C 
HETATM   18  C9  UNL     1      39.864   0.991   7.385  1.00  0.00     0.035 C 
BRANCH  17  19
HETATM   19  C10 UNL     1      38.656   1.479   9.557  1.00  0.00     0.146 C 
BRANCH  19  20
HETATM   20  O4  UNL     1      39.819   0.877  10.068  1.00  0.00    -0.393 OA
ATOM     21  H4  UNL     1      39.652   0.551  10.944  1.00  0.00     0.210 HD
ENDBRANCH  19  20
BRANCH  19  22
HETATM   22  C11 UNL     1      38.202   2.525  10.467  1.00  0.00     0.046 C 
HETATM   23  C12 UNL     1      36.728   2.540  10.770  1.00  0.00     0.039 C 
HETATM   24  C13 UNL     1      36.554   3.913  11.382  1.00  0.00     0.272 C 
HETATM   25  N2  UNL     1      37.583   4.768  10.882  1.00  0.00     0.084 N 
HETATM   26  C14 UNL     1      38.249   5.553  11.879  1.00  0.00     0.309 C 
HETATM   27  C15 UNL     1      38.555   3.934  10.179  1.00  0.00     0.279 C 
ENDBRANCH  19  22
ENDBRANCH  17  19
ENDBRANCH   3  17
TORSDOF 8
ENDMDL
MODEL 3
REMARK VINA RESULT: -7.198261736      2.442      6.723
REMARK  8 active torsions:
REMARK  status: ('A' for Active; 'I' for Inactive)
REMARK    1  A    between atoms: C4_4  and  C5_5 
REMARK    2  A    between atoms: C5_5  and  O2_7 
REMARK    3  A    between atoms: O2_7  and  C6_8 
REMARK    4  A    between atoms: C6_8  and  C7_9 
REMARK       I    between atoms: C7_9  and  N1_11 
REMARK    5  A    between atoms: N1_11  and  C8_13 
REMARK    6  A    between atoms: C8_13  and  C10_15 
REMARK    7  A    between atoms: C10_15  and  O4_16 
REMARK    8  A    between atoms: C10_15  and  C11_18 
ROOT
HETATM    1  C7  UNL     1      37.360   1.075  10.787  1.00  0.00     0.242 C 
HETATM    2  O3  UNL     1      36.598   0.576  11.644  1.00  0.00    -0.271 OA
HETATM    3  N1  UNL     1      36.985   1.123   9.444  1.00  0.00    -0.352 N 
ATOM      4  H1  UNL     1      37.637   1.538   8.778  1.00  0.00     0.163 HD
ENDROOT
BRANCH   1   5
HETATM    5  C6  UNL     1      38.677   1.622  11.193  1.00  0.00     0.281 C 
BRANCH   5   6
HETATM    6  O2  UNL     1      38.601   3.046  11.353  1.00  0.00    -0.312 OA
BRANCH   6   7
HETATM    7  C5  UNL     1      39.123   3.873  10.370  1.00  0.00     0.266 C 
HETATM    8  O1  UNL     1      40.375   3.929  10.264  1.00  0.00    -0.265 OA
BRANCH   7   9
HETATM    9  C4  UNL     1      38.303   4.673   9.461  1.00  0.00     0.115 C 
HETATM   10  C3  UNL     1      36.870   4.699   9.888  1.00  0.00     0.024 C 
HETATM   11  C2  UNL     1      36.039   5.232   8.757  1.00  0.00     0.011 C 
HETATM   12  C1  UNL     1      35.807   6.708   8.875  1.00  0.00     0.012 C 
HETATM   13  C18 UNL     1      36.608   4.821   7.427  1.00  0.00     0.128 C 
HETATM   14  C17 UNL     1      37.964   5.376   7.156  1.00  0.00     0.065 C 
HETATM   15  O5  UNL     1      37.209   3.561   7.618  1.00  0.00    -0.379 OA
HETATM   16  C16 UNL     1      38.359   4.191   8.029  1.00  0.00     0.138 C 
ENDBRANCH   7   9
ENDBRANCH   6   7
ENDBRANCH   5   6
ENDBRANCH   1   5
BRANCH   3  17
HETATM   17  C8  UNL     1      35.699   0.608   8.935  1.00  0.00     0.109 C 
HETATM   18  C9  UNL     1      35.970   0.112   7.561  1.00  0.00     0.035 C 
BRANCH  17  19
HETATM   19  C10 UNL     1      34.750   1.731   9.079  1.00  0.00     0.146 C 
BRANCH  19  20
HETATM   20  O4  UNL     1      34.359   2.187   7.809  1.00  0.00    -0.393 OA
ATOM     21  H4  UNL     1      34.434   1.481   7.179  1.00  0.00     0.210 HD
ENDBRANCH  19  20
BRANCH  19  22
HETATM   22  C11 UNL     1      33.577   1.592   9.936  1.00  0.00     0.046 C 
HETATM   23  C12 UNL     1      33.518   2.511  11.126  1.00  0.00     0.039 C 
HETATM   24  C13 UNL     1      32.442   1.857  11.966  1.00  0.00     0.272 C 
HETATM   25  N2  UNL     1      32.397   0.466  11.647  1.00  0.00     0.084 N 
HETATM   26  C14 UNL     1      31.082  -0.058  11.424  1.00  0.00     0.309 C 
HETATM   27  C15 UNL     1      33.220   0.253  10.458  1.00  0.00     0.279 C 
ENDBRANCH  19  22
ENDBRANCH  17  19
ENDBRANCH   3  17
TORSDOF 8
ENDMDL
MODEL 4
REMARK VINA RESULT: -7.188611105      2.142      3.576
REMARK  8 active torsions:
REMARK  status: ('A' for Active; 'I' for Inactive)
REMARK    1  A    between atoms: C4_4  and  C5_5 
REMARK    2  A    between atoms: C5_5  and  O2_7 
REMARK    3  A    between atoms: O2_7  and  C6_8 
REMARK    4  A    between atoms: C6_8  and  C7_9 
REMARK       I    between atoms: C7_9  and  N1_11 
REMARK    5  A    between atoms: N1_11  and  C8_13 
REMARK    6  A    between atoms: C8_13  and  C10_15 
REMARK    7  A    between atoms: C10_15  and  O4_16 
REMARK    8  A    between atoms: C10_15  and  C11_18 
ROOT
HETATM    1  C7  UNL     1      38.617   3.939  11.000  1.00  0.00     0.242 C 
HETATM    2  O3  UNL     1      39.202   3.506  12.017  1.00  0.00    -0.271 OA
HETATM    3  N1  UNL     1      39.153   3.733   9.729  1.00  0.00    -0.352 N 
ATOM      4  H1  UNL     1      38.644   4.103   8.926  1.00  0.00     0.163 HD
ENDROOT
BRANCH   1   5
HETATM    5  C6  UNL     1      37.340   4.680  11.137  1.00  0.00     0.281 C 
BRANCH   5   6
HETATM    6  O2  UNL     1      36.242   3.767  11.277  1.00  0.00    -0.312 OA
BRANCH   6   7
HETATM    7  C5  UNL     1      35.481   3.436  10.166  1.00  0.00     0.266 C 
HETATM    8  O1  UNL     1      35.896   3.825   9.044  1.00  0.00    -0.265 OA
BRANCH   7   9
HETATM    9  C4  UNL     1      34.239   2.669  10.231  1.00  0.00     0.115 C 
HETATM   10  C3  UNL     1      33.871   2.331  11.641  1.00  0.00     0.024 C 
HETATM   11  C2  UNL     1      32.804   1.275  11.622  1.00  0.00     0.011 C 
HETATM   12  C1  UNL     1      31.428   1.863  11.703  1.00  0.00     0.012 C 
HETATM   13  C18 UNL     1      32.987   0.341  10.457  1.00  0.00     0.128 C 
HETATM   14  C17 UNL     1      32.848   1.004   9.129  1.00  0.00     0.065 C 
HETATM   15  O5  UNL     1      34.373   0.258  10.221  1.00  0.00    -0.379 OA
HETATM   16  C16 UNL     1      34.291   1.383   9.437  1.00  0.00     0.138 C 
ENDBRANCH   7   9
ENDBRANCH   6   7
ENDBRANCH   5   6
ENDBRANCH   1   5
BRANCH   3  17
HETATM   17  C8  UNL     1      40.416   3.010   9.481  1.00  0.00     0.109 C 
HETATM   18  C9  UNL     1      41.154   3.806   8.467  1.00  0.00     0.035 C 
BRANCH  17  19
HETATM   19  C10 UNL     1      40.008   1.640   9.107  1.00  0.00     0.146 C 
BRANCH  19  20
HETATM   20  O4  UNL     1      39.642   0.924  10.259  1.00  0.00    -0.393 OA
ATOM     21  H4  UNL     1      39.195   1.501  10.867  1.00  0.00     0.210 HD
ENDBRANCH  19  20
BRANCH  19  22
HETATM   22  C11 UNL     1      39.011   1.433   8.061  1.00  0.00     0.046 C 
HETATM   23  C12 UNL     1      37.722   0.791   8.497  1.00  0.00     0.039 C 
HETATM   24  C13 UNL     1      37.119   0.380   7.171  1.00  0.00     0.272 C 
HETATM   25  N2  UNL     1      38.176   0.197   6.228  1.00  0.00     0.084 N 
HETATM   26  C14 UNL     1      37.957   0.812   4.953  1.00  0.00     0.309 C 
HETATM   27  C15 UNL     1      39.403   0.720   6.824  1.00  0.00     0.279 C 
ENDBRANCH  19  22
ENDBRANCH  17  19
ENDBRANCH   3  17
TORSDOF 8
ENDMDL
MODEL 5
REMARK VINA RESULT: -7.113828268      1.313      1.531
REMARK  8 active torsions:
REMARK  status: ('A' for Active; 'I' for Inactive)
REMARK    1  A    between atoms: C4_4  and  C5_5 
REMARK    2  A    between atoms: C5_5  and  O2_7 
REMARK    3  A    between atoms: O2_7  and  C6_8 
REMARK    4  A    between atoms: C6_8  and  C7_9 
REMARK       I    between atoms: C7_9  and  N1_11 
REMARK    5  A    between atoms: N1_11  and  C8_13 
REMARK    6  A    between atoms: C8_13  and  C10_15 
REMARK    7  A    between atoms: C10_15  and  O4_16 
REMARK    8  A    between atoms: C10_15  and  C11_18 
ROOT
HETATM    1  C7  UNL     1      36.670   1.365   7.831  1.00  0.00     0.242 C 
HETATM    2  O3  UNL     1      36.650   0.118   7.752  1.00  0.00    -0.271 OA
HETATM    3  N1  UNL     1      37.310   2.001   8.895  1.00  0.00    -0.352 N 
ATOM      4  H1  UNL     1      37.303   3.020   8.922  1.00  0.00     0.163 HD
ENDROOT
BRANCH   1   5
HETATM    5  C6  UNL     1      36.009   2.187   6.788  1.00  0.00     0.281 C 
BRANCH   5   6
HETATM    6  O2  UNL     1      34.582   2.098   6.908  1.00  0.00    -0.312 OA
BRANCH   6   7
HETATM    7  C5  UNL     1      33.932   2.825   7.893  1.00  0.00     0.266 C 
HETATM    8  O1  UNL     1      33.952   4.079   7.795  1.00  0.00    -0.265 OA
BRANCH   7   9
HETATM    9  C4  UNL     1      33.234   2.218   9.025  1.00  0.00     0.115 C 
HETATM   10  C3  UNL     1      33.731   2.750  10.331  1.00  0.00     0.024 C 
HETATM   11  C2  UNL     1      33.236   1.862  11.435  1.00  0.00     0.011 C 
HETATM   12  C1  UNL     1      31.960   2.368  12.037  1.00  0.00     0.012 C 
HETATM   13  C18 UNL     1      33.155   0.430  10.982  1.00  0.00     0.128 C 
HETATM   14  C17 UNL     1      32.175   0.202   9.882  1.00  0.00     0.065 C 
HETATM   15  O5  UNL     1      34.188   0.246  10.041  1.00  0.00    -0.379 OA
HETATM   16  C16 UNL     1      33.350   0.711   9.056  1.00  0.00     0.138 C 
ENDBRANCH   7   9
ENDBRANCH   6   7
ENDBRANCH   5   6
ENDBRANCH   1   5
BRANCH   3  17
HETATM   17  C8  UNL     1      37.997   1.279   9.984  1.00  0.00     0.109 C 
HETATM   18  C9  UNL     1      37.228   1.571  11.221  1.00  0.00     0.035 C 
BRANCH  17  19
HETATM   19  C10 UNL     1      39.399   1.744   9.929  1.00  0.00     0.146 C 
BRANCH  19  20
HETATM   20  O4  UNL     1      40.259   0.639   9.810  1.00  0.00    -0.393 OA
ATOM     21  H4  UNL     1      40.556   0.370  10.671  1.00  0.00     0.210 HD
ENDBRANCH  19  20
BRANCH  19  22
HETATM   22  C11 UNL     1      39.790   2.778   8.977  1.00  0.00     0.046 C 
HETATM   23  C12 UNL     1      40.660   2.328   7.835  1.00  0.00     0.039 C 
HETATM   24  C13 UNL     1      41.178   3.647   7.304  1.00  0.00     0.272 C 
HETATM   25  N2  UNL     1      41.164   4.602   8.366  1.00  0.00     0.084 N 
HETATM   26  C14 UNL     1      40.603   5.875   8.022  1.00  0.00     0.309 C 
HETATM   27  C15 UNL     1      40.420   4.020   9.481  1.00  0.00     0.279 C 
ENDBRANCH  19  22
ENDBRANCH  17  19
ENDBRANCH   3  17
TORSDOF 8
ENDMDL
