MODEL 1
REMARK VINA RESULT: -9.139006900      0.000      0.000
REMARK  6 active torsions:
REMARK  status: ('A' for Active; 'I' for Inactive)
REMARK    1  A    between atoms: C7_7  and  N1_8 
REMARK    2  A    between atoms: N1_8  and  N2_10 
REMARK    3  A    between atoms: C8_11  and  C9_12 
REMARK    4  A    between atoms: C9_12  and  S1_13 
REMARK    5  A    between atoms: S1_13  and  C10_14 
REMARK    6  A    between atoms: C11_19  and  C12_20 
ROOT
HETATM    1  N2  UNL     1     -28.085  -4.084  -7.260  1.00  0.00    -0.218 N 
HETATM    2  C8  UNL     1     -27.284  -3.683  -8.303  1.00  0.00     0.130 A 
HETATM    3  N5  UNL     1     -26.901  -4.774  -8.950  1.00  0.00    -0.284 N 
ATOM      4  H5  UNL     1     -26.298  -4.796  -9.773  1.00  0.00     0.188 HD
HETATM    5  N6  UNL     1     -27.418  -5.815  -8.364  1.00  0.00    -0.273 N 
ATOM      6  H6  UNL     1     -27.284  -6.782  -8.658  1.00  0.00     0.189 HD
HETATM    7  C18 UNL     1     -28.170  -5.414  -7.295  1.00  0.00     0.213 A 
HETATM    8  S3  UNL     1     -28.951  -6.455  -6.283  1.00  0.00    -0.037 SA
ENDROOT
BRANCH   2   9
HETATM    9  C9  UNL     1     -26.935  -2.251  -8.628  1.00  0.00     0.161 C 
BRANCH   9  10
HETATM   10  S1  UNL     1     -27.421  -1.806 -10.312  1.00  0.00    -0.102 SA
BRANCH  10  11
HETATM   11  C10 UNL     1     -26.082  -1.123 -11.254  1.00  0.00     0.106 A 
HETATM   12  N3  UNL     1     -25.038  -0.582 -10.621  1.00  0.00    -0.292 N 
HETATM   13  N4  UNL     1     -24.026  -0.066 -11.272  1.00  0.00    -0.299 N 
ATOM     14  H3  UNL     1     -25.028  -0.570  -9.601  1.00  0.00     0.187 HD
HETATM   15  C11 UNL     1     -23.932  -0.028 -12.610  1.00  0.00     0.060 A 
ATOM     16  H4  UNL     1     -23.261   0.333 -10.728  1.00  0.00     0.187 HD
HETATM   17  C16 UNL     1     -24.989  -0.577 -13.303  1.00  0.00     0.058 A 
HETATM   18  C17 UNL     1     -26.078  -1.131 -12.628  1.00  0.00     0.071 A 
HETATM   19 CL1  UNL     1     -27.404  -1.821 -13.540  1.00  0.00    -0.081 Cl
BRANCH  15  20
HETATM   20  C12 UNL     1     -22.756   0.572 -13.295  1.00  0.00    -0.001 A 
HETATM   21  C13 UNL     1     -21.698  -0.156 -13.670  1.00  0.00     0.021 A 
HETATM   22  C14 UNL     1     -20.672   0.505 -14.290  1.00  0.00     0.050 A 
HETATM   23  S2  UNL     1     -21.217   2.118 -14.328  1.00  0.00    -0.113 SA
HETATM   24  C15 UNL     1     -22.725   1.914 -13.560  1.00  0.00     0.063 A 
ENDBRANCH  15  20
ENDBRANCH  10  11
ENDBRANCH   9  10
ENDBRANCH   2   9
BRANCH   1  25
HETATM   25  N1  UNL     1     -28.636  -3.209  -6.334  1.00  0.00    -0.321 N 
ATOM     26  H1  UNL     1     -29.344  -2.584  -6.721  1.00  0.00     0.181 HD
BRANCH  25  27
HETATM   27  C7  UNL     1     -28.393  -3.024  -4.945  1.00  0.00     0.103 C 
HETATM   28  C2  UNL     1     -29.357  -2.047  -4.354  1.00  0.00     0.006 C 
HETATM   29  C1  UNL     1     -29.564  -2.354  -2.848  1.00  0.00     0.012 C 
HETATM   30  C3  UNL     1     -28.939  -0.620  -4.376  1.00  0.00     0.006 C 
HETATM   31  C4  UNL     1     -27.876  -0.373  -5.389  1.00  0.00     0.001 C 
HETATM   32  C5  UNL     1     -26.682  -1.187  -5.001  1.00  0.00     0.002 C 
HETATM   33  C6  UNL     1     -26.949  -2.632  -4.743  1.00  0.00     0.027 C 
ENDBRANCH  25  27
ENDBRANCH   1  25
TORSDOF 6
ENDMDL
MODEL 2
REMARK VINA RESULT: -8.939382086      3.516      6.121
REMARK  6 active torsions:
REMARK  status: ('A' for Active; 'I' for Inactive)
REMARK    1  A    between atoms: C7_7  and  N1_8 
REMARK    2  A    between atoms: N1_8  and  N2_10 
REMARK    3  A    between atoms: C8_11  and  C9_12 
REMARK    4  A    between atoms: C9_12  and  S1_13 
REMARK    5  A    between atoms: S1_13  and  C10_14 
REMARK    6  A    between atoms: C11_19  and  C12_20 
ROOT
HETATM    1  N2  UNL     1     -28.316  -6.620  -4.780  1.00  0.00    -0.218 N 
HETATM    2  C8  UNL     1     -29.186  -5.648  -4.344  1.00  0.00     0.130 A 
HETATM    3  N5  UNL     1     -29.330  -5.801  -3.036  1.00  0.00    -0.284 N 
ATOM      4  H5  UNL     1     -29.916  -5.225  -2.431  1.00  0.00     0.188 HD
HETATM    5  N6  UNL     1     -28.601  -6.808  -2.647  1.00  0.00    -0.273 N 
ATOM      6  H6  UNL     1     -28.527  -7.144  -1.688  1.00  0.00     0.189 HD
HETATM    7  C18 UNL     1     -27.951  -7.346  -3.723  1.00  0.00     0.213 A 
HETATM    8  S3  UNL     1     -26.963  -8.664  -3.630  1.00  0.00    -0.037 SA
ENDROOT
BRANCH   2   9
HETATM    9  C9  UNL     1     -29.833  -4.606  -5.224  1.00  0.00     0.161 C 
BRANCH   9  10
HETATM   10  S1  UNL     1     -29.001  -3.005  -5.094  1.00  0.00    -0.102 SA
BRANCH  10  11
HETATM   11  C10 UNL     1     -28.232  -2.507  -6.613  1.00  0.00     0.106 A 
HETATM   12  N3  UNL     1     -28.451  -3.211  -7.726  1.00  0.00    -0.292 N 
HETATM   13  N4  UNL     1     -27.907  -2.883  -8.870  1.00  0.00    -0.299 N 
ATOM     14  H3  UNL     1     -29.061  -4.028  -7.684  1.00  0.00     0.187 HD
HETATM   15  C11 UNL     1     -27.092  -1.830  -9.042  1.00  0.00     0.060 A 
ATOM     16  H4  UNL     1     -28.115  -3.464  -9.683  1.00  0.00     0.187 HD
HETATM   17  C16 UNL     1     -26.839  -1.076  -7.918  1.00  0.00     0.058 A 
HETATM   18  C17 UNL     1     -27.409  -1.409  -6.688  1.00  0.00     0.071 A 
HETATM   19 CL1  UNL     1     -27.067  -0.428  -5.279  1.00  0.00    -0.081 Cl
BRANCH  15  20
HETATM   20  C12 UNL     1     -26.503  -1.506 -10.369  1.00  0.00    -0.001 A 
HETATM   21  C13 UNL     1     -27.256  -1.286 -11.452  1.00  0.00     0.021 A 
HETATM   22  C14 UNL     1     -26.603  -0.998 -12.621  1.00  0.00     0.050 A 
HETATM   23  S2  UNL     1     -24.961  -1.046 -12.168  1.00  0.00    -0.113 SA
HETATM   24  C15 UNL     1     -25.145  -1.427 -10.517  1.00  0.00     0.063 A 
ENDBRANCH  15  20
ENDBRANCH  10  11
ENDBRANCH   9  10
ENDBRANCH   2   9
BRANCH   1  25
HETATM   25  N1  UNL     1     -27.963  -6.794  -6.110  1.00  0.00    -0.321 N 
ATOM     26  H1  UNL     1     -27.025  -6.465  -6.339  1.00  0.00     0.181 HD
BRANCH  25  27
HETATM   27  C7  UNL     1     -28.670  -7.348  -7.213  1.00  0.00     0.103 C 
HETATM   28  C2  UNL     1     -29.193  -8.710  -6.890  1.00  0.00     0.006 C 
HETATM   29  C1  UNL     1     -30.464  -9.001  -7.728  1.00  0.00     0.012 C 
HETATM   30  C3  UNL     1     -28.289  -9.849  -7.202  1.00  0.00     0.006 C 
HETATM   31  C4  UNL     1     -26.872  -9.409  -7.330  1.00  0.00     0.001 C 
HETATM   32  C5  UNL     1     -26.799  -8.448  -8.475  1.00  0.00     0.002 C 
HETATM   33  C6  UNL     1     -27.781  -7.325  -8.433  1.00  0.00     0.027 C 
ENDBRANCH  25  27
ENDBRANCH   1  25
TORSDOF 6
ENDMDL
MODEL 3
REMARK VINA RESULT: -8.766490599      1.803      3.166
REMARK  6 active torsions:
REMARK  status: ('A' for Active; 'I' for Inactive)
REMARK    1  A    between atoms: C7_7  and  N1_8 
REMARK    2  A    between atoms: N1_8  and  N2_10 
REMARK    3  A    between atoms: C8_11  and  C9_12 
REMARK    4  A    between atoms: C9_12  and  S1_13 
REMARK    5  A    between atoms: S1_13  and  C10_14 
REMARK    6  A    between atoms: C11_19  and  C12_20 
ROOT
HETATM    1  N2  UNL     1     -27.883  -2.427  -6.477  1.00  0.00    -0.218 N 
HETATM    2  C8  UNL     1     -27.262  -1.866  -7.569  1.00  0.00     0.130 A 
HETATM    3  N5  UNL     1     -27.043  -0.589  -7.288  1.00  0.00    -0.284 N 
ATOM      4  H5  UNL     1     -26.595   0.085  -7.907  1.00  0.00     0.188 HD
HETATM    5  N6  UNL     1     -27.494  -0.338  -6.093  1.00  0.00    -0.273 N 
ATOM      6  H6  UNL     1     -27.453   0.569  -5.629  1.00  0.00     0.189 HD
HETATM    7  C18 UNL     1     -28.030  -1.474  -5.556  1.00  0.00     0.213 A 
HETATM    8  S3  UNL     1     -28.736  -1.538  -4.067  1.00  0.00    -0.037 SA
ENDROOT
BRANCH   2   9
HETATM    9  C9  UNL     1     -26.902  -2.604  -8.835  1.00  0.00     0.161 C 
BRANCH   9  10
HETATM   10  S1  UNL     1     -27.442  -1.710 -10.311  1.00  0.00    -0.102 SA
BRANCH  10  11
HETATM   11  C10 UNL     1     -26.087  -1.061 -11.254  1.00  0.00     0.106 A 
HETATM   12  N3  UNL     1     -25.037  -0.530 -10.621  1.00  0.00    -0.292 N 
HETATM   13  N4  UNL     1     -24.013  -0.040 -11.272  1.00  0.00    -0.299 N 
ATOM     14  H3  UNL     1     -25.032  -0.507  -9.601  1.00  0.00     0.187 HD
HETATM   15  C11 UNL     1     -23.912  -0.019 -12.611  1.00  0.00     0.060 A 
ATOM     16  H4  UNL     1     -23.244   0.352 -10.729  1.00  0.00     0.187 HD
HETATM   17  C16 UNL     1     -24.974  -0.557 -13.303  1.00  0.00     0.058 A 
HETATM   18  C17 UNL     1     -26.076  -1.085 -12.628  1.00  0.00     0.071 A 
HETATM   19 CL1  UNL     1     -27.409  -1.762 -13.538  1.00  0.00    -0.081 Cl
BRANCH  15  20
HETATM   20  C12 UNL     1     -22.721   0.553 -13.296  1.00  0.00    -0.001 A 
HETATM   21  C13 UNL     1     -21.665  -0.193 -13.637  1.00  0.00     0.021 A 
HETATM   22  C14 UNL     1     -20.625   0.443 -14.262  1.00  0.00     0.050 A 
HETATM   23  S2  UNL     1     -21.157   2.058 -14.351  1.00  0.00    -0.113 SA
HETATM   24  C15 UNL     1     -22.676   1.887 -13.597  1.00  0.00     0.063 A 
ENDBRANCH  15  20
ENDBRANCH  10  11
ENDBRANCH   9  10
ENDBRANCH   2   9
BRANCH   1  25
HETATM   25  N1  UNL     1     -28.307  -3.747  -6.428  1.00  0.00    -0.321 N 
ATOM     26  H1  UNL     1     -27.636  -4.415  -6.809  1.00  0.00     0.181 HD
BRANCH  25  27
HETATM   27  C7  UNL     1     -29.505  -4.340  -5.944  1.00  0.00     0.103 C 
HETATM   28  C2  UNL     1     -29.228  -5.265  -4.804  1.00  0.00     0.006 C 
HETATM   29  C1  UNL     1     -30.468  -5.347  -3.876  1.00  0.00     0.012 C 
HETATM   30  C3  UNL     1     -28.952  -6.681  -5.162  1.00  0.00     0.006 C 
HETATM   31  C4  UNL     1     -28.538  -6.819  -6.585  1.00  0.00     0.001 C 
HETATM   32  C5  UNL     1     -29.678  -6.353  -7.435  1.00  0.00     0.002 C 
HETATM   33  C6  UNL     1     -30.226  -5.008  -7.091  1.00  0.00     0.027 C 
ENDBRANCH  25  27
ENDBRANCH   1  25
TORSDOF 6
ENDMDL
MODEL 4
REMARK VINA RESULT: -8.734664518      3.558      6.443
REMARK  6 active torsions:
REMARK  status: ('A' for Active; 'I' for Inactive)
REMARK    1  A    between atoms: C7_7  and  N1_8 
REMARK    2  A    between atoms: N1_8  and  N2_10 
REMARK    3  A    between atoms: C8_11  and  C9_12 
REMARK    4  A    between atoms: C9_12  and  S1_13 
REMARK    5  A    between atoms: S1_13  and  C10_14 
REMARK    6  A    between atoms: C11_19  and  C12_20 
ROOT
HETATM    1  N2  UNL     1     -28.264  -7.096  -4.767  1.00  0.00    -0.218 N 
HETATM    2  C8  UNL     1     -29.115  -6.056  -4.471  1.00  0.00     0.130 A 
HETATM    3  N5  UNL     1     -29.131  -5.920  -3.153  1.00  0.00    -0.284 N 
ATOM      4  H5  UNL     1     -29.671  -5.229  -2.634  1.00  0.00     0.188 HD
HETATM    5  N6  UNL     1     -28.343  -6.814  -2.628  1.00  0.00    -0.273 N 
ATOM      6  H6  UNL     1     -28.170  -6.931  -1.630  1.00  0.00     0.189 HD
HETATM    7  C18 UNL     1     -27.782  -7.571  -3.619  1.00  0.00     0.213 A 
HETATM    8  S3  UNL     1     -26.757  -8.832  -3.338  1.00  0.00    -0.037 SA
ENDROOT
BRANCH   2   9
HETATM    9  C9  UNL     1     -29.868  -5.236  -5.490  1.00  0.00     0.161 C 
BRANCH   9  10
HETATM   10  S1  UNL     1     -29.513  -3.470  -5.326  1.00  0.00    -0.102 SA
BRANCH  10  11
HETATM   11  C10 UNL     1     -28.614  -2.820  -6.710  1.00  0.00     0.106 A 
HETATM   12  N3  UNL     1     -28.710  -3.420  -7.899  1.00  0.00    -0.292 N 
HETATM   13  N4  UNL     1     -28.066  -2.978  -8.950  1.00  0.00    -0.299 N 
ATOM     14  H3  UNL     1     -29.301  -4.246  -7.992  1.00  0.00     0.187 HD
HETATM   15  C11 UNL     1     -27.263  -1.902  -8.943  1.00  0.00     0.060 A 
ATOM     16  H4  UNL     1     -28.181  -3.482  -9.829  1.00  0.00     0.187 HD
HETATM   17  C16 UNL     1     -27.137  -1.253  -7.735  1.00  0.00     0.058 A 
HETATM   18  C17 UNL     1     -27.813  -1.709  -6.603  1.00  0.00     0.071 A 
HETATM   19 CL1  UNL     1     -27.631  -0.860  -5.082  1.00  0.00    -0.081 Cl
BRANCH  15  20
HETATM   20  C12 UNL     1     -26.557  -1.446 -10.171  1.00  0.00    -0.001 A 
HETATM   21  C13 UNL     1     -27.204  -1.166 -11.307  1.00  0.00     0.021 A 
HETATM   22  C14 UNL     1     -26.450  -0.758 -12.374  1.00  0.00     0.050 A 
HETATM   23  S2  UNL     1     -24.863  -0.779 -11.755  1.00  0.00    -0.113 SA
HETATM   24  C15 UNL     1     -25.196  -1.302 -10.168  1.00  0.00     0.063 A 
ENDBRANCH  15  20
ENDBRANCH  10  11
ENDBRANCH   9  10
ENDBRANCH   2   9
BRANCH   1  25
HETATM   25  N1  UNL     1     -28.033  -7.556  -6.056  1.00  0.00    -0.321 N 
ATOM     26  H1  UNL     1     -27.917  -6.816  -6.748  1.00  0.00     0.181 HD
BRANCH  25  27
HETATM   27  C7  UNL     1     -27.929  -8.871  -6.587  1.00  0.00     0.103 C 
HETATM   28  C2  UNL     1     -27.820  -8.845  -8.077  1.00  0.00     0.006 C 
HETATM   29  C1  UNL     1     -27.043 -10.092  -8.573  1.00  0.00     0.012 C 
HETATM   30  C3  UNL     1     -29.102  -8.898  -8.828  1.00  0.00     0.006 C 
HETATM   31  C4  UNL     1     -30.255  -8.494  -7.978  1.00  0.00     0.001 C 
HETATM   32  C5  UNL     1     -30.353  -9.472  -6.851  1.00  0.00     0.002 C 
HETATM   33  C6  UNL     1     -29.090  -9.700  -6.089  1.00  0.00     0.027 C 
ENDBRANCH  25  27
ENDBRANCH   1  25
TORSDOF 6
ENDMDL
MODEL 5
REMARK VINA RESULT: -8.606348323      6.754     13.177
REMARK  6 active torsions:
REMARK  status: ('A' for Active; 'I' for Inactive)
REMARK    1  A    between atoms: C7_7  and  N1_8 
REMARK    2  A    between atoms: N1_8  and  N2_10 
REMARK    3  A    between atoms: C8_11  and  C9_12 
REMARK    4  A    between atoms: C9_12  and  S1_13 
REMARK    5  A    between atoms: S1_13  and  C10_14 
REMARK    6  A    between atoms: C11_19  and  C12_20 
ROOT
HETATM    1  N2  UNL     1     -15.440   3.159 -15.586  1.00  0.00    -0.218 N 
HETATM    2  C8  UNL     1     -16.586   3.855 -15.279  1.00  0.00     0.130 A 
HETATM    3  N5  UNL     1     -16.494   5.045 -15.856  1.00  0.00    -0.284 N 
ATOM      4  H5  UNL     1     -17.195   5.783 -15.807  1.00  0.00     0.188 HD
HETATM    5  N6  UNL     1     -15.363   5.116 -16.496  1.00  0.00    -0.273 N 
ATOM      6  H6  UNL     1     -15.039   5.923 -17.028  1.00  0.00     0.189 HD
HETATM    7  C18 UNL     1     -14.675   3.944 -16.345  1.00  0.00     0.213 A 
HETATM    8  S3  UNL     1     -13.178   3.673 -16.981  1.00  0.00    -0.037 SA
ENDROOT
BRANCH   2   9
HETATM    9  C9  UNL     1     -17.724   3.325 -14.441  1.00  0.00     0.161 C 
BRANCH   9  10
HETATM   10  S1  UNL     1     -19.320   3.528 -15.269  1.00  0.00    -0.102 SA
BRANCH  10  11
HETATM   11  C10 UNL     1     -20.574   2.459 -14.612  1.00  0.00     0.106 A 
HETATM   12  N3  UNL     1     -21.706   2.985 -14.137  1.00  0.00    -0.292 N 
HETATM   13  N4  UNL     1     -22.661   2.238 -13.642  1.00  0.00    -0.299 N 
ATOM     14  H3  UNL     1     -21.831   3.997 -14.160  1.00  0.00     0.187 HD
HETATM   15  C11 UNL     1     -22.605   0.899 -13.563  1.00  0.00     0.060 A 
ATOM     16  H4  UNL     1     -23.500   2.702 -13.295  1.00  0.00     0.187 HD
HETATM   17  C16 UNL     1     -21.452   0.316 -14.043  1.00  0.00     0.058 A 
HETATM   18  C17 UNL     1     -20.423   1.094 -14.573  1.00  0.00     0.071 A 
HETATM   19 CL1  UNL     1     -18.972   0.321 -15.175  1.00  0.00    -0.081 Cl
BRANCH  15  20
HETATM   20  C12 UNL     1     -23.723   0.103 -12.991  1.00  0.00    -0.001 A 
HETATM   21  C13 UNL     1     -24.413  -0.785 -13.715  1.00  0.00     0.021 A 
HETATM   22  C14 UNL     1     -25.423  -1.459 -13.082  1.00  0.00     0.050 A 
HETATM   23  S2  UNL     1     -25.376  -0.830 -11.500  1.00  0.00    -0.113 SA
HETATM   24  C15 UNL     1     -24.083   0.265 -11.681  1.00  0.00     0.063 A 
ENDBRANCH  15  20
ENDBRANCH  10  11
ENDBRANCH   9  10
ENDBRANCH   2   9
BRANCH   1  25
HETATM   25  N1  UNL     1     -15.166   1.884 -15.113  1.00  0.00    -0.321 N 
ATOM     26  H1  UNL     1     -15.610   1.137 -15.647  1.00  0.00     0.181 HD
BRANCH  25  27
HETATM   27  C7  UNL     1     -14.379   1.428 -14.020  1.00  0.00     0.103 C 
HETATM   28  C2  UNL     1     -13.284   0.523 -14.483  1.00  0.00     0.006 C 
HETATM   29  C1  UNL     1     -12.087   0.595 -13.501  1.00  0.00     0.012 C 
HETATM   30  C3  UNL     1     -13.614  -0.926 -14.542  1.00  0.00     0.006 C 
HETATM   31  C4  UNL     1     -15.084  -1.154 -14.587  1.00  0.00     0.001 C 
HETATM   32  C5  UNL     1     -15.667  -0.611 -13.321  1.00  0.00     0.002 C 
HETATM   33  C6  UNL     1     -15.282   0.793 -12.990  1.00  0.00     0.027 C 
ENDBRANCH  25  27
ENDBRANCH   1  25
TORSDOF 6
ENDMDL
