MODEL 1
REMARK VINA RESULT: -8.496829194      0.000      0.000
REMARK  6 active torsions:
REMARK  status: ('A' for Active; 'I' for Inactive)
REMARK    1  A    between atoms: C2_2  and  O1_3 
REMARK    2  A    between atoms: O1_3  and  C3_4 
REMARK       I    between atoms: C3_4  and  N1_6 
REMARK    3  A    between atoms: N1_6  and  C4_8 
REMARK    4  A    between atoms: C4_8  and  C5_9 
REMARK    5  A    between atoms: C4_8  and  C10_20 
REMARK       I    between atoms: C5_9  and  N2_11 
REMARK    6  A    between atoms: N2_11  and  C6_13 
ROOT
HETATM    1  C4  UNL     1      34.288 -20.487  57.610  1.00  0.00     0.187 C 
ENDROOT
BRANCH   1   2
HETATM    2  N1  UNL     1      34.503 -21.165  56.314  1.00  0.00    -0.323 N 
HETATM    3  C3  UNL     1      35.321 -20.770  55.259  1.00  0.00     0.361 C 
HETATM    4  O2  UNL     1      36.051 -19.752  55.159  1.00  0.00    -0.238 OA
ATOM      5  H1  UNL     1      33.985 -22.033  56.176  1.00  0.00     0.165 HD
BRANCH   3   6
HETATM    6  O1  UNL     1      35.342 -21.635  54.121  1.00  0.00    -0.304 OA
BRANCH   6   7
HETATM    7  C2  UNL     1      34.821 -22.962  54.258  1.00  0.00     0.176 C 
HETATM    8  C1  UNL     1      34.382 -23.488  52.915  1.00  0.00     0.034 C 
ENDBRANCH   6   7
ENDBRANCH   3   6
ENDBRANCH   1   2
BRANCH   1   9
HETATM    9  C5  UNL     1      33.334 -19.397  57.486  1.00  0.00     0.241 C 
HETATM   10  O3  UNL     1      33.585 -18.181  57.775  1.00  0.00    -0.271 OA
HETATM   11  N2  UNL     1      32.014 -19.591  57.033  1.00  0.00    -0.354 N 
ATOM     12  H2  UNL     1      31.707 -20.533  56.791  1.00  0.00     0.162 HD
BRANCH  11  13
HETATM   13  C6  UNL     1      31.067 -18.477  56.900  1.00  0.00     0.099 C 
HETATM   14  C7  UNL     1      30.061 -18.502  57.999  1.00  0.00     0.041 C 
HETATM   15  C8  UNL     1      29.210 -17.272  57.755  1.00  0.00     0.142 C 
HETATM   16  S1  UNL     1      28.948 -17.420  55.980  1.00  0.00     0.146 S 
HETATM   17  O4  UNL     1      27.707 -18.179  55.684  1.00  0.00    -0.228 OA
HETATM   18  O5  UNL     1      29.043 -16.105  55.308  1.00  0.00    -0.228 OA
HETATM   19  C9  UNL     1      30.347 -18.483  55.584  1.00  0.00     0.165 C 
ENDBRANCH  11  13
ENDBRANCH   1   9
BRANCH   1  20
HETATM   20  C10 UNL     1      34.176 -21.491  58.690  1.00  0.00    -0.010 C 
HETATM   21  C11 UNL     1      33.181 -22.552  58.402  1.00  0.00     0.016 C 
HETATM   22  C12 UNL     1      32.937 -23.428  59.632  1.00  0.00    -0.013 C 
HETATM   23  C13 UNL     1      32.424 -22.586  60.778  1.00  0.00     0.009 C 
HETATM   24  C17 UNL     1      34.210 -24.083  60.049  1.00  0.00     0.009 C 
HETATM   25  C14 UNL     1      33.480 -21.559  61.115  1.00  0.00    -0.013 C 
HETATM   26  C15 UNL     1      34.778 -22.212  61.506  1.00  0.00     0.009 C 
HETATM   27  C19 UNL     1      33.705 -20.679  59.932  1.00  0.00     0.016 C 
HETATM   28  C16 UNL     1      35.226 -23.023  60.303  1.00  0.00    -0.013 C 
HETATM   29  C18 UNL     1      35.479 -22.114  59.109  1.00  0.00     0.016 C 
ENDBRANCH   1  20
TORSDOF 6
ENDMDL
MODEL 2
REMARK VINA RESULT: -8.460638904      0.284      1.451
REMARK  6 active torsions:
REMARK  status: ('A' for Active; 'I' for Inactive)
REMARK    1  A    between atoms: C2_2  and  O1_3 
REMARK    2  A    between atoms: O1_3  and  C3_4 
REMARK       I    between atoms: C3_4  and  N1_6 
REMARK    3  A    between atoms: N1_6  and  C4_8 
REMARK    4  A    between atoms: C4_8  and  C5_9 
REMARK    5  A    between atoms: C4_8  and  C10_20 
REMARK       I    between atoms: C5_9  and  N2_11 
REMARK    6  A    between atoms: N2_11  and  C6_13 
ROOT
HETATM    1  C4  UNL     1      34.326 -20.365  57.655  1.00  0.00     0.187 C 
ENDROOT
BRANCH   1   2
HETATM    2  N1  UNL     1      34.524 -21.050  56.359  1.00  0.00    -0.323 N 
HETATM    3  C3  UNL     1      35.300 -20.642  55.277  1.00  0.00     0.361 C 
HETATM    4  O2  UNL     1      35.998 -19.605  55.147  1.00  0.00    -0.238 OA
ATOM      5  H1  UNL     1      34.028 -21.933  56.244  1.00  0.00     0.165 HD
BRANCH   3   6
HETATM    6  O1  UNL     1      35.314 -21.517  54.148  1.00  0.00    -0.304 OA
BRANCH   6   7
HETATM    7  C2  UNL     1      34.821 -22.852  54.308  1.00  0.00     0.176 C 
HETATM    8  C1  UNL     1      34.427 -23.423  52.969  1.00  0.00     0.034 C 
ENDBRANCH   6   7
ENDBRANCH   3   6
ENDBRANCH   1   2
BRANCH   1   9
HETATM    9  C5  UNL     1      33.338 -19.305  57.548  1.00  0.00     0.241 C 
HETATM   10  O3  UNL     1      33.525 -18.101  57.922  1.00  0.00    -0.271 OA
HETATM   11  N2  UNL     1      32.049 -19.518  57.018  1.00  0.00    -0.354 N 
ATOM     12  H2  UNL     1      31.792 -20.454  56.704  1.00  0.00     0.162 HD
BRANCH  11  13
HETATM   13  C6  UNL     1      31.067 -18.433  56.904  1.00  0.00     0.099 C 
HETATM   14  C7  UNL     1      30.054 -18.519  57.993  1.00  0.00     0.041 C 
HETATM   15  C8  UNL     1      29.164 -17.312  57.772  1.00  0.00     0.142 C 
HETATM   16  S1  UNL     1      28.922 -17.424  55.991  1.00  0.00     0.146 S 
HETATM   17  O4  UNL     1      27.709 -18.216  55.665  1.00  0.00    -0.228 OA
HETATM   18  O5  UNL     1      28.978 -16.090  55.353  1.00  0.00    -0.228 OA
HETATM   19  C9  UNL     1      30.358 -18.430  55.581  1.00  0.00     0.165 C 
ENDBRANCH  11  13
ENDBRANCH   1   9
BRANCH   1  20
HETATM   20  C10 UNL     1      34.275 -21.362  58.746  1.00  0.00    -0.010 C 
HETATM   21  C11 UNL     1      35.589 -21.982  59.036  1.00  0.00     0.016 C 
HETATM   22  C12 UNL     1      35.443 -23.158  60.004  1.00  0.00    -0.013 C 
HETATM   23  C13 UNL     1      34.534 -24.211  59.410  1.00  0.00     0.009 C 
HETATM   24  C17 UNL     1      34.856 -22.686  61.291  1.00  0.00     0.009 C 
HETATM   25  C14 UNL     1      33.174 -23.589  59.194  1.00  0.00    -0.013 C 
HETATM   26  C15 UNL     1      32.589 -23.081  60.483  1.00  0.00     0.009 C 
HETATM   27  C19 UNL     1      33.299 -22.459  58.228  1.00  0.00     0.016 C 
HETATM   28  C16 UNL     1      33.551 -22.026  61.001  1.00  0.00    -0.013 C 
HETATM   29  C18 UNL     1      33.652 -20.866  60.023  1.00  0.00     0.016 C 
ENDBRANCH   1  20
TORSDOF 6
ENDMDL
MODEL 3
REMARK VINA RESULT: -8.452408861      0.323      1.431
REMARK  6 active torsions:
REMARK  status: ('A' for Active; 'I' for Inactive)
REMARK    1  A    between atoms: C2_2  and  O1_3 
REMARK    2  A    between atoms: O1_3  and  C3_4 
REMARK       I    between atoms: C3_4  and  N1_6 
REMARK    3  A    between atoms: N1_6  and  C4_8 
REMARK    4  A    between atoms: C4_8  and  C5_9 
REMARK    5  A    between atoms: C4_8  and  C10_20 
REMARK       I    between atoms: C5_9  and  N2_11 
REMARK    6  A    between atoms: N2_11  and  C6_13 
ROOT
HETATM    1  C4  UNL     1      34.282 -20.483  57.668  1.00  0.00     0.187 C 
ENDROOT
BRANCH   1   2
HETATM    2  N1  UNL     1      34.521 -21.152  56.371  1.00  0.00    -0.323 N 
HETATM    3  C3  UNL     1      35.309 -20.717  55.309  1.00  0.00     0.361 C 
HETATM    4  O2  UNL     1      35.986 -19.664  55.202  1.00  0.00    -0.238 OA
ATOM      5  H1  UNL     1      34.047 -22.045  56.238  1.00  0.00     0.165 HD
BRANCH   3   6
HETATM    6  O1  UNL     1      35.365 -21.582  54.172  1.00  0.00    -0.304 OA
BRANCH   6   7
HETATM    7  C2  UNL     1      34.909 -22.932  54.314  1.00  0.00     0.176 C 
HETATM    8  C1  UNL     1      34.275 -23.402  53.029  1.00  0.00     0.034 C 
ENDBRANCH   6   7
ENDBRANCH   3   6
ENDBRANCH   1   2
BRANCH   1   9
HETATM    9  C5  UNL     1      33.312 -19.407  57.539  1.00  0.00     0.241 C 
HETATM   10  O3  UNL     1      33.525 -18.198  57.880  1.00  0.00    -0.271 OA
HETATM   11  N2  UNL     1      32.017 -19.610  57.022  1.00  0.00    -0.354 N 
ATOM     12  H2  UNL     1      31.740 -20.549  56.734  1.00  0.00     0.162 HD
BRANCH  11  13
HETATM   13  C6  UNL     1      31.055 -18.510  56.885  1.00  0.00     0.099 C 
HETATM   14  C7  UNL     1      30.032 -18.563  57.966  1.00  0.00     0.041 C 
HETATM   15  C8  UNL     1      29.165 -17.344  57.721  1.00  0.00     0.142 C 
HETATM   16  S1  UNL     1      28.935 -17.477  55.940  1.00  0.00     0.146 S 
HETATM   17  O4  UNL     1      27.711 -18.252  55.615  1.00  0.00    -0.228 OA
HETATM   18  O5  UNL     1      29.019 -16.153  55.284  1.00  0.00    -0.228 OA
HETATM   19  C9  UNL     1      30.357 -18.513  55.556  1.00  0.00     0.165 C 
ENDBRANCH  11  13
ENDBRANCH   1   9
BRANCH   1  20
HETATM   20  C10 UNL     1      34.174 -21.494  58.742  1.00  0.00    -0.010 C 
HETATM   21  C11 UNL     1      33.748 -20.925  60.042  1.00  0.00     0.016 C 
HETATM   22  C12 UNL     1      33.871 -21.958  61.164  1.00  0.00    -0.013 C 
HETATM   23  C13 UNL     1      35.305 -22.422  61.289  1.00  0.00     0.009 C 
HETATM   24  C17 UNL     1      33.008 -23.137  60.865  1.00  0.00     0.009 C 
HETATM   25  C14 UNL     1      35.702 -23.073  59.983  1.00  0.00    -0.013 C 
HETATM   26  C15 UNL     1      34.815 -24.244  59.660  1.00  0.00     0.009 C 
HETATM   27  C19 UNL     1      35.614 -22.066  58.887  1.00  0.00     0.016 C 
HETATM   28  C16 UNL     1      33.406 -23.690  59.540  1.00  0.00    -0.013 C 
HETATM   29  C18 UNL     1      33.320 -22.685  58.402  1.00  0.00     0.016 C 
ENDBRANCH   1  20
TORSDOF 6
ENDMDL
MODEL 4
REMARK VINA RESULT: -8.445417873      3.864      6.684
REMARK  6 active torsions:
REMARK  status: ('A' for Active; 'I' for Inactive)
REMARK    1  A    between atoms: C2_2  and  O1_3 
REMARK    2  A    between atoms: O1_3  and  C3_4 
REMARK       I    between atoms: C3_4  and  N1_6 
REMARK    3  A    between atoms: N1_6  and  C4_8 
REMARK    4  A    between atoms: C4_8  and  C5_9 
REMARK    5  A    between atoms: C4_8  and  C10_20 
REMARK       I    between atoms: C5_9  and  N2_11 
REMARK    6  A    between atoms: N2_11  and  C6_13 
ROOT
HETATM    1  C4  UNL     1      32.513 -21.163  58.246  1.00  0.00     0.187 C 
ENDROOT
BRANCH   1   2
HETATM    2  N1  UNL     1      33.661 -21.193  57.315  1.00  0.00    -0.323 N 
HETATM    3  C3  UNL     1      34.350 -22.301  56.830  1.00  0.00     0.361 C 
HETATM    4  O2  UNL     1      34.166 -23.520  57.076  1.00  0.00    -0.238 OA
ATOM      5  H1  UNL     1      33.989 -20.285  56.985  1.00  0.00     0.165 HD
BRANCH   3   6
HETATM    6  O1  UNL     1      35.421 -22.030  55.924  1.00  0.00    -0.304 OA
BRANCH   6   7
HETATM    7  C2  UNL     1      35.118 -21.409  54.670  1.00  0.00     0.176 C 
HETATM    8  C1  UNL     1      34.614 -22.438  53.690  1.00  0.00     0.034 C 
ENDBRANCH   6   7
ENDBRANCH   3   6
ENDBRANCH   1   2
BRANCH   1   9
HETATM    9  C5  UNL     1      32.782 -21.945  59.442  1.00  0.00     0.241 C 
HETATM   10  O3  UNL     1      31.903 -22.608  60.085  1.00  0.00    -0.271 OA
HETATM   11  N2  UNL     1      34.064 -22.036  60.018  1.00  0.00    -0.354 N 
ATOM     12  H2  UNL     1      34.838 -21.527  59.588  1.00  0.00     0.162 HD
BRANCH  11  13
HETATM   13  C6  UNL     1      34.322 -22.842  61.218  1.00  0.00     0.099 C 
HETATM   14  C7  UNL     1      34.760 -21.979  62.351  1.00  0.00     0.041 C 
HETATM   15  C8  UNL     1      34.922 -22.941  63.511  1.00  0.00     0.142 C 
HETATM   16  S1  UNL     1      35.816 -24.272  62.693  1.00  0.00     0.146 S 
HETATM   17  O4  UNL     1      37.284 -24.084  62.812  1.00  0.00    -0.228 OA
HETATM   18  O5  UNL     1      35.326 -25.599  63.127  1.00  0.00    -0.228 OA
HETATM   19  C9  UNL     1      35.355 -23.906  60.991  1.00  0.00     0.165 C 
ENDBRANCH  11  13
ENDBRANCH   1   9
BRANCH   1  20
HETATM   20  C10 UNL     1      31.969 -19.790  58.328  1.00  0.00    -0.010 C 
HETATM   21  C11 UNL     1      30.653 -19.721  59.006  1.00  0.00     0.016 C 
HETATM   22  C12 UNL     1      30.030 -18.331  58.864  1.00  0.00    -0.013 C 
HETATM   23  C13 UNL     1      29.836 -17.995  57.404  1.00  0.00     0.009 C 
HETATM   24  C17 UNL     1      30.926 -17.309  59.479  1.00  0.00     0.009 C 
HETATM   25  C14 UNL     1      31.194 -17.989  56.739  1.00  0.00    -0.013 C 
HETATM   26  C15 UNL     1      32.114 -16.983  57.374  1.00  0.00     0.009 C 
HETATM   27  C19 UNL     1      31.797 -19.349  56.845  1.00  0.00     0.016 C 
HETATM   28  C16 UNL     1      32.263 -17.400  58.827  1.00  0.00    -0.013 C 
HETATM   29  C18 UNL     1      32.905 -18.776  58.926  1.00  0.00     0.016 C 
ENDBRANCH   1  20
TORSDOF 6
ENDMDL
MODEL 5
REMARK VINA RESULT: -8.443918635      3.145      6.463
REMARK  6 active torsions:
REMARK  status: ('A' for Active; 'I' for Inactive)
REMARK    1  A    between atoms: C2_2  and  O1_3 
REMARK    2  A    between atoms: O1_3  and  C3_4 
REMARK       I    between atoms: C3_4  and  N1_6 
REMARK    3  A    between atoms: N1_6  and  C4_8 
REMARK    4  A    between atoms: C4_8  and  C5_9 
REMARK    5  A    between atoms: C4_8  and  C10_20 
REMARK       I    between atoms: C5_9  and  N2_11 
REMARK    6  A    between atoms: N2_11  and  C6_13 
ROOT
HETATM    1  C4  UNL     1      32.816 -19.782  57.395  1.00  0.00     0.187 C 
ENDROOT
BRANCH   1   2
HETATM    2  N1  UNL     1      33.851 -19.494  56.379  1.00  0.00    -0.323 N 
HETATM    3  C3  UNL     1      35.206 -19.814  56.412  1.00  0.00     0.361 C 
HETATM    4  O2  UNL     1      35.860 -20.407  57.307  1.00  0.00    -0.238 OA
ATOM      5  H1  UNL     1      33.531 -18.998  55.548  1.00  0.00     0.165 HD
BRANCH   3   6
HETATM    6  O1  UNL     1      35.974 -19.419  55.274  1.00  0.00    -0.304 OA
BRANCH   6   7
HETATM    7  C2  UNL     1      36.117 -20.342  54.188  1.00  0.00     0.176 C 
HETATM    8  C1  UNL     1      35.085 -21.436  54.299  1.00  0.00     0.034 C 
ENDBRANCH   6   7
ENDBRANCH   3   6
ENDBRANCH   1   2
BRANCH   1   9
HETATM    9  C5  UNL     1      33.410 -20.030  58.699  1.00  0.00     0.241 C 
HETATM   10  O3  UNL     1      33.745 -19.119  59.526  1.00  0.00    -0.271 OA
HETATM   11  N2  UNL     1      33.683 -21.327  59.175  1.00  0.00    -0.354 N 
ATOM     12  H2  UNL     1      33.467 -22.129  58.581  1.00  0.00     0.162 HD
BRANCH  11  13
HETATM   13  C6  UNL     1      34.270 -21.562  60.500  1.00  0.00     0.099 C 
HETATM   14  C7  UNL     1      35.378 -22.555  60.421  1.00  0.00     0.041 C 
HETATM   15  C8  UNL     1      35.908 -22.636  61.838  1.00  0.00     0.142 C 
HETATM   16  S1  UNL     1      34.359 -22.742  62.748  1.00  0.00     0.146 S 
HETATM   17  O4  UNL     1      33.955 -24.156  62.956  1.00  0.00    -0.228 OA
HETATM   18  O5  UNL     1      34.398 -21.924  63.980  1.00  0.00    -0.228 OA
HETATM   19  C9  UNL     1      33.262 -22.038  61.504  1.00  0.00     0.165 C 
ENDBRANCH  11  13
ENDBRANCH   1   9
BRANCH   1  20
HETATM   20  C10 UNL     1      31.678 -18.853  57.230  1.00  0.00    -0.010 C 
HETATM   21  C11 UNL     1      30.571 -19.106  58.182  1.00  0.00     0.016 C 
HETATM   22  C12 UNL     1      29.335 -18.279  57.825  1.00  0.00    -0.013 C 
HETATM   23  C13 UNL     1      28.860 -18.627  56.433  1.00  0.00     0.009 C 
HETATM   24  C17 UNL     1      29.667 -16.825  57.871  1.00  0.00     0.009 C 
HETATM   25  C14 UNL     1      29.967 -18.289  55.461  1.00  0.00    -0.013 C 
HETATM   26  C15 UNL     1      30.329 -16.831  55.524  1.00  0.00     0.009 C 
HETATM   27  C19 UNL     1      31.169 -19.113  55.781  1.00  0.00     0.016 C 
HETATM   28  C16 UNL     1      30.805 -16.571  56.943  1.00  0.00    -0.013 C 
HETATM   29  C18 UNL     1      32.046 -17.394  57.251  1.00  0.00     0.016 C 
ENDBRANCH   1  20
TORSDOF 6
ENDMDL
