MODEL 1
REMARK VINA RESULT: -8.149706273      0.000      0.000
REMARK  8 active torsions:
REMARK  status: ('A' for Active; 'I' for Inactive)
REMARK    1  A    between atoms: C2_2  and  N1_4 
REMARK       I    between atoms: N1_4  and  C4_6 
REMARK    2  A    between atoms: C4_6  and  C5_8 
REMARK    3  A    between atoms: C8_11  and  C9_12 
REMARK    4  A    between atoms: C9_12  and  C10_13 
REMARK       I    between atoms: C10_13  and  N2_15 
REMARK    5  A    between atoms: C12_17  and  N3_18 
REMARK    6  A    between atoms: C13_22  and  C14_23 
REMARK    7  A    between atoms: C14_23  and  O4_25 
REMARK    8  A    between atoms: O4_25  and  C15_26 
ROOT
HETATM    1  C10 UNL     1      35.799 -20.397  56.131  1.00  0.00     0.220 C 
HETATM    2  O2  UNL     1      36.969 -20.207  55.735  1.00  0.00    -0.273 OA
HETATM    3  N2  UNL     1      34.865 -19.347  55.993  1.00  0.00    -0.349 N 
HETATM    4  C11 UNL     1      35.152 -18.046  55.424  1.00  0.00     0.159 C 
HETATM    5  C12 UNL     1      34.021 -17.176  55.993  1.00  0.00     0.216 C 
HETATM    6  C13 UNL     1      32.871 -18.142  55.926  1.00  0.00     0.135 C 
HETATM    7  C19 UNL     1      33.483 -19.424  56.402  1.00  0.00     0.142 C 
ENDROOT
BRANCH   1   8
HETATM    8  C9  UNL     1      35.375 -21.662  56.725  1.00  0.00     0.107 C 
BRANCH   8   9
HETATM    9  C8  UNL     1      35.602 -21.840  58.183  1.00  0.00    -0.006 C 
HETATM   10  C7  UNL     1      36.555 -23.050  58.302  1.00  0.00     0.006 C 
HETATM   11  C6  UNL     1      36.352 -23.715  59.644  1.00  0.00     0.014 C 
HETATM   12  C5  UNL     1      36.134 -22.618  60.657  1.00  0.00     0.078 C 
HETATM   13  C21 UNL     1      34.730 -22.067  60.442  1.00  0.00     0.014 C 
HETATM   14  C20 UNL     1      34.343 -22.139  58.980  1.00  0.00     0.006 C 
BRANCH  12  15
HETATM   15  C4  UNL     1      36.321 -23.112  62.048  1.00  0.00     0.222 C 
HETATM   16  N1  UNL     1      37.009 -24.319  62.292  1.00  0.00    -0.357 N 
ATOM     17  H1  UNL     1      37.378 -24.853  61.506  1.00  0.00     0.162 HD
HETATM   18  O1  UNL     1      35.841 -22.406  62.988  1.00  0.00    -0.273 OA
BRANCH  16  19
HETATM   19  C2  UNL     1      37.198 -24.811  63.631  1.00  0.00     0.076 C 
HETATM   20  C1  UNL     1      38.639 -25.218  63.782  1.00  0.00     0.032 C 
HETATM   21  C3  UNL     1      36.261 -25.987  63.930  1.00  0.00     0.032 C 
ENDBRANCH  16  19
ENDBRANCH  12  15
ENDBRANCH   8   9
ENDBRANCH   1   8
BRANCH   5  22
HETATM   22  N3  UNL     1      34.361 -16.848  57.362  1.00  0.00    -0.073 N 
ATOM     23  H33 UNL     1      34.194 -17.620  58.007  1.00  0.00     0.274 HD
ATOM     24  H32 UNL     1      35.367 -16.763  57.511  1.00  0.00     0.274 HD
ATOM     25  H31 UNL     1      33.851 -16.003  57.617  1.00  0.00     0.274 HD
ENDBRANCH   5  22
BRANCH   6  26
HETATM   26  C14 UNL     1      31.713 -17.718  56.749  1.00  0.00     0.267 C 
HETATM   27  O3  UNL     1      31.282 -16.554  56.784  1.00  0.00    -0.265 OA
BRANCH  26  28
HETATM   28  O4  UNL     1      31.092 -18.679  57.513  1.00  0.00    -0.311 OA
BRANCH  28  29
HETATM   29  C15 UNL     1      31.017 -18.689  58.904  1.00  0.00     0.060 C 
HETATM   30  C16 UNL     1      29.688 -18.126  59.358  1.00  0.00     0.045 C 
HETATM   31  C17 UNL     1      31.167 -20.146  59.347  1.00  0.00     0.045 C 
HETATM   32  C18 UNL     1      32.113 -17.919  59.585  1.00  0.00     0.045 C 
ENDBRANCH  28  29
ENDBRANCH  26  28
ENDBRANCH   6  26
TORSDOF 8
ENDMDL
MODEL 2
REMARK VINA RESULT: -8.106017592      2.452      7.856
REMARK  8 active torsions:
REMARK  status: ('A' for Active; 'I' for Inactive)
REMARK    1  A    between atoms: C2_2  and  N1_4 
REMARK       I    between atoms: N1_4  and  C4_6 
REMARK    2  A    between atoms: C4_6  and  C5_8 
REMARK    3  A    between atoms: C8_11  and  C9_12 
REMARK    4  A    between atoms: C9_12  and  C10_13 
REMARK       I    between atoms: C10_13  and  N2_15 
REMARK    5  A    between atoms: C12_17  and  N3_18 
REMARK    6  A    between atoms: C13_22  and  C14_23 
REMARK    7  A    between atoms: C14_23  and  O4_25 
REMARK    8  A    between atoms: O4_25  and  C15_26 
ROOT
HETATM    1  C10 UNL     1      33.749 -22.383  61.573  1.00  0.00     0.220 C 
HETATM    2  O2  UNL     1      33.538 -23.290  62.408  1.00  0.00    -0.273 OA
HETATM    3  N2  UNL     1      34.557 -22.677  60.452  1.00  0.00    -0.349 N 
HETATM    4  C11 UNL     1      35.174 -23.960  60.184  1.00  0.00     0.159 C 
HETATM    5  C12 UNL     1      36.307 -23.588  59.217  1.00  0.00     0.216 C 
HETATM    6  C13 UNL     1      35.627 -22.536  58.387  1.00  0.00     0.135 C 
HETATM    7  C19 UNL     1      34.882 -21.733  59.410  1.00  0.00     0.142 C 
ENDROOT
BRANCH   1   8
HETATM    8  C9  UNL     1      33.187 -21.043  61.722  1.00  0.00     0.107 C 
BRANCH   8   9
HETATM    9  C8  UNL     1      32.853 -20.302  60.477  1.00  0.00    -0.006 C 
HETATM   10  C7  UNL     1      32.744 -18.821  60.903  1.00  0.00     0.006 C 
HETATM   11  C6  UNL     1      31.820 -18.096  59.952  1.00  0.00     0.014 C 
HETATM   12  C5  UNL     1      32.092 -18.633  58.568  1.00  0.00     0.078 C 
HETATM   13  C21 UNL     1      31.481 -20.026  58.489  1.00  0.00     0.014 C 
HETATM   14  C20 UNL     1      31.541 -20.716  59.836  1.00  0.00     0.006 C 
BRANCH  12  15
HETATM   15  C4  UNL     1      31.547 -17.735  57.515  1.00  0.00     0.222 C 
HETATM   16  N1  UNL     1      30.230 -17.906  57.040  1.00  0.00    -0.357 N 
ATOM     17  H1  UNL     1      29.652 -18.653  57.425  1.00  0.00     0.162 HD
HETATM   18  O1  UNL     1      32.311 -16.823  57.073  1.00  0.00    -0.273 OA
BRANCH  16  19
HETATM   19  C2  UNL     1      29.688 -17.046  56.021  1.00  0.00     0.076 C 
HETATM   20  C1  UNL     1      29.110 -15.829  56.692  1.00  0.00     0.032 C 
HETATM   21  C3  UNL     1      28.623 -17.772  55.189  1.00  0.00     0.032 C 
ENDBRANCH  16  19
ENDBRANCH  12  15
ENDBRANCH   8   9
ENDBRANCH   1   8
BRANCH   5  22
HETATM   22  N3  UNL     1      37.392 -23.031  59.997  1.00  0.00    -0.073 N 
ATOM     23  H33 UNL     1      37.300 -22.025  60.140  1.00  0.00     0.274 HD
ATOM     24  H32 UNL     1      37.359 -23.310  60.978  1.00  0.00     0.274 HD
ATOM     25  H31 UNL     1      38.268 -23.288  59.543  1.00  0.00     0.274 HD
ENDBRANCH   5  22
BRANCH   6  26
HETATM   26  C14 UNL     1      36.578 -21.717  57.598  1.00  0.00     0.267 C 
HETATM   27  O3  UNL     1      37.791 -21.971  57.504  1.00  0.00    -0.265 OA
BRANCH  26  28
HETATM   28  O4  UNL     1      36.076 -20.620  56.939  1.00  0.00    -0.311 OA
BRANCH  28  29
HETATM   29  C15 UNL     1      35.374 -20.644  55.736  1.00  0.00     0.060 C 
HETATM   30  C16 UNL     1      33.944 -20.202  55.958  1.00  0.00     0.045 C 
HETATM   31  C17 UNL     1      36.094 -19.690  54.781  1.00  0.00     0.045 C 
HETATM   32  C18 UNL     1      35.353 -21.988  55.063  1.00  0.00     0.045 C 
ENDBRANCH  28  29
ENDBRANCH  26  28
ENDBRANCH   6  26
TORSDOF 8
ENDMDL
MODEL 3
REMARK VINA RESULT: -8.045797965      1.187      1.838
REMARK  8 active torsions:
REMARK  status: ('A' for Active; 'I' for Inactive)
REMARK    1  A    between atoms: C2_2  and  N1_4 
REMARK       I    between atoms: N1_4  and  C4_6 
REMARK    2  A    between atoms: C4_6  and  C5_8 
REMARK    3  A    between atoms: C8_11  and  C9_12 
REMARK    4  A    between atoms: C9_12  and  C10_13 
REMARK       I    between atoms: C10_13  and  N2_15 
REMARK    5  A    between atoms: C12_17  and  N3_18 
REMARK    6  A    between atoms: C13_22  and  C14_23 
REMARK    7  A    between atoms: C14_23  and  O4_25 
REMARK    8  A    between atoms: O4_25  and  C15_26 
ROOT
HETATM    1  C10 UNL     1      35.572 -20.340  56.114  1.00  0.00     0.220 C 
HETATM    2  O2  UNL     1      36.740 -20.215  55.687  1.00  0.00    -0.273 OA
HETATM    3  N2  UNL     1      34.706 -19.226  56.037  1.00  0.00    -0.349 N 
HETATM    4  C11 UNL     1      35.062 -17.930  55.497  1.00  0.00     0.159 C 
HETATM    5  C12 UNL     1      34.010 -17.006  56.128  1.00  0.00     0.216 C 
HETATM    6  C13 UNL     1      32.796 -17.891  56.069  1.00  0.00     0.135 C 
HETATM    7  C19 UNL     1      33.335 -19.225  56.488  1.00  0.00     0.142 C 
ENDROOT
BRANCH   1   8
HETATM    8  C9  UNL     1      35.082 -21.592  56.684  1.00  0.00     0.107 C 
BRANCH   8   9
HETATM    9  C8  UNL     1      35.199 -21.762  58.157  1.00  0.00    -0.006 C 
HETATM   10  C7  UNL     1      36.502 -22.563  58.372  1.00  0.00     0.006 C 
HETATM   11  C6  UNL     1      36.406 -23.333  59.668  1.00  0.00     0.014 C 
HETATM   12  C5  UNL     1      35.703 -22.443  60.665  1.00  0.00     0.078 C 
HETATM   13  C21 UNL     1      34.227 -22.411  60.289  1.00  0.00     0.014 C 
HETATM   14  C20 UNL     1      34.052 -22.530  58.790  1.00  0.00     0.006 C 
BRANCH  12  15
HETATM   15  C4  UNL     1      35.904 -22.919  62.060  1.00  0.00     0.222 C 
HETATM   16  N1  UNL     1      36.560 -24.141  62.312  1.00  0.00    -0.357 N 
ATOM     17  H1  UNL     1      36.897 -24.699  61.528  1.00  0.00     0.162 HD
HETATM   18  O1  UNL     1      35.464 -22.182  62.996  1.00  0.00    -0.273 OA
BRANCH  16  19
HETATM   19  C2  UNL     1      36.761 -24.616  63.656  1.00  0.00     0.076 C 
HETATM   20  C1  UNL     1      38.242 -24.718  63.901  1.00  0.00     0.032 C 
HETATM   21  C3  UNL     1      36.073 -25.968  63.878  1.00  0.00     0.032 C 
ENDBRANCH  16  19
ENDBRANCH  12  15
ENDBRANCH   8   9
ENDBRANCH   1   8
BRANCH   5  22
HETATM   22  N3  UNL     1      34.411 -16.744  57.494  1.00  0.00    -0.073 N 
ATOM     23  H33 UNL     1      33.901 -17.310  58.171  1.00  0.00     0.274 HD
ATOM     24  H32 UNL     1      35.347 -17.091  57.705  1.00  0.00     0.274 HD
ATOM     25  H31 UNL     1      34.315 -15.743  57.661  1.00  0.00     0.274 HD
ENDBRANCH   5  22
BRANCH   6  26
HETATM   26  C14 UNL     1      31.694 -17.418  56.941  1.00  0.00     0.267 C 
HETATM   27  O3  UNL     1      31.652 -17.617  58.166  1.00  0.00    -0.265 OA
BRANCH  26  28
HETATM   28  O4  UNL     1      30.668 -16.723  56.345  1.00  0.00    -0.311 OA
BRANCH  28  29
HETATM   29  C15 UNL     1      29.374 -17.197  56.143  1.00  0.00     0.060 C 
HETATM   30  C16 UNL     1      28.724 -17.522  57.470  1.00  0.00     0.045 C 
HETATM   31  C17 UNL     1      28.602 -16.091  55.419  1.00  0.00     0.045 C 
HETATM   32  C18 UNL     1      29.295 -18.417  55.269  1.00  0.00     0.045 C 
ENDBRANCH  28  29
ENDBRANCH  26  28
ENDBRANCH   6  26
TORSDOF 8
ENDMDL
MODEL 4
REMARK VINA RESULT: -8.033572151      1.567      2.183
REMARK  8 active torsions:
REMARK  status: ('A' for Active; 'I' for Inactive)
REMARK    1  A    between atoms: C2_2  and  N1_4 
REMARK       I    between atoms: N1_4  and  C4_6 
REMARK    2  A    between atoms: C4_6  and  C5_8 
REMARK    3  A    between atoms: C8_11  and  C9_12 
REMARK    4  A    between atoms: C9_12  and  C10_13 
REMARK       I    between atoms: C10_13  and  N2_15 
REMARK    5  A    between atoms: C12_17  and  N3_18 
REMARK    6  A    between atoms: C13_22  and  C14_23 
REMARK    7  A    between atoms: C14_23  and  O4_25 
REMARK    8  A    between atoms: O4_25  and  C15_26 
ROOT
HETATM    1  C10 UNL     1      34.910 -20.849  56.632  1.00  0.00     0.220 C 
HETATM    2  O2  UNL     1      36.106 -20.991  56.297  1.00  0.00    -0.273 OA
HETATM    3  N2  UNL     1      34.303 -19.589  56.433  1.00  0.00    -0.349 N 
HETATM    4  C11 UNL     1      34.958 -18.429  55.866  1.00  0.00     0.159 C 
HETATM    5  C12 UNL     1      34.079 -17.273  56.366  1.00  0.00     0.216 C 
HETATM    6  C13 UNL     1      32.715 -17.893  56.249  1.00  0.00     0.135 C 
HETATM    7  C19 UNL     1      32.933 -19.281  56.770  1.00  0.00     0.142 C 
ENDROOT
BRANCH   1   8
HETATM    8  C9  UNL     1      34.132 -21.938  57.216  1.00  0.00     0.107 C 
BRANCH   8   9
HETATM    9  C8  UNL     1      34.539 -22.421  58.562  1.00  0.00    -0.006 C 
HETATM   10  C7  UNL     1      33.898 -23.820  58.703  1.00  0.00     0.006 C 
HETATM   11  C6  UNL     1      33.682 -24.124  60.167  1.00  0.00     0.014 C 
HETATM   12  C5  UNL     1      34.876 -23.584  60.917  1.00  0.00     0.078 C 
HETATM   13  C21 UNL     1      34.743 -22.067  60.959  1.00  0.00     0.014 C 
HETATM   14  C20 UNL     1      34.057 -21.553  59.710  1.00  0.00     0.006 C 
BRANCH  12  15
HETATM   15  C4  UNL     1      34.973 -24.164  62.283  1.00  0.00     0.222 C 
HETATM   16  N1  UNL     1      36.123 -24.877  62.678  1.00  0.00    -0.357 N 
ATOM     17  H1  UNL     1      36.892 -24.992  62.017  1.00  0.00     0.162 HD
HETATM   18  O1  UNL     1      33.986 -23.988  63.063  1.00  0.00    -0.273 OA
BRANCH  16  19
HETATM   19  C2  UNL     1      36.233 -25.444  63.996  1.00  0.00     0.076 C 
HETATM   20  C1  UNL     1      37.635 -25.213  64.492  1.00  0.00     0.032 C 
HETATM   21  C3  UNL     1      35.892 -26.939  63.988  1.00  0.00     0.032 C 
ENDBRANCH  16  19
ENDBRANCH  12  15
ENDBRANCH   8   9
ENDBRANCH   1   8
BRANCH   5  22
HETATM   22  N3  UNL     1      34.429 -17.015  57.748  1.00  0.00    -0.073 N 
ATOM     23  H33 UNL     1      34.003 -16.162  58.111  1.00  0.00     0.274 HD
ATOM     24  H32 UNL     1      33.993 -17.671  58.396  1.00  0.00     0.274 HD
ATOM     25  H31 UNL     1      35.446 -17.009  57.817  1.00  0.00     0.274 HD
ENDBRANCH   5  22
BRANCH   6  26
HETATM   26  C14 UNL     1      31.677 -17.153  57.005  1.00  0.00     0.267 C 
HETATM   27  O3  UNL     1      31.699 -17.003  58.238  1.00  0.00    -0.265 OA
BRANCH  26  28
HETATM   28  O4  UNL     1      30.637 -16.609  56.288  1.00  0.00    -0.311 OA
BRANCH  28  29
HETATM   29  C15 UNL     1      29.382 -17.186  56.110  1.00  0.00     0.060 C 
HETATM   30  C16 UNL     1      28.804 -17.601  57.445  1.00  0.00     0.045 C 
HETATM   31  C17 UNL     1      28.498 -16.130  55.442  1.00  0.00     0.045 C 
HETATM   32  C18 UNL     1      29.379 -18.383  55.202  1.00  0.00     0.045 C 
ENDBRANCH  28  29
ENDBRANCH  26  28
ENDBRANCH   6  26
TORSDOF 8
ENDMDL
MODEL 5
REMARK VINA RESULT: -8.005395039      3.109      5.364
REMARK  8 active torsions:
REMARK  status: ('A' for Active; 'I' for Inactive)
REMARK    1  A    between atoms: C2_2  and  N1_4 
REMARK       I    between atoms: N1_4  and  C4_6 
REMARK    2  A    between atoms: C4_6  and  C5_8 
REMARK    3  A    between atoms: C8_11  and  C9_12 
REMARK    4  A    between atoms: C9_12  and  C10_13 
REMARK       I    between atoms: C10_13  and  N2_15 
REMARK    5  A    between atoms: C12_17  and  N3_18 
REMARK    6  A    between atoms: C13_22  and  C14_23 
REMARK    7  A    between atoms: C14_23  and  O4_25 
REMARK    8  A    between atoms: O4_25  and  C15_26 
ROOT
HETATM    1  C10 UNL     1      31.980 -18.628  60.426  1.00  0.00     0.220 C 
HETATM    2  O2  UNL     1      30.879 -18.346  60.946  1.00  0.00    -0.273 OA
HETATM    3  N2  UNL     1      32.368 -17.933  59.258  1.00  0.00    -0.349 N 
HETATM    4  C11 UNL     1      31.586 -16.907  58.601  1.00  0.00     0.159 C 
HETATM    5  C12 UNL     1      32.173 -16.897  57.182  1.00  0.00     0.216 C 
HETATM    6  C13 UNL     1      33.631 -17.098  57.487  1.00  0.00     0.135 C 
HETATM    7  C19 UNL     1      33.607 -18.151  58.552  1.00  0.00     0.142 C 
ENDROOT
BRANCH   1   8
HETATM    8  C9  UNL     1      32.867 -19.644  60.985  1.00  0.00     0.107 C 
BRANCH   8   9
HETATM    9  C8  UNL     1      33.351 -20.708  60.066  1.00  0.00    -0.006 C 
HETATM   10  C7  UNL     1      32.074 -21.361  59.492  1.00  0.00     0.006 C 
HETATM   11  C6  UNL     1      32.379 -22.786  59.095  1.00  0.00     0.014 C 
HETATM   12  C5  UNL     1      33.763 -22.796  58.492  1.00  0.00     0.078 C 
HETATM   13  C21 UNL     1      34.761 -22.640  59.632  1.00  0.00     0.014 C 
HETATM   14  C20 UNL     1      34.182 -21.785  60.740  1.00  0.00     0.006 C 
BRANCH  12  15
HETATM   15  C4  UNL     1      34.011 -24.038  57.711  1.00  0.00     0.222 C 
HETATM   16  N1  UNL     1      34.275 -23.972  56.327  1.00  0.00    -0.357 N 
ATOM     17  H1  UNL     1      34.295 -23.063  55.864  1.00  0.00     0.162 HD
HETATM   18  O1  UNL     1      33.976 -25.139  58.340  1.00  0.00    -0.273 OA
BRANCH  16  19
HETATM   19  C2  UNL     1      34.517 -25.163  55.557  1.00  0.00     0.076 C 
HETATM   20  C1  UNL     1      36.005 -25.342  55.424  1.00  0.00     0.032 C 
HETATM   21  C3  UNL     1      33.848 -25.081  54.180  1.00  0.00     0.032 C 
ENDBRANCH  16  19
ENDBRANCH  12  15
ENDBRANCH   8   9
ENDBRANCH   1   8
BRANCH   5  22
HETATM   22  N3  UNL     1      31.618 -18.026  56.465  1.00  0.00    -0.073 N 
ATOM     23  H33 UNL     1      32.140 -18.888  56.621  1.00  0.00     0.274 HD
ATOM     24  H32 UNL     1      30.725 -18.338  56.847  1.00  0.00     0.274 HD
ATOM     25  H31 UNL     1      31.560 -17.772  55.479  1.00  0.00     0.274 HD
ENDBRANCH   5  22
BRANCH   6  26
HETATM   26  C14 UNL     1      34.419 -17.502  56.298  1.00  0.00     0.267 C 
HETATM   27  O3  UNL     1      34.277 -16.995  55.173  1.00  0.00    -0.265 OA
BRANCH  26  28
HETATM   28  O4  UNL     1      35.355 -18.496  56.465  1.00  0.00    -0.311 OA
BRANCH  28  29
HETATM   29  C15 UNL     1      35.318 -19.756  55.875  1.00  0.00     0.060 C 
HETATM   30  C16 UNL     1      35.987 -19.718  54.518  1.00  0.00     0.045 C 
HETATM   31  C17 UNL     1      36.055 -20.711  56.816  1.00  0.00     0.045 C 
HETATM   32  C18 UNL     1      33.932 -20.313  55.700  1.00  0.00     0.045 C 
ENDBRANCH  28  29
ENDBRANCH  26  28
ENDBRANCH   6  26
TORSDOF 8
ENDMDL
