MODEL 1
REMARK VINA RESULT: -10.473486764      0.000      0.000
REMARK  3 active torsions:
REMARK  status: ('A' for Active; 'I' for Inactive)
REMARK    1  A    between atoms: C11_11  and  N1_12 
REMARK    2  A    between atoms: N1_12  and  S1_14 
REMARK    3  A    between atoms: C18_24  and  O4_25 
ROOT
HETATM    1  C1  UNL     1       6.369 -27.765 -15.568  1.00  0.00     0.018 C 
HETATM    2  C2  UNL     1       7.224 -26.545 -15.686  1.00  0.00    -0.014 C 
HETATM    3  C3  UNL     1       7.340 -26.005 -17.060  1.00  0.00     0.012 C 
HETATM    4  C4  UNL     1       8.007 -27.082 -17.889  1.00  0.00     0.007 C 
HETATM    5  C5  UNL     1       9.392 -27.416 -17.422  1.00  0.00    -0.002 C 
HETATM    6  C6  UNL     1       9.550 -27.498 -15.936  1.00  0.00    -0.005 C 
HETATM    7  C7  UNL     1       9.671 -28.927 -15.419  1.00  0.00     0.006 C 
HETATM    8  C8  UNL     1      10.804 -29.655 -16.098  1.00  0.00     0.006 C 
HETATM    9  C9  UNL     1      11.195 -29.040 -17.398  1.00  0.00    -0.004 C 
HETATM   10  C10 UNL     1      11.819 -29.972 -18.377  1.00  0.00     0.031 C 
HETATM   11  C11 UNL     1      11.484 -29.403 -19.764  1.00  0.00     0.096 C 
HETATM   12  C12 UNL     1      10.509 -28.261 -19.496  1.00  0.00     0.035 C 
HETATM   13  C13 UNL     1       9.910 -28.626 -18.129  1.00  0.00    -0.035 C 
HETATM   14  C14 UNL     1       8.967 -29.730 -18.330  1.00  0.00     0.016 C 
HETATM   15  C15 UNL     1       8.619 -26.676 -15.148  1.00  0.00     0.001 C 
HETATM   16  C16 UNL     1       8.353 -27.092 -13.747  1.00  0.00     0.008 C 
HETATM   17  C17 UNL     1       7.166 -26.215 -13.367  1.00  0.00     0.033 C 
HETATM   18  C18 UNL     1       6.683 -25.552 -14.666  1.00  0.00     0.126 C 
ENDROOT
BRANCH  11  19
HETATM   19  N1  UNL     1      10.907 -30.416 -20.619  1.00  0.00    -0.296 N 
ATOM     20  H1  UNL     1      10.264 -31.136 -20.286  1.00  0.00     0.175 HD
BRANCH  19  21
HETATM   21  S1  UNL     1      11.414 -30.281 -22.244  1.00  0.00     0.204 S 
HETATM   22  O1  UNL     1      11.353 -31.631 -22.891  1.00  0.00    -0.578 OA
HETATM   23  O2  UNL     1      10.466 -29.379 -22.968  1.00  0.00    -0.578 OA
HETATM   24  O3  UNL     1      12.950 -29.620 -22.304  1.00  0.00    -0.578 OA
ENDBRANCH  19  21
ENDBRANCH  11  19
BRANCH  18  25
HETATM   25  O4  UNL     1       5.309 -25.598 -14.682  1.00  0.00    -0.395 OA
ATOM     26  H4  UNL     1       4.973 -24.729 -14.872  1.00  0.00     0.210 HD
ENDBRANCH  18  25
TORSDOF 3
ENDMDL
MODEL 2
REMARK VINA RESULT: -10.136021773      3.276      7.384
REMARK  3 active torsions:
REMARK  status: ('A' for Active; 'I' for Inactive)
REMARK    1  A    between atoms: C11_11  and  N1_12 
REMARK    2  A    between atoms: N1_12  and  S1_14 
REMARK    3  A    between atoms: C18_24  and  O4_25 
ROOT
HETATM    1  C1  UNL     1      11.673 -28.032 -21.300  1.00  0.00     0.018 C 
HETATM    2  C2  UNL     1      11.240 -29.460 -21.225  1.00  0.00    -0.014 C 
HETATM    3  C3  UNL     1       9.794 -29.654 -20.967  1.00  0.00     0.012 C 
HETATM    4  C4  UNL     1       9.517 -29.045 -19.608  1.00  0.00     0.007 C 
HETATM    5  C5  UNL     1      10.263 -29.719 -18.495  1.00  0.00    -0.002 C 
HETATM    6  C6  UNL     1      11.683 -30.067 -18.813  1.00  0.00    -0.005 C 
HETATM    7  C7  UNL     1      12.697 -29.149 -18.141  1.00  0.00     0.006 C 
HETATM    8  C8  UNL     1      12.496 -29.121 -16.646  1.00  0.00     0.006 C 
HETATM    9  C9  UNL     1      11.130 -29.553 -16.235  1.00  0.00    -0.004 C 
HETATM   10  C10 UNL     1      10.655 -28.998 -14.936  1.00  0.00     0.031 C 
HETATM   11  C11 UNL     1       9.124 -28.941 -15.044  1.00  0.00     0.096 C 
HETATM   12  C12 UNL     1       8.818 -29.293 -16.497  1.00  0.00     0.035 C 
HETATM   13  C13 UNL     1      10.125 -28.945 -17.224  1.00  0.00    -0.035 C 
HETATM   14  C14 UNL     1      10.210 -27.485 -17.325  1.00  0.00     0.016 C 
HETATM   15  C15 UNL     1      11.978 -30.312 -20.234  1.00  0.00     0.001 C 
HETATM   16  C16 UNL     1      13.382 -30.131 -20.683  1.00  0.00     0.008 C 
HETATM   17  C17 UNL     1      13.246 -30.176 -22.201  1.00  0.00     0.033 C 
HETATM   18  C18 UNL     1      11.741 -30.120 -22.503  1.00  0.00     0.126 C 
ENDROOT
BRANCH  11  19
HETATM   19  N1  UNL     1       8.625 -27.630 -14.691  1.00  0.00    -0.296 N 
ATOM     20  H1  UNL     1       8.438 -26.894 -15.374  1.00  0.00     0.175 HD
BRANCH  19  21
HETATM   21  S1  UNL     1       8.380 -27.444 -13.012  1.00  0.00     0.204 S 
HETATM   22  O1  UNL     1       8.315 -28.797 -12.372  1.00  0.00    -0.578 OA
HETATM   23  O2  UNL     1       9.552 -26.716 -12.435  1.00  0.00    -0.578 OA
HETATM   24  O3  UNL     1       6.993 -26.549 -12.737  1.00  0.00    -0.578 OA
ENDBRANCH  19  21
ENDBRANCH  11  19
BRANCH  18  25
HETATM   25  O4  UNL     1      11.550 -29.257 -23.556  1.00  0.00    -0.395 OA
ATOM     26  H4  UNL     1      12.142 -28.520 -23.463  1.00  0.00     0.210 HD
ENDBRANCH  18  25
TORSDOF 3
ENDMDL
MODEL 3
REMARK VINA RESULT: -9.937165873      3.195      7.496
REMARK  3 active torsions:
REMARK  status: ('A' for Active; 'I' for Inactive)
REMARK    1  A    between atoms: C11_11  and  N1_12 
REMARK    2  A    between atoms: N1_12  and  S1_14 
REMARK    3  A    between atoms: C18_24  and  O4_25 
ROOT
HETATM    1  C1  UNL     1      12.998 -29.974 -20.169  1.00  0.00     0.018 C 
HETATM    2  C2  UNL     1      12.027 -29.178 -20.978  1.00  0.00    -0.014 C 
HETATM    3  C3  UNL     1      11.967 -27.739 -20.630  1.00  0.00     0.012 C 
HETATM    4  C4  UNL     1      11.497 -27.666 -19.192  1.00  0.00     0.007 C 
HETATM    5  C5  UNL     1      10.122 -28.230 -18.990  1.00  0.00    -0.002 C 
HETATM    6  C6  UNL     1       9.850 -29.499 -19.737  1.00  0.00    -0.005 C 
HETATM    7  C7  UNL     1       9.845 -30.736 -18.847  1.00  0.00     0.006 C 
HETATM    8  C8  UNL     1       8.860 -30.584 -17.713  1.00  0.00     0.006 C 
HETATM    9  C9  UNL     1       8.515 -29.162 -17.429  1.00  0.00    -0.004 C 
HETATM   10  C10 UNL     1       8.083 -28.883 -16.031  1.00  0.00     0.031 C 
HETATM   11  C11 UNL     1       8.469 -27.420 -15.762  1.00  0.00     0.096 C 
HETATM   12  C12 UNL     1       9.286 -26.998 -16.979  1.00  0.00     0.035 C 
HETATM   13  C13 UNL     1       9.803 -28.334 -17.534  1.00  0.00    -0.035 C 
HETATM   14  C14 UNL     1      10.877 -28.803 -16.652  1.00  0.00     0.016 C 
HETATM   15  C15 UNL     1      10.614 -29.685 -20.980  1.00  0.00     0.001 C 
HETATM   16  C16 UNL     1      10.804 -31.076 -21.466  1.00  0.00     0.008 C 
HETATM   17  C17 UNL     1      11.851 -30.897 -22.560  1.00  0.00     0.033 C 
HETATM   18  C18 UNL     1      12.366 -29.455 -22.437  1.00  0.00     0.126 C 
ENDROOT
BRANCH  11  19
HETATM   19  N1  UNL     1       9.226 -27.297 -14.536  1.00  0.00    -0.296 N 
ATOM     20  H1  UNL     1      10.235 -27.434 -14.480  1.00  0.00     0.175 HD
BRANCH  19  21
HETATM   21  S1  UNL     1       8.251 -26.899 -13.192  1.00  0.00     0.204 S 
HETATM   22  O1  UNL     1       8.808 -25.677 -12.526  1.00  0.00    -0.578 OA
HETATM   23  O2  UNL     1       6.876 -26.573 -13.678  1.00  0.00    -0.578 OA
HETATM   24  O3  UNL     1       8.166 -28.204 -12.148  1.00  0.00    -0.578 OA
ENDBRANCH  19  21
ENDBRANCH  11  19
BRANCH  18  25
HETATM   25  O4  UNL     1      13.733 -29.477 -22.581  1.00  0.00    -0.395 OA
ATOM     26  H4  UNL     1      14.132 -29.096 -21.807  1.00  0.00     0.210 HD
ENDBRANCH  18  25
TORSDOF 3
ENDMDL
MODEL 4
REMARK VINA RESULT: -9.667048352      1.126      1.474
REMARK  3 active torsions:
REMARK  status: ('A' for Active; 'I' for Inactive)
REMARK    1  A    between atoms: C11_11  and  N1_12 
REMARK    2  A    between atoms: N1_12  and  S1_14 
REMARK    3  A    between atoms: C18_24  and  O4_25 
ROOT
HETATM    1  C1  UNL     1       6.587 -26.866 -16.393  1.00  0.00     0.018 C 
HETATM    2  C2  UNL     1       7.718 -26.149 -15.731  1.00  0.00    -0.014 C 
HETATM    3  C3  UNL     1       8.484 -25.249 -16.625  1.00  0.00     0.012 C 
HETATM    4  C4  UNL     1       9.096 -26.127 -17.696  1.00  0.00     0.007 C 
HETATM    5  C5  UNL     1      10.058 -27.140 -17.151  1.00  0.00    -0.002 C 
HETATM    6  C6  UNL     1       9.617 -27.807 -15.887  1.00  0.00    -0.005 C 
HETATM    7  C7  UNL     1       9.144 -29.242 -16.092  1.00  0.00     0.006 C 
HETATM    8  C8  UNL     1      10.208 -30.071 -16.768  1.00  0.00     0.006 C 
HETATM    9  C9  UNL     1      11.209 -29.247 -17.503  1.00  0.00    -0.004 C 
HETATM   10  C10 UNL     1      11.878 -29.933 -18.643  1.00  0.00     0.031 C 
HETATM   11  C11 UNL     1      12.257 -28.820 -19.632  1.00  0.00     0.096 C 
HETATM   12  C12 UNL     1      11.599 -27.560 -19.078  1.00  0.00     0.035 C 
HETATM   13  C13 UNL     1      10.456 -28.113 -18.213  1.00  0.00    -0.035 C 
HETATM   14  C14 UNL     1       9.398 -28.583 -19.112  1.00  0.00     0.016 C 
HETATM   15  C15 UNL     1       8.718 -27.021 -15.029  1.00  0.00     0.001 C 
HETATM   16  C16 UNL     1       7.843 -27.765 -14.086  1.00  0.00     0.008 C 
HETATM   17  C17 UNL     1       6.884 -26.680 -13.608  1.00  0.00     0.033 C 
HETATM   18  C18 UNL     1       7.123 -25.460 -14.510  1.00  0.00     0.126 C 
ENDROOT
BRANCH  11  19
HETATM   19  N1  UNL     1      11.792 -29.128 -20.967  1.00  0.00    -0.296 N 
ATOM     20  H1  UNL     1      10.936 -28.744 -21.369  1.00  0.00     0.175 HD
BRANCH  19  21
HETATM   21  S1  UNL     1      12.827 -30.201 -21.799  1.00  0.00     0.204 S 
HETATM   22  O1  UNL     1      13.218 -29.590 -23.110  1.00  0.00    -0.578 OA
HETATM   23  O2  UNL     1      14.070 -30.391 -20.990  1.00  0.00    -0.578 OA
HETATM   24  O3  UNL     1      12.071 -31.681 -21.993  1.00  0.00    -0.578 OA
ENDBRANCH  19  21
ENDBRANCH  11  19
BRANCH  18  25
HETATM   25  O4  UNL     1       5.899 -24.933 -14.846  1.00  0.00    -0.395 OA
ATOM     26  H4  UNL     1       5.279 -25.643 -14.965  1.00  0.00     0.210 HD
ENDBRANCH  18  25
TORSDOF 3
ENDMDL
MODEL 5
REMARK VINA RESULT: -9.608374938      4.068      8.011
REMARK  3 active torsions:
REMARK  status: ('A' for Active; 'I' for Inactive)
REMARK    1  A    between atoms: C11_11  and  N1_12 
REMARK    2  A    between atoms: N1_12  and  S1_14 
REMARK    3  A    between atoms: C18_24  and  O4_25 
ROOT
HETATM    1  C1  UNL     1      10.357 -27.191 -17.686  1.00  0.00     0.018 C 
HETATM    2  C2  UNL     1       9.287 -28.233 -17.729  1.00  0.00    -0.014 C 
HETATM    3  C3  UNL     1       7.973 -27.747 -18.210  1.00  0.00     0.012 C 
HETATM    4  C4  UNL     1       7.516 -26.697 -17.219  1.00  0.00     0.007 C 
HETATM    5  C5  UNL     1       7.312 -27.239 -15.835  1.00  0.00    -0.002 C 
HETATM    6  C6  UNL     1       8.363 -28.202 -15.378  1.00  0.00    -0.005 C 
HETATM    7  C7  UNL     1       9.330 -27.606 -14.363  1.00  0.00     0.006 C 
HETATM    8  C8  UNL     1       8.590 -27.048 -13.172  1.00  0.00     0.006 C 
HETATM    9  C9  UNL     1       7.158 -26.754 -13.462  1.00  0.00    -0.004 C 
HETATM   10  C10 UNL     1       6.547 -25.691 -12.617  1.00  0.00     0.031 C 
HETATM   11  C11 UNL     1       5.437 -25.065 -13.476  1.00  0.00     0.096 C 
HETATM   12  C12 UNL     1       5.608 -25.689 -14.857  1.00  0.00     0.035 C 
HETATM   13  C13 UNL     1       7.080 -26.129 -14.863  1.00  0.00    -0.035 C 
HETATM   14  C14 UNL     1       7.908 -24.929 -15.017  1.00  0.00     0.016 C 
HETATM   15  C15 UNL     1       9.039 -28.963 -16.441  1.00  0.00     0.001 C 
HETATM   16  C16 UNL     1      10.391 -29.501 -16.146  1.00  0.00     0.008 C 
HETATM   17  C17 UNL     1      10.871 -29.947 -17.523  1.00  0.00     0.033 C 
HETATM   18  C18 UNL     1       9.859 -29.391 -18.536  1.00  0.00     0.126 C 
ENDROOT
BRANCH  11  19
HETATM   19  N1  UNL     1       5.559 -23.624 -13.517  1.00  0.00    -0.296 N 
ATOM     20  H1  UNL     1       6.429 -23.138 -13.735  1.00  0.00     0.175 HD
BRANCH  19  21
HETATM   21  S1  UNL     1       4.093 -22.824 -13.162  1.00  0.00     0.204 S 
HETATM   22  O1  UNL     1       4.274 -21.992 -11.928  1.00  0.00    -0.578 OA
HETATM   23  O2  UNL     1       3.763 -21.905 -14.294  1.00  0.00    -0.578 OA
HETATM   24  O3  UNL     1       2.863 -23.945 -12.993  1.00  0.00    -0.578 OA
ENDBRANCH  19  21
ENDBRANCH  11  19
BRANCH  18  25
HETATM   25  O4  UNL     1      10.559 -28.888 -19.606  1.00  0.00    -0.395 OA
ATOM     26  H4  UNL     1      11.243 -28.311 -19.284  1.00  0.00     0.210 HD
ENDBRANCH  18  25
TORSDOF 3
ENDMDL
