MODEL 1
REMARK VINA RESULT: -6.675363700      0.000      0.000
REMARK  2 active torsions:
REMARK  status: ('A' for Active; 'I' for Inactive)
REMARK    1  A    between atoms: S1_2  and  C2_3 
REMARK    2  A    between atoms: C3_6  and  C4_7 
ROOT
HETATM    1  C4  UNL     1      -6.613  27.275  47.314  1.00  0.00     0.057 C 
HETATM    2  C5  UNL     1      -7.105  28.620  47.709  1.00  0.00     0.022 C 
HETATM    3  C6  UNL     1      -6.033  29.513  48.283  1.00  0.00     0.075 C 
HETATM    4  S2  UNL     1      -4.568  29.364  47.244  1.00  0.00    -0.159 SA
HETATM    5  C7  UNL     1      -4.789  28.237  45.866  1.00  0.00     0.012 C 
HETATM    6  C8  UNL     1      -5.165  29.087  44.643  1.00  0.00     0.050 C 
HETATM    7  C9  UNL     1      -4.754  28.254  43.434  1.00  0.00     0.273 C 
HETATM    8  N2  UNL     1      -3.347  28.468  43.246  1.00  0.00     0.084 N 
HETATM    9  C10 UNL     1      -2.766  27.709  42.187  1.00  0.00     0.309 C 
HETATM   10  C11 UNL     1      -2.687  28.357  44.503  1.00  0.00     0.273 C 
HETATM   11  C12 UNL     1      -3.462  27.604  45.548  1.00  0.00     0.050 C 
HETATM   12  C13 UNL     1      -5.851  27.225  46.037  1.00  0.00     0.032 C 
ENDROOT
BRANCH   1  13
HETATM   13  C3  UNL     1      -7.832  26.419  47.107  1.00  0.00     0.102 A 
HETATM   14  N1  UNL     1      -8.106  25.558  46.148  1.00  0.00    -0.324 N 
HETATM   15  C2  UNL     1      -9.340  25.051  46.428  1.00  0.00     0.160 A 
ATOM     16  H1  UNL     1      -7.513  25.319  45.354  1.00  0.00     0.169 HD
HETATM   17  N4  UNL     1      -9.803  25.610  47.558  1.00  0.00    -0.278 N 
HETATM   18  N3  UNL     1      -8.866  26.449  47.963  1.00  0.00    -0.287 N 
ATOM     19  H4  UNL     1     -10.698  25.425  48.012  1.00  0.00     0.189 HD
ATOM     20  H3  UNL     1      -8.920  27.031  48.799  1.00  0.00     0.188 HD
BRANCH  15  21
HETATM   21  S1  UNL     1     -10.230  23.840  45.475  1.00  0.00    -0.097 SA
HETATM   22  C1  UNL     1     -11.148  22.753  46.581  1.00  0.00     0.099 C 
ENDBRANCH  15  21
ENDBRANCH   1  13
TORSDOF 2
ENDMDL
MODEL 2
REMARK VINA RESULT: -6.538845773      6.135      9.287
REMARK  2 active torsions:
REMARK  status: ('A' for Active; 'I' for Inactive)
REMARK    1  A    between atoms: S1_2  and  C2_3 
REMARK    2  A    between atoms: C3_6  and  C4_7 
ROOT
HETATM    1  C4  UNL     1      -9.186  28.480  52.642  1.00  0.00     0.057 C 
HETATM    2  C5  UNL     1      -8.054  28.674  53.585  1.00  0.00     0.022 C 
HETATM    3  C6  UNL     1      -8.485  28.896  55.013  1.00  0.00     0.075 C 
HETATM    4  S2  UNL     1      -9.776  27.699  55.397  1.00  0.00    -0.159 SA
HETATM    5  C7  UNL     1     -10.169  26.616  54.023  1.00  0.00     0.012 C 
HETATM    6  C8  UNL     1      -9.368  25.322  54.224  1.00  0.00     0.050 C 
HETATM    7  C9  UNL     1     -10.138  24.250  53.460  1.00  0.00     0.273 C 
HETATM    8  N2  UNL     1     -11.203  23.815  54.320  1.00  0.00     0.084 N 
HETATM    9  C10 UNL     1     -12.079  22.850  53.741  1.00  0.00     0.309 C 
HETATM   10  C11 UNL     1     -11.845  24.957  54.880  1.00  0.00     0.273 C 
HETATM   11  C12 UNL     1     -11.622  26.233  54.116  1.00  0.00     0.050 C 
HETATM   12  C13 UNL     1      -9.827  27.138  52.685  1.00  0.00     0.032 C 
ENDROOT
BRANCH   1  13
HETATM   13  C3  UNL     1      -8.619  28.629  51.257  1.00  0.00     0.102 A 
HETATM   14  N1  UNL     1      -8.463  27.730  50.307  1.00  0.00    -0.324 N 
HETATM   15  C2  UNL     1      -7.904  28.381  49.249  1.00  0.00     0.160 A 
ATOM     16  H1  UNL     1      -8.712  26.742  50.355  1.00  0.00     0.169 HD
HETATM   17  N4  UNL     1      -7.726  29.674  49.568  1.00  0.00    -0.278 N 
HETATM   18  N3  UNL     1      -8.169  29.810  50.805  1.00  0.00    -0.287 N 
ATOM     19  H4  UNL     1      -7.328  30.402  48.975  1.00  0.00     0.189 HD
ATOM     20  H3  UNL     1      -8.169  30.681  51.336  1.00  0.00     0.188 HD
BRANCH  15  21
HETATM   21  S1  UNL     1      -7.465  27.670  47.678  1.00  0.00    -0.097 SA
HETATM   22  C1  UNL     1      -5.829  28.245  47.188  1.00  0.00     0.099 C 
ENDBRANCH  15  21
ENDBRANCH   1  13
TORSDOF 2
ENDMDL
MODEL 3
REMARK VINA RESULT: -6.445800659      5.779      9.018
REMARK  2 active torsions:
REMARK  status: ('A' for Active; 'I' for Inactive)
REMARK    1  A    between atoms: S1_2  and  C2_3 
REMARK    2  A    between atoms: C3_6  and  C4_7 
ROOT
HETATM    1  C4  UNL     1      -9.227  28.218  51.615  1.00  0.00     0.057 C 
HETATM    2  C5  UNL     1      -7.970  28.574  52.323  1.00  0.00     0.022 C 
HETATM    3  C6  UNL     1      -8.193  29.265  53.646  1.00  0.00     0.075 C 
HETATM    4  S2  UNL     1      -9.495  28.380  54.522  1.00  0.00    -0.159 SA
HETATM    5  C7  UNL     1     -10.136  26.975  53.609  1.00  0.00     0.012 C 
HETATM    6  C8  UNL     1      -9.399  25.729  54.122  1.00  0.00     0.050 C 
HETATM    7  C9  UNL     1     -10.330  24.559  53.820  1.00  0.00     0.273 C 
HETATM    8  N2  UNL     1     -11.297  24.519  54.882  1.00  0.00     0.084 N 
HETATM    9  C10 UNL     1     -12.302  23.517  54.732  1.00  0.00     0.309 C 
HETATM   10  C11 UNL     1     -11.785  25.836  55.118  1.00  0.00     0.273 C 
HETATM   11  C12 UNL     1     -11.584  26.788  53.972  1.00  0.00     0.050 C 
HETATM   12  C13 UNL     1      -9.941  27.026  52.147  1.00  0.00     0.032 C 
ENDROOT
BRANCH   1  13
HETATM   13  C3  UNL     1      -8.840  27.879  50.202  1.00  0.00     0.102 A 
HETATM   14  N1  UNL     1      -7.741  28.166  49.535  1.00  0.00    -0.324 N 
HETATM   15  C2  UNL     1      -7.893  27.628  48.293  1.00  0.00     0.160 A 
ATOM     16  H1  UNL     1      -6.936  28.688  49.881  1.00  0.00     0.169 HD
HETATM   17  N4  UNL     1      -9.087  27.017  48.218  1.00  0.00    -0.278 N 
HETATM   18  N3  UNL     1      -9.658  27.180  49.398  1.00  0.00    -0.287 N 
ATOM     19  H4  UNL     1      -9.475  26.527  47.412  1.00  0.00     0.189 HD
ATOM     20  H3  UNL     1     -10.579  26.829  49.659  1.00  0.00     0.188 HD
BRANCH  15  21
HETATM   21  S1  UNL     1      -6.722  27.700  46.955  1.00  0.00    -0.097 SA
HETATM   22  C1  UNL     1      -5.389  28.837  47.377  1.00  0.00     0.099 C 
ENDBRANCH  15  21
ENDBRANCH   1  13
TORSDOF 2
ENDMDL
MODEL 4
REMARK VINA RESULT: -6.390431615      0.981      1.301
REMARK  2 active torsions:
REMARK  status: ('A' for Active; 'I' for Inactive)
REMARK    1  A    between atoms: S1_2  and  C2_3 
REMARK    2  A    between atoms: C3_6  and  C4_7 
ROOT
HETATM    1  C4  UNL     1      -7.069  26.670  46.915  1.00  0.00     0.057 C 
HETATM    2  C5  UNL     1      -7.700  27.933  47.381  1.00  0.00     0.022 C 
HETATM    3  C6  UNL     1      -6.766  28.829  48.156  1.00  0.00     0.075 C 
HETATM    4  S2  UNL     1      -5.193  28.884  47.280  1.00  0.00    -0.159 SA
HETATM    5  C7  UNL     1      -5.180  27.895  45.783  1.00  0.00     0.012 C 
HETATM    6  C8  UNL     1      -5.488  28.842  44.614  1.00  0.00     0.050 C 
HETATM    7  C9  UNL     1      -4.889  28.168  43.383  1.00  0.00     0.273 C 
HETATM    8  N2  UNL     1      -3.490  28.492  43.377  1.00  0.00     0.084 N 
HETATM    9  C10 UNL     1      -2.744  27.887  42.322  1.00  0.00     0.309 C 
HETATM   10  C11 UNL     1      -2.960  28.293  44.685  1.00  0.00     0.273 C 
HETATM   11  C12 UNL     1      -3.782  27.386  45.557  1.00  0.00     0.050 C 
HETATM   12  C13 UNL     1      -6.173  26.804  45.734  1.00  0.00     0.032 C 
ENDROOT
BRANCH   1  13
HETATM   13  C3  UNL     1      -8.190  25.763  46.490  1.00  0.00     0.102 A 
HETATM   14  N1  UNL     1      -9.147  25.211  47.207  1.00  0.00    -0.324 N 
HETATM   15  C2  UNL     1      -9.903  24.480  46.340  1.00  0.00     0.160 A 
ATOM     16  H1  UNL     1      -9.293  25.311  48.211  1.00  0.00     0.169 HD
HETATM   17  N4  UNL     1      -9.395  24.596  45.102  1.00  0.00    -0.278 N 
HETATM   18  N3  UNL     1      -8.343  25.387  45.210  1.00  0.00    -0.287 N 
ATOM     19  H4  UNL     1      -9.750  24.161  44.250  1.00  0.00     0.189 HD
ATOM     20  H3  UNL     1      -7.738  25.670  44.439  1.00  0.00     0.188 HD
BRANCH  15  21
HETATM   21  S1  UNL     1     -11.340  23.511  46.744  1.00  0.00    -0.097 SA
HETATM   22  C1  UNL     1     -11.611  23.542  48.525  1.00  0.00     0.099 C 
ENDBRANCH  15  21
ENDBRANCH   1  13
TORSDOF 2
ENDMDL
MODEL 5
REMARK VINA RESULT: -6.375675959      3.910      5.592
REMARK  2 active torsions:
REMARK  status: ('A' for Active; 'I' for Inactive)
REMARK    1  A    between atoms: S1_2  and  C2_3 
REMARK    2  A    between atoms: C3_6  and  C4_7 
ROOT
HETATM    1  C4  UNL     1      -7.971  28.409  49.915  1.00  0.00     0.057 C 
HETATM    2  C5  UNL     1      -7.776  29.801  49.432  1.00  0.00     0.022 C 
HETATM    3  C6  UNL     1      -6.447  30.028  48.755  1.00  0.00     0.075 C 
HETATM    4  S2  UNL     1      -6.147  28.643  47.642  1.00  0.00    -0.159 SA
HETATM    5  C7  UNL     1      -7.466  27.428  47.650  1.00  0.00     0.012 C 
HETATM    6  C8  UNL     1      -8.387  27.753  46.464  1.00  0.00     0.050 C 
HETATM    7  C9  UNL     1      -9.086  26.440  46.127  1.00  0.00     0.273 C 
HETATM    8  N2  UNL     1      -8.175  25.686  45.312  1.00  0.00     0.084 N 
HETATM    9  C10 UNL     1      -8.637  24.386  44.951  1.00  0.00     0.309 C 
HETATM   10  C11 UNL     1      -6.879  25.726  45.903  1.00  0.00     0.273 C 
HETATM   11  C12 UNL     1      -6.873  26.075  47.365  1.00  0.00     0.050 C 
HETATM   12  C13 UNL     1      -8.307  27.412  48.863  1.00  0.00     0.032 C 
ENDROOT
BRANCH   1  13
HETATM   13  C3  UNL     1      -9.147  28.443  50.851  1.00  0.00     0.102 A 
HETATM   14  N1  UNL     1      -9.230  28.889  52.088  1.00  0.00    -0.324 N 
HETATM   15  C2  UNL     1     -10.518  28.687  52.484  1.00  0.00     0.160 A 
ATOM     16  H1  UNL     1      -8.479  29.304  52.639  1.00  0.00     0.169 HD
HETATM   17  N4  UNL     1     -11.207  28.118  51.481  1.00  0.00    -0.278 N 
HETATM   18  N3  UNL     1     -10.351  27.974  50.485  1.00  0.00    -0.287 N 
ATOM     19  H4  UNL     1     -12.191  27.851  51.487  1.00  0.00     0.189 HD
ATOM     20  H3  UNL     1     -10.571  27.568  49.575  1.00  0.00     0.188 HD
BRANCH  15  21
HETATM   21  S1  UNL     1     -11.216  29.096  54.069  1.00  0.00    -0.097 SA
HETATM   22  C1  UNL     1      -9.927  29.061  55.327  1.00  0.00     0.099 C 
ENDBRANCH  15  21
ENDBRANCH   1  13
TORSDOF 2
ENDMDL
