MODEL 1
REMARK VINA RESULT: -5.677051306      0.000      0.000
REMARK  5 active torsions:
REMARK  status: ('A' for Active; 'I' for Inactive)
REMARK    1  A    between atoms: C1_2  and  C2_4 
REMARK    2  A    between atoms: C2_4  and  N2_5 
REMARK    3  A    between atoms: C4_10  and  O3_11 
REMARK    4  A    between atoms: C5_13  and  C6_14 
REMARK    5  A    between atoms: N4_15  and  N5_17 
ROOT
HETATM    1  N2  UNL     1     -14.466   0.909 -12.979  1.00  0.00    -0.257 N 
HETATM    2  C3  UNL     1     -15.304   0.869 -14.031  1.00  0.00     0.331 A 
HETATM    3  O2  UNL     1     -16.426   0.295 -13.931  1.00  0.00    -0.246 OA
HETATM    4  N3  UNL     1     -14.910   1.453 -15.177  1.00  0.00    -0.288 N 
ATOM      5  H3  UNL     1     -15.534   1.431 -15.983  1.00  0.00     0.172 HD
HETATM    6  C4  UNL     1     -13.704   2.072 -15.293  1.00  0.00     0.161 A 
HETATM    7  C5  UNL     1     -12.841   2.116 -14.220  1.00  0.00     0.100 A 
HETATM    8  C11 UNL     1     -13.248   1.518 -13.047  1.00  0.00     0.268 A 
HETATM    9  O4  UNL     1     -12.485   1.542 -12.053  1.00  0.00    -0.267 OA
ENDROOT
BRANCH   7  10
HETATM   10  C6  UNL     1     -11.554   2.773 -14.331  1.00  0.00     0.128 C 
HETATM   11  N4  UNL     1     -11.420   4.015 -14.649  1.00  0.00    -0.313 N 
ATOM     12  H4  UNL     1     -12.262   4.562 -14.832  1.00  0.00     0.185 HD
BRANCH  11  13
HETATM   13  N5  UNL     1     -10.186   4.646 -14.756  1.00  0.00    -0.325 N 
HETATM   14  C7  UNL     1      -9.113   4.237 -13.881  1.00  0.00     0.170 C 
HETATM   15  C8  UNL     1      -8.157   5.347 -13.586  1.00  0.00     0.253 C 
HETATM   16  N6  UNL     1      -7.808   6.158 -14.711  1.00  0.00    -0.072 N 
HETATM   17  C9  UNL     1      -8.421   5.717 -15.931  1.00  0.00     0.253 C 
ATOM     18  H62 UNL     1      -8.020   7.140 -14.531  1.00  0.00     0.277 HD
ATOM     19  H61 UNL     1      -6.796   6.221 -14.814  1.00  0.00     0.277 HD
HETATM   20  C10 UNL     1      -9.938   5.697 -15.709  1.00  0.00     0.170 C 
ENDBRANCH  11  13
ENDBRANCH   7  10
BRANCH   6  21
HETATM   21  O3  UNL     1     -13.297   2.673 -16.472  1.00  0.00    -0.345 OA
ATOM     22  H3  UNL     1     -12.564   3.276 -16.503  1.00  0.00     0.219 HD
ENDBRANCH   6  21
BRANCH   1  23
HETATM   23  C2  UNL     1     -14.838   0.296 -11.718  1.00  0.00     0.236 C 
BRANCH  23  24
HETATM   24  C1  UNL     1     -15.774   1.150 -10.973  1.00  0.00     0.249 C 
HETATM   25  N1  UNL     1     -15.368   2.462 -10.628  1.00  0.00    -0.061 NA
HETATM   26  O1  UNL     1     -16.909   0.683 -10.667  1.00  0.00    -0.275 OA
ENDBRANCH  23  24
ENDBRANCH   1  23
TORSDOF 5
ENDMDL
MODEL 2
REMARK VINA RESULT: -5.615008982      0.197      1.079
REMARK  5 active torsions:
REMARK  status: ('A' for Active; 'I' for Inactive)
REMARK    1  A    between atoms: C1_2  and  C2_4 
REMARK    2  A    between atoms: C2_4  and  N2_5 
REMARK    3  A    between atoms: C4_10  and  O3_11 
REMARK    4  A    between atoms: C5_13  and  C6_14 
REMARK    5  A    between atoms: N4_15  and  N5_17 
ROOT
HETATM    1  N2  UNL     1     -14.435   0.893 -12.964  1.00  0.00    -0.257 N 
HETATM    2  C3  UNL     1     -15.272   0.855 -14.017  1.00  0.00     0.331 A 
HETATM    3  O2  UNL     1     -16.392   0.277 -13.921  1.00  0.00    -0.246 OA
HETATM    4  N3  UNL     1     -14.878   1.445 -15.160  1.00  0.00    -0.288 N 
ATOM      5  H3  UNL     1     -15.501   1.425 -15.967  1.00  0.00     0.172 HD
HETATM    6  C4  UNL     1     -13.674   2.069 -15.272  1.00  0.00     0.161 A 
HETATM    7  C5  UNL     1     -12.813   2.111 -14.198  1.00  0.00     0.100 A 
HETATM    8  C11 UNL     1     -13.219   1.506 -13.027  1.00  0.00     0.268 A 
HETATM    9  O4  UNL     1     -12.457   1.528 -12.033  1.00  0.00    -0.267 OA
ENDROOT
BRANCH   7  10
HETATM   10  C6  UNL     1     -11.528   2.773 -14.304  1.00  0.00     0.128 C 
HETATM   11  N4  UNL     1     -11.396   4.009 -14.645  1.00  0.00    -0.313 N 
ATOM     12  H4  UNL     1     -12.238   4.547 -14.851  1.00  0.00     0.185 HD
BRANCH  11  13
HETATM   13  N5  UNL     1     -10.164   4.644 -14.747  1.00  0.00    -0.325 N 
HETATM   14  C7  UNL     1      -9.989   5.678 -15.740  1.00  0.00     0.170 C 
HETATM   15  C8  UNL     1      -8.580   5.776 -16.227  1.00  0.00     0.253 C 
HETATM   16  N6  UNL     1      -7.581   5.675 -15.209  1.00  0.00    -0.072 N 
HETATM   17  C9  UNL     1      -8.136   5.538 -13.892  1.00  0.00     0.253 C 
ATOM     18  H62 UNL     1      -6.931   4.916 -15.411  1.00  0.00     0.277 HD
ATOM     19  H61 UNL     1      -6.937   6.464 -15.252  1.00  0.00     0.277 HD
HETATM   20  C10 UNL     1      -9.050   4.308 -13.898  1.00  0.00     0.170 C 
ENDBRANCH  11  13
ENDBRANCH   7  10
BRANCH   6  21
HETATM   21  O3  UNL     1     -13.267   2.677 -16.448  1.00  0.00    -0.345 OA
ATOM     22  H3  UNL     1     -12.718   3.452 -16.451  1.00  0.00     0.219 HD
ENDBRANCH   6  21
BRANCH   1  23
HETATM   23  C2  UNL     1     -14.806   0.274 -11.706  1.00  0.00     0.236 C 
BRANCH  23  24
HETATM   24  C1  UNL     1     -15.758   1.113 -10.966  1.00  0.00     0.249 C 
HETATM   25  N1  UNL     1     -15.376   2.432 -10.623  1.00  0.00    -0.061 NA
HETATM   26  O1  UNL     1     -16.887   0.627 -10.663  1.00  0.00    -0.275 OA
ENDBRANCH  23  24
ENDBRANCH   1  23
TORSDOF 5
ENDMDL
MODEL 3
REMARK VINA RESULT: -5.612038386      3.320      6.069
REMARK  5 active torsions:
REMARK  status: ('A' for Active; 'I' for Inactive)
REMARK    1  A    between atoms: C1_2  and  C2_4 
REMARK    2  A    between atoms: C2_4  and  N2_5 
REMARK    3  A    between atoms: C4_10  and  O3_11 
REMARK    4  A    between atoms: C5_13  and  C6_14 
REMARK    5  A    between atoms: N4_15  and  N5_17 
ROOT
HETATM    1  N2  UNL     1     -15.102   1.774 -12.277  1.00  0.00    -0.257 N 
HETATM    2  C3  UNL     1     -14.294   2.844 -12.160  1.00  0.00     0.331 A 
HETATM    3  O2  UNL     1     -14.159   3.421 -11.043  1.00  0.00    -0.246 OA
HETATM    4  N3  UNL     1     -13.645   3.270 -13.258  1.00  0.00    -0.288 N 
ATOM      5  H3  UNL     1     -13.029   4.079 -13.186  1.00  0.00     0.172 HD
HETATM    6  C4  UNL     1     -13.785   2.654 -14.463  1.00  0.00     0.161 A 
HETATM    7  C5  UNL     1     -14.611   1.558 -14.590  1.00  0.00     0.100 A 
HETATM    8  C11 UNL     1     -15.274   1.123 -13.462  1.00  0.00     0.268 A 
HETATM    9  O4  UNL     1     -16.032   0.129 -13.547  1.00  0.00    -0.267 OA
ENDROOT
BRANCH   7  10
HETATM   10  C6  UNL     1     -14.768   0.893 -15.868  1.00  0.00     0.128 C 
HETATM   11  N4  UNL     1     -15.901   0.778 -16.469  1.00  0.00    -0.313 N 
ATOM     12  H4  UNL     1     -16.729   1.174 -16.024  1.00  0.00     0.185 HD
BRANCH  11  13
HETATM   13  N5  UNL     1     -16.053   0.140 -17.695  1.00  0.00    -0.325 N 
HETATM   14  C7  UNL     1     -16.165  -1.299 -17.727  1.00  0.00     0.170 C 
HETATM   15  C8  UNL     1     -15.635  -1.889 -18.993  1.00  0.00     0.253 C 
HETATM   16  N6  UNL     1     -15.989  -1.182 -20.184  1.00  0.00    -0.072 N 
HETATM   17  C9  UNL     1     -16.832  -0.048 -19.931  1.00  0.00     0.253 C 
ATOM     18  H62 UNL     1     -15.157  -0.908 -20.706  1.00  0.00     0.277 HD
ATOM     19  H61 UNL     1     -16.416  -1.808 -20.866  1.00  0.00     0.277 HD
HETATM   20  C10 UNL     1     -16.101   0.864 -18.940  1.00  0.00     0.170 C 
ENDBRANCH  11  13
ENDBRANCH   7  10
BRANCH   6  21
HETATM   21  O3  UNL     1     -13.118   3.092 -15.595  1.00  0.00    -0.345 OA
ATOM     22  H3  UNL     1     -13.485   2.996 -16.465  1.00  0.00     0.219 HD
ENDBRANCH   6  21
BRANCH   1  23
HETATM   23  C2  UNL     1     -15.827   1.269 -11.126  1.00  0.00     0.236 C 
BRANCH  23  24
HETATM   24  C1  UNL     1     -15.176   0.072 -10.577  1.00  0.00     0.249 C 
HETATM   25  N1  UNL     1     -13.762   0.006 -10.582  1.00  0.00    -0.061 NA
HETATM   26  O1  UNL     1     -15.903  -0.857 -10.117  1.00  0.00    -0.275 OA
ENDBRANCH  23  24
ENDBRANCH   1  23
TORSDOF 5
ENDMDL
MODEL 4
REMARK VINA RESULT: -5.606793593      1.179      1.235
REMARK  5 active torsions:
REMARK  status: ('A' for Active; 'I' for Inactive)
REMARK    1  A    between atoms: C1_2  and  C2_4 
REMARK    2  A    between atoms: C2_4  and  N2_5 
REMARK    3  A    between atoms: C4_10  and  O3_11 
REMARK    4  A    between atoms: C5_13  and  C6_14 
REMARK    5  A    between atoms: N4_15  and  N5_17 
ROOT
HETATM    1  N2  UNL     1     -15.165   1.686 -13.092  1.00  0.00    -0.257 N 
HETATM    2  C3  UNL     1     -15.471   0.802 -14.059  1.00  0.00     0.331 A 
HETATM    3  O2  UNL     1     -16.478   0.047 -13.937  1.00  0.00    -0.246 OA
HETATM    4  N3  UNL     1     -14.677   0.751 -15.143  1.00  0.00    -0.288 N 
ATOM      5  H3  UNL     1     -14.895   0.086 -15.885  1.00  0.00     0.172 HD
HETATM    6  C4  UNL     1     -13.592   1.560 -15.281  1.00  0.00     0.161 A 
HETATM    7  C5  UNL     1     -13.273   2.467 -14.294  1.00  0.00     0.100 A 
HETATM    8  C11 UNL     1     -14.090   2.518 -13.184  1.00  0.00     0.268 A 
HETATM    9  O4  UNL     1     -13.825   3.333 -12.270  1.00  0.00    -0.267 OA
ENDROOT
BRANCH   7  10
HETATM   10  C6  UNL     1     -12.120   3.334 -14.430  1.00  0.00     0.128 C 
HETATM   11  N4  UNL     1     -11.931   4.105 -15.445  1.00  0.00    -0.313 N 
ATOM     12  H4  UNL     1     -12.628   4.104 -16.190  1.00  0.00     0.185 HD
BRANCH  11  13
HETATM   13  N5  UNL     1     -10.826   4.937 -15.575  1.00  0.00    -0.325 N 
HETATM   14  C7  UNL     1      -9.541   4.474 -15.108  1.00  0.00     0.170 C 
HETATM   15  C8  UNL     1      -8.656   5.590 -14.656  1.00  0.00     0.253 C 
HETATM   16  N6  UNL     1      -8.665   6.745 -15.498  1.00  0.00    -0.072 N 
HETATM   17  C9  UNL     1      -9.503   6.591 -16.652  1.00  0.00     0.253 C 
ATOM     18  H62 UNL     1      -8.923   7.579 -14.970  1.00  0.00     0.277 HD
ATOM     19  H61 UNL     1      -7.717   7.006 -15.769  1.00  0.00     0.277 HD
HETATM   20  C10 UNL     1     -10.915   6.251 -16.161  1.00  0.00     0.170 C 
ENDBRANCH  11  13
ENDBRANCH   7  10
BRANCH   6  21
HETATM   21  O3  UNL     1     -12.773   1.508 -16.397  1.00  0.00    -0.345 OA
ATOM     22  H3  UNL     1     -13.104   1.268 -17.254  1.00  0.00     0.219 HD
ENDBRANCH   6  21
BRANCH   1  23
HETATM   23  C2  UNL     1     -15.986   1.786 -11.899  1.00  0.00     0.236 C 
BRANCH  23  24
HETATM   24  C1  UNL     1     -15.747   0.650 -10.998  1.00  0.00     0.249 C 
HETATM   25  N1  UNL     1     -14.414   0.335 -10.643  1.00  0.00    -0.061 NA
HETATM   26  O1  UNL     1     -16.742  -0.005 -10.572  1.00  0.00    -0.275 OA
ENDBRANCH  23  24
ENDBRANCH   1  23
TORSDOF 5
ENDMDL
MODEL 5
REMARK VINA RESULT: -5.574499664      3.312      6.195
REMARK  5 active torsions:
REMARK  status: ('A' for Active; 'I' for Inactive)
REMARK    1  A    between atoms: C1_2  and  C2_4 
REMARK    2  A    between atoms: C2_4  and  N2_5 
REMARK    3  A    between atoms: C4_10  and  O3_11 
REMARK    4  A    between atoms: C5_13  and  C6_14 
REMARK    5  A    between atoms: N4_15  and  N5_17 
ROOT
HETATM    1  N2  UNL     1     -15.112   1.814 -12.306  1.00  0.00    -0.257 N 
HETATM    2  C3  UNL     1     -14.305   2.887 -12.212  1.00  0.00     0.331 A 
HETATM    3  O2  UNL     1     -14.184   3.499 -11.112  1.00  0.00    -0.246 OA
HETATM    4  N3  UNL     1     -13.643   3.279 -13.315  1.00  0.00    -0.288 N 
ATOM      5  H3  UNL     1     -13.028   4.090 -13.260  1.00  0.00     0.172 HD
HETATM    6  C4  UNL     1     -13.768   2.626 -14.501  1.00  0.00     0.161 A 
HETATM    7  C5  UNL     1     -14.592   1.527 -14.605  1.00  0.00     0.100 A 
HETATM    8  C11 UNL     1     -15.269   1.127 -13.472  1.00  0.00     0.268 A 
HETATM    9  O4  UNL     1     -16.027   0.130 -13.535  1.00  0.00    -0.267 OA
ENDROOT
BRANCH   7  10
HETATM   10  C6  UNL     1     -14.734   0.823 -15.863  1.00  0.00     0.128 C 
HETATM   11  N4  UNL     1     -15.869   0.628 -16.440  1.00  0.00    -0.313 N 
ATOM     12  H4  UNL     1     -16.710   0.987 -15.988  1.00  0.00     0.185 HD
BRANCH  11  13
HETATM   13  N5  UNL     1     -16.006  -0.047 -17.647  1.00  0.00    -0.325 N 
HETATM   14  C7  UNL     1     -16.089   0.714 -18.870  1.00  0.00     0.170 C 
HETATM   15  C8  UNL     1     -16.893   0.024 -19.924  1.00  0.00     0.253 C 
HETATM   16  N6  UNL     1     -16.649  -1.380 -20.046  1.00  0.00    -0.072 N 
HETATM   17  C9  UNL     1     -15.636  -1.852 -19.147  1.00  0.00     0.253 C 
ATOM     18  H62 UNL     1     -17.513  -1.910 -19.933  1.00  0.00     0.277 HD
ATOM     19  H61 UNL     1     -16.425  -1.628 -21.010  1.00  0.00     0.277 HD
HETATM   20  C10 UNL     1     -16.069  -1.485 -17.723  1.00  0.00     0.170 C 
ENDBRANCH  11  13
ENDBRANCH   7  10
BRANCH   6  21
HETATM   21  O3  UNL     1     -13.087   3.029 -15.638  1.00  0.00    -0.345 OA
ATOM     22  H3  UNL     1     -12.544   2.431 -16.139  1.00  0.00     0.219 HD
ENDBRANCH   6  21
BRANCH   1  23
HETATM   23  C2  UNL     1     -15.851   1.345 -11.149  1.00  0.00     0.236 C 
BRANCH  23  24
HETATM   24  C1  UNL     1     -15.245   0.126 -10.595  1.00  0.00     0.249 C 
HETATM   25  N1  UNL     1     -13.834   0.021 -10.569  1.00  0.00    -0.061 NA
HETATM   26  O1  UNL     1     -16.007  -0.786 -10.160  1.00  0.00    -0.275 OA
ENDBRANCH  23  24
ENDBRANCH   1  23
TORSDOF 5
ENDMDL
