MODEL 1
REMARK VINA RESULT: -6.120579081      0.000      0.000
REMARK  5 active torsions:
REMARK  status: ('A' for Active; 'I' for Inactive)
REMARK       I    between atoms: C2_2  and  N1_4 
REMARK    1  A    between atoms: N1_4  and  C3_6 
REMARK    2  A    between atoms: C4_11  and  C5_12 
REMARK    3  A    between atoms: C5_12  and  N4_13 
REMARK       I    between atoms: N4_13  and  C6_15 
REMARK    4  A    between atoms: C6_15  and  C7_17 
REMARK    5  A    between atoms: C11_21  and  N5_22 
REMARK       I    between atoms: N5_22  and  C12_24 
ROOT
HETATM    1  N4  UNL     1       4.979 -12.852 -16.988  1.00  0.00    -0.355 N 
ATOM      2  H4  UNL     1       4.080 -12.383 -17.097  1.00  0.00     0.162 HD
HETATM    3  C6  UNL     1       5.333 -13.918 -17.847  1.00  0.00     0.222 C 
HETATM    4  O2  UNL     1       6.428 -14.514 -17.739  1.00  0.00    -0.273 OA
ENDROOT
BRANCH   1   5
HETATM    5  C5  UNL     1       5.901 -12.429 -15.950  1.00  0.00     0.189 C 
BRANCH   5   6
HETATM    6  C4  UNL     1       5.411 -13.004 -14.641  1.00  0.00     0.087 A 
HETATM    7  N3  UNL     1       4.455 -12.539 -13.850  1.00  0.00    -0.294 N 
HETATM    8  N2  UNL     1       4.164 -13.148 -12.776  1.00  0.00    -0.279 N 
ATOM      9  H3  UNL     1       3.952 -11.690 -14.105  1.00  0.00     0.187 HD
HETATM   10  C3  UNL     1       4.839 -14.262 -12.466  1.00  0.00     0.167 A 
ATOM     11  H2  UNL     1       3.430 -12.797 -12.160  1.00  0.00     0.189 HD
HETATM   12  S2  UNL     1       5.913 -14.396 -13.788  1.00  0.00    -0.036 SA
BRANCH  10  13
HETATM   13  N1  UNL     1       4.677 -15.021 -11.403  1.00  0.00    -0.306 N 
HETATM   14  C2  UNL     1       3.475 -14.837 -10.673  1.00  0.00     0.219 C 
HETATM   15  C1  UNL     1       3.566 -14.372  -9.261  1.00  0.00     0.117 C 
HETATM   16  O1  UNL     1       2.346 -15.055 -11.184  1.00  0.00    -0.274 OA
ATOM     17  H1  UNL     1       5.377 -15.705 -11.119  1.00  0.00     0.171 HD
ENDBRANCH  10  13
ENDBRANCH   5   6
ENDBRANCH   1   5
BRANCH   3  18
HETATM   18  C7  UNL     1       4.393 -14.346 -18.905  1.00  0.00     0.078 C 
HETATM   19  C8  UNL     1       5.102 -14.584 -20.205  1.00  0.00     0.014 C 
HETATM   20  C9  UNL     1       5.344 -13.321 -20.987  1.00  0.00     0.003 C 
HETATM   21  C10 UNL     1       4.215 -13.169 -22.008  1.00  0.00     0.025 C 
HETATM   22  C11 UNL     1       3.078 -12.479 -21.270  1.00  0.00     0.085 C 
HETATM   23  C13 UNL     1       2.496 -13.525 -20.321  1.00  0.00     0.026 C 
HETATM   24  C14 UNL     1       3.236 -13.400 -19.021  1.00  0.00     0.016 C 
BRANCH  22  25
HETATM   25  N5  UNL     1       2.123 -12.019 -22.222  1.00  0.00    -0.347 N 
HETATM   26  C12 UNL     1       1.953 -10.611 -22.480  1.00  0.00     0.291 C 
HETATM   27  O3  UNL     1       2.630  -9.746 -21.886  1.00  0.00    -0.260 OA
HETATM   28  S1  UNL     1       0.754 -10.041 -23.673  1.00  0.00     0.013 SA
ATOM     29  H5  UNL     1       1.551 -12.695 -22.728  1.00  0.00     0.163 HD
ENDBRANCH  22  25
ENDBRANCH   3  18
TORSDOF 5
ENDMDL
MODEL 2
REMARK VINA RESULT: -6.107427642      2.529      2.971
REMARK  5 active torsions:
REMARK  status: ('A' for Active; 'I' for Inactive)
REMARK       I    between atoms: C2_2  and  N1_4 
REMARK    1  A    between atoms: N1_4  and  C3_6 
REMARK    2  A    between atoms: C4_11  and  C5_12 
REMARK    3  A    between atoms: C5_12  and  N4_13 
REMARK       I    between atoms: N4_13  and  C6_15 
REMARK    4  A    between atoms: C6_15  and  C7_17 
REMARK    5  A    between atoms: C11_21  and  N5_22 
REMARK       I    between atoms: N5_22  and  C12_24 
ROOT
HETATM    1  N4  UNL     1       6.423 -13.556 -17.613  1.00  0.00    -0.355 N 
ATOM      2  H4  UNL     1       6.357 -12.574 -17.345  1.00  0.00     0.162 HD
HETATM    3  C6  UNL     1       6.045 -13.964 -18.913  1.00  0.00     0.222 C 
HETATM    4  O2  UNL     1       6.115 -15.160 -19.273  1.00  0.00    -0.273 OA
ENDROOT
BRANCH   1   5
HETATM    5  C5  UNL     1       6.906 -14.540 -16.662  1.00  0.00     0.189 C 
BRANCH   5   6
HETATM    6  C4  UNL     1       5.869 -14.668 -15.571  1.00  0.00     0.087 A 
HETATM    7  N3  UNL     1       5.767 -15.611 -14.646  1.00  0.00    -0.294 N 
HETATM    8  N2  UNL     1       4.827 -15.570 -13.794  1.00  0.00    -0.279 N 
ATOM      9  H3  UNL     1       6.445 -16.372 -14.618  1.00  0.00     0.187 HD
HETATM   10  C3  UNL     1       3.952 -14.560 -13.852  1.00  0.00     0.167 A 
ATOM     11  H2  UNL     1       4.741 -16.293 -13.079  1.00  0.00     0.189 HD
HETATM   12  S2  UNL     1       4.537 -13.669 -15.188  1.00  0.00    -0.036 SA
BRANCH  10  13
HETATM   13  N1  UNL     1       2.921 -14.354 -13.060  1.00  0.00    -0.306 N 
HETATM   14  C2  UNL     1       1.711 -15.000 -13.416  1.00  0.00     0.219 C 
HETATM   15  C1  UNL     1       0.527 -14.160 -13.746  1.00  0.00     0.117 C 
HETATM   16  O1  UNL     1       1.615 -16.254 -13.460  1.00  0.00    -0.274 OA
ATOM     17  H1  UNL     1       2.990 -13.760 -12.233  1.00  0.00     0.171 HD
ENDBRANCH  10  13
ENDBRANCH   5   6
ENDBRANCH   1   5
BRANCH   3  18
HETATM   18  C7  UNL     1       5.555 -12.959 -19.880  1.00  0.00     0.078 C 
HETATM   19  C8  UNL     1       4.316 -12.276 -19.381  1.00  0.00     0.014 C 
HETATM   20  C9  UNL     1       3.061 -13.069 -19.629  1.00  0.00     0.003 C 
HETATM   21  C10 UNL     1       2.423 -12.560 -20.922  1.00  0.00     0.025 C 
HETATM   22  C11 UNL     1       3.110 -13.317 -22.049  1.00  0.00     0.085 C 
HETATM   23  C13 UNL     1       4.518 -12.735 -22.150  1.00  0.00     0.026 C 
HETATM   24  C14 UNL     1       5.398 -13.551 -21.248  1.00  0.00     0.016 C 
BRANCH  22  25
HETATM   25  N5  UNL     1       2.360 -13.136 -23.248  1.00  0.00    -0.347 N 
HETATM   26  C12 UNL     1       2.385 -14.129 -24.293  1.00  0.00     0.291 C 
HETATM   27  O3  UNL     1       3.057 -15.177 -24.191  1.00  0.00    -0.260 OA
HETATM   28  S1  UNL     1       1.445 -13.897 -25.793  1.00  0.00     0.013 SA
ATOM     29  H5  UNL     1       1.799 -12.294 -23.368  1.00  0.00     0.163 HD
ENDBRANCH  22  25
ENDBRANCH   3  18
TORSDOF 5
ENDMDL
MODEL 3
REMARK VINA RESULT: -6.107306937      1.919      2.165
REMARK  5 active torsions:
REMARK  status: ('A' for Active; 'I' for Inactive)
REMARK       I    between atoms: C2_2  and  N1_4 
REMARK    1  A    between atoms: N1_4  and  C3_6 
REMARK    2  A    between atoms: C4_11  and  C5_12 
REMARK    3  A    between atoms: C5_12  and  N4_13 
REMARK       I    between atoms: N4_13  and  C6_15 
REMARK    4  A    between atoms: C6_15  and  C7_17 
REMARK    5  A    between atoms: C11_21  and  N5_22 
REMARK       I    between atoms: N5_22  and  C12_24 
ROOT
HETATM    1  N4  UNL     1       4.511 -13.205 -17.192  1.00  0.00    -0.355 N 
ATOM      2  H4  UNL     1       4.021 -14.073 -16.975  1.00  0.00     0.162 HD
HETATM    3  C6  UNL     1       4.312 -12.570 -18.440  1.00  0.00     0.222 C 
HETATM    4  O2  UNL     1       4.897 -11.505 -18.737  1.00  0.00    -0.273 OA
ENDROOT
BRANCH   1   5
HETATM    5  C5  UNL     1       5.415 -12.615 -16.222  1.00  0.00     0.189 C 
BRANCH   5   6
HETATM    6  C4  UNL     1       5.034 -13.149 -14.860  1.00  0.00     0.087 A 
HETATM    7  N3  UNL     1       4.208 -12.614 -13.973  1.00  0.00    -0.294 N 
HETATM    8  N2  UNL     1       3.996 -13.196 -12.866  1.00  0.00    -0.279 N 
ATOM      9  H3  UNL     1       3.741 -11.731 -14.181  1.00  0.00     0.187 HD
HETATM   10  C3  UNL     1       4.622 -14.353 -12.620  1.00  0.00     0.167 A 
ATOM     11  H2  UNL     1       3.362 -12.790 -12.178  1.00  0.00     0.189 HD
HETATM   12  S2  UNL     1       5.530 -14.569 -14.051  1.00  0.00    -0.036 SA
BRANCH  10  13
HETATM   13  N1  UNL     1       4.526 -15.094 -11.536  1.00  0.00    -0.306 N 
HETATM   14  C2  UNL     1       3.379 -14.886 -10.729  1.00  0.00     0.219 C 
HETATM   15  C1  UNL     1       3.571 -14.400  -9.334  1.00  0.00     0.117 C 
HETATM   16  O1  UNL     1       2.216 -15.101 -11.157  1.00  0.00    -0.274 OA
ATOM     17  H1  UNL     1       5.238 -15.781 -11.291  1.00  0.00     0.171 HD
ENDBRANCH  10  13
ENDBRANCH   5   6
ENDBRANCH   1   5
BRANCH   3  18
HETATM   18  C7  UNL     1       3.389 -13.172 -19.426  1.00  0.00     0.078 C 
HETATM   19  C8  UNL     1       3.684 -14.628 -19.636  1.00  0.00     0.014 C 
HETATM   20  C9  UNL     1       4.812 -14.871 -20.602  1.00  0.00     0.003 C 
HETATM   21  C10 UNL     1       4.209 -15.132 -21.983  1.00  0.00     0.025 C 
HETATM   22  C11 UNL     1       3.987 -13.762 -22.605  1.00  0.00     0.085 C 
HETATM   23  C13 UNL     1       2.802 -13.148 -21.862  1.00  0.00     0.026 C 
HETATM   24  C14 UNL     1       3.361 -12.381 -20.699  1.00  0.00     0.016 C 
BRANCH  22  25
HETATM   25  N5  UNL     1       3.730 -13.924 -23.998  1.00  0.00    -0.347 N 
HETATM   26  C12 UNL     1       4.234 -12.976 -24.959  1.00  0.00     0.291 C 
HETATM   27  O3  UNL     1       4.911 -11.985 -24.615  1.00  0.00    -0.260 OA
HETATM   28  S1  UNL     1       3.907 -13.184 -26.702  1.00  0.00     0.013 SA
ATOM     29  H5  UNL     1       3.181 -14.722 -24.318  1.00  0.00     0.163 HD
ENDBRANCH  22  25
ENDBRANCH   3  18
TORSDOF 5
ENDMDL
MODEL 4
REMARK VINA RESULT: -6.045616211      2.592      3.278
REMARK  5 active torsions:
REMARK  status: ('A' for Active; 'I' for Inactive)
REMARK       I    between atoms: C2_2  and  N1_4 
REMARK    1  A    between atoms: N1_4  and  C3_6 
REMARK    2  A    between atoms: C4_11  and  C5_12 
REMARK    3  A    between atoms: C5_12  and  N4_13 
REMARK       I    between atoms: N4_13  and  C6_15 
REMARK    4  A    between atoms: C6_15  and  C7_17 
REMARK    5  A    between atoms: C11_21  and  N5_22 
REMARK       I    between atoms: N5_22  and  C12_24 
ROOT
HETATM    1  N4  UNL     1       4.804 -12.736 -17.138  1.00  0.00    -0.355 N 
ATOM      2  H4  UNL     1       4.174 -13.530 -17.029  1.00  0.00     0.162 HD
HETATM    3  C6  UNL     1       4.849 -12.028 -18.360  1.00  0.00     0.222 C 
HETATM    4  O2  UNL     1       5.611 -11.049 -18.526  1.00  0.00    -0.273 OA
ENDROOT
BRANCH   1   5
HETATM    5  C5  UNL     1       5.658 -12.327 -16.038  1.00  0.00     0.189 C 
BRANCH   5   6
HETATM    6  C4  UNL     1       5.154 -13.011 -14.789  1.00  0.00     0.087 A 
HETATM    7  N3  UNL     1       3.950 -12.932 -14.241  1.00  0.00    -0.294 N 
HETATM    8  N2  UNL     1       3.688 -13.577 -13.181  1.00  0.00    -0.279 N 
ATOM      9  H3  UNL     1       3.232 -12.351 -14.674  1.00  0.00     0.187 HD
HETATM   10  C3  UNL     1       4.648 -14.333 -12.635  1.00  0.00     0.167 A 
ATOM     11  H2  UNL     1       2.764 -13.521 -12.752  1.00  0.00     0.189 HD
HETATM   12  S2  UNL     1       5.948 -14.075 -13.714  1.00  0.00    -0.036 SA
BRANCH  10  13
HETATM   13  N1  UNL     1       4.561 -15.066 -11.545  1.00  0.00    -0.306 N 
HETATM   14  C2  UNL     1       3.404 -14.877 -10.748  1.00  0.00     0.219 C 
HETATM   15  C1  UNL     1       3.574 -14.375  -9.357  1.00  0.00     0.117 C 
HETATM   16  O1  UNL     1       2.249 -15.121 -11.184  1.00  0.00    -0.274 OA
ATOM     17  H1  UNL     1       5.286 -15.734 -11.288  1.00  0.00     0.171 HD
ENDBRANCH  10  13
ENDBRANCH   5   6
ENDBRANCH   1   5
BRANCH   3  18
HETATM   18  C7  UNL     1       3.976 -12.446 -19.479  1.00  0.00     0.078 C 
HETATM   19  C8  UNL     1       3.334 -13.774 -19.206  1.00  0.00     0.014 C 
HETATM   20  C9  UNL     1       4.231 -14.941 -19.522  1.00  0.00     0.003 C 
HETATM   21  C10 UNL     1       3.892 -15.436 -20.928  1.00  0.00     0.025 C 
HETATM   22  C11 UNL     1       4.704 -14.571 -21.879  1.00  0.00     0.085 C 
HETATM   23  C13 UNL     1       4.041 -13.196 -21.869  1.00  0.00     0.026 C 
HETATM   24  C14 UNL     1       4.706 -12.394 -20.787  1.00  0.00     0.016 C 
BRANCH  22  25
HETATM   25  N5  UNL     1       4.691 -15.170 -23.173  1.00  0.00    -0.347 N 
HETATM   26  C12 UNL     1       5.659 -16.176 -23.533  1.00  0.00     0.291 C 
HETATM   27  O3  UNL     1       6.539 -16.559 -22.735  1.00  0.00    -0.260 OA
HETATM   28  S1  UNL     1       5.637 -16.921 -25.155  1.00  0.00     0.013 SA
ATOM     29  H5  UNL     1       3.986 -14.884 -23.852  1.00  0.00     0.163 HD
ENDBRANCH  22  25
ENDBRANCH   3  18
TORSDOF 5
ENDMDL
MODEL 5
REMARK VINA RESULT: -5.987272939      2.123      2.180
REMARK  5 active torsions:
REMARK  status: ('A' for Active; 'I' for Inactive)
REMARK       I    between atoms: C2_2  and  N1_4 
REMARK    1  A    between atoms: N1_4  and  C3_6 
REMARK    2  A    between atoms: C4_11  and  C5_12 
REMARK    3  A    between atoms: C5_12  and  N4_13 
REMARK       I    between atoms: N4_13  and  C6_15 
REMARK    4  A    between atoms: C6_15  and  C7_17 
REMARK    5  A    between atoms: C11_21  and  N5_22 
REMARK       I    between atoms: N5_22  and  C12_24 
ROOT
HETATM    1  N4  UNL     1       5.915 -13.577 -17.052  1.00  0.00    -0.355 N 
ATOM      2  H4  UNL     1       6.729 -14.192 -17.062  1.00  0.00     0.162 HD
HETATM    3  C6  UNL     1       4.892 -13.737 -18.014  1.00  0.00     0.222 C 
HETATM    4  O2  UNL     1       3.881 -13.000 -18.029  1.00  0.00    -0.273 OA
ENDROOT
BRANCH   1   5
HETATM    5  C5  UNL     1       5.801 -12.535 -16.048  1.00  0.00     0.189 C 
BRANCH   5   6
HETATM    6  C4  UNL     1       5.256 -13.169 -14.790  1.00  0.00     0.087 A 
HETATM    7  N3  UNL     1       4.074 -12.978 -14.222  1.00  0.00    -0.294 N 
HETATM    8  N2  UNL     1       3.770 -13.595 -13.157  1.00  0.00    -0.279 N 
ATOM      9  H3  UNL     1       3.406 -12.332 -14.644  1.00  0.00     0.187 HD
HETATM   10  C3  UNL     1       4.664 -14.438 -12.626  1.00  0.00     0.167 A 
ATOM     11  H2  UNL     1       2.862 -13.453 -12.714  1.00  0.00     0.189 HD
HETATM   12  S2  UNL     1       5.964 -14.303 -13.727  1.00  0.00    -0.036 SA
BRANCH  10  13
HETATM   13  N1  UNL     1       4.526 -15.160 -11.534  1.00  0.00    -0.306 N 
HETATM   14  C2  UNL     1       3.370 -14.909 -10.753  1.00  0.00     0.219 C 
HETATM   15  C1  UNL     1       3.548 -14.408  -9.362  1.00  0.00     0.117 C 
HETATM   16  O1  UNL     1       2.210 -15.097 -11.202  1.00  0.00    -0.274 OA
ATOM     17  H1  UNL     1       5.214 -15.863 -11.265  1.00  0.00     0.171 HD
ENDBRANCH  10  13
ENDBRANCH   5   6
ENDBRANCH   1   5
BRANCH   3  18
HETATM   18  C7  UNL     1       5.009 -14.800 -19.035  1.00  0.00     0.078 C 
HETATM   19  C8  UNL     1       6.269 -14.655 -19.836  1.00  0.00     0.014 C 
HETATM   20  C9  UNL     1       6.150 -13.652 -20.952  1.00  0.00     0.003 C 
HETATM   21  C10 UNL     1       5.810 -14.408 -22.237  1.00  0.00     0.025 C 
HETATM   22  C11 UNL     1       4.298 -14.569 -22.236  1.00  0.00     0.085 C 
HETATM   23  C13 UNL     1       3.987 -15.618 -21.171  1.00  0.00     0.026 C 
HETATM   24  C14 UNL     1       3.774 -14.884 -19.879  1.00  0.00     0.016 C 
BRANCH  22  25
HETATM   25  N5  UNL     1       3.877 -14.975 -23.537  1.00  0.00    -0.347 N 
HETATM   26  C12 UNL     1       2.749 -14.348 -24.179  1.00  0.00     0.291 C 
HETATM   27  O3  UNL     1       2.102 -13.433 -23.628  1.00  0.00    -0.260 OA
HETATM   28  S1  UNL     1       2.226 -14.861 -25.807  1.00  0.00     0.013 SA
ATOM     29  H5  UNL     1       4.381 -15.718 -24.019  1.00  0.00     0.163 HD
ENDBRANCH  22  25
ENDBRANCH   3  18
TORSDOF 5
ENDMDL
