MODEL 1
REMARK VINA RESULT: -5.874965069      0.000      0.000
REMARK  11 active torsions:
REMARK  status: ('A' for Active; 'I' for Inactive)
REMARK    1  A    between atoms: O1_1  and  C1_3 
REMARK    2  A    between atoms: C1_3  and  N1_4 
REMARK    3  A    between atoms: N1_4  and  C2_5 
REMARK    4  A    between atoms: C2_5  and  C3_6 
REMARK    5  A    between atoms: C2_5  and  C13_27 
REMARK    6  A    between atoms: C3_6  and  C4_7 
REMARK    7  A    between atoms: C4_7  and  N2_8 
REMARK    8  A    between atoms: C5_10  and  C6_11 
REMARK    9  A    between atoms: C6_11  and  S1_12 
REMARK   10  A    between atoms: S1_12  and  C7_13 
REMARK   11  A    between atoms: C7_13  and  C8_14 
ROOT
HETATM    1  S1  UNL     1      14.972 -65.119  24.958  1.00  0.00    -0.158 SA
ENDROOT
BRANCH   1   2
HETATM    2  C6  UNL     1      13.222 -64.583  24.697  1.00  0.00     0.118 C 
BRANCH   2   3
HETATM    3  C5  UNL     1      13.344 -63.497  23.640  1.00  0.00     0.070 C 
HETATM    4  N2  UNL     1      14.143 -63.573  22.547  1.00  0.00    -0.381 N 
ATOM      5  H2  UNL     1      15.044 -63.095  22.563  1.00  0.00     0.164 HD
BRANCH   4   6
HETATM    6  C4  UNL     1      13.770 -64.296  21.374  1.00  0.00     0.067 C 
BRANCH   6   7
HETATM    7  C3  UNL     1      14.262 -63.815  20.102  1.00  0.00     0.124 C 
BRANCH   7   8
HETATM    8  C2  UNL     1      13.998 -62.307  19.815  1.00  0.00     0.167 C 
BRANCH   8   9
HETATM    9  N1  UNL     1      15.084 -61.573  20.222  1.00  0.00    -0.392 NA
BRANCH   9  10
HETATM   10  C1  UNL     1      16.206 -60.842  20.618  1.00  0.00     0.317 C 
BRANCH  10  11
HETATM   11  O1  UNL     1      15.950 -59.591  20.955  1.00  0.00    -0.346 OA
ATOM     12  H1  UNL     1      15.861 -59.448  21.890  1.00  0.00     0.219 HD
ENDBRANCH  10  11
ENDBRANCH   9  10
ENDBRANCH   8   9
BRANCH   8  13
HETATM   13  C13 UNL     1      12.667 -61.774  19.951  1.00  0.00     0.237 C 
HETATM   14  O3  UNL     1      11.763 -61.852  19.151  1.00  0.00    -0.642 OA
HETATM   15  O4  UNL     1      12.420 -61.082  21.173  1.00  0.00    -0.642 OA
ENDBRANCH   8  13
ENDBRANCH   7   8
ENDBRANCH   6   7
ENDBRANCH   4   6
ENDBRANCH   2   3
ENDBRANCH   1   2
BRANCH   1  16
HETATM   16  C7  UNL     1      15.500 -66.479  24.026  1.00  0.00     0.135 C 
BRANCH  16  17
HETATM   17  C8  UNL     1      16.769 -66.456  23.322  1.00  0.00     0.061 A 
HETATM   18  C9  UNL     1      16.934 -65.973  22.001  1.00  0.00     0.118 A 
HETATM   19  N3  UNL     1      18.248 -66.039  21.802  1.00  0.00    -0.344 N 
HETATM   20  C10 UNL     1      18.884 -66.511  22.876  1.00  0.00     0.196 A 
ATOM     21  H3  UNL     1      18.711 -65.764  20.936  1.00  0.00     0.167 HD
HETATM   22  C11 UNL     1      20.241 -66.688  23.215  1.00  0.00     0.292 A 
HETATM   23  N6  UNL     1      17.939 -66.779  23.832  1.00  0.00    -0.236 N 
HETATM   24  O2  UNL     1      21.056 -66.409  22.367  1.00  0.00    -0.264 OA
HETATM   25  N4  UNL     1      20.516 -67.122  24.442  1.00  0.00    -0.315 N 
HETATM   26  C12 UNL     1      19.583 -67.390  25.357  1.00  0.00     0.201 A 
ATOM     27  H4  UNL     1      21.494 -67.257  24.697  1.00  0.00     0.170 HD
HETATM   28  N5  UNL     1      18.299 -67.217  25.056  1.00  0.00    -0.288 N 
ATOM     29  H5  UNL     1      17.582 -67.417  25.753  1.00  0.00     0.188 HD
ENDBRANCH  16  17
ENDBRANCH   1  16
TORSDOF 11
ENDMDL
MODEL 2
REMARK VINA RESULT: -5.824282410      3.165      6.443
REMARK  11 active torsions:
REMARK  status: ('A' for Active; 'I' for Inactive)
REMARK    1  A    between atoms: O1_1  and  C1_3 
REMARK    2  A    between atoms: C1_3  and  N1_4 
REMARK    3  A    between atoms: N1_4  and  C2_5 
REMARK    4  A    between atoms: C2_5  and  C3_6 
REMARK    5  A    between atoms: C2_5  and  C13_27 
REMARK    6  A    between atoms: C3_6  and  C4_7 
REMARK    7  A    between atoms: C4_7  and  N2_8 
REMARK    8  A    between atoms: C5_10  and  C6_11 
REMARK    9  A    between atoms: C6_11  and  S1_12 
REMARK   10  A    between atoms: S1_12  and  C7_13 
REMARK   11  A    between atoms: C7_13  and  C8_14 
ROOT
HETATM    1  S1  UNL     1      13.917 -64.932  25.053  1.00  0.00    -0.158 SA
ENDROOT
BRANCH   1   2
HETATM    2  C6  UNL     1      15.472 -65.930  25.139  1.00  0.00     0.118 C 
BRANCH   2   3
HETATM    3  C5  UNL     1      14.962 -67.359  25.242  1.00  0.00     0.070 C 
HETATM    4  N2  UNL     1      14.377 -68.043  24.227  1.00  0.00    -0.381 N 
ATOM      5  H2  UNL     1      13.360 -68.110  24.203  1.00  0.00     0.164 HD
BRANCH   4   6
HETATM    6  C4  UNL     1      15.131 -68.672  23.191  1.00  0.00     0.067 C 
BRANCH   6   7
HETATM    7  C3  UNL     1      14.958 -68.185  21.841  1.00  0.00     0.124 C 
BRANCH   7   8
HETATM    8  C2  UNL     1      14.221 -66.819  21.718  1.00  0.00     0.167 C 
BRANCH   8   9
HETATM    9  N1  UNL     1      12.866 -67.037  21.689  1.00  0.00    -0.392 NA
BRANCH   9  10
HETATM   10  C1  UNL     1      11.492 -67.281  21.638  1.00  0.00     0.317 C 
BRANCH  10  11
HETATM   11  O1  UNL     1      11.055 -67.693  20.461  1.00  0.00    -0.346 OA
ATOM     12  H1  UNL     1      10.171 -67.415  20.252  1.00  0.00     0.219 HD
ENDBRANCH  10  11
ENDBRANCH   9  10
ENDBRANCH   8   9
BRANCH   8  13
HETATM   13  C13 UNL     1      14.804 -65.757  20.939  1.00  0.00     0.237 C 
HETATM   14  O3  UNL     1      14.436 -65.355  19.859  1.00  0.00    -0.642 OA
HETATM   15  O4  UNL     1      15.941 -65.132  21.533  1.00  0.00    -0.642 OA
ENDBRANCH   8  13
ENDBRANCH   7   8
ENDBRANCH   6   7
ENDBRANCH   4   6
ENDBRANCH   2   3
ENDBRANCH   1   2
BRANCH   1  16
HETATM   16  C7  UNL     1      14.040 -63.397  24.261  1.00  0.00     0.135 C 
BRANCH  16  17
HETATM   17  C8  UNL     1      13.429 -63.174  22.963  1.00  0.00     0.061 A 
HETATM   18  C9  UNL     1      12.097 -63.529  22.642  1.00  0.00     0.118 A 
HETATM   19  N3  UNL     1      11.932 -63.055  21.410  1.00  0.00    -0.344 N 
HETATM   20  C10 UNL     1      13.034 -62.449  20.965  1.00  0.00     0.196 A 
ATOM     21  H3  UNL     1      11.070 -63.144  20.872  1.00  0.00     0.167 HD
HETATM   22  C11 UNL     1      13.353 -61.721  19.801  1.00  0.00     0.292 A 
HETATM   23  N6  UNL     1      13.981 -62.535  21.953  1.00  0.00    -0.236 N 
HETATM   24  O2  UNL     1      12.488 -61.628  18.961  1.00  0.00    -0.264 OA
HETATM   25  N4  UNL     1      14.565 -61.176  19.730  1.00  0.00    -0.315 N 
HETATM   26  C12 UNL     1      15.479 -61.280  20.696  1.00  0.00     0.201 A 
ATOM     27  H4  UNL     1      14.808 -60.651  18.891  1.00  0.00     0.170 HD
HETATM   28  N5  UNL     1      15.189 -61.955  21.805  1.00  0.00    -0.288 N 
ATOM     29  H5  UNL     1      15.883 -62.034  22.548  1.00  0.00     0.188 HD
ENDBRANCH  16  17
ENDBRANCH   1  16
TORSDOF 11
ENDMDL
MODEL 3
REMARK VINA RESULT: -5.821921805      3.857      5.710
REMARK  11 active torsions:
REMARK  status: ('A' for Active; 'I' for Inactive)
REMARK    1  A    between atoms: O1_1  and  C1_3 
REMARK    2  A    between atoms: C1_3  and  N1_4 
REMARK    3  A    between atoms: N1_4  and  C2_5 
REMARK    4  A    between atoms: C2_5  and  C3_6 
REMARK    5  A    between atoms: C2_5  and  C13_27 
REMARK    6  A    between atoms: C3_6  and  C4_7 
REMARK    7  A    between atoms: C4_7  and  N2_8 
REMARK    8  A    between atoms: C5_10  and  C6_11 
REMARK    9  A    between atoms: C6_11  and  S1_12 
REMARK   10  A    between atoms: S1_12  and  C7_13 
REMARK   11  A    between atoms: C7_13  and  C8_14 
ROOT
HETATM    1  S1  UNL     1      13.072 -65.444  25.302  1.00  0.00    -0.158 SA
ENDROOT
BRANCH   1   2
HETATM    2  C6  UNL     1      14.311 -64.093  25.057  1.00  0.00     0.118 C 
BRANCH   2   3
HETATM    3  C5  UNL     1      13.793 -63.364  23.827  1.00  0.00     0.070 C 
HETATM    4  N2  UNL     1      14.571 -62.929  22.805  1.00  0.00    -0.381 N 
ATOM      5  H2  UNL     1      14.839 -61.946  22.776  1.00  0.00     0.164 HD
BRANCH   4   6
HETATM    6  C4  UNL     1      15.028 -63.796  21.766  1.00  0.00     0.067 C 
BRANCH   6   7
HETATM    7  C3  UNL     1      14.329 -63.758  20.502  1.00  0.00     0.124 C 
BRANCH   7   8
HETATM    8  C2  UNL     1      14.037 -62.333  19.947  1.00  0.00     0.167 C 
BRANCH   8   9
HETATM    9  N1  UNL     1      15.128 -61.529  20.169  1.00  0.00    -0.392 NA
BRANCH   9  10
HETATM   10  C1  UNL     1      16.218 -60.689  20.400  1.00  0.00     0.317 C 
BRANCH  10  11
HETATM   11  O1  UNL     1      15.908 -59.540  20.974  1.00  0.00    -0.346 OA
ATOM     12  H1  UNL     1      15.349 -58.978  20.450  1.00  0.00     0.219 HD
ENDBRANCH  10  11
ENDBRANCH   9  10
ENDBRANCH   8   9
BRANCH   8  13
HETATM   13  C13 UNL     1      12.705 -61.791  20.027  1.00  0.00     0.237 C 
HETATM   14  O3  UNL     1      11.848 -61.829  19.175  1.00  0.00    -0.642 OA
HETATM   15  O4  UNL     1      12.396 -61.141  21.259  1.00  0.00    -0.642 OA
ENDBRANCH   8  13
ENDBRANCH   7   8
ENDBRANCH   6   7
ENDBRANCH   4   6
ENDBRANCH   2   3
ENDBRANCH   1   2
BRANCH   1  16
HETATM   16  C7  UNL     1      11.806 -65.541  24.125  1.00  0.00     0.135 C 
BRANCH  16  17
HETATM   17  C8  UNL     1      11.905 -66.443  22.992  1.00  0.00     0.061 A 
HETATM   18  C9  UNL     1      13.128 -66.929  22.472  1.00  0.00     0.118 A 
HETATM   19  N3  UNL     1      12.750 -67.789  21.528  1.00  0.00    -0.344 N 
HETATM   20  C10 UNL     1      11.422 -67.865  21.437  1.00  0.00     0.196 A 
ATOM     21  H3  UNL     1      13.396 -68.322  20.947  1.00  0.00     0.167 HD
HETATM   22  C11 UNL     1      10.532 -68.663  20.690  1.00  0.00     0.292 A 
HETATM   23  N6  UNL     1      10.893 -67.004  22.364  1.00  0.00    -0.236 N 
HETATM   24  O2  UNL     1      11.024 -69.441  19.906  1.00  0.00    -0.264 OA
HETATM   25  N4  UNL     1       9.231 -68.516  20.922  1.00  0.00    -0.315 N 
HETATM   26  C12 UNL     1       8.732 -67.664  21.820  1.00  0.00     0.201 A 
ATOM     27  H4  UNL     1       8.578 -69.085  20.385  1.00  0.00     0.170 HD
HETATM   28  N5  UNL     1       9.560 -66.911  22.541  1.00  0.00    -0.288 N 
ATOM     29  H5  UNL     1       9.184 -66.261  23.231  1.00  0.00     0.188 HD
ENDBRANCH  16  17
ENDBRANCH   1  16
TORSDOF 11
ENDMDL
MODEL 4
REMARK VINA RESULT: -5.820868909      4.044      6.803
REMARK  11 active torsions:
REMARK  status: ('A' for Active; 'I' for Inactive)
REMARK    1  A    between atoms: O1_1  and  C1_3 
REMARK    2  A    between atoms: C1_3  and  N1_4 
REMARK    3  A    between atoms: N1_4  and  C2_5 
REMARK    4  A    between atoms: C2_5  and  C3_6 
REMARK    5  A    between atoms: C2_5  and  C13_27 
REMARK    6  A    between atoms: C3_6  and  C4_7 
REMARK    7  A    between atoms: C4_7  and  N2_8 
REMARK    8  A    between atoms: C5_10  and  C6_11 
REMARK    9  A    between atoms: C6_11  and  S1_12 
REMARK   10  A    between atoms: S1_12  and  C7_13 
REMARK   11  A    between atoms: C7_13  and  C8_14 
ROOT
HETATM    1  S1  UNL     1      12.543 -65.448  24.328  1.00  0.00    -0.158 SA
ENDROOT
BRANCH   1   2
HETATM    2  C6  UNL     1      13.697 -64.084  24.807  1.00  0.00     0.118 C 
BRANCH   2   3
HETATM    3  C5  UNL     1      13.637 -63.143  23.614  1.00  0.00     0.070 C 
HETATM    4  N2  UNL     1      14.678 -62.885  22.784  1.00  0.00    -0.381 N 
ATOM      5  H2  UNL     1      15.214 -62.028  22.920  1.00  0.00     0.164 HD
BRANCH   4   6
HETATM    6  C4  UNL     1      15.053 -63.769  21.726  1.00  0.00     0.067 C 
BRANCH   6   7
HETATM    7  C3  UNL     1      14.284 -63.717  20.503  1.00  0.00     0.124 C 
BRANCH   7   8
HETATM    8  C2  UNL     1      13.973 -62.286  19.974  1.00  0.00     0.167 C 
BRANCH   8   9
HETATM    9  N1  UNL     1      15.085 -61.495  20.130  1.00  0.00    -0.392 NA
BRANCH   9  10
HETATM   10  C1  UNL     1      16.230 -60.715  20.298  1.00  0.00     0.317 C 
BRANCH  10  11
HETATM   11  O1  UNL     1      16.033 -59.597  20.975  1.00  0.00    -0.346 OA
ATOM     12  H1  UNL     1      16.433 -58.828  20.587  1.00  0.00     0.219 HD
ENDBRANCH  10  11
ENDBRANCH   9  10
ENDBRANCH   8   9
BRANCH   8  13
HETATM   13  C13 UNL     1      12.655 -61.730  20.141  1.00  0.00     0.237 C 
HETATM   14  O3  UNL     1      12.225 -61.146  21.109  1.00  0.00    -0.642 OA
HETATM   15  O4  UNL     1      11.784 -61.907  19.025  1.00  0.00    -0.642 OA
ENDBRANCH   8  13
ENDBRANCH   7   8
ENDBRANCH   6   7
ENDBRANCH   4   6
ENDBRANCH   2   3
ENDBRANCH   1   2
BRANCH   1  16
HETATM   16  C7  UNL     1      11.424 -65.090  23.058  1.00  0.00     0.135 C 
BRANCH  16  17
HETATM   17  C8  UNL     1      10.182 -65.828  22.925  1.00  0.00     0.061 A 
HETATM   18  C9  UNL     1       8.967 -65.454  23.547  1.00  0.00     0.118 A 
HETATM   19  N3  UNL     1       8.085 -66.333  23.076  1.00  0.00    -0.344 N 
HETATM   20  C10 UNL     1       8.655 -67.193  22.230  1.00  0.00     0.196 A 
ATOM     21  H3  UNL     1       7.098 -66.347  23.330  1.00  0.00     0.167 HD
HETATM   22  C11 UNL     1       8.169 -68.230  21.409  1.00  0.00     0.292 A 
HETATM   23  N6  UNL     1       9.985 -66.871  22.145  1.00  0.00    -0.236 N 
HETATM   24  O2  UNL     1       6.986 -68.470  21.475  1.00  0.00    -0.264 OA
HETATM   25  N4  UNL     1       9.041 -68.843  20.613  1.00  0.00    -0.315 N 
HETATM   26  C12 UNL     1      10.335 -68.525  20.551  1.00  0.00     0.201 A 
ATOM     27  H4  UNL     1       8.701 -69.597  20.017  1.00  0.00     0.170 HD
HETATM   28  N5  UNL     1      10.806 -67.541  21.312  1.00  0.00    -0.288 N 
ATOM     29  H5  UNL     1      11.795 -67.291  21.266  1.00  0.00     0.188 HD
ENDBRANCH  16  17
ENDBRANCH   1  16
TORSDOF 11
ENDMDL
MODEL 5
REMARK VINA RESULT: -5.708386589      4.014      6.949
REMARK  11 active torsions:
REMARK  status: ('A' for Active; 'I' for Inactive)
REMARK    1  A    between atoms: O1_1  and  C1_3 
REMARK    2  A    between atoms: C1_3  and  N1_4 
REMARK    3  A    between atoms: N1_4  and  C2_5 
REMARK    4  A    between atoms: C2_5  and  C3_6 
REMARK    5  A    between atoms: C2_5  and  C13_27 
REMARK    6  A    between atoms: C3_6  and  C4_7 
REMARK    7  A    between atoms: C4_7  and  N2_8 
REMARK    8  A    between atoms: C5_10  and  C6_11 
REMARK    9  A    between atoms: C6_11  and  S1_12 
REMARK   10  A    between atoms: S1_12  and  C7_13 
REMARK   11  A    between atoms: C7_13  and  C8_14 
ROOT
HETATM    1  S1  UNL     1      12.762 -66.037  24.119  1.00  0.00    -0.158 SA
ENDROOT
BRANCH   1   2
HETATM    2  C6  UNL     1      13.557 -64.494  24.756  1.00  0.00     0.118 C 
BRANCH   2   3
HETATM    3  C5  UNL     1      13.394 -63.517  23.602  1.00  0.00     0.070 C 
HETATM    4  N2  UNL     1      14.413 -63.051  22.838  1.00  0.00    -0.381 N 
ATOM      5  H2  UNL     1      14.793 -62.126  23.037  1.00  0.00     0.164 HD
BRANCH   4   6
HETATM    6  C4  UNL     1      14.974 -63.807  21.764  1.00  0.00     0.067 C 
BRANCH   6   7
HETATM    7  C3  UNL     1      14.334 -63.716  20.471  1.00  0.00     0.124 C 
BRANCH   7   8
HETATM    8  C2  UNL     1      14.014 -62.270  19.989  1.00  0.00     0.167 C 
BRANCH   8   9
HETATM    9  N1  UNL     1      15.115 -61.474  20.184  1.00  0.00    -0.392 NA
BRANCH   9  10
HETATM   10  C1  UNL     1      16.245 -60.684  20.402  1.00  0.00     0.317 C 
BRANCH  10  11
HETATM   11  O1  UNL     1      15.997 -59.526  20.986  1.00  0.00    -0.346 OA
ATOM     12  H1  UNL     1      16.143 -59.522  21.925  1.00  0.00     0.219 HD
ENDBRANCH  10  11
ENDBRANCH   9  10
ENDBRANCH   8   9
BRANCH   8  13
HETATM   13  C13 UNL     1      12.688 -61.734  20.161  1.00  0.00     0.237 C 
HETATM   14  O3  UNL     1      12.244 -61.181  21.141  1.00  0.00    -0.642 OA
HETATM   15  O4  UNL     1      11.827 -61.891  19.035  1.00  0.00    -0.642 OA
ENDBRANCH   8  13
ENDBRANCH   7   8
ENDBRANCH   6   7
ENDBRANCH   4   6
ENDBRANCH   2   3
ENDBRANCH   1   2
BRANCH   1  16
HETATM   16  C7  UNL     1      12.068 -65.940  22.536  1.00  0.00     0.135 C 
BRANCH  16  17
HETATM   17  C8  UNL     1      10.802 -66.584  22.234  1.00  0.00     0.061 A 
HETATM   18  C9  UNL     1      10.678 -67.763  21.462  1.00  0.00     0.118 A 
HETATM   19  N3  UNL     1       9.380 -68.050  21.528  1.00  0.00    -0.344 N 
HETATM   20  C10 UNL     1       8.718 -67.158  22.268  1.00  0.00     0.196 A 
ATOM     21  H3  UNL     1       8.945 -68.851  21.071  1.00  0.00     0.167 HD
HETATM   22  C11 UNL     1       7.387 -67.049  22.718  1.00  0.00     0.292 A 
HETATM   23  N6  UNL     1       9.625 -66.228  22.705  1.00  0.00    -0.236 N 
HETATM   24  O2  UNL     1       6.615 -67.903  22.348  1.00  0.00    -0.264 OA
HETATM   25  N4  UNL     1       7.093 -66.037  23.530  1.00  0.00    -0.315 N 
HETATM   26  C12 UNL     1       7.987 -65.133  23.937  1.00  0.00     0.201 A 
ATOM     27  H4  UNL     1       6.133 -65.947  23.859  1.00  0.00     0.170 HD
HETATM   28  N5  UNL     1       9.250 -65.229  23.529  1.00  0.00    -0.288 N 
ATOM     29  H5  UNL     1       9.937 -64.543  23.840  1.00  0.00     0.188 HD
ENDBRANCH  16  17
ENDBRANCH   1  16
TORSDOF 11
ENDMDL
