MODEL 1
REMARK VINA RESULT: -4.365639276      0.000      0.000
REMARK  2 active torsions:
REMARK  status: ('A' for Active; 'I' for Inactive)
REMARK    1  A    between atoms: C3_3  and  C4_4 
REMARK    2  A    between atoms: N1_11  and  N2_13 
ROOT
HETATM    1  C1  UNL     1      17.645  13.459  55.617  1.00  0.00     0.012 C 
HETATM    2  C2  UNL     1      18.172  14.189  54.801  1.00  0.00    -0.113 C 
HETATM    3  C3  UNL     1      18.826  15.050  53.819  1.00  0.00     0.134 C 
ENDROOT
BRANCH   3   4
HETATM    4  C4  UNL     1      18.044  16.284  53.546  1.00  0.00    -0.015 A 
HETATM    5  C5  UNL     1      17.823  17.150  54.536  1.00  0.00     0.065 A 
HETATM    6  C6  UNL     1      17.049  18.368  54.260  1.00  0.00     0.172 A 
HETATM    7  O1  UNL     1      16.850  19.180  55.216  1.00  0.00    -0.289 OA
HETATM    8  C7  UNL     1      16.515  18.658  52.935  1.00  0.00     0.057 A 
HETATM    9  C8  UNL     1      16.763  17.767  51.986  1.00  0.00     0.035 A 
HETATM   10  C9  UNL     1      17.522  16.555  52.220  1.00  0.00     0.054 A 
HETATM   11  N1  UNL     1      17.724  15.739  51.264  1.00  0.00    -0.307 N 
ATOM     12  H1  UNL     1      18.263  14.898  51.472  1.00  0.00     0.186 HD
BRANCH  11  13
HETATM   13  N2  UNL     1      17.274  15.898  49.969  1.00  0.00    -0.345 N 
ATOM     14  H22 UNL     1      16.631  15.186  49.625  1.00  0.00     0.176 HD
ATOM     15  H21 UNL     1      17.532  16.661  49.344  1.00  0.00     0.176 HD
ENDBRANCH  11  13
ENDBRANCH   3   4
TORSDOF 2
ENDMDL
MODEL 2
REMARK VINA RESULT: -4.264760521      4.829      5.674
REMARK  2 active torsions:
REMARK  status: ('A' for Active; 'I' for Inactive)
REMARK    1  A    between atoms: C3_3  and  C4_4 
REMARK    2  A    between atoms: N1_11  and  N2_13 
ROOT
HETATM    1  C1  UNL     1      22.144  15.702  58.569  1.00  0.00     0.012 C 
HETATM    2  C2  UNL     1      21.266  16.235  57.921  1.00  0.00    -0.113 C 
HETATM    3  C3  UNL     1      20.223  16.899  57.141  1.00  0.00     0.134 C 
ENDROOT
BRANCH   3   4
HETATM    4  C4  UNL     1      19.066  16.004  56.876  1.00  0.00    -0.015 A 
HETATM    5  C5  UNL     1      19.203  15.002  56.006  1.00  0.00     0.065 A 
HETATM    6  C6  UNL     1      18.055  14.120  55.747  1.00  0.00     0.172 A 
HETATM    7  O1  UNL     1      18.205  13.172  54.916  1.00  0.00    -0.289 OA
HETATM    8  C7  UNL     1      16.773  14.309  56.414  1.00  0.00     0.057 A 
HETATM    9  C8  UNL     1      16.690  15.318  57.269  1.00  0.00     0.035 A 
HETATM   10  C9  UNL     1      17.799  16.208  57.549  1.00  0.00     0.054 A 
HETATM   11  N1  UNL     1      17.652  17.160  58.382  1.00  0.00    -0.307 N 
ATOM     12  H1  UNL     1      18.458  17.762  58.550  1.00  0.00     0.186 HD
BRANCH  11  13
HETATM   13  N2  UNL     1      16.494  17.443  59.076  1.00  0.00    -0.345 N 
ATOM     14  H22 UNL     1      15.976  16.641  59.436  1.00  0.00     0.176 HD
ATOM     15  H21 UNL     1      16.124  18.377  59.252  1.00  0.00     0.176 HD
ENDBRANCH  11  13
ENDBRANCH   3   4
TORSDOF 2
ENDMDL
MODEL 3
REMARK VINA RESULT: -4.018009784      3.291      4.312
REMARK  2 active torsions:
REMARK  status: ('A' for Active; 'I' for Inactive)
REMARK    1  A    between atoms: C3_3  and  C4_4 
REMARK    2  A    between atoms: N1_11  and  N2_13 
ROOT
HETATM    1  C1  UNL     1      22.318  16.649  57.378  1.00  0.00     0.012 C 
HETATM    2  C2  UNL     1      21.319  16.936  56.749  1.00  0.00    -0.113 C 
HETATM    3  C3  UNL     1      20.129  17.302  55.984  1.00  0.00     0.134 C 
ENDROOT
BRANCH   3   4
HETATM    4  C4  UNL     1      19.023  16.326  56.166  1.00  0.00    -0.015 A 
HETATM    5  C5  UNL     1      18.224  16.436  57.229  1.00  0.00     0.065 A 
HETATM    6  C6  UNL     1      17.132  15.468  57.403  1.00  0.00     0.172 A 
HETATM    7  O1  UNL     1      16.382  15.591  58.421  1.00  0.00    -0.289 OA
HETATM    8  C7  UNL     1      16.896  14.392  56.450  1.00  0.00     0.057 A 
HETATM    9  C8  UNL     1      17.718  14.327  55.412  1.00  0.00     0.035 A 
HETATM   10  C9  UNL     1      18.805  15.262  55.206  1.00  0.00     0.054 A 
HETATM   11  N1  UNL     1      19.559  15.143  54.186  1.00  0.00    -0.307 N 
ATOM     12  H1  UNL     1      20.312  15.823  54.080  1.00  0.00     0.186 HD
BRANCH  11  13
HETATM   13  N2  UNL     1      19.441  14.171  53.215  1.00  0.00    -0.345 N 
ATOM     14  H22 UNL     1      18.495  13.972  52.889  1.00  0.00     0.176 HD
ATOM     15  H21 UNL     1      20.214  13.648  52.806  1.00  0.00     0.176 HD
ENDBRANCH  11  13
ENDBRANCH   3   4
TORSDOF 2
ENDMDL
MODEL 4
REMARK VINA RESULT: -3.988398059      4.017      4.827
REMARK  2 active torsions:
REMARK  status: ('A' for Active; 'I' for Inactive)
REMARK    1  A    between atoms: C3_3  and  C4_4 
REMARK    2  A    between atoms: N1_11  and  N2_13 
ROOT
HETATM    1  C1  UNL     1      17.976  13.424  55.192  1.00  0.00     0.012 C 
HETATM    2  C2  UNL     1      17.480  14.188  55.996  1.00  0.00    -0.113 C 
HETATM    3  C3  UNL     1      16.871  15.085  56.975  1.00  0.00     0.134 C 
ENDROOT
BRANCH   3   4
HETATM    4  C4  UNL     1      17.224  16.508  56.727  1.00  0.00    -0.015 A 
HETATM    5  C5  UNL     1      17.653  16.872  55.518  1.00  0.00     0.065 A 
HETATM    6  C6  UNL     1      18.001  18.280  55.279  1.00  0.00     0.172 A 
HETATM    7  O1  UNL     1      18.406  18.607  54.121  1.00  0.00    -0.289 OA
HETATM    8  C7  UNL     1      17.890  19.289  56.324  1.00  0.00     0.057 A 
HETATM    9  C8  UNL     1      17.459  18.876  57.507  1.00  0.00     0.035 A 
HETATM   10  C9  UNL     1      17.107  17.497  57.780  1.00  0.00     0.054 A 
HETATM   11  N1  UNL     1      16.699  17.166  58.940  1.00  0.00    -0.307 N 
ATOM     12  H1  UNL     1      16.462  16.185  59.090  1.00  0.00     0.186 HD
BRANCH  11  13
HETATM   13  N2  UNL     1      16.552  18.023  60.011  1.00  0.00    -0.345 N 
ATOM     14  H22 UNL     1      16.732  19.010  59.826  1.00  0.00     0.176 HD
ATOM     15  H21 UNL     1      16.281  17.749  60.955  1.00  0.00     0.176 HD
ENDBRANCH  11  13
ENDBRANCH   3   4
TORSDOF 2
ENDMDL
MODEL 5
REMARK VINA RESULT: -3.975011127      2.885      4.348
REMARK  2 active torsions:
REMARK  status: ('A' for Active; 'I' for Inactive)
REMARK    1  A    between atoms: C3_3  and  C4_4 
REMARK    2  A    between atoms: N1_11  and  N2_13 
ROOT
HETATM    1  C1  UNL     1      18.564  19.714  54.672  1.00  0.00     0.012 C 
HETATM    2  C2  UNL     1      19.095  18.729  55.145  1.00  0.00    -0.113 C 
HETATM    3  C3  UNL     1      19.757  17.556  55.712  1.00  0.00     0.134 C 
ENDROOT
BRANCH   3   4
HETATM    4  C4  UNL     1      18.798  16.459  56.007  1.00  0.00    -0.015 A 
HETATM    5  C5  UNL     1      18.020  16.546  57.087  1.00  0.00     0.065 A 
HETATM    6  C6  UNL     1      17.073  15.458  57.374  1.00  0.00     0.172 A 
HETATM    7  O1  UNL     1      16.341  15.560  58.406  1.00  0.00    -0.289 OA
HETATM    8  C7  UNL     1      16.961  14.288  56.513  1.00  0.00     0.057 A 
HETATM    9  C8  UNL     1      17.756  14.251  55.453  1.00  0.00     0.035 A 
HETATM   10  C9  UNL     1      18.701  15.303  55.138  1.00  0.00     0.054 A 
HETATM   11  N1  UNL     1      19.437  15.205  54.104  1.00  0.00    -0.307 N 
ATOM     12  H1  UNL     1      20.088  15.968  53.919  1.00  0.00     0.186 HD
BRANCH  11  13
HETATM   13  N2  UNL     1      19.426  14.152  53.212  1.00  0.00    -0.345 N 
ATOM     14  H22 UNL     1      19.009  13.283  53.546  1.00  0.00     0.176 HD
ATOM     15  H21 UNL     1      19.798  14.177  52.264  1.00  0.00     0.176 HD
ENDBRANCH  11  13
ENDBRANCH   3   4
TORSDOF 2
ENDMDL
