MODEL 1
REMARK VINA RESULT: -7.681464343      0.000      0.000
REMARK  16 active torsions:
REMARK  status: ('A' for Active; 'I' for Inactive)
REMARK    1  A    between atoms: C2_2  and  C3_3 
REMARK    2  A    between atoms: C4_4  and  C5_5 
REMARK    3  A    between atoms: C5_5  and  N1_6 
REMARK    4  A    between atoms: C6_7  and  O1_8 
REMARK    5  A    between atoms: C7_10  and  C8_11 
REMARK    6  A    between atoms: C8_11  and  C9_12 
REMARK    7  A    between atoms: C9_12  and  C10_13 
REMARK    8  A    between atoms: C10_13  and  N2_14 
REMARK    9  A    between atoms: C16_28  and  O3_29 
REMARK   10  A    between atoms: C17_31  and  C18_32 
REMARK   11  A    between atoms: C18_32  and  C19_33 
REMARK   12  A    between atoms: C19_33  and  C20_34 
REMARK   13  A    between atoms: C20_34  and  C21_35 
REMARK   14  A    between atoms: C24_38  and  C25_39 
REMARK   15  A    between atoms: N7_40  and  N8_42 
REMARK   16  A    between atoms: C26_45  and  O4_46 
ROOT
HETATM    1  N1  UNL     1      15.812 -13.328  19.393  1.00  0.00    -0.341 N 
HETATM    2  C6  UNL     1      14.694 -13.895  18.767  1.00  0.00     0.138 C 
HETATM    3  C7  UNL     1      13.283 -13.984  19.167  1.00  0.00     0.159 C 
HETATM    4  N5  UNL     1      13.019 -13.960  20.583  1.00  0.00    -0.347 N 
ATOM      5  H5  UNL     1      13.134 -14.851  21.064  1.00  0.00     0.163 HD
HETATM    6  C12 UNL     1      12.625 -12.882  21.395  1.00  0.00     0.245 C 
HETATM    7  O2  UNL     1      11.577 -13.103  22.116  1.00  0.00    -0.271 OA
HETATM    8  C13 UNL     1      13.271 -11.563  21.502  1.00  0.00     0.105 C 
HETATM    9  C14 UNL     1      12.585 -10.822  22.697  1.00  0.00     0.048 C 
HETATM   10  C15 UNL     1      12.891 -10.636  20.356  1.00  0.00     0.048 C 
HETATM   11  N6  UNL     1      14.696 -11.579  21.755  1.00  0.00    -0.355 N 
ATOM     12  H6  UNL     1      15.088 -10.659  21.957  1.00  0.00     0.162 HD
HETATM   13  C16 UNL     1      15.631 -12.600  21.776  1.00  0.00     0.136 C 
HETATM   14  C17 UNL     1      16.272 -13.407  20.737  1.00  0.00     0.161 C 
ENDROOT
BRANCH  14  15
HETATM   15  C18 UNL     1      16.421 -14.864  21.149  1.00  0.00     0.034 C 
BRANCH  15  16
HETATM   16  C19 UNL     1      17.809 -15.324  21.390  1.00  0.00     0.007 C 
BRANCH  16  17
HETATM   17  C20 UNL     1      18.089 -15.997  22.680  1.00  0.00     0.039 C 
BRANCH  17  18
HETATM   18  C21 UNL     1      19.283 -15.377  23.334  1.00  0.00    -0.049 A 
HETATM   19  C22 UNL     1      19.094 -14.272  24.098  1.00  0.00     0.009 A 
HETATM   20  C23 UNL     1      20.167 -13.696  24.697  1.00  0.00     0.016 A 
HETATM   21  C24 UNL     1      21.499 -14.194  24.565  1.00  0.00     0.015 A 
HETATM   22  C26 UNL     1      21.603 -15.296  23.781  1.00  0.00     0.086 A 
HETATM   23  C28 UNL     1      20.518 -15.933  23.141  1.00  0.00    -0.021 A 
HETATM   24  C29 UNL     1      20.768 -17.148  22.314  1.00  0.00     0.052 C 
BRANCH  21  25
HETATM   25  C25 UNL     1      22.460 -13.552  25.399  1.00  0.00     0.120 C 
HETATM   26  N7  UNL     1      23.667 -13.237  25.274  1.00  0.00    -0.318 N 
ATOM     27  H7  UNL     1      24.043 -12.771  26.099  1.00  0.00     0.185 HD
BRANCH  26  28
HETATM   28  N8  UNL     1      24.587 -13.381  24.277  1.00  0.00    -0.345 N 
ATOM     29  H82 UNL     1      24.946 -12.478  23.965  1.00  0.00     0.176 HD
ATOM     30  H81 UNL     1      24.985 -14.182  23.787  1.00  0.00     0.176 HD
ENDBRANCH  26  28
ENDBRANCH  21  25
BRANCH  22  31
HETATM   31  O4  UNL     1      22.838 -15.886  23.530  1.00  0.00    -0.354 OA
HETATM   32  C27 UNL     1      23.351 -16.809  24.537  1.00  0.00     0.210 C 
ENDBRANCH  22  31
ENDBRANCH  17  18
ENDBRANCH  16  17
ENDBRANCH  15  16
ENDBRANCH  14  15
BRANCH   1  33
HETATM   33  C5  UNL     1      16.679 -12.529  18.487  1.00  0.00     0.220 C 
BRANCH  33  34
HETATM   34  C4  UNL     1      18.056 -12.484  18.870  1.00  0.00    -0.087 C 
HETATM   35  C3  UNL     1      19.215 -12.475  19.190  1.00  0.00    -0.105 C 
BRANCH  35  36
HETATM   36  C2  UNL     1      20.623 -12.449  19.557  1.00  0.00     0.089 C 
HETATM   37  C1  UNL     1      20.814 -12.879  21.008  1.00  0.00     0.018 C 
ENDBRANCH  35  36
ENDBRANCH  33  34
ENDBRANCH   1  33
BRANCH  13  38
HETATM   38  O3  UNL     1      16.056 -12.938  22.962  1.00  0.00    -0.348 OA
ATOM     39  H3  UNL     1      16.627 -12.306  23.381  1.00  0.00     0.219 HD
ENDBRANCH  13  38
BRANCH   2  40
HETATM   40  O1  UNL     1      14.918 -14.451  17.610  1.00  0.00    -0.348 OA
ATOM     41  H1  UNL     1      14.782 -15.391  17.573  1.00  0.00     0.219 HD
ENDBRANCH   2  40
BRANCH   3  42
HETATM   42  C8  UNL     1      12.624 -15.219  18.540  1.00  0.00     0.035 C 
BRANCH  42  43
HETATM   43  C9  UNL     1      11.592 -15.864  19.369  1.00  0.00     0.022 C 
BRANCH  43  44
HETATM   44  C10 UNL     1      12.019 -17.296  19.720  1.00  0.00     0.122 C 
BRANCH  44  45
HETATM   45  N2  UNL     1      12.606 -17.368  21.019  1.00  0.00    -0.367 N 
HETATM   46  C11 UNL     1      13.836 -17.610  21.258  1.00  0.00     0.196 C 
HETATM   47  N3  UNL     1      14.271 -17.650  22.594  1.00  0.00    -0.067 NA
HETATM   48  N4  UNL     1      14.697 -17.825  20.147  1.00  0.00    -0.067 NA
ATOM     49  H2  UNL     1      11.993 -17.215  21.821  1.00  0.00     0.161 HD
ENDBRANCH  44  45
ENDBRANCH  43  44
ENDBRANCH  42  43
ENDBRANCH   3  42
TORSDOF 16
ENDMDL
MODEL 2
REMARK VINA RESULT: -7.552905918      2.103      4.753
REMARK  16 active torsions:
REMARK  status: ('A' for Active; 'I' for Inactive)
REMARK    1  A    between atoms: C2_2  and  C3_3 
REMARK    2  A    between atoms: C4_4  and  C5_5 
REMARK    3  A    between atoms: C5_5  and  N1_6 
REMARK    4  A    between atoms: C6_7  and  O1_8 
REMARK    5  A    between atoms: C7_10  and  C8_11 
REMARK    6  A    between atoms: C8_11  and  C9_12 
REMARK    7  A    between atoms: C9_12  and  C10_13 
REMARK    8  A    between atoms: C10_13  and  N2_14 
REMARK    9  A    between atoms: C16_28  and  O3_29 
REMARK   10  A    between atoms: C17_31  and  C18_32 
REMARK   11  A    between atoms: C18_32  and  C19_33 
REMARK   12  A    between atoms: C19_33  and  C20_34 
REMARK   13  A    between atoms: C20_34  and  C21_35 
REMARK   14  A    between atoms: C24_38  and  C25_39 
REMARK   15  A    between atoms: N7_40  and  N8_42 
REMARK   16  A    between atoms: C26_45  and  O4_46 
ROOT
HETATM    1  N1  UNL     1      15.091 -14.958  21.429  1.00  0.00    -0.341 N 
HETATM    2  C6  UNL     1      13.786 -14.447  21.388  1.00  0.00     0.138 C 
HETATM    3  C7  UNL     1      13.141 -13.469  20.503  1.00  0.00     0.159 C 
HETATM    4  N5  UNL     1      14.007 -12.491  19.894  1.00  0.00    -0.347 N 
ATOM      5  H5  UNL     1      14.245 -11.692  20.481  1.00  0.00     0.163 HD
HETATM    6  C12 UNL     1      14.571 -12.483  18.606  1.00  0.00     0.245 C 
HETATM    7  O2  UNL     1      14.369 -11.400  17.934  1.00  0.00    -0.271 OA
HETATM    8  C13 UNL     1      15.350 -13.558  17.967  1.00  0.00     0.105 C 
HETATM    9  C14 UNL     1      15.931 -12.963  16.641  1.00  0.00     0.048 C 
HETATM   10  C15 UNL     1      14.463 -14.658  17.402  1.00  0.00     0.048 C 
HETATM   11  N6  UNL     1      16.458 -14.077  18.739  1.00  0.00    -0.355 N 
ATOM     12  H6  UNL     1      17.055 -14.720  18.219  1.00  0.00     0.162 HD
HETATM   13  C16 UNL     1      16.865 -13.871  20.046  1.00  0.00     0.136 C 
HETATM   14  C17 UNL     1      16.354 -14.307  21.346  1.00  0.00     0.161 C 
ENDROOT
BRANCH  14  15
HETATM   15  C18 UNL     1      16.443 -13.211  22.397  1.00  0.00     0.034 C 
BRANCH  15  16
HETATM   16  C19 UNL     1      17.727 -13.127  23.130  1.00  0.00     0.007 C 
BRANCH  16  17
HETATM   17  C20 UNL     1      18.000 -14.168  24.149  1.00  0.00     0.039 C 
BRANCH  17  18
HETATM   18  C21 UNL     1      19.471 -14.272  24.396  1.00  0.00    -0.049 A 
HETATM   19  C22 UNL     1      20.014 -13.496  25.368  1.00  0.00     0.009 A 
HETATM   20  C23 UNL     1      21.348 -13.576  25.604  1.00  0.00     0.016 A 
HETATM   21  C24 UNL     1      22.222 -14.441  24.878  1.00  0.00     0.015 A 
HETATM   22  C26 UNL     1      21.603 -15.179  23.922  1.00  0.00     0.086 A 
HETATM   23  C28 UNL     1      20.220 -15.133  23.642  1.00  0.00    -0.021 A 
HETATM   24  C29 UNL     1      19.662 -16.006  22.570  1.00  0.00     0.052 C 
BRANCH  21  25
HETATM   25  C25 UNL     1      23.553 -14.503  25.383  1.00  0.00     0.120 C 
HETATM   26  N7  UNL     1      24.688 -14.622  24.864  1.00  0.00    -0.318 N 
ATOM     27  H7  UNL     1      25.441 -14.623  25.553  1.00  0.00     0.185 HD
BRANCH  26  28
HETATM   28  N8  UNL     1      25.139 -14.750  23.583  1.00  0.00    -0.345 N 
ATOM     29  H82 UNL     1      24.367 -14.825  22.919  1.00  0.00     0.176 HD
ATOM     30  H81 UNL     1      26.064 -14.785  23.155  1.00  0.00     0.176 HD
ENDBRANCH  26  28
ENDBRANCH  21  25
BRANCH  22  31
HETATM   31  O4  UNL     1      22.319 -16.050  23.109  1.00  0.00    -0.354 OA
HETATM   32  C27 UNL     1      22.617 -17.372  23.650  1.00  0.00     0.210 C 
ENDBRANCH  22  31
ENDBRANCH  17  18
ENDBRANCH  16  17
ENDBRANCH  15  16
ENDBRANCH  14  15
BRANCH   1  33
HETATM   33  C5  UNL     1      15.164 -16.431  21.620  1.00  0.00     0.220 C 
BRANCH  33  34
HETATM   34  C4  UNL     1      15.734 -16.840  22.866  1.00  0.00    -0.087 C 
HETATM   35  C3  UNL     1      16.239 -17.178  23.904  1.00  0.00    -0.105 C 
BRANCH  35  36
HETATM   36  C2  UNL     1      16.835 -17.569  25.173  1.00  0.00     0.089 C 
HETATM   37  C1  UNL     1      18.162 -18.287  24.950  1.00  0.00     0.018 C 
ENDBRANCH  35  36
ENDBRANCH  33  34
ENDBRANCH   1  33
BRANCH  13  38
HETATM   38  O3  UNL     1      17.935 -13.138  20.184  1.00  0.00    -0.348 OA
ATOM     39  H3  UNL     1      17.966 -12.616  20.977  1.00  0.00     0.219 HD
ENDBRANCH  13  38
BRANCH   2  40
HETATM   40  O1  UNL     1      12.971 -14.912  22.292  1.00  0.00    -0.348 OA
ATOM     41  H1  UNL     1      12.691 -14.289  22.952  1.00  0.00     0.219 HD
ENDBRANCH   2  40
BRANCH   3  42
HETATM   42  C8  UNL     1      11.994 -12.759  21.232  1.00  0.00     0.035 C 
BRANCH  42  43
HETATM   43  C9  UNL     1      12.127 -11.296  21.330  1.00  0.00     0.022 C 
BRANCH  43  44
HETATM   44  C10 UNL     1      12.855 -10.919  22.628  1.00  0.00     0.122 C 
BRANCH  44  45
HETATM   45  N2  UNL     1      12.397  -9.670  23.146  1.00  0.00    -0.367 N 
HETATM   46  C11 UNL     1      11.636  -9.530  24.161  1.00  0.00     0.196 C 
HETATM   47  N3  UNL     1      11.267  -8.233  24.556  1.00  0.00    -0.067 NA
HETATM   48  N4  UNL     1      11.205 -10.707  24.834  1.00  0.00    -0.067 NA
ATOM     49  H2  UNL     1      12.703  -8.823  22.668  1.00  0.00     0.161 HD
ENDBRANCH  44  45
ENDBRANCH  43  44
ENDBRANCH  42  43
ENDBRANCH   3  42
TORSDOF 16
ENDMDL
MODEL 3
REMARK VINA RESULT: -7.479322222      2.135      3.155
REMARK  16 active torsions:
REMARK  status: ('A' for Active; 'I' for Inactive)
REMARK    1  A    between atoms: C2_2  and  C3_3 
REMARK    2  A    between atoms: C4_4  and  C5_5 
REMARK    3  A    between atoms: C5_5  and  N1_6 
REMARK    4  A    between atoms: C6_7  and  O1_8 
REMARK    5  A    between atoms: C7_10  and  C8_11 
REMARK    6  A    between atoms: C8_11  and  C9_12 
REMARK    7  A    between atoms: C9_12  and  C10_13 
REMARK    8  A    between atoms: C10_13  and  N2_14 
REMARK    9  A    between atoms: C16_28  and  O3_29 
REMARK   10  A    between atoms: C17_31  and  C18_32 
REMARK   11  A    between atoms: C18_32  and  C19_33 
REMARK   12  A    between atoms: C19_33  and  C20_34 
REMARK   13  A    between atoms: C20_34  and  C21_35 
REMARK   14  A    between atoms: C24_38  and  C25_39 
REMARK   15  A    between atoms: N7_40  and  N8_42 
REMARK   16  A    between atoms: C26_45  and  O4_46 
ROOT
HETATM    1  N1  UNL     1      17.957 -16.073  22.035  1.00  0.00    -0.341 N 
HETATM    2  C6  UNL     1      17.031 -16.768  21.245  1.00  0.00     0.138 C 
HETATM    3  C7  UNL     1      15.676 -16.429  20.790  1.00  0.00     0.159 C 
HETATM    4  N5  UNL     1      14.935 -15.513  21.620  1.00  0.00    -0.347 N 
ATOM      5  H5  UNL     1      14.477 -15.931  22.429  1.00  0.00     0.163 HD
HETATM    6  C12 UNL     1      14.754 -14.127  21.472  1.00  0.00     0.245 C 
HETATM    7  O2  UNL     1      13.523 -13.736  21.501  1.00  0.00    -0.271 OA
HETATM    8  C13 UNL     1      15.799 -13.104  21.295  1.00  0.00     0.105 C 
HETATM    9  C14 UNL     1      15.091 -11.714  21.409  1.00  0.00     0.048 C 
HETATM   10  C15 UNL     1      16.302 -13.034  19.860  1.00  0.00     0.048 C 
HETATM   11  N6  UNL     1      16.875 -13.130  22.262  1.00  0.00    -0.355 N 
ATOM     12  H6  UNL     1      17.507 -12.333  22.194  1.00  0.00     0.162 HD
HETATM   13  C16 UNL     1      17.214 -14.027  23.261  1.00  0.00     0.136 C 
HETATM   14  C17 UNL     1      17.798 -15.368  23.261  1.00  0.00     0.161 C 
ENDROOT
BRANCH  14  15
HETATM   15  C18 UNL     1      17.158 -16.276  24.302  1.00  0.00     0.034 C 
BRANCH  15  16
HETATM   16  C19 UNL     1      18.089 -16.890  25.277  1.00  0.00     0.007 C 
BRANCH  16  17
HETATM   17  C20 UNL     1      18.578 -16.034  26.384  1.00  0.00     0.039 C 
BRANCH  17  18
HETATM   18  C21 UNL     1      19.872 -15.390  26.001  1.00  0.00    -0.049 A 
HETATM   19  C22 UNL     1      19.922 -14.035  25.944  1.00  0.00     0.009 A 
HETATM   20  C23 UNL     1      21.088 -13.435  25.597  1.00  0.00     0.016 A 
HETATM   21  C24 UNL     1      22.279 -14.158  25.285  1.00  0.00     0.015 A 
HETATM   22  C26 UNL     1      22.145 -15.506  25.360  1.00  0.00     0.086 A 
HETATM   23  C28 UNL     1      20.956 -16.176  25.719  1.00  0.00    -0.021 A 
HETATM   24  C29 UNL     1      20.944 -17.666  25.776  1.00  0.00     0.052 C 
BRANCH  21  25
HETATM   25  C25 UNL     1      23.439 -13.348  25.106  1.00  0.00     0.120 C 
HETATM   26  N7  UNL     1      24.482 -13.441  24.418  1.00  0.00    -0.318 N 
ATOM     27  H7  UNL     1      25.111 -12.647  24.541  1.00  0.00     0.185 HD
BRANCH  26  28
HETATM   28  N8  UNL     1      24.962 -14.369  23.540  1.00  0.00    -0.345 N 
ATOM     29  H82 UNL     1      24.746 -15.319  23.843  1.00  0.00     0.176 HD
ATOM     30  H81 UNL     1      25.480 -14.317  22.664  1.00  0.00     0.176 HD
ENDBRANCH  26  28
ENDBRANCH  21  25
BRANCH  22  31
HETATM   31  O4  UNL     1      23.206 -16.353  25.059  1.00  0.00    -0.354 OA
HETATM   32  C27 UNL     1      24.105 -16.708  26.152  1.00  0.00     0.210 C 
ENDBRANCH  22  31
ENDBRANCH  17  18
ENDBRANCH  16  17
ENDBRANCH  15  16
ENDBRANCH  14  15
BRANCH   1  33
HETATM   33  C5  UNL     1      19.349 -16.103  21.512  1.00  0.00     0.220 C 
BRANCH  33  34
HETATM   34  C4  UNL     1      19.815 -14.854  20.995  1.00  0.00    -0.087 C 
HETATM   35  C3  UNL     1      20.181 -13.797  20.553  1.00  0.00    -0.105 C 
BRANCH  35  36
HETATM   36  C2  UNL     1      20.633 -12.512  20.041  1.00  0.00     0.089 C 
HETATM   37  C1  UNL     1      20.323 -12.380  18.555  1.00  0.00     0.018 C 
ENDBRANCH  35  36
ENDBRANCH  33  34
ENDBRANCH   1  33
BRANCH  13  38
HETATM   38  O3  UNL     1      16.978 -13.618  24.476  1.00  0.00    -0.348 OA
ATOM     39  H3  UNL     1      16.072 -13.680  24.754  1.00  0.00     0.219 HD
ENDBRANCH  13  38
BRANCH   2  40
HETATM   40  O1  UNL     1      17.419 -17.937  20.819  1.00  0.00    -0.348 OA
ATOM     41  H1  UNL     1      17.103 -18.186  19.958  1.00  0.00     0.219 HD
ENDBRANCH   2  40
BRANCH   3  42
HETATM   42  C8  UNL     1      14.851 -17.701  20.560  1.00  0.00     0.035 C 
BRANCH  42  43
HETATM   43  C9  UNL     1      13.569 -17.752  21.282  1.00  0.00     0.022 C 
BRANCH  43  44
HETATM   44  C10 UNL     1      13.476 -19.049  22.097  1.00  0.00     0.122 C 
BRANCH  44  45
HETATM   45  N2  UNL     1      14.707 -19.348  22.756  1.00  0.00    -0.367 N 
HETATM   46  C11 UNL     1      14.836 -19.572  24.006  1.00  0.00     0.196 C 
HETATM   47  N3  UNL     1      16.117 -19.854  24.513  1.00  0.00    -0.067 NA
HETATM   48  N4  UNL     1      13.667 -19.522  24.813  1.00  0.00    -0.067 NA
ATOM     49  H2  UNL     1      15.550 -19.385  22.182  1.00  0.00     0.161 HD
ENDBRANCH  44  45
ENDBRANCH  43  44
ENDBRANCH  42  43
ENDBRANCH   3  42
TORSDOF 16
ENDMDL
MODEL 4
REMARK VINA RESULT: -7.429520711      2.386      4.877
REMARK  16 active torsions:
REMARK  status: ('A' for Active; 'I' for Inactive)
REMARK    1  A    between atoms: C2_2  and  C3_3 
REMARK    2  A    between atoms: C4_4  and  C5_5 
REMARK    3  A    between atoms: C5_5  and  N1_6 
REMARK    4  A    between atoms: C6_7  and  O1_8 
REMARK    5  A    between atoms: C7_10  and  C8_11 
REMARK    6  A    between atoms: C8_11  and  C9_12 
REMARK    7  A    between atoms: C9_12  and  C10_13 
REMARK    8  A    between atoms: C10_13  and  N2_14 
REMARK    9  A    between atoms: C16_28  and  O3_29 
REMARK   10  A    between atoms: C17_31  and  C18_32 
REMARK   11  A    between atoms: C18_32  and  C19_33 
REMARK   12  A    between atoms: C19_33  and  C20_34 
REMARK   13  A    between atoms: C20_34  and  C21_35 
REMARK   14  A    between atoms: C24_38  and  C25_39 
REMARK   15  A    between atoms: N7_40  and  N8_42 
REMARK   16  A    between atoms: C26_45  and  O4_46 
ROOT
HETATM    1  N1  UNL     1      15.601 -15.517  21.616  1.00  0.00    -0.341 N 
HETATM    2  C6  UNL     1      14.483 -14.678  21.721  1.00  0.00     0.138 C 
HETATM    3  C7  UNL     1      14.257 -13.285  21.314  1.00  0.00     0.159 C 
HETATM    4  N5  UNL     1      15.424 -12.442  21.249  1.00  0.00    -0.347 N 
ATOM      5  H5  UNL     1      15.733 -12.054  22.140  1.00  0.00     0.163 HD
HETATM    6  C12 UNL     1      16.199 -12.080  20.133  1.00  0.00     0.245 C 
HETATM    7  O2  UNL     1      16.382 -10.810  19.991  1.00  0.00    -0.271 OA
HETATM    8  C13 UNL     1      16.805 -12.981  19.138  1.00  0.00     0.105 C 
HETATM    9  C14 UNL     1      17.741 -12.100  18.246  1.00  0.00     0.048 C 
HETATM   10  C15 UNL     1      15.802 -13.452  18.095  1.00  0.00     0.048 C 
HETATM   11  N6  UNL     1      17.601 -14.065  19.673  1.00  0.00    -0.355 N 
ATOM     12  H6  UNL     1      18.114 -14.587  18.964  1.00  0.00     0.162 HD
HETATM   13  C16 UNL     1      17.802 -14.531  20.962  1.00  0.00     0.136 C 
HETATM   14  C17 UNL     1      16.975 -15.284  21.905  1.00  0.00     0.161 C 
ENDROOT
BRANCH  14  15
HETATM   15  C18 UNL     1      17.127 -14.782  23.334  1.00  0.00     0.034 C 
BRANCH  15  16
HETATM   16  C19 UNL     1      17.547 -15.795  24.329  1.00  0.00     0.007 C 
BRANCH  16  17
HETATM   17  C20 UNL     1      18.065 -15.301  25.627  1.00  0.00     0.039 C 
BRANCH  17  18
HETATM   18  C21 UNL     1      19.492 -14.878  25.482  1.00  0.00    -0.049 A 
HETATM   19  C22 UNL     1      19.769 -13.550  25.474  1.00  0.00     0.009 A 
HETATM   20  C23 UNL     1      21.058 -13.148  25.341  1.00  0.00     0.016 A 
HETATM   21  C24 UNL     1      22.152 -14.056  25.208  1.00  0.00     0.015 A 
HETATM   22  C26 UNL     1      21.791 -15.364  25.220  1.00  0.00     0.086 A 
HETATM   23  C28 UNL     1      20.466 -15.831  25.359  1.00  0.00    -0.021 A 
HETATM   24  C29 UNL     1      20.205 -17.298  25.368  1.00  0.00     0.052 C 
BRANCH  21  25
HETATM   25  C25 UNL     1      23.440 -13.447  25.246  1.00  0.00     0.120 C 
HETATM   26  N7  UNL     1      24.529 -13.650  24.661  1.00  0.00    -0.318 N 
ATOM     27  H7  UNL     1      25.259 -12.995  24.942  1.00  0.00     0.185 HD
BRANCH  26  28
HETATM   28  N8  UNL     1      24.954 -14.553  23.730  1.00  0.00    -0.345 N 
ATOM     29  H82 UNL     1      24.699 -14.267  22.785  1.00  0.00     0.176 HD
ATOM     30  H81 UNL     1      25.463 -15.436  23.778  1.00  0.00     0.176 HD
ENDBRANCH  26  28
ENDBRANCH  21  25
BRANCH  22  31
HETATM   31  O4  UNL     1      22.737 -16.373  25.072  1.00  0.00    -0.354 OA
HETATM   32  C27 UNL     1      23.492 -16.755  26.260  1.00  0.00     0.210 C 
ENDBRANCH  22  31
ENDBRANCH  17  18
ENDBRANCH  16  17
ENDBRANCH  15  16
ENDBRANCH  14  15
BRANCH   1  33
HETATM   33  C5  UNL     1      15.290 -16.893  21.148  1.00  0.00     0.220 C 
BRANCH  33  34
HETATM   34  C4  UNL     1      15.289 -17.051  19.727  1.00  0.00    -0.087 C 
HETATM   35  C3  UNL     1      15.274 -17.159  18.529  1.00  0.00    -0.105 C 
BRANCH  35  36
HETATM   36  C2  UNL     1      15.283 -17.290  17.080  1.00  0.00     0.089 C 
HETATM   37  C1  UNL     1      16.114 -18.493  16.649  1.00  0.00     0.018 C 
ENDBRANCH  35  36
ENDBRANCH  33  34
ENDBRANCH   1  33
BRANCH  13  38
HETATM   38  O3  UNL     1      18.970 -14.260  21.474  1.00  0.00    -0.348 OA
ATOM     39  H3  UNL     1      19.456 -15.012  21.790  1.00  0.00     0.219 HD
ENDBRANCH  13  38
BRANCH   2  40
HETATM   40  O1  UNL     1      13.431 -15.209  22.277  1.00  0.00    -0.348 OA
ATOM     41  H1  UNL     1      13.184 -16.067  21.953  1.00  0.00     0.219 HD
ENDBRANCH   2  40
BRANCH   3  42
HETATM   42  C8  UNL     1      13.196 -12.629  22.207  1.00  0.00     0.035 C 
BRANCH  42  43
HETATM   43  C9  UNL     1      13.209 -11.157  22.213  1.00  0.00     0.022 C 
BRANCH  43  44
HETATM   44  C10 UNL     1      11.772 -10.618  22.189  1.00  0.00     0.122 C 
BRANCH  44  45
HETATM   45  N2  UNL     1      11.651  -9.406  22.934  1.00  0.00    -0.367 N 
HETATM   46  C11 UNL     1      11.430  -9.333  24.189  1.00  0.00     0.196 C 
HETATM   47  N3  UNL     1      11.335  -8.064  24.786  1.00  0.00    -0.067 NA
HETATM   48  N4  UNL     1      11.292 -10.551  24.909  1.00  0.00    -0.067 NA
ATOM     49  H2  UNL     1      11.749  -8.528  22.422  1.00  0.00     0.161 HD
ENDBRANCH  44  45
ENDBRANCH  43  44
ENDBRANCH  42  43
ENDBRANCH   3  42
TORSDOF 16
ENDMDL
MODEL 5
REMARK VINA RESULT: -7.427943015      2.316      4.947
REMARK  16 active torsions:
REMARK  status: ('A' for Active; 'I' for Inactive)
REMARK    1  A    between atoms: C2_2  and  C3_3 
REMARK    2  A    between atoms: C4_4  and  C5_5 
REMARK    3  A    between atoms: C5_5  and  N1_6 
REMARK    4  A    between atoms: C6_7  and  O1_8 
REMARK    5  A    between atoms: C7_10  and  C8_11 
REMARK    6  A    between atoms: C8_11  and  C9_12 
REMARK    7  A    between atoms: C9_12  and  C10_13 
REMARK    8  A    between atoms: C10_13  and  N2_14 
REMARK    9  A    between atoms: C16_28  and  O3_29 
REMARK   10  A    between atoms: C17_31  and  C18_32 
REMARK   11  A    between atoms: C18_32  and  C19_33 
REMARK   12  A    between atoms: C19_33  and  C20_34 
REMARK   13  A    between atoms: C20_34  and  C21_35 
REMARK   14  A    between atoms: C24_38  and  C25_39 
REMARK   15  A    between atoms: N7_40  and  N8_42 
REMARK   16  A    between atoms: C26_45  and  O4_46 
ROOT
HETATM    1  N1  UNL     1      15.784 -15.622  21.788  1.00  0.00    -0.341 N 
HETATM    2  C6  UNL     1      14.601 -14.873  21.847  1.00  0.00     0.138 C 
HETATM    3  C7  UNL     1      14.281 -13.504  21.419  1.00  0.00     0.159 C 
HETATM    4  N5  UNL     1      15.380 -12.574  21.386  1.00  0.00    -0.347 N 
ATOM      5  H5  UNL     1      15.627 -12.156  22.282  1.00  0.00     0.163 HD
HETATM    6  C12 UNL     1      16.162 -12.160  20.292  1.00  0.00     0.245 C 
HETATM    7  O2  UNL     1      16.251 -10.881  20.144  1.00  0.00    -0.271 OA
HETATM    8  C13 UNL     1      16.872 -13.018  19.328  1.00  0.00     0.105 C 
HETATM    9  C14 UNL     1      17.765 -12.072  18.459  1.00  0.00     0.048 C 
HETATM   10  C15 UNL     1      15.944 -13.573  18.256  1.00  0.00     0.048 C 
HETATM   11  N6  UNL     1      17.730 -14.032  19.900  1.00  0.00    -0.355 N 
ATOM     12  H6  UNL     1      18.307 -14.517  19.213  1.00  0.00     0.162 HD
HETATM   13  C16 UNL     1      17.922 -14.472  21.199  1.00  0.00     0.136 C 
HETATM   14  C17 UNL     1      17.125 -15.281  22.121  1.00  0.00     0.161 C 
ENDROOT
BRANCH  14  15
HETATM   15  C18 UNL     1      17.187 -14.758  23.549  1.00  0.00     0.034 C 
BRANCH  15  16
HETATM   16  C19 UNL     1      17.582 -15.747  24.578  1.00  0.00     0.007 C 
BRANCH  16  17
HETATM   17  C20 UNL     1      18.155 -15.225  25.842  1.00  0.00     0.039 C 
BRANCH  17  18
HETATM   18  C21 UNL     1      19.582 -14.829  25.632  1.00  0.00    -0.049 A 
HETATM   19  C22 UNL     1      19.880 -13.507  25.575  1.00  0.00     0.009 A 
HETATM   20  C23 UNL     1      21.169 -13.131  25.385  1.00  0.00     0.016 A 
HETATM   21  C24 UNL     1      22.243 -14.060  25.239  1.00  0.00     0.015 A 
HETATM   22  C26 UNL     1      21.862 -15.361  25.303  1.00  0.00     0.086 A 
HETATM   23  C28 UNL     1      20.536 -15.801  25.502  1.00  0.00    -0.021 A 
HETATM   24  C29 UNL     1      20.252 -17.264  25.565  1.00  0.00     0.052 C 
BRANCH  21  25
HETATM   25  C25 UNL     1      23.541 -13.472  25.213  1.00  0.00     0.120 C 
HETATM   26  N7  UNL     1      24.610 -13.722  24.610  1.00  0.00    -0.318 N 
ATOM     27  H7  UNL     1      25.358 -13.066  24.838  1.00  0.00     0.185 HD
BRANCH  26  28
HETATM   28  N8  UNL     1      24.996 -14.676  23.714  1.00  0.00    -0.345 N 
ATOM     29  H82 UNL     1      25.143 -15.579  24.167  1.00  0.00     0.176 HD
ATOM     30  H81 UNL     1      25.164 -14.680  22.708  1.00  0.00     0.176 HD
ENDBRANCH  26  28
ENDBRANCH  21  25
BRANCH  22  31
HETATM   31  O4  UNL     1      22.786 -16.389  25.150  1.00  0.00    -0.354 OA
HETATM   32  C27 UNL     1      23.568 -16.760  26.325  1.00  0.00     0.210 C 
ENDBRANCH  22  31
ENDBRANCH  17  18
ENDBRANCH  16  17
ENDBRANCH  15  16
ENDBRANCH  14  15
BRANCH   1  33
HETATM   33  C5  UNL     1      15.597 -17.022  21.323  1.00  0.00     0.220 C 
BRANCH  33  34
HETATM   34  C4  UNL     1      15.847 -18.016  22.319  1.00  0.00    -0.087 C 
HETATM   35  C3  UNL     1      16.070 -18.833  23.174  1.00  0.00    -0.105 C 
BRANCH  35  36
HETATM   36  C2  UNL     1      16.313 -19.826  24.209  1.00  0.00     0.089 C 
HETATM   37  C1  UNL     1      16.565 -19.156  25.555  1.00  0.00     0.018 C 
ENDBRANCH  35  36
ENDBRANCH  33  34
ENDBRANCH   1  33
BRANCH  13  38
HETATM   38  O3  UNL     1      19.047 -14.107  21.748  1.00  0.00    -0.348 OA
ATOM     39  H3  UNL     1      19.447 -13.332  21.371  1.00  0.00     0.219 HD
ENDBRANCH  13  38
BRANCH   2  40
HETATM   40  O1  UNL     1      13.575 -15.481  22.372  1.00  0.00    -0.348 OA
ATOM     41  H1  UNL     1      12.801 -14.944  22.501  1.00  0.00     0.219 HD
ENDBRANCH   2  40
BRANCH   3  42
HETATM   42  C8  UNL     1      13.142 -12.928  22.268  1.00  0.00     0.035 C 
BRANCH  42  43
HETATM   43  C9  UNL     1      11.962 -12.482  21.510  1.00  0.00     0.022 C 
BRANCH  43  44
HETATM   44  C10 UNL     1      11.944 -10.950  21.414  1.00  0.00     0.122 C 
BRANCH  44  45
HETATM   45  N2  UNL     1      11.452 -10.352  22.613  1.00  0.00    -0.367 N 
HETATM   46  C11 UNL     1      12.072  -9.478  23.306  1.00  0.00     0.196 C 
HETATM   47  N3  UNL     1      11.459  -8.977  24.468  1.00  0.00    -0.067 NA
HETATM   48  N4  UNL     1      13.354  -9.061  22.855  1.00  0.00    -0.067 NA
ATOM     49  H2  UNL     1      10.532 -10.647  22.942  1.00  0.00     0.161 HD
ENDBRANCH  44  45
ENDBRANCH  43  44
ENDBRANCH  42  43
ENDBRANCH   3  42
TORSDOF 16
ENDMDL
