MODEL 1
REMARK VINA RESULT: -8.971517924      0.000      0.000
REMARK  7 active torsions:
REMARK  status: ('A' for Active; 'I' for Inactive)
REMARK       I    between atoms: N1_1  and  C1_4 
REMARK       I    between atoms: C1_4  and  N3_6 
REMARK    1  A    between atoms: N3_6  and  C2_8 
REMARK    2  A    between atoms: C3_14  and  C4_15 
REMARK    3  A    between atoms: N8_24  and  C8_25 
REMARK    4  A    between atoms: C8_25  and  C9_26 
REMARK    5  A    between atoms: C9_26  and  O3_27 
REMARK    6  A    between atoms: C9_26  and  C10_29 
REMARK       I    between atoms: C10_29  and  N9_31 
REMARK    7  A    between atoms: N9_31  and  N10_32 
ROOT
HETATM    1  C4  UNL     1     -29.169 -13.302 -13.449  1.00  0.00     0.119 A 
HETATM    2  N6  UNL     1     -29.602 -12.755 -14.583  1.00  0.00    -0.276 N 
ATOM      3  H6  UNL     1     -29.315 -13.043 -15.518  1.00  0.00     0.189 HD
HETATM    4  N7  UNL     1     -30.441 -11.806 -14.324  1.00  0.00    -0.201 N 
ATOM      5  H7  UNL     1     -30.920 -11.226 -15.012  1.00  0.00     0.216 HD
HETATM    6  O2  UNL     1     -30.565 -11.721 -13.044  1.00  0.00    -0.219 OA
HETATM    7  C5  UNL     1     -29.809 -12.613 -12.424  1.00  0.00     0.148 A 
HETATM    8  C6  UNL     1     -29.705 -12.800 -10.997  1.00  0.00     0.089 A 
HETATM    9  C7  UNL     1     -29.005 -12.121 -10.019  1.00  0.00     0.130 A 
HETATM   10  N8  UNL     1     -29.251 -12.684  -8.824  1.00  0.00    -0.297 N 
HETATM   11  N11 UNL     1     -30.098 -13.713  -9.027  1.00  0.00    -0.264 N 
ATOM     12  H11 UNL     1     -30.462 -14.328  -8.300  1.00  0.00     0.190 HD
HETATM   13  C11 UNL     1     -30.380 -13.801 -10.305  1.00  0.00     0.274 A 
HETATM   14  O5  UNL     1     -31.150 -14.655 -10.868  1.00  0.00    -0.266 OA
ENDROOT
BRANCH   1  15
HETATM   15  C3  UNL     1     -28.224 -14.377 -13.225  1.00  0.00     0.133 A 
HETATM   16  C2  UNL     1     -28.515 -15.727 -13.277  1.00  0.00     0.161 A 
HETATM   17  N4  UNL     1     -27.368 -16.398 -13.024  1.00  0.00    -0.223 N 
HETATM   18  O1  UNL     1     -26.444 -15.516 -12.829  1.00  0.00    -0.155 OA
ATOM     19  H4  UNL     1     -27.254 -17.411 -12.993  1.00  0.00     0.198 HD
HETATM   20  N5  UNL     1     -26.914 -14.295 -12.940  1.00  0.00    -0.236 N 
ATOM     21  H5  UNL     1     -26.378 -13.434 -12.829  1.00  0.00     0.197 HD
BRANCH  16  22
HETATM   22  N3  UNL     1     -29.679 -16.176 -13.502  1.00  0.00    -0.314 N 
HETATM   23  C1  UNL     1     -30.027 -17.049 -14.543  1.00  0.00     0.187 C 
HETATM   24  N1  UNL     1     -29.274 -18.041 -14.906  1.00  0.00    -0.373 N 
HETATM   25  N2  UNL     1     -31.274 -16.853 -15.252  1.00  0.00    -0.064 NA
ATOM     26  H12 UNL     1     -29.528 -18.676 -15.663  1.00  0.00     0.158 HD
ATOM     27  H11 UNL     1     -28.395 -18.179 -14.407  1.00  0.00     0.158 HD
ATOM     28  H3  UNL     1     -30.425 -15.877 -12.873  1.00  0.00     0.170 HD
ENDBRANCH  16  22
ENDBRANCH   1  15
BRANCH  10  29
HETATM   29  C8  UNL     1     -28.762 -12.315  -7.507  1.00  0.00     0.191 C 
BRANCH  29  30
HETATM   30  C9  UNL     1     -29.787 -11.645  -6.667  1.00  0.00     0.246 C 
BRANCH  30  31
HETATM   31  O3  UNL     1     -30.673 -10.868  -7.371  1.00  0.00    -0.383 OA
ATOM     32  H3  UNL     1     -31.545 -11.237  -7.443  1.00  0.00     0.210 HD
ENDBRANCH  30  31
BRANCH  30  33
HETATM   33  C10 UNL     1     -29.002 -10.736  -5.687  1.00  0.00     0.341 C 
HETATM   34  O4  UNL     1     -28.918 -11.313  -4.551  1.00  0.00    -0.252 OA
HETATM   35  N9  UNL     1     -28.531  -9.552  -6.071  1.00  0.00    -0.291 NA
BRANCH  35  36
HETATM   36  N10 UNL     1     -28.062  -8.372  -6.453  1.00  0.00    -0.277 N 
ATOM     37 2H10 UNL     1     -28.446  -9.263  -6.139  1.00  0.00     0.191 HD
ATOM     38 1H10 UNL     1     -27.701  -7.465  -6.748  1.00  0.00     0.191 HD
ENDBRANCH  35  36
ENDBRANCH  30  33
ENDBRANCH  29  30
ENDBRANCH  10  29
TORSDOF 7
ENDMDL
MODEL 2
REMARK VINA RESULT: -8.917924215      2.330      7.786
REMARK  7 active torsions:
REMARK  status: ('A' for Active; 'I' for Inactive)
REMARK       I    between atoms: N1_1  and  C1_4 
REMARK       I    between atoms: C1_4  and  N3_6 
REMARK    1  A    between atoms: N3_6  and  C2_8 
REMARK    2  A    between atoms: C3_14  and  C4_15 
REMARK    3  A    between atoms: N8_24  and  C8_25 
REMARK    4  A    between atoms: C8_25  and  C9_26 
REMARK    5  A    between atoms: C9_26  and  O3_27 
REMARK    6  A    between atoms: C9_26  and  C10_29 
REMARK       I    between atoms: C10_29  and  N9_31 
REMARK    7  A    between atoms: N9_31  and  N10_32 
ROOT
HETATM    1  C4  UNL     1     -29.062 -13.092  -7.792  1.00  0.00     0.119 A 
HETATM    2  N6  UNL     1     -28.674 -13.303  -6.537  1.00  0.00    -0.276 N 
ATOM      3  H6  UNL     1     -28.573 -12.578  -5.826  1.00  0.00     0.189 HD
HETATM    4  N7  UNL     1     -28.444 -14.562  -6.350  1.00  0.00    -0.201 N 
ATOM      5  H7  UNL     1     -28.135 -14.992  -5.478  1.00  0.00     0.216 HD
HETATM    6  O2  UNL     1     -28.674 -15.178  -7.458  1.00  0.00    -0.219 OA
HETATM    7  C5  UNL     1     -29.062 -14.341  -8.406  1.00  0.00     0.148 A 
HETATM    8  C6  UNL     1     -29.403 -14.687  -9.765  1.00  0.00     0.089 A 
HETATM    9  C7  UNL     1     -28.631 -14.959 -10.877  1.00  0.00     0.130 A 
HETATM   10  N8  UNL     1     -29.433 -15.244 -11.916  1.00  0.00    -0.297 N 
HETATM   11  N11 UNL     1     -30.706 -15.158 -11.482  1.00  0.00    -0.264 N 
ATOM     12  H11 UNL     1     -31.536 -15.322 -12.052  1.00  0.00     0.190 HD
HETATM   13  C11 UNL     1     -30.714 -14.830 -10.211  1.00  0.00     0.274 A 
HETATM   14  O5  UNL     1     -31.739 -14.659  -9.464  1.00  0.00    -0.266 OA
ENDROOT
BRANCH   1  15
HETATM   15  C3  UNL     1     -29.415 -11.863  -8.473  1.00  0.00     0.133 A 
HETATM   16  C2  UNL     1     -29.853 -10.703  -7.861  1.00  0.00     0.161 A 
HETATM   17  N4  UNL     1     -30.064  -9.789  -8.835  1.00  0.00    -0.223 N 
HETATM   18  O1  UNL     1     -29.779 -10.355  -9.961  1.00  0.00    -0.155 OA
ATOM     19  H4  UNL     1     -30.389  -8.830  -8.705  1.00  0.00     0.198 HD
HETATM   20  N5  UNL     1     -29.387 -11.596  -9.788  1.00  0.00    -0.236 N 
ATOM     21  H5  UNL     1     -29.108 -12.244 -10.525  1.00  0.00     0.197 HD
BRANCH  16  22
HETATM   22  N3  UNL     1     -30.023 -10.603  -6.609  1.00  0.00    -0.314 N 
HETATM   23  C1  UNL     1     -29.111 -10.035  -5.707  1.00  0.00     0.187 C 
HETATM   24  N1  UNL     1     -28.431  -8.964  -5.980  1.00  0.00    -0.373 N 
HETATM   25  N2  UNL     1     -28.909 -10.652  -4.413  1.00  0.00    -0.064 NA
ATOM     26  H12 UNL     1     -27.768  -8.551  -5.323  1.00  0.00     0.158 HD
ATOM     27  H11 UNL     1     -28.573  -8.529  -6.891  1.00  0.00     0.158 HD
ATOM     28  H3  UNL     1     -30.897 -10.965  -6.226  1.00  0.00     0.170 HD
ENDBRANCH  16  22
ENDBRANCH   1  15
BRANCH  10  29
HETATM   29  C8  UNL     1     -29.090 -15.607 -13.281  1.00  0.00     0.191 C 
BRANCH  29  30
HETATM   30  C9  UNL     1     -29.838 -14.829 -14.300  1.00  0.00     0.246 C 
BRANCH  30  31
HETATM   31  O3  UNL     1     -30.250 -15.566 -15.383  1.00  0.00    -0.383 OA
ATOM     32  H3  UNL     1     -31.105 -15.323 -15.718  1.00  0.00     0.210 HD
ENDBRANCH  30  31
BRANCH  30  33
HETATM   33  C10 UNL     1     -28.861 -13.731 -14.793  1.00  0.00     0.341 C 
HETATM   34  O4  UNL     1     -27.660 -14.092 -14.547  1.00  0.00    -0.252 OA
HETATM   35  N9  UNL     1     -29.308 -12.618 -15.371  1.00  0.00    -0.291 NA
BRANCH  35  36
HETATM   36  N10 UNL     1     -29.752 -11.510 -15.945  1.00  0.00    -0.277 N 
ATOM     37 2H10 UNL     1     -29.394 -12.343 -15.479  1.00  0.00     0.191 HD
ATOM     38 1H10 UNL     1     -30.095 -10.657 -16.389  1.00  0.00     0.191 HD
ENDBRANCH  35  36
ENDBRANCH  30  33
ENDBRANCH  29  30
ENDBRANCH  10  29
TORSDOF 7
ENDMDL
MODEL 3
REMARK VINA RESULT: -8.873735311      2.833      7.486
REMARK  7 active torsions:
REMARK  status: ('A' for Active; 'I' for Inactive)
REMARK       I    between atoms: N1_1  and  C1_4 
REMARK       I    between atoms: C1_4  and  N3_6 
REMARK    1  A    between atoms: N3_6  and  C2_8 
REMARK    2  A    between atoms: C3_14  and  C4_15 
REMARK    3  A    between atoms: N8_24  and  C8_25 
REMARK    4  A    between atoms: C8_25  and  C9_26 
REMARK    5  A    between atoms: C9_26  and  O3_27 
REMARK    6  A    between atoms: C9_26  and  C10_29 
REMARK       I    between atoms: C10_29  and  N9_31 
REMARK    7  A    between atoms: N9_31  and  N10_32 
ROOT
HETATM    1  C4  UNL     1     -30.539 -11.798  -7.887  1.00  0.00     0.119 A 
HETATM    2  N6  UNL     1     -29.984 -11.049  -6.938  1.00  0.00    -0.276 N 
ATOM      3  H6  UNL     1     -30.468 -10.323  -6.408  1.00  0.00     0.189 HD
HETATM    4  N7  UNL     1     -28.742 -11.375  -6.785  1.00  0.00    -0.201 N 
ATOM      5  H7  UNL     1     -28.089 -10.956  -6.124  1.00  0.00     0.216 HD
HETATM    6  O2  UNL     1     -28.474 -12.323  -7.617  1.00  0.00    -0.219 OA
HETATM    7  C5  UNL     1     -29.534 -12.646  -8.340  1.00  0.00     0.148 A 
HETATM    8  C6  UNL     1     -29.592 -13.665  -9.362  1.00  0.00     0.089 A 
HETATM    9  C7  UNL     1     -29.185 -13.682 -10.681  1.00  0.00     0.130 A 
HETATM   10  N8  UNL     1     -29.452 -14.887 -11.212  1.00  0.00    -0.297 N 
HETATM   11  N11 UNL     1     -30.024 -15.637 -10.249  1.00  0.00    -0.264 N 
ATOM     12  H11 UNL     1     -30.337 -16.602 -10.362  1.00  0.00     0.190 HD
HETATM   13  C11 UNL     1     -30.118 -14.935  -9.145  1.00  0.00     0.274 A 
HETATM   14  O5  UNL     1     -30.606 -15.319  -8.026  1.00  0.00    -0.266 OA
ENDROOT
BRANCH   1  15
HETATM   15  C3  UNL     1     -31.887 -11.797  -8.418  1.00  0.00     0.133 A 
HETATM   16  C2  UNL     1     -32.349 -10.985  -9.438  1.00  0.00     0.161 A 
HETATM   17  N4  UNL     1     -33.649 -11.297  -9.644  1.00  0.00    -0.223 N 
HETATM   18  O1  UNL     1     -33.957 -12.231  -8.806  1.00  0.00    -0.155 OA
ATOM     19  H4  UNL     1     -34.270 -10.874 -10.334  1.00  0.00     0.198 HD
HETATM   20  N5  UNL     1     -32.932 -12.559  -8.055  1.00  0.00    -0.236 N 
ATOM     21  H5  UNL     1     -32.928 -13.269  -7.322  1.00  0.00     0.197 HD
BRANCH  16  22
HETATM   22  N3  UNL     1     -31.628 -10.113 -10.008  1.00  0.00    -0.314 N 
HETATM   23  C1  UNL     1     -31.679  -8.732  -9.766  1.00  0.00     0.187 C 
HETATM   24  N1  UNL     1     -31.826  -8.234  -8.578  1.00  0.00    -0.373 N 
HETATM   25  N2  UNL     1     -31.560  -7.809 -10.876  1.00  0.00    -0.064 NA
ATOM     26  H12 UNL     1     -31.863  -7.229  -8.402  1.00  0.00     0.158 HD
ATOM     27  H11 UNL     1     -31.910  -8.884  -7.796  1.00  0.00     0.158 HD
ATOM     28  H3  UNL     1     -30.954 -10.442 -10.700  1.00  0.00     0.170 HD
ENDBRANCH  16  22
ENDBRANCH   1  15
BRANCH  10  29
HETATM   29  C8  UNL     1     -29.193 -15.388 -12.551  1.00  0.00     0.191 C 
BRANCH  29  30
HETATM   30  C9  UNL     1     -29.987 -14.697 -13.599  1.00  0.00     0.246 C 
BRANCH  30  31
HETATM   31  O3  UNL     1     -30.754 -15.535 -14.370  1.00  0.00    -0.383 OA
ATOM     32  H3  UNL     1     -31.312 -15.089 -14.996  1.00  0.00     0.210 HD
ENDBRANCH  30  31
BRANCH  30  33
HETATM   33  C10 UNL     1     -28.955 -13.990 -14.514  1.00  0.00     0.341 C 
HETATM   34  O4  UNL     1     -27.832 -14.594 -14.429  1.00  0.00    -0.252 OA
HETATM   35  N9  UNL     1     -29.289 -12.923 -15.236  1.00  0.00    -0.291 NA
BRANCH  35  36
HETATM   36  N10 UNL     1     -29.621 -11.860 -15.954  1.00  0.00    -0.277 N 
ATOM     37 2H10 UNL     1     -29.342 -12.687 -15.426  1.00  0.00     0.191 HD
ATOM     38 1H10 UNL     1     -29.878 -11.041 -16.507  1.00  0.00     0.191 HD
ENDBRANCH  35  36
ENDBRANCH  30  33
ENDBRANCH  29  30
ENDBRANCH  10  29
TORSDOF 7
ENDMDL
MODEL 4
REMARK VINA RESULT: -8.806174143      2.542      6.859
REMARK  7 active torsions:
REMARK  status: ('A' for Active; 'I' for Inactive)
REMARK       I    between atoms: N1_1  and  C1_4 
REMARK       I    between atoms: C1_4  and  N3_6 
REMARK    1  A    between atoms: N3_6  and  C2_8 
REMARK    2  A    between atoms: C3_14  and  C4_15 
REMARK    3  A    between atoms: N8_24  and  C8_25 
REMARK    4  A    between atoms: C8_25  and  C9_26 
REMARK    5  A    between atoms: C9_26  and  O3_27 
REMARK    6  A    between atoms: C9_26  and  C10_29 
REMARK       I    between atoms: C10_29  and  N9_31 
REMARK    7  A    between atoms: N9_31  and  N10_32 
ROOT
HETATM    1  C4  UNL     1     -29.610 -11.512  -8.158  1.00  0.00     0.119 A 
HETATM    2  N6  UNL     1     -28.965 -11.170  -7.045  1.00  0.00    -0.276 N 
ATOM      3  H6  UNL     1     -28.993 -10.246  -6.613  1.00  0.00     0.189 HD
HETATM    4  N7  UNL     1     -28.299 -12.180  -6.590  1.00  0.00    -0.201 N 
ATOM      5  H7  UNL     1     -27.719 -12.187  -5.751  1.00  0.00     0.216 HD
HETATM    6  O2  UNL     1     -28.495 -13.177  -7.384  1.00  0.00    -0.219 OA
HETATM    7  C5  UNL     1     -29.297 -12.849  -8.384  1.00  0.00     0.148 A 
HETATM    8  C6  UNL     1     -29.729 -13.718  -9.452  1.00  0.00     0.089 A 
HETATM    9  C7  UNL     1     -29.114 -14.141 -10.613  1.00  0.00     0.130 A 
HETATM   10  N8  UNL     1     -29.939 -14.966 -11.278  1.00  0.00    -0.297 N 
HETATM   11  N11 UNL     1     -31.073 -15.074 -10.558  1.00  0.00    -0.264 N 
ATOM     12  H11 UNL     1     -31.884 -15.636 -10.816  1.00  0.00     0.190 HD
HETATM   13  C11 UNL     1     -30.972 -14.344  -9.472  1.00  0.00     0.274 A 
HETATM   14  O5  UNL     1     -31.851 -14.203  -8.553  1.00  0.00    -0.266 OA
ENDROOT
BRANCH   1  15
HETATM   15  C3  UNL     1     -30.467 -10.731  -9.026  1.00  0.00     0.133 A 
HETATM   16  C2  UNL     1     -30.092 -10.176 -10.236  1.00  0.00     0.161 A 
HETATM   17  N4  UNL     1     -31.174  -9.539 -10.740  1.00  0.00    -0.223 N 
HETATM   18  O1  UNL     1     -32.137  -9.693  -9.893  1.00  0.00    -0.155 OA
ATOM     19  H4  UNL     1     -31.220  -9.032 -11.624  1.00  0.00     0.198 HD
HETATM   20  N5  UNL     1     -31.756 -10.400  -8.855  1.00  0.00    -0.236 N 
ATOM     21  H5  UNL     1     -32.339 -10.654  -8.057  1.00  0.00     0.197 HD
BRANCH  16  22
HETATM   22  N3  UNL     1     -28.919 -10.271 -10.708  1.00  0.00    -0.314 N 
HETATM   23  C1  UNL     1     -28.591 -10.769 -11.978  1.00  0.00     0.187 C 
HETATM   24  N1  UNL     1     -29.293 -10.505 -13.036  1.00  0.00    -0.373 N 
HETATM   25  N2  UNL     1     -27.423 -11.609 -12.134  1.00  0.00    -0.064 NA
ATOM     26  H12 UNL     1     -29.054 -10.867 -13.960  1.00  0.00     0.158 HD
ATOM     27  H11 UNL     1     -30.116  -9.913 -12.926  1.00  0.00     0.158 HD
ATOM     28  H3  UNL     1     -28.150  -9.959 -10.114  1.00  0.00     0.170 HD
ENDBRANCH  16  22
ENDBRANCH   1  15
BRANCH  10  29
HETATM   29  C8  UNL     1     -29.732 -15.672 -12.532  1.00  0.00     0.191 C 
BRANCH  29  30
HETATM   30  C9  UNL     1     -29.571 -14.764 -13.696  1.00  0.00     0.246 C 
BRANCH  30  31
HETATM   31  O3  UNL     1     -30.204 -15.190 -14.837  1.00  0.00    -0.383 OA
ATOM     32  H3  UNL     1     -30.042 -14.649 -15.600  1.00  0.00     0.210 HD
ENDBRANCH  30  31
BRANCH  30  33
HETATM   33  C10 UNL     1     -28.047 -14.698 -13.972  1.00  0.00     0.341 C 
HETATM   34  O4  UNL     1     -27.476 -15.707 -13.434  1.00  0.00    -0.252 OA
HETATM   35  N9  UNL     1     -27.515 -13.699 -14.672  1.00  0.00    -0.291 NA
BRANCH  35  36
HETATM   36  N10 UNL     1     -26.984 -12.704 -15.368  1.00  0.00    -0.277 N 
ATOM     37 2H10 UNL     1     -27.409 -13.446 -14.812  1.00  0.00     0.191 HD
ATOM     38 1H10 UNL     1     -26.575 -11.938 -15.905  1.00  0.00     0.191 HD
ENDBRANCH  35  36
ENDBRANCH  30  33
ENDBRANCH  29  30
ENDBRANCH  10  29
TORSDOF 7
ENDMDL
MODEL 5
REMARK VINA RESULT: -8.786715505      2.596      7.287
REMARK  7 active torsions:
REMARK  status: ('A' for Active; 'I' for Inactive)
REMARK       I    between atoms: N1_1  and  C1_4 
REMARK       I    between atoms: C1_4  and  N3_6 
REMARK    1  A    between atoms: N3_6  and  C2_8 
REMARK    2  A    between atoms: C3_14  and  C4_15 
REMARK    3  A    between atoms: N8_24  and  C8_25 
REMARK    4  A    between atoms: C8_25  and  C9_26 
REMARK    5  A    between atoms: C9_26  and  O3_27 
REMARK    6  A    between atoms: C9_26  and  C10_29 
REMARK       I    between atoms: C10_29  and  N9_31 
REMARK    7  A    between atoms: N9_31  and  N10_32 
ROOT
HETATM    1  C4  UNL     1     -29.844 -11.902  -7.427  1.00  0.00     0.119 A 
HETATM    2  N6  UNL     1     -29.156 -11.517  -6.355  1.00  0.00    -0.276 N 
ATOM      3  H6  UNL     1     -29.353 -10.682  -5.803  1.00  0.00     0.189 HD
HETATM    4  N7  UNL     1     -28.202 -12.356  -6.116  1.00  0.00    -0.201 N 
ATOM      5  H7  UNL     1     -27.528 -12.295  -5.353  1.00  0.00     0.216 HD
HETATM    6  O2  UNL     1     -28.252 -13.283  -7.010  1.00  0.00    -0.219 OA
HETATM    7  C5  UNL     1     -29.242 -13.078  -7.864  1.00  0.00     0.148 A 
HETATM    8  C6  UNL     1     -29.589 -13.917  -8.986  1.00  0.00     0.089 A 
HETATM    9  C7  UNL     1     -29.056 -14.043 -10.253  1.00  0.00     0.130 A 
HETATM   10  N8  UNL     1     -29.734 -14.984 -10.930  1.00  0.00    -0.297 N 
HETATM   11  N11 UNL     1     -30.693 -15.461 -10.111  1.00  0.00    -0.264 N 
ATOM     12  H11 UNL     1     -31.366 -16.188 -10.353  1.00  0.00     0.190 HD
HETATM   13  C11 UNL     1     -30.627 -14.844  -8.955  1.00  0.00     0.274 A 
HETATM   14  O5  UNL     1     -31.377 -15.035  -7.935  1.00  0.00    -0.266 OA
ENDROOT
BRANCH   1  15
HETATM   15  C3  UNL     1     -30.981 -11.291  -8.085  1.00  0.00     0.133 A 
HETATM   16  C2  UNL     1     -30.921 -10.482  -9.205  1.00  0.00     0.161 A 
HETATM   17  N4  UNL     1     -32.189 -10.125  -9.513  1.00  0.00    -0.223 N 
HETATM   18  O1  UNL     1     -32.965 -10.677  -8.639  1.00  0.00    -0.155 OA
ATOM     19  H4  UNL     1     -32.479  -9.532 -10.290  1.00  0.00     0.198 HD
HETATM   20  N5  UNL     1     -32.282 -11.383  -7.768  1.00  0.00    -0.236 N 
ATOM     21  H5  UNL     1     -32.672 -11.910  -6.986  1.00  0.00     0.197 HD
BRANCH  16  22
HETATM   22  N3  UNL     1     -29.833 -10.157  -9.768  1.00  0.00    -0.314 N 
HETATM   23  C1  UNL     1     -29.703  -9.233 -10.815  1.00  0.00     0.187 C 
HETATM   24  N1  UNL     1     -30.377  -8.126 -10.860  1.00  0.00    -0.373 N 
HETATM   25  N2  UNL     1     -28.781  -9.507 -11.898  1.00  0.00    -0.064 NA
ATOM     26  H12 UNL     1     -30.282  -7.454 -11.622  1.00  0.00     0.158 HD
ATOM     27  H11 UNL     1     -31.026  -7.933 -10.098  1.00  0.00     0.158 HD
ATOM     28  H3  UNL     1     -28.980 -10.606  -9.430  1.00  0.00     0.170 HD
ENDBRANCH  16  22
ENDBRANCH   1  15
BRANCH  10  29
HETATM   29  C8  UNL     1     -29.535 -15.479 -12.282  1.00  0.00     0.191 C 
BRANCH  29  30
HETATM   30  C9  UNL     1     -29.379 -14.395 -13.285  1.00  0.00     0.246 C 
BRANCH  30  31
HETATM   31  O3  UNL     1     -30.277 -14.452 -14.322  1.00  0.00    -0.383 OA
ATOM     32  H3  UNL     1     -30.774 -13.654 -14.453  1.00  0.00     0.210 HD
ENDBRANCH  30  31
BRANCH  30  33
HETATM   33  C10 UNL     1     -27.948 -14.557 -13.861  1.00  0.00     0.341 C 
HETATM   34  O4  UNL     1     -27.423 -15.625 -13.395  1.00  0.00    -0.252 OA
HETATM   35  N9  UNL     1     -27.439 -13.662 -14.704  1.00  0.00    -0.291 NA
BRANCH  35  36
HETATM   36  N10 UNL     1     -26.930 -12.770 -15.543  1.00  0.00    -0.277 N 
ATOM     37 2H10 UNL     1     -27.351 -13.458 -14.917  1.00  0.00     0.191 HD
ATOM     38 1H10 UNL     1     -26.538 -12.084 -16.188  1.00  0.00     0.191 HD
ENDBRANCH  35  36
ENDBRANCH  30  33
ENDBRANCH  29  30
ENDBRANCH  10  29
TORSDOF 7
ENDMDL
