MODEL 1
REMARK VINA RESULT: -8.125630499      0.000      0.000
REMARK  8 active torsions:
REMARK  status: ('A' for Active; 'I' for Inactive)
REMARK    1  A    between atoms: C2_2  and  C3_3 
REMARK    2  A    between atoms: C2_2  and  N1_6 
REMARK       I    between atoms: N1_6  and  C4_7 
REMARK    3  A    between atoms: N1_6  and  C6_15 
REMARK    4  A    between atoms: C4_7  and  O4_9 
REMARK    5  A    between atoms: O4_9  and  N2_10 
REMARK       I    between atoms: N2_10  and  C5_12 
REMARK    6  A    between atoms: C6_15  and  O6_16 
REMARK    7  A    between atoms: C6_15  and  C7_18 
REMARK    8  A    between atoms: N5_22  and  N6_24 
ROOT
HETATM    1  C7  UNL     1     -29.784 -12.568 -11.614  1.00  0.00     0.110 A 
HETATM    2  N4  UNL     1     -29.707 -13.896 -11.657  1.00  0.00    -0.336 N 
ATOM      3  H4  UNL     1     -29.702 -14.407 -10.775  1.00  0.00     0.168 HD
HETATM    4  C8  UNL     1     -29.634 -14.619 -12.828  1.00  0.00     0.123 A 
HETATM    5  N5  UNL     1     -29.568 -15.898 -12.731  1.00  0.00    -0.246 N 
ATOM      6  H5  UNL     1     -29.574 -16.298 -11.793  1.00  0.00     0.192 HD
HETATM    7  C9  UNL     1     -29.634 -14.007 -14.045  1.00  0.00     0.052 A 
HETATM    8  C10 UNL     1     -29.710 -12.643 -14.063  1.00  0.00     0.033 A 
HETATM    9  C11 UNL     1     -29.782 -11.954 -12.882  1.00  0.00     0.077 A 
HETATM   10  N10 UNL     1     -29.871 -10.528 -12.933  1.00  0.00    -0.100 NA
ENDROOT
BRANCH   1  11
HETATM   11  C6  UNL     1     -29.772 -11.710 -10.455  1.00  0.00     0.177 C 
BRANCH  11  12
HETATM   12  N1  UNL     1     -30.624 -11.577  -9.352  1.00  0.00    -0.256 N 
HETATM   13  C4  UNL     1     -31.387 -10.340  -9.269  1.00  0.00     0.392 C 
HETATM   14  O3  UNL     1     -32.080 -10.020  -8.289  1.00  0.00    -0.236 OA
BRANCH  12  15
HETATM   15  C2  UNL     1     -30.700 -12.513  -8.265  1.00  0.00     0.194 C 
HETATM   16  C1  UNL     1     -31.813 -13.534  -8.431  1.00  0.00     0.044 C 
BRANCH  15  17
HETATM   17  C3  UNL     1     -29.401 -13.255  -7.978  1.00  0.00     0.197 C 
HETATM   18  O1  UNL     1     -29.420 -14.504  -8.577  1.00  0.00    -0.646 OA
HETATM   19  O2  UNL     1     -28.900 -13.173  -6.730  1.00  0.00    -0.646 OA
ENDBRANCH  15  17
ENDBRANCH  12  15
BRANCH  13  20
HETATM   20  O4  UNL     1     -31.349  -9.464 -10.330  1.00  0.00    -0.177 OA
BRANCH  20  21
HETATM   21  N2  UNL     1     -30.489  -8.391 -10.416  1.00  0.00    -0.208 N 
HETATM   22  C5  UNL     1     -30.920  -7.154 -10.963  1.00  0.00     0.352 C 
HETATM   23  N3  UNL     1     -30.086  -6.019 -11.077  1.00  0.00    -0.038 NA
HETATM   24  O5  UNL     1     -32.101  -7.045 -11.371  1.00  0.00    -0.249 OA
ATOM     25  H2  UNL     1     -29.530  -8.487 -10.082  1.00  0.00     0.199 HD
ENDBRANCH  20  21
ENDBRANCH  13  20
ENDBRANCH  11  12
BRANCH  11  26
HETATM   26  O6  UNL     1     -28.749 -10.865 -10.402  1.00  0.00    -0.344 OA
ATOM     27  H6  UNL     1     -28.026 -11.143 -10.953  1.00  0.00     0.219 HD
ENDBRANCH  11  26
ENDBRANCH   1  11
BRANCH   5  28
HETATM   28  N6  UNL     1     -29.491 -16.767 -13.784  1.00  0.00    -0.097 N 
HETATM   29  N7  UNL     1     -28.482 -17.526 -14.230  1.00  0.00    -0.189 N 
HETATM   30  N8  UNL     1     -29.225 -18.003 -15.201  1.00  0.00    -0.208 N 
ATOM     31  H7  UNL     1     -27.517 -17.674 -13.933  1.00  0.00     0.213 HD
HETATM   32  N9  UNL     1     -30.219 -17.272 -14.783  1.00  0.00    -0.189 N 
ATOM     33  H8  UNL     1     -29.085 -18.667 -15.962  1.00  0.00     0.211 HD
ATOM     34  H9  UNL     1     -31.180 -17.137 -15.097  1.00  0.00     0.213 HD
ENDBRANCH   5  28
TORSDOF 8
ENDMDL
MODEL 2
REMARK VINA RESULT: -7.861925600      2.907      7.746
REMARK  8 active torsions:
REMARK  status: ('A' for Active; 'I' for Inactive)
REMARK    1  A    between atoms: C2_2  and  C3_3 
REMARK    2  A    between atoms: C2_2  and  N1_6 
REMARK       I    between atoms: N1_6  and  C4_7 
REMARK    3  A    between atoms: N1_6  and  C6_15 
REMARK    4  A    between atoms: C4_7  and  O4_9 
REMARK    5  A    between atoms: O4_9  and  N2_10 
REMARK       I    between atoms: N2_10  and  C5_12 
REMARK    6  A    between atoms: C6_15  and  O6_16 
REMARK    7  A    between atoms: C6_15  and  C7_18 
REMARK    8  A    between atoms: N5_22  and  N6_24 
ROOT
HETATM    1  C7  UNL     1     -29.431 -12.922 -10.154  1.00  0.00     0.110 A 
HETATM    2  N4  UNL     1     -29.515 -11.696  -9.641  1.00  0.00    -0.336 N 
ATOM      3  H4  UNL     1     -29.669 -10.916 -10.281  1.00  0.00     0.168 HD
HETATM    4  C8  UNL     1     -29.406 -11.422  -8.296  1.00  0.00     0.123 A 
HETATM    5  N5  UNL     1     -29.509 -10.196  -7.930  1.00  0.00    -0.246 N 
ATOM      6  H5  UNL     1     -29.666  -9.501  -8.660  1.00  0.00     0.192 HD
HETATM    7  C9  UNL     1     -29.197 -12.411  -7.382  1.00  0.00     0.052 A 
HETATM    8  C10 UNL     1     -29.101 -13.691  -7.850  1.00  0.00     0.033 A 
HETATM    9  C11 UNL     1     -29.216 -13.929  -9.194  1.00  0.00     0.077 A 
HETATM   10  N10 UNL     1     -29.121 -15.280  -9.653  1.00  0.00    -0.100 NA
ENDROOT
BRANCH   1  11
HETATM   11  C6  UNL     1     -29.439 -13.312 -11.543  1.00  0.00     0.177 C 
BRANCH  11  12
HETATM   12  N1  UNL     1     -28.639 -12.969 -12.639  1.00  0.00    -0.256 N 
HETATM   13  C4  UNL     1     -27.723 -13.994 -13.117  1.00  0.00     0.392 C 
HETATM   14  O3  UNL     1     -26.861 -13.798 -13.990  1.00  0.00    -0.236 OA
BRANCH  12  15
HETATM   15  C2  UNL     1     -28.584 -11.660 -13.229  1.00  0.00     0.194 C 
HETATM   16  C1  UNL     1     -29.957 -11.091 -13.549  1.00  0.00     0.044 C 
BRANCH  15  17
HETATM   17  C3  UNL     1     -27.812 -10.631 -12.413  1.00  0.00     0.197 C 
HETATM   18  O1  UNL     1     -28.690  -9.795 -11.742  1.00  0.00    -0.646 OA
HETATM   19  O2  UNL     1     -26.733 -10.065 -12.987  1.00  0.00    -0.646 OA
ENDBRANCH  15  17
ENDBRANCH  12  15
BRANCH  13  20
HETATM   20  O4  UNL     1     -27.806 -15.260 -12.582  1.00  0.00    -0.177 OA
BRANCH  20  21
HETATM   21  N2  UNL     1     -27.899 -16.411 -13.333  1.00  0.00    -0.208 N 
HETATM   22  C5  UNL     1     -29.115 -16.770 -13.972  1.00  0.00     0.352 C 
HETATM   23  N3  UNL     1     -29.271 -17.935 -14.754  1.00  0.00    -0.038 NA
HETATM   24  O5  UNL     1     -30.114 -16.022 -13.844  1.00  0.00    -0.249 OA
ATOM     25  H2  UNL     1     -27.082 -17.014 -13.432  1.00  0.00     0.199 HD
ENDBRANCH  20  21
ENDBRANCH  13  20
ENDBRANCH  11  12
BRANCH  11  26
HETATM   26  O6  UNL     1     -30.393 -14.177 -11.869  1.00  0.00    -0.344 OA
ATOM     27  H6  UNL     1     -30.792 -14.576 -11.105  1.00  0.00     0.219 HD
ENDBRANCH  11  26
ENDBRANCH   1  11
BRANCH   5  28
HETATM   28  N6  UNL     1     -29.426  -9.746  -6.642  1.00  0.00    -0.097 N 
HETATM   29  N7  UNL     1     -28.412  -9.194  -5.964  1.00  0.00    -0.189 N 
HETATM   30  N8  UNL     1     -29.152  -9.077  -4.886  1.00  0.00    -0.208 N 
ATOM     31  H7  UNL     1     -27.446  -8.959  -6.193  1.00  0.00     0.213 HD
HETATM   32  N9  UNL     1     -30.151  -9.612  -5.529  1.00  0.00    -0.189 N 
ATOM     33  H8  UNL     1     -29.007  -8.718  -3.942  1.00  0.00     0.211 HD
ATOM     34  H9  UNL     1     -31.113  -9.841  -5.278  1.00  0.00     0.213 HD
ENDBRANCH   5  28
TORSDOF 8
ENDMDL
MODEL 3
REMARK VINA RESULT: -7.751928231      2.921      6.601
REMARK  8 active torsions:
REMARK  status: ('A' for Active; 'I' for Inactive)
REMARK    1  A    between atoms: C2_2  and  C3_3 
REMARK    2  A    between atoms: C2_2  and  N1_6 
REMARK       I    between atoms: N1_6  and  C4_7 
REMARK    3  A    between atoms: N1_6  and  C6_15 
REMARK    4  A    between atoms: C4_7  and  O4_9 
REMARK    5  A    between atoms: O4_9  and  N2_10 
REMARK       I    between atoms: N2_10  and  C5_12 
REMARK    6  A    between atoms: C6_15  and  O6_16 
REMARK    7  A    between atoms: C6_15  and  C7_18 
REMARK    8  A    between atoms: N5_22  and  N6_24 
ROOT
HETATM    1  C7  UNL     1     -29.723 -13.594  -9.719  1.00  0.00     0.110 A 
HETATM    2  N4  UNL     1     -29.807 -12.329  -9.315  1.00  0.00    -0.336 N 
ATOM      3  H4  UNL     1     -30.134 -11.631  -9.983  1.00  0.00     0.168 HD
HETATM    4  C8  UNL     1     -29.478 -11.909  -8.045  1.00  0.00     0.123 A 
HETATM    5  N5  UNL     1     -29.608 -10.659  -7.782  1.00  0.00    -0.246 N 
ATOM      6  H5  UNL     1     -29.947 -10.055  -8.531  1.00  0.00     0.192 HD
HETATM    7  C9  UNL     1     -29.031 -12.782  -7.099  1.00  0.00     0.052 A 
HETATM    8  C10 UNL     1     -28.922 -14.096  -7.456  1.00  0.00     0.033 A 
HETATM    9  C11 UNL     1     -29.260 -14.481  -8.727  1.00  0.00     0.077 A 
HETATM   10  N10 UNL     1     -29.145 -15.865  -9.068  1.00  0.00    -0.100 NA
ENDROOT
BRANCH   1  11
HETATM   11  C6  UNL     1     -29.951 -14.129 -11.039  1.00  0.00     0.177 C 
BRANCH  11  12
HETATM   12  N1  UNL     1     -29.331 -13.922 -12.277  1.00  0.00    -0.256 N 
HETATM   13  C4  UNL     1     -29.507 -12.608 -12.877  1.00  0.00     0.392 C 
HETATM   14  O3  UNL     1     -29.132 -12.317 -14.025  1.00  0.00    -0.236 OA
BRANCH  12  15
HETATM   15  C2  UNL     1     -28.650 -14.941 -13.026  1.00  0.00     0.194 C 
HETATM   16  C1  UNL     1     -27.587 -15.667 -12.217  1.00  0.00     0.044 C 
BRANCH  15  17
HETATM   17  C3  UNL     1     -29.566 -15.978 -13.661  1.00  0.00     0.197 C 
HETATM   18  O1  UNL     1     -28.839 -16.816 -14.492  1.00  0.00    -0.646 OA
HETATM   19  O2  UNL     1     -30.769 -15.560 -14.101  1.00  0.00    -0.646 OA
ENDBRANCH  15  17
ENDBRANCH  12  15
BRANCH  13  20
HETATM   20  O4  UNL     1     -30.121 -11.619 -12.142  1.00  0.00    -0.177 OA
BRANCH  20  21
HETATM   21  N2  UNL     1     -29.629 -10.339 -12.006  1.00  0.00    -0.208 N 
HETATM   22  C5  UNL     1     -30.215  -9.425 -11.091  1.00  0.00     0.352 C 
HETATM   23  N3  UNL     1     -29.756  -8.103 -10.907  1.00  0.00    -0.038 NA
HETATM   24  O5  UNL     1     -31.195  -9.797 -10.401  1.00  0.00    -0.249 OA
ATOM     25  H2  UNL     1     -28.832 -10.044 -12.571  1.00  0.00     0.199 HD
ENDBRANCH  20  21
ENDBRANCH  13  20
ENDBRANCH  11  12
BRANCH  11  26
HETATM   26  O6  UNL     1     -30.950 -15.000 -11.118  1.00  0.00    -0.344 OA
ATOM     27  H6  UNL     1     -30.872 -15.694 -10.474  1.00  0.00     0.219 HD
ENDBRANCH  11  26
ENDBRANCH   1  11
BRANCH   5  28
HETATM   28  N6  UNL     1     -29.329 -10.071  -6.579  1.00  0.00    -0.097 N 
HETATM   29  N7  UNL     1     -28.378  -9.197  -6.224  1.00  0.00    -0.189 N 
HETATM   30  N8  UNL     1     -28.815  -9.174  -4.986  1.00  0.00    -0.208 N 
ATOM     31  H7  UNL     1     -27.617  -8.732  -6.719  1.00  0.00     0.213 HD
HETATM   32  N9  UNL     1     -29.746 -10.026  -5.312  1.00  0.00    -0.189 N 
ATOM     33  H8  UNL     1     -28.541  -8.693  -4.130  1.00  0.00     0.211 HD
ATOM     34  H9  UNL     1     -30.501 -10.481  -4.798  1.00  0.00     0.213 HD
ENDBRANCH   5  28
TORSDOF 8
ENDMDL
MODEL 4
REMARK VINA RESULT: -7.636041078      1.929      3.306
REMARK  8 active torsions:
REMARK  status: ('A' for Active; 'I' for Inactive)
REMARK    1  A    between atoms: C2_2  and  C3_3 
REMARK    2  A    between atoms: C2_2  and  N1_6 
REMARK       I    between atoms: N1_6  and  C4_7 
REMARK    3  A    between atoms: N1_6  and  C6_15 
REMARK    4  A    between atoms: C4_7  and  O4_9 
REMARK    5  A    between atoms: O4_9  and  N2_10 
REMARK       I    between atoms: N2_10  and  C5_12 
REMARK    6  A    between atoms: C6_15  and  O6_16 
REMARK    7  A    between atoms: C6_15  and  C7_18 
REMARK    8  A    between atoms: N5_22  and  N6_24 
ROOT
HETATM    1  C7  UNL     1     -29.678 -12.964  -9.690  1.00  0.00     0.110 A 
HETATM    2  N4  UNL     1     -29.598 -13.286 -10.979  1.00  0.00    -0.336 N 
ATOM      3  H4  UNL     1     -29.759 -12.552 -11.669  1.00  0.00     0.168 HD
HETATM    4  C8  UNL     1     -29.310 -14.553 -11.434  1.00  0.00     0.123 A 
HETATM    5  N5  UNL     1     -29.258 -14.730 -12.705  1.00  0.00    -0.246 N 
ATOM      6  H5  UNL     1     -29.435 -13.919 -13.298  1.00  0.00     0.192 HD
HETATM    7  C9  UNL     1     -29.085 -15.586 -10.574  1.00  0.00     0.052 A 
HETATM    8  C10 UNL     1     -29.155 -15.316  -9.236  1.00  0.00     0.033 A 
HETATM    9  C11 UNL     1     -29.442 -14.044  -8.817  1.00  0.00     0.077 A 
HETATM   10  N10 UNL     1     -29.499 -13.790  -7.411  1.00  0.00    -0.100 NA
ENDROOT
BRANCH   1  11
HETATM   11  C6  UNL     1     -30.060 -11.702  -9.106  1.00  0.00     0.177 C 
BRANCH  11  12
HETATM   12  N1  UNL     1     -31.177 -10.873  -9.262  1.00  0.00    -0.256 N 
HETATM   13  C4  UNL     1     -30.982  -9.669 -10.056  1.00  0.00     0.392 C 
HETATM   14  O3  UNL     1     -31.835  -8.774 -10.175  1.00  0.00    -0.236 OA
BRANCH  12  15
HETATM   15  C2  UNL     1     -32.438 -11.073  -8.604  1.00  0.00     0.194 C 
HETATM   16  C1  UNL     1     -33.480 -11.728  -9.496  1.00  0.00     0.044 C 
BRANCH  15  17
HETATM   17  C3  UNL     1     -32.354 -11.859  -7.301  1.00  0.00     0.197 C 
HETATM   18  O1  UNL     1     -32.898 -13.122  -7.467  1.00  0.00    -0.646 OA
HETATM   19  O2  UNL     1     -32.643 -11.203  -6.160  1.00  0.00    -0.646 OA
ENDBRANCH  15  17
ENDBRANCH  12  15
BRANCH  13  20
HETATM   20  O4  UNL     1     -29.789  -9.499 -10.723  1.00  0.00    -0.177 OA
BRANCH  20  21
HETATM   21  N2  UNL     1     -29.612  -9.751 -12.066  1.00  0.00    -0.208 N 
HETATM   22  C5  UNL     1     -28.500 -10.504 -12.526  1.00  0.00     0.352 C 
HETATM   23  N3  UNL     1     -28.265 -10.795 -13.888  1.00  0.00    -0.038 NA
HETATM   24  O5  UNL     1     -27.672 -10.942 -11.691  1.00  0.00    -0.249 OA
ATOM     25  H2  UNL     1     -30.289  -9.391 -12.739  1.00  0.00     0.199 HD
ENDBRANCH  20  21
ENDBRANCH  13  20
ENDBRANCH  11  12
BRANCH  11  26
HETATM   26  O6  UNL     1     -29.187 -11.210  -8.234  1.00  0.00    -0.344 OA
ATOM     27  H6  UNL     1     -28.334 -11.064  -8.625  1.00  0.00     0.219 HD
ENDBRANCH  11  26
ENDBRANCH   1  11
BRANCH   5  28
HETATM   28  N6  UNL     1     -28.986 -15.917 -13.328  1.00  0.00    -0.097 N 
HETATM   29  N7  UNL     1     -29.779 -16.763 -13.998  1.00  0.00    -0.189 N 
HETATM   30  N8  UNL     1     -28.771 -17.570 -14.235  1.00  0.00    -0.208 N 
ATOM     31  H7  UNL     1     -30.771 -16.775 -14.232  1.00  0.00     0.213 HD
HETATM   32  N9  UNL     1     -27.984 -16.760 -13.586  1.00  0.00    -0.189 N 
ATOM     33  H8  UNL     1     -28.653 -18.458 -14.723  1.00  0.00     0.211 HD
ATOM     34  H9  UNL     1     -26.989 -16.767 -13.362  1.00  0.00     0.213 HD
ENDBRANCH   5  28
TORSDOF 8
ENDMDL
MODEL 5
REMARK VINA RESULT: -7.578068604      1.981      4.296
REMARK  8 active torsions:
REMARK  status: ('A' for Active; 'I' for Inactive)
REMARK    1  A    between atoms: C2_2  and  C3_3 
REMARK    2  A    between atoms: C2_2  and  N1_6 
REMARK       I    between atoms: N1_6  and  C4_7 
REMARK    3  A    between atoms: N1_6  and  C6_15 
REMARK    4  A    between atoms: C4_7  and  O4_9 
REMARK    5  A    between atoms: O4_9  and  N2_10 
REMARK       I    between atoms: N2_10  and  C5_12 
REMARK    6  A    between atoms: C6_15  and  O6_16 
REMARK    7  A    between atoms: C6_15  and  C7_18 
REMARK    8  A    between atoms: N5_22  and  N6_24 
ROOT
HETATM    1  C7  UNL     1     -29.257 -12.886 -11.302  1.00  0.00     0.110 A 
HETATM    2  N4  UNL     1     -29.853 -14.002 -11.713  1.00  0.00    -0.336 N 
ATOM      3  H4  UNL     1     -30.693 -14.309 -11.221  1.00  0.00     0.168 HD
HETATM    4  C8  UNL     1     -29.400 -14.769 -12.764  1.00  0.00     0.123 A 
HETATM    5  N5  UNL     1     -30.071 -15.822 -13.062  1.00  0.00    -0.246 N 
ATOM      6  H5  UNL     1     -30.897 -16.026 -12.500  1.00  0.00     0.192 HD
HETATM    7  C9  UNL     1     -28.284 -14.426 -13.467  1.00  0.00     0.052 A 
HETATM    8  C10 UNL     1     -27.628 -13.288 -13.090  1.00  0.00     0.033 A 
HETATM    9  C11 UNL     1     -28.106 -12.548 -12.041  1.00  0.00     0.077 A 
HETATM   10  N10 UNL     1     -27.404 -11.357 -11.676  1.00  0.00    -0.100 NA
ENDROOT
BRANCH   1  11
HETATM   11  C6  UNL     1     -29.588 -12.061 -10.166  1.00  0.00     0.177 C 
BRANCH  11  12
HETATM   12  N1  UNL     1     -30.718 -11.309  -9.824  1.00  0.00    -0.256 N 
HETATM   13  C4  UNL     1     -31.847 -12.049  -9.280  1.00  0.00     0.392 C 
HETATM   14  O3  UNL     1     -32.959 -11.544  -9.055  1.00  0.00    -0.236 OA
BRANCH  12  15
HETATM   15  C2  UNL     1     -30.869  -9.904 -10.083  1.00  0.00     0.194 C 
HETATM   16  C1  UNL     1     -30.679  -9.044  -8.844  1.00  0.00     0.044 C 
BRANCH  15  17
HETATM   17  C3  UNL     1     -29.970  -9.365 -11.189  1.00  0.00     0.197 C 
HETATM   18  O1  UNL     1     -29.725  -8.015 -10.991  1.00  0.00    -0.646 OA
HETATM   19  O2  UNL     1     -30.221  -9.772 -12.448  1.00  0.00    -0.646 OA
ENDBRANCH  15  17
ENDBRANCH  12  15
BRANCH  13  20
HETATM   20  O4  UNL     1     -31.688 -13.385  -8.990  1.00  0.00    -0.177 OA
BRANCH  20  21
HETATM   21  N2  UNL     1     -30.832 -13.870  -8.026  1.00  0.00    -0.208 N 
HETATM   22  C5  UNL     1     -30.132 -15.090  -8.218  1.00  0.00     0.352 C 
HETATM   23  N3  UNL     1     -29.242 -15.637  -7.268  1.00  0.00    -0.038 NA
HETATM   24  O5  UNL     1     -30.302 -15.729  -9.284  1.00  0.00    -0.249 OA
ATOM     25  H2  UNL     1     -30.699 -13.345  -7.161  1.00  0.00     0.199 HD
ENDBRANCH  20  21
ENDBRANCH  13  20
ENDBRANCH  11  12
BRANCH  11  26
HETATM   26  O6  UNL     1     -28.639 -11.991  -9.239  1.00  0.00    -0.344 OA
ATOM     27  H6  UNL     1     -28.980 -11.713  -8.397  1.00  0.00     0.219 HD
ENDBRANCH  11  26
ENDBRANCH   1  11
BRANCH   5  28
HETATM   28  N6  UNL     1     -29.766 -16.694 -14.071  1.00  0.00    -0.097 N 
HETATM   29  N7  UNL     1     -28.795 -17.610 -14.182  1.00  0.00    -0.189 N 
HETATM   30  N8  UNL     1     -29.217 -17.959 -15.375  1.00  0.00    -0.208 N 
ATOM     31  H7  UNL     1     -28.031 -17.915 -13.579  1.00  0.00     0.213 HD
HETATM   32  N9  UNL     1     -30.167 -17.073 -15.286  1.00  0.00    -0.189 N 
ATOM     33  H8  UNL     1     -28.924 -18.639 -16.077  1.00  0.00     0.211 HD
ATOM     34  H9  UNL     1     -30.924 -16.782 -15.905  1.00  0.00     0.213 HD
ENDBRANCH   5  28
TORSDOF 8
ENDMDL
