MODEL 1
REMARK VINA RESULT: -6.060772187      0.000      0.000
REMARK  4 active torsions:
REMARK  status: ('A' for Active; 'I' for Inactive)
REMARK    1  A    between atoms: O1_2  and  C2_3 
REMARK    2  A    between atoms: C2_3  and  C4_5 
REMARK    3  A    between atoms: C6_10  and  N3_11 
REMARK    4  A    between atoms: N3_11  and  N4_13 
ROOT
HETATM    1  C4  UNL     1       2.975 -31.166 -20.559  1.00  0.00     0.080 A 
HETATM    2  C5  UNL     1       3.752 -32.150 -19.989  1.00  0.00     0.146 A 
HETATM    3  N1  UNL     1       5.164 -32.183 -20.164  1.00  0.00    -0.081 NA
HETATM    4  N2  UNL     1       3.234 -33.150 -19.245  1.00  0.00    -0.177 N 
ATOM      5  H2  UNL     1       3.854 -33.855 -18.845  1.00  0.00     0.185 HD
HETATM    6  C6  UNL     1       1.887 -33.227 -19.022  1.00  0.00     0.700 A 
HETATM    7  N5  UNL     1       1.116 -32.287 -19.563  1.00  0.00    -0.154 N 
ATOM      8  H5  UNL     1       0.108 -32.329 -19.408  1.00  0.00     0.187 HD
HETATM    9  C7  UNL     1       1.622 -31.267 -20.320  1.00  0.00     0.271 A 
HETATM   10  O2  UNL     1       0.749 -30.478 -20.746  1.00  0.00    -0.267 OA
ENDROOT
BRANCH   6  11
HETATM   11  N3  UNL     1       1.489 -34.211 -18.300  1.00  0.00    -0.138 N 
ATOM     12  H3  UNL     1       0.957 -34.030 -17.448  1.00  0.00     0.205 HD
BRANCH  11  13
HETATM   13  N4  UNL     1       1.776 -35.517 -18.665  1.00  0.00    -0.331 N 
ATOM     14  H42 UNL     1       1.039 -36.080 -19.091  1.00  0.00     0.177 HD
ATOM     15  H41 UNL     1       2.706 -35.908 -18.511  1.00  0.00     0.177 HD
ENDBRANCH  11  13
ENDBRANCH   6  11
BRANCH   1  16
HETATM   16  C2  UNL     1       3.499 -30.060 -21.345  1.00  0.00     0.158 C 
HETATM   17  C3  UNL     1       4.323 -29.057 -20.552  1.00  0.00     0.045 C 
BRANCH  16  18
HETATM   18  O1  UNL     1       4.380 -30.548 -22.320  1.00  0.00    -0.386 OA
HETATM   19  C1  UNL     1       3.801 -31.228 -23.349  1.00  0.00     0.202 C 
ENDBRANCH  16  18
ENDBRANCH   1  16
TORSDOF 4
ENDMDL
MODEL 2
REMARK VINA RESULT: -5.976865202      1.893      2.170
REMARK  4 active torsions:
REMARK  status: ('A' for Active; 'I' for Inactive)
REMARK    1  A    between atoms: O1_2  and  C2_3 
REMARK    2  A    between atoms: C2_3  and  C4_5 
REMARK    3  A    between atoms: C6_10  and  N3_11 
REMARK    4  A    between atoms: N3_11  and  N4_13 
ROOT
HETATM    1  C4  UNL     1       3.786 -30.982 -20.426  1.00  0.00     0.080 A 
HETATM    2  C5  UNL     1       2.933 -31.856 -21.061  1.00  0.00     0.146 A 
HETATM    3  N1  UNL     1       2.687 -31.776 -22.461  1.00  0.00    -0.081 NA
HETATM    4  N2  UNL     1       2.265 -32.830 -20.408  1.00  0.00    -0.177 N 
ATOM      5  H2  UNL     1       1.644 -33.452 -20.926  1.00  0.00     0.185 HD
HETATM    6  C6  UNL     1       2.412 -32.991 -19.058  1.00  0.00     0.700 A 
HETATM    7  N5  UNL     1       3.233 -32.157 -18.421  1.00  0.00    -0.154 N 
ATOM      8  H5  UNL     1       3.355 -32.262 -17.414  1.00  0.00     0.187 HD
HETATM    9  C7  UNL     1       3.917 -31.165 -19.067  1.00  0.00     0.271 A 
HETATM   10  O2  UNL     1       4.639 -30.480 -18.308  1.00  0.00    -0.267 OA
ENDROOT
BRANCH   6  11
HETATM   11  N3  UNL     1       1.739 -33.946 -18.526  1.00  0.00    -0.138 N 
ATOM     12  H3  UNL     1       1.010 -33.732 -17.844  1.00  0.00     0.205 HD
BRANCH  11  13
HETATM   13  N4  UNL     1       1.993 -35.264 -18.867  1.00  0.00    -0.331 N 
ATOM     14  H42 UNL     1       2.194 -35.488 -19.842  1.00  0.00     0.177 HD
ATOM     15  H41 UNL     1       1.980 -35.997 -18.157  1.00  0.00     0.177 HD
ENDBRANCH  11  13
ENDBRANCH   6  11
BRANCH   1  16
HETATM   16  C2  UNL     1       4.541 -29.938 -21.099  1.00  0.00     0.158 C 
HETATM   17  C3  UNL     1       4.366 -28.548 -20.506  1.00  0.00     0.045 C 
BRANCH  16  18
HETATM   18  O1  UNL     1       5.914 -30.199 -20.987  1.00  0.00    -0.386 OA
HETATM   19  C1  UNL     1       6.525 -30.642 -22.121  1.00  0.00     0.202 C 
ENDBRANCH  16  18
ENDBRANCH   1  16
TORSDOF 4
ENDMDL
MODEL 3
REMARK VINA RESULT: -5.957455143      1.577      1.663
REMARK  4 active torsions:
REMARK  status: ('A' for Active; 'I' for Inactive)
REMARK    1  A    between atoms: O1_2  and  C2_3 
REMARK    2  A    between atoms: C2_3  and  C4_5 
REMARK    3  A    between atoms: C6_10  and  N3_11 
REMARK    4  A    between atoms: N3_11  and  N4_13 
ROOT
HETATM    1  C4  UNL     1       3.854 -31.014 -20.371  1.00  0.00     0.080 A 
HETATM    2  C5  UNL     1       3.977 -31.320 -19.035  1.00  0.00     0.146 A 
HETATM    3  N1  UNL     1       4.880 -30.618 -18.188  1.00  0.00    -0.081 NA
HETATM    4  N2  UNL     1       3.271 -32.306 -18.443  1.00  0.00    -0.177 N 
ATOM      5  H2  UNL     1       3.400 -32.492 -17.448  1.00  0.00     0.185 HD
HETATM    6  C6  UNL     1       2.385 -33.058 -19.163  1.00  0.00     0.700 A 
HETATM    7  N5  UNL     1       2.248 -32.780 -20.458  1.00  0.00    -0.154 N 
ATOM      8  H5  UNL     1       1.591 -33.330 -21.012  1.00  0.00     0.187 HD
HETATM    9  C7  UNL     1       2.955 -31.786 -21.074  1.00  0.00     0.271 A 
HETATM   10  O2  UNL     1       2.697 -31.669 -22.294  1.00  0.00    -0.267 OA
ENDROOT
BRANCH   6  11
HETATM   11  N3  UNL     1       1.757 -33.969 -18.513  1.00  0.00    -0.138 N 
ATOM     12  H3  UNL     1       1.146 -33.708 -17.739  1.00  0.00     0.205 HD
BRANCH  11  13
HETATM   13  N4  UNL     1       1.902 -35.305 -18.852  1.00  0.00    -0.331 N 
ATOM     14  H42 UNL     1       2.843 -35.695 -18.917  1.00  0.00     0.177 HD
ATOM     15  H41 UNL     1       1.084 -35.887 -19.034  1.00  0.00     0.177 HD
ENDBRANCH  11  13
ENDBRANCH   6  11
BRANCH   1  16
HETATM   16  C2  UNL     1       4.578 -29.944 -21.038  1.00  0.00     0.158 C 
HETATM   17  C3  UNL     1       4.411 -28.574 -20.399  1.00  0.00     0.045 C 
BRANCH  16  18
HETATM   18  O1  UNL     1       5.956 -30.196 -20.979  1.00  0.00    -0.386 OA
HETATM   19  C1  UNL     1       6.543 -30.547 -22.157  1.00  0.00     0.202 C 
ENDBRANCH  16  18
ENDBRANCH   1  16
TORSDOF 4
ENDMDL
MODEL 4
REMARK VINA RESULT: -5.922886268      1.212      2.189
REMARK  4 active torsions:
REMARK  status: ('A' for Active; 'I' for Inactive)
REMARK    1  A    between atoms: O1_2  and  C2_3 
REMARK    2  A    between atoms: C2_3  and  C4_5 
REMARK    3  A    between atoms: C6_10  and  N3_11 
REMARK    4  A    between atoms: N3_11  and  N4_13 
ROOT
HETATM    1  C4  UNL     1       2.962 -31.128 -20.553  1.00  0.00     0.080 A 
HETATM    2  C5  UNL     1       1.627 -31.333 -20.291  1.00  0.00     0.146 A 
HETATM    3  N1  UNL     1       0.623 -30.456 -20.789  1.00  0.00    -0.081 NA
HETATM    4  N2  UNL     1       1.180 -32.360 -19.537  1.00  0.00    -0.177 N 
ATOM      5  H2  UNL     1       0.179 -32.468 -19.372  1.00  0.00     0.185 HD
HETATM    6  C6  UNL     1       2.057 -33.258 -18.993  1.00  0.00     0.700 A 
HETATM    7  N5  UNL     1       3.354 -33.080 -19.233  1.00  0.00    -0.154 N 
ATOM      8  H5  UNL     1       4.022 -33.739 -18.835  1.00  0.00     0.187 HD
HETATM    9  C7  UNL     1       3.824 -32.045 -19.993  1.00  0.00     0.271 A 
HETATM   10  O2  UNL     1       5.070 -32.037 -20.111  1.00  0.00    -0.267 OA
ENDROOT
BRANCH   6  11
HETATM   11  N3  UNL     1       1.538 -34.202 -18.295  1.00  0.00    -0.138 N 
ATOM     12  H3  UNL     1       0.997 -33.975 -17.460  1.00  0.00     0.205 HD
BRANCH  11  13
HETATM   13  N4  UNL     1       1.705 -35.527 -18.664  1.00  0.00    -0.331 N 
ATOM     14  H42 UNL     1       2.490 -36.050 -18.273  1.00  0.00     0.177 HD
ATOM     15  H41 UNL     1       1.057 -35.972 -19.314  1.00  0.00     0.177 HD
ENDBRANCH  11  13
ENDBRANCH   6  11
BRANCH   1  16
HETATM   16  C2  UNL     1       3.479 -30.048 -21.380  1.00  0.00     0.158 C 
HETATM   17  C3  UNL     1       4.321 -29.026 -20.632  1.00  0.00     0.045 C 
BRANCH  16  18
HETATM   18  O1  UNL     1       4.342 -30.570 -22.354  1.00  0.00    -0.386 OA
HETATM   19  C1  UNL     1       3.743 -31.272 -23.357  1.00  0.00     0.202 C 
ENDBRANCH  16  18
ENDBRANCH   1  16
TORSDOF 4
ENDMDL
MODEL 5
REMARK VINA RESULT: -5.872543510      2.123      2.539
REMARK  4 active torsions:
REMARK  status: ('A' for Active; 'I' for Inactive)
REMARK    1  A    between atoms: O1_2  and  C2_3 
REMARK    2  A    between atoms: C2_3  and  C4_5 
REMARK    3  A    between atoms: C6_10  and  N3_11 
REMARK    4  A    between atoms: N3_11  and  N4_13 
ROOT
HETATM    1  C4  UNL     1       3.527 -31.247 -19.192  1.00  0.00     0.080 A 
HETATM    2  C5  UNL     1       3.133 -32.429 -19.777  1.00  0.00     0.146 A 
HETATM    3  N1  UNL     1       4.079 -33.374 -20.266  1.00  0.00    -0.081 NA
HETATM    4  N2  UNL     1       1.836 -32.765 -19.943  1.00  0.00    -0.177 N 
ATOM      5  H2  UNL     1       1.597 -33.654 -20.384  1.00  0.00     0.185 HD
HETATM    6  C6  UNL     1       0.840 -31.927 -19.525  1.00  0.00     0.700 A 
HETATM    7  N5  UNL     1       1.197 -30.778 -18.955  1.00  0.00    -0.154 N 
ATOM      8  H5  UNL     1       0.467 -30.140 -18.637  1.00  0.00     0.187 HD
HETATM    9  C7  UNL     1       2.505 -30.421 -18.780  1.00  0.00     0.271 A 
HETATM   10  O2  UNL     1       2.650 -29.307 -18.227  1.00  0.00    -0.267 OA
ENDROOT
BRANCH   6  11
HETATM   11  N3  UNL     1      -0.362 -32.334 -19.722  1.00  0.00    -0.138 N 
ATOM     12  H3  UNL     1      -0.919 -31.921 -20.470  1.00  0.00     0.205 HD
BRANCH  11  13
HETATM   13  N4  UNL     1      -0.909 -33.329 -18.928  1.00  0.00    -0.331 N 
ATOM     14  H42 UNL     1      -0.315 -33.786 -18.236  1.00  0.00     0.177 HD
ATOM     15  H41 UNL     1      -1.887 -33.600 -19.034  1.00  0.00     0.177 HD
ENDBRANCH  11  13
ENDBRANCH   6  11
BRANCH   1  16
HETATM   16  C2  UNL     1       4.912 -30.862 -18.974  1.00  0.00     0.158 C 
HETATM   17  C3  UNL     1       5.600 -31.596 -17.833  1.00  0.00     0.045 C 
BRANCH  16  18
HETATM   18  O1  UNL     1       5.675 -31.177 -20.107  1.00  0.00    -0.386 OA
HETATM   19  C1  UNL     1       5.702 -30.226 -21.082  1.00  0.00     0.202 C 
ENDBRANCH  16  18
ENDBRANCH   1  16
TORSDOF 4
ENDMDL
