MODEL 1
REMARK VINA RESULT: -7.643746784      0.000      0.000
REMARK  7 active torsions:
REMARK  status: ('A' for Active; 'I' for Inactive)
REMARK    1  A    between atoms: C4_7  and  N3_8 
REMARK    2  A    between atoms: C5_11  and  N4_12 
REMARK    3  A    between atoms: N4_12  and  C6_14 
REMARK    4  A    between atoms: C7_17  and  N6_18 
REMARK    5  A    between atoms: N6_18  and  C8_20 
REMARK    6  A    between atoms: C8_20  and  C9_21 
REMARK    7  A    between atoms: C9_21  and  N7_22 
ROOT
HETATM    1  N1  UNL     1      20.783  20.953  30.335  1.00  0.00    -0.190 NA
HETATM    2  C1  UNL     1      20.904  21.894  29.703  1.00  0.00     0.119 C 
HETATM    3  C2  UNL     1      21.069  23.071  28.890  1.00  0.00     0.131 A 
HETATM    4  C3  UNL     1      22.281  23.728  28.776  1.00  0.00     0.131 A 
HETATM    5  N2  UNL     1      22.420  24.828  28.012  1.00  0.00    -0.347 N 
ATOM      6  H2  UNL     1      23.322  25.298  27.943  1.00  0.00     0.167 HD
HETATM    7  C4  UNL     1      21.356  25.297  27.345  1.00  0.00     0.144 A 
HETATM    8  C5  UNL     1      20.112  24.668  27.428  1.00  0.00     0.152 A 
HETATM    9  N11 UNL     1      20.033  23.579  28.201  1.00  0.00    -0.330 N 
ATOM     10  H11 UNL     1      19.132  23.106  28.273  1.00  0.00     0.168 HD
ENDROOT
BRANCH   8  11
HETATM   11  N4  UNL     1      19.021  25.207  26.700  1.00  0.00    -0.324 N 
ATOM     12  H4  UNL     1      19.014  25.100  25.686  1.00  0.00     0.169 HD
BRANCH  11  13
HETATM   13  C6  UNL     1      18.040  25.825  27.258  1.00  0.00     0.147 A 
HETATM   14  N5  UNL     1      18.022  27.168  27.343  1.00  0.00    -0.175 N 
HETATM   15  C7  UNL     1      16.961  27.784  27.942  1.00  0.00     0.681 A 
ATOM     16  H5  UNL     1      18.791  27.719  26.963  1.00  0.00     0.186 HD
HETATM   17  N8  UNL     1      15.947  27.080  28.445  1.00  0.00    -0.177 N 
HETATM   18  C14 UNL     1      15.950  25.729  28.368  1.00  0.00     0.156 A 
ATOM     19  H8  UNL     1      15.165  27.562  28.889  1.00  0.00     0.185 HD
HETATM   20  N9  UNL     1      14.881  24.971  28.897  1.00  0.00    -0.080 NA
HETATM   21  C15 UNL     1      17.003  25.091  27.771  1.00  0.00     0.130 A 
HETATM   22  C16 UNL     1      16.992  23.654  27.698  1.00  0.00     0.107 C 
HETATM   23  N10 UNL     1      16.966  22.489  27.626  1.00  0.00    -0.191 NA
BRANCH  15  24
HETATM   24  N6  UNL     1      16.996  29.051  27.994  1.00  0.00    -0.224 N 
ATOM     25  H6  UNL     1      17.019  29.457  28.929  1.00  0.00     0.177 HD
BRANCH  24  26
HETATM   26  C8  UNL     1      17.007  29.972  26.920  1.00  0.00     0.168 C 
BRANCH  26  27
HETATM   27  C9  UNL     1      15.797  29.976  26.035  1.00  0.00     0.292 C 
BRANCH  27  28
HETATM   28  N7  UNL     1      16.111  29.648  24.699  1.00  0.00     0.090 N 
HETATM   29  C10 UNL     1      14.999  29.069  23.971  1.00  0.00     0.272 C 
HETATM   30  C11 UNL     1      15.654  28.844  22.603  1.00  0.00     0.032 C 
HETATM   31  C12 UNL     1      17.053  28.408  22.988  1.00  0.00     0.032 C 
HETATM   32  C13 UNL     1      17.280  28.934  24.404  1.00  0.00     0.272 C 
ENDBRANCH  27  28
ENDBRANCH  26  27
ENDBRANCH  24  26
ENDBRANCH  15  24
ENDBRANCH  11  13
ENDBRANCH   8  11
BRANCH   7  33
HETATM   33  N3  UNL     1      21.485  26.344  26.618  1.00  0.00    -0.382 N 
ATOM     34  H32 UNL     1      21.796  27.216  27.045  1.00  0.00     0.157 HD
ATOM     35  H31 UNL     1      21.274  26.288  25.621  1.00  0.00     0.157 HD
ENDBRANCH   7  33
TORSDOF 7
ENDMDL
MODEL 2
REMARK VINA RESULT: -7.642800420      1.745      7.311
REMARK  7 active torsions:
REMARK  status: ('A' for Active; 'I' for Inactive)
REMARK    1  A    between atoms: C4_7  and  N3_8 
REMARK    2  A    between atoms: C5_11  and  N4_12 
REMARK    3  A    between atoms: N4_12  and  C6_14 
REMARK    4  A    between atoms: C7_17  and  N6_18 
REMARK    5  A    between atoms: N6_18  and  C8_20 
REMARK    6  A    between atoms: C8_20  and  C9_21 
REMARK    7  A    between atoms: C9_21  and  N7_22 
ROOT
HETATM    1  N1  UNL     1      16.904  28.622  21.635  1.00  0.00    -0.190 NA
HETATM    2  C1  UNL     1      16.915  28.633  22.776  1.00  0.00     0.119 C 
HETATM    3  C2  UNL     1      16.907  28.651  24.215  1.00  0.00     0.131 A 
HETATM    4  C3  UNL     1      16.700  29.811  24.940  1.00  0.00     0.131 A 
HETATM    5  N2  UNL     1      16.695  29.812  26.287  1.00  0.00    -0.347 N 
ATOM      6  H2  UNL     1      16.541  30.679  26.802  1.00  0.00     0.167 HD
HETATM    7  C4  UNL     1      16.897  28.660  26.940  1.00  0.00     0.144 A 
HETATM    8  C5  UNL     1      17.110  27.463  26.252  1.00  0.00     0.152 A 
HETATM    9  N11 UNL     1      17.104  27.521  24.916  1.00  0.00    -0.330 N 
ATOM     10  H11 UNL     1      17.257  26.657  24.397  1.00  0.00     0.168 HD
ENDROOT
BRANCH   8  11
HETATM   11  N4  UNL     1      17.317  26.272  26.995  1.00  0.00    -0.324 N 
ATOM     12  H4  UNL     1      16.509  25.817  27.418  1.00  0.00     0.169 HD
BRANCH  11  13
HETATM   13  C6  UNL     1      18.477  25.740  27.160  1.00  0.00     0.147 A 
HETATM   14  N5  UNL     1      19.593  26.357  26.731  1.00  0.00    -0.175 N 
HETATM   15  C7  UNL     1      20.804  25.758  26.928  1.00  0.00     0.681 A 
ATOM     16  H5  UNL     1      19.535  27.262  26.265  1.00  0.00     0.186 HD
HETATM   17  N8  UNL     1      20.899  24.575  27.534  1.00  0.00    -0.177 N 
HETATM   18  C14 UNL     1      19.786  23.941  27.971  1.00  0.00     0.156 A 
ATOM     19  H8  UNL     1      21.815  24.145  27.669  1.00  0.00     0.185 HD
HETATM   20  N9  UNL     1      19.874  22.686  28.616  1.00  0.00    -0.080 NA
HETATM   21  C15 UNL     1      18.563  24.524  27.786  1.00  0.00     0.130 A 
HETATM   22  C16 UNL     1      17.389  23.837  28.256  1.00  0.00     0.107 C 
HETATM   23  N10 UNL     1      16.443  23.282  28.657  1.00  0.00    -0.191 NA
BRANCH  15  24
HETATM   24  N6  UNL     1      21.822  26.384  26.504  1.00  0.00    -0.224 N 
ATOM     25  H6  UNL     1      21.637  27.282  26.057  1.00  0.00     0.177 HD
BRANCH  24  26
HETATM   26  C8  UNL     1      23.182  25.996  26.571  1.00  0.00     0.168 C 
BRANCH  26  27
HETATM   27  C9  UNL     1      24.011  26.660  27.629  1.00  0.00     0.292 C 
BRANCH  27  28
HETATM   28  N7  UNL     1      24.229  25.820  28.741  1.00  0.00     0.090 N 
HETATM   29  C10 UNL     1      24.419  24.427  28.384  1.00  0.00     0.272 C 
HETATM   30  C11 UNL     1      24.629  23.813  29.772  1.00  0.00     0.032 C 
HETATM   31  C12 UNL     1      23.650  24.599  30.620  1.00  0.00     0.032 C 
HETATM   32  C13 UNL     1      23.391  25.900  29.861  1.00  0.00     0.272 C 
ENDBRANCH  27  28
ENDBRANCH  26  27
ENDBRANCH  24  26
ENDBRANCH  15  24
ENDBRANCH  11  13
ENDBRANCH   8  11
BRANCH   7  33
HETATM   33  N3  UNL     1      16.894  28.657  28.222  1.00  0.00    -0.382 N 
ATOM     34  H32 UNL     1      17.421  27.943  28.723  1.00  0.00     0.157 HD
ATOM     35  H31 UNL     1      16.361  29.371  28.720  1.00  0.00     0.157 HD
ENDBRANCH   7  33
TORSDOF 7
ENDMDL
MODEL 3
REMARK VINA RESULT: -7.616586152      2.786      7.296
REMARK  7 active torsions:
REMARK  status: ('A' for Active; 'I' for Inactive)
REMARK    1  A    between atoms: C4_7  and  N3_8 
REMARK    2  A    between atoms: C5_11  and  N4_12 
REMARK    3  A    between atoms: N4_12  and  C6_14 
REMARK    4  A    between atoms: C7_17  and  N6_18 
REMARK    5  A    between atoms: N6_18  and  C8_20 
REMARK    6  A    between atoms: C8_20  and  C9_21 
REMARK    7  A    between atoms: C9_21  and  N7_22 
ROOT
HETATM    1  N1  UNL     1      16.950  28.613  21.686  1.00  0.00    -0.190 NA
HETATM    2  C1  UNL     1      16.973  28.616  22.826  1.00  0.00     0.119 C 
HETATM    3  C2  UNL     1      16.981  28.624  24.265  1.00  0.00     0.131 A 
HETATM    4  C3  UNL     1      16.796  29.781  25.001  1.00  0.00     0.131 A 
HETATM    5  N2  UNL     1      16.806  29.773  26.347  1.00  0.00    -0.347 N 
ATOM      6  H2  UNL     1      16.668  30.637  26.870  1.00  0.00     0.167 HD
HETATM    7  C4  UNL     1      17.000  28.613  26.990  1.00  0.00     0.144 A 
HETATM    8  C5  UNL     1      17.191  27.419  26.292  1.00  0.00     0.152 A 
HETATM    9  N11 UNL     1      17.171  27.487  24.956  1.00  0.00    -0.330 N 
ATOM     10  H11 UNL     1      17.308  26.624  24.430  1.00  0.00     0.168 HD
ENDROOT
BRANCH   8  11
HETATM   11  N4  UNL     1      17.391  26.221  27.024  1.00  0.00    -0.324 N 
ATOM     12  H4  UNL     1      16.576  25.750  27.417  1.00  0.00     0.169 HD
BRANCH  11  13
HETATM   13  C6  UNL     1      18.552  25.699  27.215  1.00  0.00     0.147 A 
HETATM   14  N5  UNL     1      19.672  26.336  26.827  1.00  0.00    -0.175 N 
HETATM   15  C7  UNL     1      20.884  25.747  27.050  1.00  0.00     0.681 A 
ATOM     16  H5  UNL     1      19.617  27.246  26.372  1.00  0.00     0.186 HD
HETATM   17  N8  UNL     1      20.976  24.557  27.642  1.00  0.00    -0.177 N 
HETATM   18  C14 UNL     1      19.859  23.904  28.038  1.00  0.00     0.156 A 
ATOM     19  H8  UNL     1      21.893  24.136  27.797  1.00  0.00     0.185 HD
HETATM   20  N9  UNL     1      19.943  22.641  28.667  1.00  0.00    -0.080 NA
HETATM   21  C15 UNL     1      18.634  24.475  27.826  1.00  0.00     0.130 A 
HETATM   22  C16 UNL     1      17.456  23.768  28.252  1.00  0.00     0.107 C 
HETATM   23  N10 UNL     1      16.506  23.196  28.618  1.00  0.00    -0.191 NA
BRANCH  15  24
HETATM   24  N6  UNL     1      21.907  26.392  26.664  1.00  0.00    -0.224 N 
ATOM     25  H6  UNL     1      21.736  27.345  26.344  1.00  0.00     0.177 HD
BRANCH  24  26
HETATM   26  C8  UNL     1      23.253  25.957  26.621  1.00  0.00     0.168 C 
BRANCH  26  27
HETATM   27  C9  UNL     1      24.241  26.779  27.392  1.00  0.00     0.292 C 
BRANCH  27  28
HETATM   28  N7  UNL     1      25.513  26.797  26.779  1.00  0.00     0.090 N 
HETATM   29  C10 UNL     1      26.238  28.034  26.994  1.00  0.00     0.272 C 
HETATM   30  C11 UNL     1      27.531  27.731  26.229  1.00  0.00     0.032 C 
HETATM   31  C12 UNL     1      27.019  26.959  25.030  1.00  0.00     0.032 C 
HETATM   32  C13 UNL     1      25.658  26.401  25.444  1.00  0.00     0.272 C 
ENDBRANCH  27  28
ENDBRANCH  26  27
ENDBRANCH  24  26
ENDBRANCH  15  24
ENDBRANCH  11  13
ENDBRANCH   8  11
BRANCH   7  33
HETATM   33  N3  UNL     1      17.011  28.602  28.272  1.00  0.00    -0.382 N 
ATOM     34  H32 UNL     1      16.706  29.429  28.783  1.00  0.00     0.157 HD
ATOM     35  H31 UNL     1      17.325  27.763  28.760  1.00  0.00     0.157 HD
ENDBRANCH   7  33
TORSDOF 7
ENDMDL
MODEL 4
REMARK VINA RESULT: -7.550760151      2.761      7.473
REMARK  7 active torsions:
REMARK  status: ('A' for Active; 'I' for Inactive)
REMARK    1  A    between atoms: C4_7  and  N3_8 
REMARK    2  A    between atoms: C5_11  and  N4_12 
REMARK    3  A    between atoms: N4_12  and  C6_14 
REMARK    4  A    between atoms: C7_17  and  N6_18 
REMARK    5  A    between atoms: N6_18  and  C8_20 
REMARK    6  A    between atoms: C8_20  and  C9_21 
REMARK    7  A    between atoms: C9_21  and  N7_22 
ROOT
HETATM    1  N1  UNL     1      17.072  28.539  21.404  1.00  0.00    -0.190 NA
HETATM    2  C1  UNL     1      16.684  28.379  22.464  1.00  0.00     0.119 C 
HETATM    3  C2  UNL     1      16.186  28.157  23.797  1.00  0.00     0.131 A 
HETATM    4  C3  UNL     1      14.834  28.145  24.091  1.00  0.00     0.131 A 
HETATM    5  N2  UNL     1      14.384  27.936  25.342  1.00  0.00    -0.347 N 
ATOM      6  H2  UNL     1      13.383  27.932  25.537  1.00  0.00     0.167 HD
HETATM    7  C4  UNL     1      15.269  27.734  26.328  1.00  0.00     0.144 A 
HETATM    8  C5  UNL     1      16.644  27.736  26.081  1.00  0.00     0.152 A 
HETATM    9  N11 UNL     1      17.034  27.949  24.819  1.00  0.00    -0.330 N 
ATOM     10  H11 UNL     1      18.034  27.953  24.620  1.00  0.00     0.168 HD
ENDROOT
BRANCH   8  11
HETATM   11  N4  UNL     1      17.535  27.517  27.162  1.00  0.00    -0.324 N 
ATOM     12  H4  UNL     1      17.434  28.091  27.999  1.00  0.00     0.169 HD
BRANCH  11  13
HETATM   13  C6  UNL     1      18.464  26.627  27.138  1.00  0.00     0.147 A 
HETATM   14  N5  UNL     1      19.722  26.945  26.779  1.00  0.00    -0.175 N 
HETATM   15  C7  UNL     1      20.678  25.970  26.767  1.00  0.00     0.681 A 
ATOM     16  H5  UNL     1      19.958  27.902  26.518  1.00  0.00     0.186 HD
HETATM   17  N8  UNL     1      20.389  24.714  27.103  1.00  0.00    -0.177 N 
HETATM   18  C14 UNL     1      19.129  24.378  27.466  1.00  0.00     0.156 A 
ATOM     19  H8  UNL     1      21.120  24.002  27.087  1.00  0.00     0.185 HD
HETATM   20  N9  UNL     1      18.809  23.049  27.825  1.00  0.00    -0.080 NA
HETATM   21  C15 UNL     1      18.155  25.338  27.486  1.00  0.00     0.130 A 
HETATM   22  C16 UNL     1      16.821  24.965  27.874  1.00  0.00     0.107 C 
HETATM   23  N10 UNL     1      15.745  24.658  28.208  1.00  0.00    -0.191 NA
BRANCH  15  24
HETATM   24  N6  UNL     1      21.846  26.326  26.421  1.00  0.00    -0.224 N 
ATOM     25  H6  UNL     1      21.896  27.094  25.752  1.00  0.00     0.177 HD
BRANCH  24  26
HETATM   26  C8  UNL     1      23.087  25.793  26.845  1.00  0.00     0.168 C 
BRANCH  26  27
HETATM   27  C9  UNL     1      24.043  26.758  27.477  1.00  0.00     0.292 C 
BRANCH  27  28
HETATM   28  N7  UNL     1      25.333  26.679  26.910  1.00  0.00     0.090 N 
HETATM   29  C10 UNL     1      26.108  27.895  27.069  1.00  0.00     0.272 C 
HETATM   30  C11 UNL     1      27.410  27.484  26.373  1.00  0.00     0.032 C 
HETATM   31  C12 UNL     1      26.902  26.657  25.209  1.00  0.00     0.032 C 
HETATM   32  C13 UNL     1      25.504  26.189  25.609  1.00  0.00     0.272 C 
ENDBRANCH  27  28
ENDBRANCH  26  27
ENDBRANCH  24  26
ENDBRANCH  15  24
ENDBRANCH  11  13
ENDBRANCH   8  11
BRANCH   7  33
HETATM   33  N3  UNL     1      14.844  27.536  27.521  1.00  0.00    -0.382 N 
ATOM     34  H32 UNL     1      14.037  28.059  27.859  1.00  0.00     0.157 HD
ATOM     35  H31 UNL     1      15.322  26.856  28.113  1.00  0.00     0.157 HD
ENDBRANCH   7  33
TORSDOF 7
ENDMDL
MODEL 5
REMARK VINA RESULT: -7.507501477      3.516      7.294
REMARK  7 active torsions:
REMARK  status: ('A' for Active; 'I' for Inactive)
REMARK    1  A    between atoms: C4_7  and  N3_8 
REMARK    2  A    between atoms: C5_11  and  N4_12 
REMARK    3  A    between atoms: N4_12  and  C6_14 
REMARK    4  A    between atoms: C7_17  and  N6_18 
REMARK    5  A    between atoms: N6_18  and  C8_20 
REMARK    6  A    between atoms: C8_20  and  C9_21 
REMARK    7  A    between atoms: C9_21  and  N7_22 
ROOT
HETATM    1  N1  UNL     1      12.750  28.547  23.010  1.00  0.00    -0.190 NA
HETATM    2  C1  UNL     1      13.517  28.597  23.852  1.00  0.00     0.119 C 
HETATM    3  C2  UNL     1      14.469  28.664  24.930  1.00  0.00     0.131 A 
HETATM    4  C3  UNL     1      14.803  29.854  25.551  1.00  0.00     0.131 A 
HETATM    5  N2  UNL     1      15.695  29.900  26.558  1.00  0.00    -0.347 N 
ATOM      6  H2  UNL     1      15.927  30.789  27.002  1.00  0.00     0.167 HD
HETATM    7  C4  UNL     1      16.275  28.764  26.968  1.00  0.00     0.144 A 
HETATM    8  C5  UNL     1      15.971  27.538  26.372  1.00  0.00     0.152 A 
HETATM    9  N11 UNL     1      15.077  27.551  25.377  1.00  0.00    -0.330 N 
ATOM     10  H11 UNL     1      14.843  26.665  24.931  1.00  0.00     0.168 HD
ENDROOT
BRANCH   8  11
HETATM   11  N4  UNL     1      16.615  26.367  26.848  1.00  0.00    -0.324 N 
ATOM     12  H4  UNL     1      17.498  26.091  26.420  1.00  0.00     0.169 HD
BRANCH  11  13
HETATM   13  C6  UNL     1      16.137  25.636  27.792  1.00  0.00     0.147 A 
HETATM   14  N5  UNL     1      14.927  25.891  28.324  1.00  0.00    -0.175 N 
HETATM   15  C7  UNL     1      14.456  25.090  29.325  1.00  0.00     0.681 A 
ATOM     16  H5  UNL     1      14.369  26.674  27.985  1.00  0.00     0.186 HD
HETATM   17  N8  UNL     1      15.172  24.064  29.784  1.00  0.00    -0.177 N 
HETATM   18  C14 UNL     1      16.390  23.794  29.259  1.00  0.00     0.156 A 
ATOM     19  H8  UNL     1      14.800  23.480  30.533  1.00  0.00     0.185 HD
HETATM   20  N9  UNL     1      17.159  22.709  29.737  1.00  0.00    -0.080 NA
HETATM   21  C15 UNL     1      16.881  24.583  28.255  1.00  0.00     0.130 A 
HETATM   22  C16 UNL     1      18.178  24.283  27.709  1.00  0.00     0.107 C 
HETATM   23  N10 UNL     1      19.223  24.022  27.258  1.00  0.00    -0.191 NA
BRANCH  15  24
HETATM   24  N6  UNL     1      13.311  25.377  29.789  1.00  0.00    -0.224 N 
ATOM     25  H6  UNL     1      12.878  24.663  30.376  1.00  0.00     0.177 HD
BRANCH  24  26
HETATM   26  C8  UNL     1      12.557  26.559  29.597  1.00  0.00     0.168 C 
BRANCH  26  27
HETATM   27  C9  UNL     1      12.384  27.440  30.797  1.00  0.00     0.292 C 
BRANCH  27  28
HETATM   28  N7  UNL     1      11.033  27.550  31.188  1.00  0.00     0.090 N 
HETATM   29  C10 UNL     1      10.712  26.782  32.375  1.00  0.00     0.272 C 
HETATM   30  C11 UNL     1       9.223  27.116  32.524  1.00  0.00     0.032 C 
HETATM   31  C12 UNL     1       8.757  27.145  31.083  1.00  0.00     0.032 C 
HETATM   32  C13 UNL     1      10.010  27.393  30.244  1.00  0.00     0.272 C 
ENDBRANCH  27  28
ENDBRANCH  26  27
ENDBRANCH  24  26
ENDBRANCH  15  24
ENDBRANCH  11  13
ENDBRANCH   8  11
BRANCH   7  33
HETATM   33  N3  UNL     1      17.125  28.805  27.926  1.00  0.00    -0.382 N 
ATOM     34  H32 UNL     1      18.024  29.265  27.779  1.00  0.00     0.157 HD
ATOM     35  H31 UNL     1      16.889  28.376  28.821  1.00  0.00     0.157 HD
ENDBRANCH   7  33
TORSDOF 7
ENDMDL
