MODEL 1
REMARK VINA RESULT: -6.896289591      0.000      0.000
REMARK  5 active torsions:
REMARK  status: ('A' for Active; 'I' for Inactive)
REMARK    1  A    between atoms: N1_1  and  C1_4 
REMARK    2  A    between atoms: C3_10  and  N4_11 
REMARK    3  A    between atoms: N5_14  and  C6_15 
REMARK    4  A    between atoms: C6_15  and  C7_16 
REMARK    5  A    between atoms: C6_15  and  C10_23 
ROOT
HETATM    1  N4  UNL     1     -21.603  35.575 -10.458  1.00  0.00    -0.362 N 
HETATM    2  C4  UNL     1     -20.839  34.736  -9.576  1.00  0.00     0.154 C 
HETATM    3  C5  UNL     1     -19.652  35.525  -9.114  1.00  0.00     0.293 C 
HETATM    4  N5  UNL     1     -18.807  35.969 -10.194  1.00  0.00     0.107 N 
HETATM    5  C15 UNL     1     -19.495  36.573 -11.270  1.00  0.00     0.293 C 
HETATM    6  C16 UNL     1     -20.819  35.943 -11.657  1.00  0.00     0.154 C 
ENDROOT
BRANCH   4   7
HETATM    7  C6  UNL     1     -17.842  34.969 -10.584  1.00  0.00     0.322 C 
BRANCH   7   8
HETATM    8  C7  UNL     1     -17.102  34.515  -9.384  1.00  0.00     0.111 C 
HETATM    9  N6  UNL     1     -16.891  33.273  -9.094  1.00  0.00    -0.376 N 
HETATM   10  C8  UNL     1     -16.145  33.164  -7.867  1.00  0.00     0.140 C 
ATOM     11  H6  UNL     1     -17.207  32.482  -9.655  1.00  0.00     0.160 HD
HETATM   12  C9  UNL     1     -15.559  34.543  -7.696  1.00  0.00     0.140 C 
HETATM   13  N7  UNL     1     -16.535  35.358  -8.406  1.00  0.00    -0.376 N 
ATOM     14  H7  UNL     1     -16.763  36.337  -8.231  1.00  0.00     0.160 HD
ENDBRANCH   7   8
BRANCH   7  15
HETATM   15  C10 UNL     1     -16.848  35.555 -11.518  1.00  0.00    -0.015 A 
HETATM   16  C11 UNL     1     -16.590  34.891 -12.722  1.00  0.00     0.026 A 
HETATM   17  C12 UNL     1     -15.691  35.361 -13.614  1.00  0.00     0.088 A 
HETATM   18  N8  UNL     1     -15.015  36.476 -13.382  1.00  0.00    -0.375 N 
HETATM   19  C13 UNL     1     -15.246  37.140 -12.221  1.00  0.00     0.088 A 
ATOM     20  H8  UNL     1     -14.336  36.827 -14.059  1.00  0.00     0.164 HD
HETATM   21  C14 UNL     1     -16.142  36.703 -11.293  1.00  0.00     0.026 A 
ENDBRANCH   7  15
ENDBRANCH   4   7
BRANCH   1  22
HETATM   22  C3  UNL     1     -22.892  36.080 -10.322  1.00  0.00     0.132 A 
HETATM   23  N3  UNL     1     -23.291  37.251 -10.920  1.00  0.00    -0.337 N 
HETATM   24  C2  UNL     1     -24.523  37.760 -10.757  1.00  0.00     0.183 A 
ATOM     25  H3  UNL     1     -22.625  37.752 -11.509  1.00  0.00     0.168 HD
HETATM   26  N2  UNL     1     -25.454  37.172 -10.008  1.00  0.00    -0.337 N 
HETATM   27  C1  UNL     1     -25.140  36.031  -9.396  1.00  0.00     0.128 A 
ATOM     28  H2  UNL     1     -26.382  37.584  -9.905  1.00  0.00     0.168 HD
HETATM   29  C17 UNL     1     -23.852  35.488  -9.558  1.00  0.00     0.133 A 
HETATM   30  N9  UNL     1     -23.623  34.293  -8.850  1.00  0.00    -0.094 NA
BRANCH  27  31
HETATM   31  N1  UNL     1     -26.033  35.441  -8.657  1.00  0.00    -0.384 N 
ATOM     32  H12 UNL     1     -26.636  35.972  -8.030  1.00  0.00     0.157 HD
ATOM     33  H11 UNL     1     -26.131  34.426  -8.710  1.00  0.00     0.157 HD
ENDBRANCH  27  31
ENDBRANCH   1  22
TORSDOF 5
ENDMDL
MODEL 2
REMARK VINA RESULT: -6.792464533      1.386      2.247
REMARK  5 active torsions:
REMARK  status: ('A' for Active; 'I' for Inactive)
REMARK    1  A    between atoms: N1_1  and  C1_4 
REMARK    2  A    between atoms: C3_10  and  N4_11 
REMARK    3  A    between atoms: N5_14  and  C6_15 
REMARK    4  A    between atoms: C6_15  and  C7_16 
REMARK    5  A    between atoms: C6_15  and  C10_23 
ROOT
HETATM    1  N4  UNL     1     -21.670  35.327 -10.172  1.00  0.00    -0.362 N 
HETATM    2  C4  UNL     1     -20.453  35.479  -9.424  1.00  0.00     0.154 C 
HETATM    3  C5  UNL     1     -19.661  36.579 -10.062  1.00  0.00     0.293 C 
HETATM    4  N5  UNL     1     -19.339  36.323 -11.444  1.00  0.00     0.107 N 
HETATM    5  C15 UNL     1     -20.428  35.888 -12.232  1.00  0.00     0.293 C 
HETATM    6  C16 UNL     1     -21.393  34.924 -11.567  1.00  0.00     0.154 C 
ENDROOT
BRANCH   4   7
HETATM    7  C6  UNL     1     -18.138  35.535 -11.592  1.00  0.00     0.322 C 
BRANCH   7   8
HETATM    8  C7  UNL     1     -17.184  35.899 -10.519  1.00  0.00     0.111 C 
HETATM    9  N6  UNL     1     -16.614  37.055 -10.421  1.00  0.00    -0.376 N 
HETATM   10  C8  UNL     1     -15.745  37.089  -9.273  1.00  0.00     0.140 C 
ATOM     11  H6  UNL     1     -16.760  37.833 -11.064  1.00  0.00     0.160 HD
HETATM   12  C9  UNL     1     -16.219  35.922  -8.445  1.00  0.00     0.140 C 
HETATM   13  N7  UNL     1     -16.769  35.048  -9.473  1.00  0.00    -0.376 N 
ATOM     14  H7  UNL     1     -16.839  34.031  -9.443  1.00  0.00     0.160 HD
ENDBRANCH   7   8
BRANCH   7  15
HETATM   15  C10 UNL     1     -17.482  35.843 -12.886  1.00  0.00    -0.015 A 
HETATM   16  C11 UNL     1     -16.536  34.941 -13.386  1.00  0.00     0.026 A 
HETATM   17  C12 UNL     1     -15.892  35.161 -14.553  1.00  0.00     0.088 A 
HETATM   18  N8  UNL     1     -16.132  36.247 -15.273  1.00  0.00    -0.375 N 
HETATM   19  C13 UNL     1     -17.045  37.138 -14.811  1.00  0.00     0.088 A 
ATOM     20  H8  UNL     1     -15.642  36.410 -16.154  1.00  0.00     0.164 HD
HETATM   21  C14 UNL     1     -17.718  36.957 -13.640  1.00  0.00     0.026 A 
ENDBRANCH   7  15
ENDBRANCH   4   7
BRANCH   1  22
HETATM   22  C3  UNL     1     -22.991  35.530  -9.785  1.00  0.00     0.132 A 
HETATM   23  N3  UNL     1     -23.642  34.685  -8.919  1.00  0.00    -0.337 N 
HETATM   24  C2  UNL     1     -24.929  34.857  -8.575  1.00  0.00     0.183 A 
ATOM     25  H3  UNL     1     -23.128  33.898  -8.522  1.00  0.00     0.168 HD
HETATM   26  N2  UNL     1     -25.674  35.858  -9.043  1.00  0.00    -0.337 N 
HETATM   27  C1  UNL     1     -25.109  36.719  -9.889  1.00  0.00     0.128 A 
ATOM     28  H2  UNL     1     -26.649  35.962  -8.762  1.00  0.00     0.168 HD
HETATM   29  C17 UNL     1     -23.762  36.548 -10.258  1.00  0.00     0.133 A 
HETATM   30  N9  UNL     1     -23.275  37.502 -11.172  1.00  0.00    -0.094 NA
BRANCH  27  31
HETATM   31  N1  UNL     1     -25.818  37.702 -10.361  1.00  0.00    -0.384 N 
ATOM     32  H12 UNL     1     -26.804  37.581 -10.591  1.00  0.00     0.157 HD
ATOM     33  H11 UNL     1     -25.377  38.611 -10.501  1.00  0.00     0.157 HD
ENDBRANCH  27  31
ENDBRANCH   1  22
TORSDOF 5
ENDMDL
MODEL 3
REMARK VINA RESULT: -6.568563049      1.368      1.896
REMARK  5 active torsions:
REMARK  status: ('A' for Active; 'I' for Inactive)
REMARK    1  A    between atoms: N1_1  and  C1_4 
REMARK    2  A    between atoms: C3_10  and  N4_11 
REMARK    3  A    between atoms: N5_14  and  C6_15 
REMARK    4  A    between atoms: C6_15  and  C7_16 
REMARK    5  A    between atoms: C6_15  and  C10_23 
ROOT
HETATM    1  N4  UNL     1     -21.963  35.796 -10.650  1.00  0.00    -0.362 N 
HETATM    2  C4  UNL     1     -20.798  35.932  -9.819  1.00  0.00     0.154 C 
HETATM    3  C5  UNL     1     -19.856  36.872 -10.506  1.00  0.00     0.293 C 
HETATM    4  N5  UNL     1     -19.453  36.422 -11.815  1.00  0.00     0.107 N 
HETATM    5  C15 UNL     1     -20.515  35.989 -12.642  1.00  0.00     0.293 C 
HETATM    6  C16 UNL     1     -21.617  35.202 -11.960  1.00  0.00     0.154 C 
ENDROOT
BRANCH   4   7
HETATM    7  C6  UNL     1     -18.327  35.521 -11.764  1.00  0.00     0.322 C 
BRANCH   7   8
HETATM    8  C7  UNL     1     -17.508  35.835 -10.571  1.00  0.00     0.111 C 
HETATM    9  N6  UNL     1     -16.850  36.938 -10.418  1.00  0.00    -0.376 N 
HETATM   10  C8  UNL     1     -16.156  36.935  -9.156  1.00  0.00     0.140 C 
ATOM     11  H6  UNL     1     -16.826  37.701 -11.094  1.00  0.00     0.160 HD
HETATM   12  C9  UNL     1     -16.854  35.848  -8.379  1.00  0.00     0.140 C 
HETATM   13  N7  UNL     1     -17.331  34.990  -9.456  1.00  0.00    -0.376 N 
ATOM     14  H7  UNL     1     -17.501  33.985  -9.412  1.00  0.00     0.160 HD
ENDBRANCH   7   8
BRANCH   7  15
HETATM   15  C10 UNL     1     -17.463  35.714 -12.955  1.00  0.00    -0.015 A 
HETATM   16  C11 UNL     1     -17.590  36.900 -13.686  1.00  0.00     0.026 A 
HETATM   17  C12 UNL     1     -16.843  37.139 -14.786  1.00  0.00     0.088 A 
HETATM   18  N8  UNL     1     -15.957  36.254 -15.218  1.00  0.00    -0.375 N 
HETATM   19  C13 UNL     1     -15.814  35.095 -14.526  1.00  0.00     0.088 A 
ATOM     20  H8  UNL     1     -15.395  36.439 -16.050  1.00  0.00     0.164 HD
HETATM   21  C14 UNL     1     -16.545  34.812 -13.413  1.00  0.00     0.026 A 
ENDBRANCH   7  15
ENDBRANCH   4   7
BRANCH   1  22
HETATM   22  C3  UNL     1     -23.284  36.158 -10.409  1.00  0.00     0.132 A 
HETATM   23  N3  UNL     1     -23.873  37.240 -11.017  1.00  0.00    -0.337 N 
HETATM   24  C2  UNL     1     -25.136  37.615 -10.755  1.00  0.00     0.183 A 
ATOM     25  H3  UNL     1     -23.331  37.779 -11.693  1.00  0.00     0.168 HD
HETATM   26  N2  UNL     1     -25.916  36.969  -9.890  1.00  0.00    -0.337 N 
HETATM   27  C1  UNL     1     -25.412  35.908  -9.260  1.00  0.00     0.128 A 
ATOM     28  H2  UNL     1     -26.872  37.278  -9.714  1.00  0.00     0.168 HD
HETATM   29  C17 UNL     1     -24.090  35.506  -9.526  1.00  0.00     0.133 A 
HETATM   30  N9  UNL     1     -23.655  34.388  -8.790  1.00  0.00    -0.094 NA
BRANCH  27  31
HETATM   31  N1  UNL     1     -26.155  35.263  -8.409  1.00  0.00    -0.384 N 
ATOM     32  H12 UNL     1     -25.900  34.330  -8.085  1.00  0.00     0.157 HD
ATOM     33  H11 UNL     1     -27.007  35.702  -8.059  1.00  0.00     0.157 HD
ENDBRANCH  27  31
ENDBRANCH   1  22
TORSDOF 5
ENDMDL
MODEL 4
REMARK VINA RESULT: -6.533034499      2.576      4.523
REMARK  5 active torsions:
REMARK  status: ('A' for Active; 'I' for Inactive)
REMARK    1  A    between atoms: N1_1  and  C1_4 
REMARK    2  A    between atoms: C3_10  and  N4_11 
REMARK    3  A    between atoms: N5_14  and  C6_15 
REMARK    4  A    between atoms: C6_15  and  C7_16 
REMARK    5  A    between atoms: C6_15  and  C10_23 
ROOT
HETATM    1  N4  UNL     1     -18.932  36.744 -10.103  1.00  0.00    -0.362 N 
HETATM    2  C4  UNL     1     -17.571  36.590 -10.538  1.00  0.00     0.154 C 
HETATM    3  C5  UNL     1     -17.324  35.128 -10.751  1.00  0.00     0.293 C 
HETATM    4  N5  UNL     1     -17.535  34.334  -9.566  1.00  0.00     0.107 N 
HETATM    5  C15 UNL     1     -18.743  34.605  -8.884  1.00  0.00     0.293 C 
HETATM    6  C16 UNL     1     -19.161  36.061  -8.812  1.00  0.00     0.154 C 
ENDROOT
BRANCH   4   7
HETATM    7  C6  UNL     1     -16.366  34.287  -8.721  1.00  0.00     0.322 C 
BRANCH   7   8
HETATM    8  C7  UNL     1     -15.859  32.896  -8.672  1.00  0.00     0.111 C 
HETATM    9  N6  UNL     1     -14.887  32.509  -7.912  1.00  0.00    -0.376 N 
HETATM   10  C8  UNL     1     -14.635  31.103  -8.098  1.00  0.00     0.140 C 
ATOM     11  H6  UNL     1     -14.371  33.113  -7.272  1.00  0.00     0.160 HD
HETATM   12  C9  UNL     1     -15.897  30.611  -8.760  1.00  0.00     0.140 C 
HETATM   13  N7  UNL     1     -16.355  31.819  -9.435  1.00  0.00    -0.376 N 
ATOM     14  H7  UNL     1     -16.918  31.874 -10.283  1.00  0.00     0.160 HD
ENDBRANCH   7   8
BRANCH   7  15
HETATM   15  C10 UNL     1     -16.722  34.675  -7.334  1.00  0.00    -0.015 A 
HETATM   16  C11 UNL     1     -16.276  35.910  -6.851  1.00  0.00     0.026 A 
HETATM   17  C12 UNL     1     -16.554  36.323  -5.595  1.00  0.00     0.088 A 
HETATM   18  N8  UNL     1     -17.264  35.570  -4.767  1.00  0.00    -0.375 N 
HETATM   19  C13 UNL     1     -17.709  34.367  -5.212  1.00  0.00     0.088 A 
ATOM     20  H8  UNL     1     -17.471  35.886  -3.819  1.00  0.00     0.164 HD
HETATM   21  C14 UNL     1     -17.452  33.910  -6.469  1.00  0.00     0.026 A 
ENDBRANCH   7  15
ENDBRANCH   4   7
BRANCH   1  22
HETATM   22  C3  UNL     1     -20.003  37.384 -10.719  1.00  0.00     0.132 A 
HETATM   23  N3  UNL     1     -20.179  38.745 -10.658  1.00  0.00    -0.337 N 
HETATM   24  C2  UNL     1     -21.233  39.361 -11.219  1.00  0.00     0.183 A 
ATOM     25  H3  UNL     1     -19.484  39.309 -10.170  1.00  0.00     0.168 HD
HETATM   26  N2  UNL     1     -22.187  38.704 -11.877  1.00  0.00    -0.337 N 
HETATM   27  C1  UNL     1     -22.083  37.379 -11.977  1.00  0.00     0.128 A 
ATOM     28  H2  UNL     1     -22.976  39.201 -12.293  1.00  0.00     0.168 HD
HETATM   29  C17 UNL     1     -20.984  36.723 -11.393  1.00  0.00     0.133 A 
HETATM   30  N9  UNL     1     -20.987  35.323 -11.541  1.00  0.00    -0.094 NA
BRANCH  27  31
HETATM   31  N1  UNL     1     -23.004  36.716 -12.613  1.00  0.00    -0.384 N 
ATOM     32  H12 UNL     1     -23.979  36.745 -12.314  1.00  0.00     0.157 HD
ATOM     33  H11 UNL     1     -22.744  36.159 -13.427  1.00  0.00     0.157 HD
ENDBRANCH  27  31
ENDBRANCH   1  22
TORSDOF 5
ENDMDL
MODEL 5
REMARK VINA RESULT: -6.478632164      2.652      6.562
REMARK  5 active torsions:
REMARK  status: ('A' for Active; 'I' for Inactive)
REMARK    1  A    between atoms: N1_1  and  C1_4 
REMARK    2  A    between atoms: C3_10  and  N4_11 
REMARK    3  A    between atoms: N5_14  and  C6_15 
REMARK    4  A    between atoms: C6_15  and  C7_16 
REMARK    5  A    between atoms: C6_15  and  C10_23 
ROOT
HETATM    1  N4  UNL     1     -18.353  34.446  -8.970  1.00  0.00    -0.362 N 
HETATM    2  C4  UNL     1     -17.498  35.088  -9.931  1.00  0.00     0.154 C 
HETATM    3  C5  UNL     1     -17.840  36.546  -9.942  1.00  0.00     0.293 C 
HETATM    4  N5  UNL     1     -19.216  36.807 -10.285  1.00  0.00     0.107 N 
HETATM    5  C15 UNL     1     -20.157  36.016  -9.587  1.00  0.00     0.293 C 
HETATM    6  C16 UNL     1     -19.775  34.567  -9.358  1.00  0.00     0.154 C 
ENDROOT
BRANCH   4   7
HETATM    7  C6  UNL     1     -19.425  36.869 -11.712  1.00  0.00     0.322 C 
BRANCH   7   8
HETATM    8  C7  UNL     1     -19.077  38.225 -12.195  1.00  0.00     0.111 C 
HETATM    9  N6  UNL     1     -18.632  38.476 -13.383  1.00  0.00    -0.376 N 
HETATM   10  C8  UNL     1     -18.390  39.887 -13.539  1.00  0.00     0.140 C 
ATOM     11  H6  UNL     1     -18.476  37.775 -14.106  1.00  0.00     0.160 HD
HETATM   12  C9  UNL     1     -19.177  40.500 -12.408  1.00  0.00     0.140 C 
HETATM   13  N7  UNL     1     -19.179  39.412 -11.439  1.00  0.00    -0.376 N 
ATOM     14  H7  UNL     1     -19.241  39.492 -10.424  1.00  0.00     0.160 HD
ENDBRANCH   7   8
BRANCH   7  15
HETATM   15  C10 UNL     1     -20.857  36.642 -12.029  1.00  0.00    -0.015 A 
HETATM   16  C11 UNL     1     -21.211  35.480 -12.723  1.00  0.00     0.026 A 
HETATM   17  C12 UNL     1     -22.494  35.214 -13.054  1.00  0.00     0.088 A 
HETATM   18  N8  UNL     1     -23.471  36.049 -12.732  1.00  0.00    -0.375 N 
HETATM   19  C13 UNL     1     -23.154  37.184 -12.059  1.00  0.00     0.088 A 
ATOM     20  H8  UNL     1     -24.438  35.844 -12.985  1.00  0.00     0.164 HD
HETATM   21  C14 UNL     1     -21.875  37.492 -11.705  1.00  0.00     0.026 A 
ENDBRANCH   7  15
ENDBRANCH   4   7
BRANCH   1  22
HETATM   22  C3  UNL     1     -18.037  33.796  -7.782  1.00  0.00     0.132 A 
HETATM   23  N3  UNL     1     -17.752  32.454  -7.730  1.00  0.00    -0.337 N 
HETATM   24  C2  UNL     1     -17.486  31.817  -6.578  1.00  0.00     0.183 A 
ATOM     25  H3  UNL     1     -17.744  31.920  -8.600  1.00  0.00     0.168 HD
HETATM   26  N2  UNL     1     -17.473  32.434  -5.398  1.00  0.00    -0.337 N 
HETATM   27  C1  UNL     1     -17.740  33.740  -5.369  1.00  0.00     0.128 A 
ATOM     28  H2  UNL     1     -17.265  31.923  -4.540  1.00  0.00     0.168 HD
HETATM   29  C17 UNL     1     -18.022  34.417  -6.570  1.00  0.00     0.133 A 
HETATM   30  N9  UNL     1     -18.310  35.787  -6.420  1.00  0.00    -0.094 NA
BRANCH  27  31
HETATM   31  N1  UNL     1     -17.736  34.363  -4.228  1.00  0.00    -0.384 N 
ATOM     32  H12 UNL     1     -17.277  33.964  -3.409  1.00  0.00     0.157 HD
ATOM     33  H11 UNL     1     -18.199  35.270  -4.154  1.00  0.00     0.157 HD
ENDBRANCH  27  31
ENDBRANCH   1  22
TORSDOF 5
ENDMDL
