MODEL 1
REMARK VINA RESULT: -7.222564474      0.000      0.000
REMARK  8 active torsions:
REMARK  status: ('A' for Active; 'I' for Inactive)
REMARK    1  A    between atoms: S1_2  and  C2_3 
REMARK    2  A    between atoms: C3_6  and  N2_7 
REMARK    3  A    between atoms: N2_7  and  C4_9 
REMARK    4  A    between atoms: C4_9  and  C5_10 
REMARK    5  A    between atoms: C5_10  and  N3_11 
REMARK    6  A    between atoms: C6_17  and  N5_18 
REMARK    7  A    between atoms: N5_18  and  N6_20 
REMARK    8  A    between atoms: N6_20  and  C7_22 
ROOT
HETATM    1  C2  UNL     1     -21.000  37.579 -10.795  1.00  0.00     0.174 A 
HETATM    2  N1  UNL     1     -22.325  37.454 -10.633  1.00  0.00    -0.169 N 
ATOM      3  H1  UNL     1     -22.925  38.235 -10.897  1.00  0.00     0.186 HD
HETATM    4  C3  UNL     1     -22.898  36.347 -10.138  1.00  0.00     0.694 A 
HETATM    5  N4  UNL     1     -22.118  35.314  -9.787  1.00  0.00    -0.021 N 
ATOM      6  H4  UNL     1     -22.524  34.459  -9.407  1.00  0.00     0.203 HD
HETATM    7  C6  UNL     1     -20.791  35.433  -9.948  1.00  0.00     0.713 A 
HETATM    8  N10 UNL     1     -20.215  36.550 -10.448  1.00  0.00    -0.168 N 
ATOM      9  H10 UNL     1     -19.203  36.608 -10.557  1.00  0.00     0.186 HD
ENDROOT
BRANCH   7  10
HETATM   10  N5  UNL     1     -20.054  34.424  -9.604  1.00  0.00    -0.130 N 
ATOM     11  H5  UNL     1     -20.449  33.484  -9.610  1.00  0.00     0.205 HD
BRANCH  10  12
HETATM   12  N6  UNL     1     -18.746  34.608  -9.232  1.00  0.00    -0.269 N 
ATOM     13  H6  UNL     1     -18.105  34.975  -9.935  1.00  0.00     0.189 HD
BRANCH  12  14
HETATM   14  C7  UNL     1     -18.267  34.358  -8.076  1.00  0.00     0.150 A 
HETATM   15  N7  UNL     1     -18.026  33.085  -7.736  1.00  0.00    -0.336 N 
HETATM   16  C8  UNL     1     -17.525  32.779  -6.532  1.00  0.00     0.182 A 
ATOM     17  H7  UNL     1     -18.226  32.339  -8.403  1.00  0.00     0.168 HD
HETATM   18  N8  UNL     1     -17.260  33.784  -5.646  1.00  0.00    -0.354 N 
HETATM   19  C9  UNL     1     -17.486  35.065  -5.945  1.00  0.00     0.040 A 
ATOM     20  H8  UNL     1     -16.879  33.549  -4.730  1.00  0.00     0.166 HD
HETATM   21  C10 UNL     1     -18.002  35.373  -7.184  1.00  0.00     0.097 A 
HETATM   22  C13 UNL     1     -17.188  36.114  -4.966  1.00  0.00     0.061 C 
HETATM   23  N9  UNL     1     -18.238  36.721  -7.495  1.00  0.00    -0.385 N 
HETATM   24  C11 UNL     1     -18.161  37.809  -6.537  1.00  0.00     0.120 C 
ATOM     25  H9  UNL     1     -18.481  36.951  -8.458  1.00  0.00     0.159 HD
HETATM   26  C12 UNL     1     -18.060  37.333  -5.118  1.00  0.00     0.026 C 
ENDBRANCH  12  14
ENDBRANCH  10  12
ENDBRANCH   7  10
BRANCH   4  27
HETATM   27  N2  UNL     1     -24.166  36.226  -9.982  1.00  0.00    -0.224 N 
ATOM     28  H2  UNL     1     -24.744  37.050 -10.147  1.00  0.00     0.177 HD
BRANCH  27  29
HETATM   29  C4  UNL     1     -24.825  35.020  -9.593  1.00  0.00     0.165 C 
BRANCH  29  30
HETATM   30  C5  UNL     1     -25.150  34.992  -8.113  1.00  0.00     0.249 C 
BRANCH  30  31
HETATM   31  N3  UNL     1     -26.306  34.210  -7.816  1.00  0.00    -0.078 N 
ATOM     32  H33 UNL     1     -26.089  33.214  -7.836  1.00  0.00     0.274 HD
ATOM     33  H32 UNL     1     -26.568  34.303  -6.835  1.00  0.00     0.274 HD
ATOM     34  H31 UNL     1     -27.095  34.424  -8.426  1.00  0.00     0.274 HD
ENDBRANCH  30  31
ENDBRANCH  29  30
ENDBRANCH  27  29
ENDBRANCH   4  27
BRANCH   1  35
HETATM   35  S1  UNL     1     -20.292  39.102 -11.469  1.00  0.00    -0.097 SA
HETATM   36  C1  UNL     1     -21.499  40.427 -11.136  1.00  0.00     0.099 C 
ENDBRANCH   1  35
TORSDOF 8
ENDMDL
MODEL 2
REMARK VINA RESULT: -7.187185832      2.198      6.677
REMARK  8 active torsions:
REMARK  status: ('A' for Active; 'I' for Inactive)
REMARK    1  A    between atoms: S1_2  and  C2_3 
REMARK    2  A    between atoms: C3_6  and  N2_7 
REMARK    3  A    between atoms: N2_7  and  C4_9 
REMARK    4  A    between atoms: C4_9  and  C5_10 
REMARK    5  A    between atoms: C5_10  and  N3_11 
REMARK    6  A    between atoms: C6_17  and  N5_18 
REMARK    7  A    between atoms: N5_18  and  N6_20 
REMARK    8  A    between atoms: N6_20  and  C7_22 
ROOT
HETATM    1  C2  UNL     1     -18.291  36.016  -6.864  1.00  0.00     0.174 A 
HETATM    2  N1  UNL     1     -17.911  34.732  -6.795  1.00  0.00    -0.169 N 
ATOM      3  H1  UNL     1     -17.595  34.365  -5.898  1.00  0.00     0.186 HD
HETATM    4  C3  UNL     1     -17.929  33.908  -7.853  1.00  0.00     0.694 A 
HETATM    5  N4  UNL     1     -18.344  34.382  -9.037  1.00  0.00    -0.021 N 
ATOM      6  H4  UNL     1     -18.368  33.781  -9.860  1.00  0.00     0.203 HD
HETATM    7  C6  UNL     1     -18.726  35.667  -9.112  1.00  0.00     0.713 A 
HETATM    8  N10 UNL     1     -18.708  36.495  -8.044  1.00  0.00    -0.168 N 
ATOM      9  H10 UNL     1     -19.005  37.466  -8.135  1.00  0.00     0.186 HD
ENDROOT
BRANCH   7  10
HETATM   10  N5  UNL     1     -19.124  36.106 -10.265  1.00  0.00    -0.130 N 
ATOM     11  H5  UNL     1     -18.526  35.994 -11.083  1.00  0.00     0.205 HD
BRANCH  10  12
HETATM   12  N6  UNL     1     -20.344  36.721 -10.395  1.00  0.00    -0.269 N 
ATOM     13  H6  UNL     1     -20.436  37.665 -10.021  1.00  0.00     0.189 HD
BRANCH  12  14
HETATM   14  C7  UNL     1     -21.373  36.206 -10.946  1.00  0.00     0.150 A 
HETATM   15  N7  UNL     1     -21.392  36.064 -12.278  1.00  0.00    -0.336 N 
HETATM   16  C8  UNL     1     -22.452  35.529 -12.897  1.00  0.00     0.182 A 
ATOM     17  H7  UNL     1     -20.587  36.368 -12.829  1.00  0.00     0.168 HD
HETATM   18  N8  UNL     1     -23.523  35.125 -12.153  1.00  0.00    -0.354 N 
HETATM   19  C9  UNL     1     -23.545  35.248 -10.824  1.00  0.00     0.040 A 
ATOM     20  H8  UNL     1     -24.329  34.717 -12.625  1.00  0.00     0.166 HD
HETATM   21  C10 UNL     1     -22.452  35.800 -10.194  1.00  0.00     0.097 A 
HETATM   22  C13 UNL     1     -24.714  34.802 -10.061  1.00  0.00     0.061 C 
HETATM   23  N9  UNL     1     -22.478  35.928  -8.797  1.00  0.00    -0.385 N 
HETATM   24  C11 UNL     1     -23.652  35.698  -7.974  1.00  0.00     0.120 C 
ATOM     25  H9  UNL     1     -21.614  36.200  -8.328  1.00  0.00     0.159 HD
HETATM   26  C12 UNL     1     -24.912  35.565  -8.777  1.00  0.00     0.026 C 
ENDBRANCH  12  14
ENDBRANCH  10  12
ENDBRANCH   7  10
BRANCH   4  27
HETATM   27  N2  UNL     1     -17.566  32.680  -7.789  1.00  0.00    -0.224 N 
ATOM     28  H2  UNL     1     -17.261  32.230  -8.653  1.00  0.00     0.177 HD
BRANCH  27  29
HETATM   29  C4  UNL     1     -17.558  31.896  -6.594  1.00  0.00     0.165 C 
BRANCH  29  30
HETATM   30  C5  UNL     1     -17.475  30.410  -6.880  1.00  0.00     0.249 C 
BRANCH  30  31
HETATM   31  N3  UNL     1     -18.695  29.878  -7.394  1.00  0.00    -0.078 N 
ATOM     32  H33 UNL     1     -18.564  29.503  -8.333  1.00  0.00     0.274 HD
ATOM     33  H32 UNL     1     -18.952  29.019  -6.907  1.00  0.00     0.274 HD
ATOM     34  H31 UNL     1     -19.460  30.552  -7.373  1.00  0.00     0.274 HD
ENDBRANCH  30  31
ENDBRANCH  29  30
ENDBRANCH  27  29
ENDBRANCH   4  27
BRANCH   1  35
HETATM   35  S1  UNL     1     -18.242  37.073  -5.396  1.00  0.00    -0.097 SA
HETATM   36  C1  UNL     1     -16.557  36.935  -4.713  1.00  0.00     0.099 C 
ENDBRANCH   1  35
TORSDOF 8
ENDMDL
MODEL 3
REMARK VINA RESULT: -7.072178979      2.375      6.838
REMARK  8 active torsions:
REMARK  status: ('A' for Active; 'I' for Inactive)
REMARK    1  A    between atoms: S1_2  and  C2_3 
REMARK    2  A    between atoms: C3_6  and  N2_7 
REMARK    3  A    between atoms: N2_7  and  C4_9 
REMARK    4  A    between atoms: C4_9  and  C5_10 
REMARK    5  A    between atoms: C5_10  and  N3_11 
REMARK    6  A    between atoms: C6_17  and  N5_18 
REMARK    7  A    between atoms: N5_18  and  N6_20 
REMARK    8  A    between atoms: N6_20  and  C7_22 
ROOT
HETATM    1  C2  UNL     1     -17.474  35.135  -6.076  1.00  0.00     0.174 A 
HETATM    2  N1  UNL     1     -17.313  33.852  -5.719  1.00  0.00    -0.169 N 
ATOM      3  H1  UNL     1     -16.931  33.647  -4.796  1.00  0.00     0.186 HD
HETATM    4  C3  UNL     1     -17.632  32.826  -6.521  1.00  0.00     0.694 A 
HETATM    5  N4  UNL     1     -18.135  33.086  -7.737  1.00  0.00    -0.021 N 
ATOM      6  H4  UNL     1     -18.387  32.328  -8.370  1.00  0.00     0.203 HD
HETATM    7  C6  UNL     1     -18.299  34.368  -8.100  1.00  0.00     0.713 A 
HETATM    8  N10 UNL     1     -17.977  35.401  -7.289  1.00  0.00    -0.168 N 
ATOM      9  H10 UNL     1     -18.114  36.364  -7.595  1.00  0.00     0.186 HD
ENDROOT
BRANCH   7  10
HETATM   10  N5  UNL     1     -18.787  34.598  -9.279  1.00  0.00    -0.130 N 
ATOM     11  H5  UNL     1     -18.479  34.036 -10.072  1.00  0.00     0.205 HD
BRANCH  10  12
HETATM   12  N6  UNL     1     -19.715  35.592  -9.468  1.00  0.00    -0.269 N 
ATOM     13  H6  UNL     1     -19.734  36.351  -8.789  1.00  0.00     0.189 HD
BRANCH  12  14
HETATM   14  C7  UNL     1     -20.555  35.640 -10.428  1.00  0.00     0.150 A 
HETATM   15  N7  UNL     1     -20.100  35.753 -11.683  1.00  0.00    -0.336 N 
HETATM   16  C8  UNL     1     -20.948  35.808 -12.718  1.00  0.00     0.182 A 
ATOM     17  H7  UNL     1     -19.095  35.797 -11.852  1.00  0.00     0.168 HD
HETATM   18  N8  UNL     1     -22.291  35.747 -12.482  1.00  0.00    -0.354 N 
HETATM   19  C9  UNL     1     -22.786  35.635 -11.247  1.00  0.00     0.040 A 
ATOM     20  H8  UNL     1     -22.936  35.789 -13.271  1.00  0.00     0.166 HD
HETATM   21  C10 UNL     1     -21.909  35.579 -10.187  1.00  0.00     0.097 A 
HETATM   22  C13 UNL     1     -24.235  35.572 -11.036  1.00  0.00     0.061 C 
HETATM   23  N9  UNL     1     -22.432  35.461  -8.890  1.00  0.00    -0.385 N 
HETATM   24  C11 UNL     1     -23.840  35.585  -8.560  1.00  0.00     0.120 C 
ATOM     25  H9  UNL     1     -21.779  35.275  -8.129  1.00  0.00     0.159 HD
HETATM   26  C12 UNL     1     -24.664  36.113  -9.697  1.00  0.00     0.026 C 
ENDBRANCH  12  14
ENDBRANCH  10  12
ENDBRANCH   7  10
BRANCH   4  27
HETATM   27  N2  UNL     1     -17.479  31.599  -6.181  1.00  0.00    -0.224 N 
ATOM     28  H2  UNL     1     -17.713  31.341  -5.222  1.00  0.00     0.177 HD
BRANCH  27  29
HETATM   29  C4  UNL     1     -17.004  30.569  -7.049  1.00  0.00     0.165 C 
BRANCH  29  30
HETATM   30  C5  UNL     1     -17.929  29.369  -7.080  1.00  0.00     0.249 C 
BRANCH  30  31
HETATM   31  N3  UNL     1     -19.126  29.614  -7.817  1.00  0.00    -0.078 N 
ATOM     32  H33 UNL     1     -19.722  30.286  -7.333  1.00  0.00     0.274 HD
ATOM     33  H32 UNL     1     -18.931  30.147  -8.665  1.00  0.00     0.274 HD
ATOM     34  H31 UNL     1     -19.639  28.760  -8.033  1.00  0.00     0.274 HD
ENDBRANCH  30  31
ENDBRANCH  29  30
ENDBRANCH  27  29
ENDBRANCH   4  27
BRANCH   1  35
HETATM   35  S1  UNL     1     -17.022  36.472  -4.943  1.00  0.00    -0.097 SA
HETATM   36  C1  UNL     1     -18.326  37.739  -5.090  1.00  0.00     0.099 C 
ENDBRANCH   1  35
TORSDOF 8
ENDMDL
MODEL 4
REMARK VINA RESULT: -7.044712070      1.106      1.377
REMARK  8 active torsions:
REMARK  status: ('A' for Active; 'I' for Inactive)
REMARK    1  A    between atoms: S1_2  and  C2_3 
REMARK    2  A    between atoms: C3_6  and  N2_7 
REMARK    3  A    between atoms: N2_7  and  C4_9 
REMARK    4  A    between atoms: C4_9  and  C5_10 
REMARK    5  A    between atoms: C5_10  and  N3_11 
REMARK    6  A    between atoms: C6_17  and  N5_18 
REMARK    7  A    between atoms: N5_18  and  N6_20 
REMARK    8  A    between atoms: N6_20  and  C7_22 
ROOT
HETATM    1  C2  UNL     1     -20.916  37.663 -10.743  1.00  0.00     0.174 A 
HETATM    2  N1  UNL     1     -22.234  37.475 -10.898  1.00  0.00    -0.169 N 
ATOM      3  H1  UNL     1     -22.801  38.253 -11.235  1.00  0.00     0.186 HD
HETATM    4  C3  UNL     1     -22.841  36.310 -10.631  1.00  0.00     0.694 A 
HETATM    5  N4  UNL     1     -22.104  35.282 -10.187  1.00  0.00    -0.021 N 
ATOM      6  H4  UNL     1     -22.536  34.383  -9.974  1.00  0.00     0.203 HD
HETATM    7  C6  UNL     1     -20.784  35.463 -10.030  1.00  0.00     0.713 A 
HETATM    8  N10 UNL     1     -20.173  36.639 -10.301  1.00  0.00    -0.168 N 
ATOM      9  H10 UNL     1     -19.167  36.744 -10.171  1.00  0.00     0.186 HD
ENDROOT
BRANCH   7  10
HETATM   10  N5  UNL     1     -20.087  34.457  -9.601  1.00  0.00    -0.130 N 
ATOM     11  H5  UNL     1     -20.520  33.536  -9.533  1.00  0.00     0.205 HD
BRANCH  10  12
HETATM   12  N6  UNL     1     -18.775  34.620  -9.237  1.00  0.00    -0.269 N 
ATOM     13  H6  UNL     1     -18.134  34.986  -9.941  1.00  0.00     0.189 HD
BRANCH  12  14
HETATM   14  C7  UNL     1     -18.291  34.350  -8.088  1.00  0.00     0.150 A 
HETATM   15  N7  UNL     1     -18.070  33.070  -7.762  1.00  0.00    -0.336 N 
HETATM   16  C8  UNL     1     -17.565  32.742  -6.566  1.00  0.00     0.182 A 
ATOM     17  H7  UNL     1     -18.290  32.334  -8.434  1.00  0.00     0.168 HD
HETATM   18  N8  UNL     1     -17.273  33.734  -5.673  1.00  0.00    -0.354 N 
HETATM   19  C9  UNL     1     -17.477  35.022  -5.958  1.00  0.00     0.040 A 
ATOM     20  H8  UNL     1     -16.888  33.483  -4.763  1.00  0.00     0.166 HD
HETATM   21  C10 UNL     1     -17.998  35.351  -7.189  1.00  0.00     0.097 A 
HETATM   22  C13 UNL     1     -17.151  36.056  -4.972  1.00  0.00     0.061 C 
HETATM   23  N9  UNL     1     -18.212  36.706  -7.485  1.00  0.00    -0.385 N 
HETATM   24  C11 UNL     1     -18.105  37.784  -6.519  1.00  0.00     0.120 C 
ATOM     25  H9  UNL     1     -18.459  36.950  -8.444  1.00  0.00     0.159 HD
HETATM   26  C12 UNL     1     -18.001  37.292  -5.104  1.00  0.00     0.026 C 
ENDBRANCH  12  14
ENDBRANCH  10  12
ENDBRANCH   7  10
BRANCH   4  27
HETATM   27  N2  UNL     1     -24.103  36.129 -10.779  1.00  0.00    -0.224 N 
ATOM     28  H2  UNL     1     -24.404  35.437 -11.465  1.00  0.00     0.177 HD
BRANCH  27  29
HETATM   29  C4  UNL     1     -25.115  36.827 -10.051  1.00  0.00     0.165 C 
BRANCH  29  30
HETATM   30  C5  UNL     1     -25.799  37.888 -10.889  1.00  0.00     0.249 C 
BRANCH  30  31
HETATM   31  N3  UNL     1     -26.985  38.394 -10.278  1.00  0.00    -0.078 N 
ATOM     32  H33 UNL     1     -26.797  39.263  -9.779  1.00  0.00     0.274 HD
ATOM     33  H32 UNL     1     -27.637  38.744 -10.981  1.00  0.00     0.274 HD
ATOM     34  H31 UNL     1     -27.437  37.713  -9.669  1.00  0.00     0.274 HD
ENDBRANCH  30  31
ENDBRANCH  29  30
ENDBRANCH  27  29
ENDBRANCH   4  27
BRANCH   1  35
HETATM   35  S1  UNL     1     -20.160  39.263 -11.123  1.00  0.00    -0.097 SA
HETATM   36  C1  UNL     1     -21.513  40.486 -11.137  1.00  0.00     0.099 C 
ENDBRANCH   1  35
TORSDOF 8
ENDMDL
MODEL 5
REMARK VINA RESULT: -6.941027774      1.631      3.637
REMARK  8 active torsions:
REMARK  status: ('A' for Active; 'I' for Inactive)
REMARK    1  A    between atoms: S1_2  and  C2_3 
REMARK    2  A    between atoms: C3_6  and  N2_7 
REMARK    3  A    between atoms: N2_7  and  C4_9 
REMARK    4  A    between atoms: C4_9  and  C5_10 
REMARK    5  A    between atoms: C5_10  and  N3_11 
REMARK    6  A    between atoms: C6_17  and  N5_18 
REMARK    7  A    between atoms: N5_18  and  N6_20 
REMARK    8  A    between atoms: N6_20  and  C7_22 
ROOT
HETATM    1  C2  UNL     1     -23.265  36.076  -9.956  1.00  0.00     0.174 A 
HETATM    2  N1  UNL     1     -22.819  37.151 -10.622  1.00  0.00    -0.169 N 
ATOM      3  H1  UNL     1     -23.489  37.868 -10.895  1.00  0.00     0.186 HD
HETATM    4  C3  UNL     1     -21.529  37.324 -10.946  1.00  0.00     0.694 A 
HETATM    5  N4  UNL     1     -20.640  36.385 -10.591  1.00  0.00    -0.021 N 
ATOM      6  H4  UNL     1     -19.652  36.488 -10.823  1.00  0.00     0.203 HD
HETATM    7  C6  UNL     1     -21.081  35.307  -9.924  1.00  0.00     0.713 A 
HETATM    8  N10 UNL     1     -22.382  35.135  -9.598  1.00  0.00    -0.168 N 
ATOM      9  H10 UNL     1     -22.684  34.304  -9.089  1.00  0.00     0.186 HD
ENDROOT
BRANCH   7  10
HETATM   10  N5  UNL     1     -20.205  34.411  -9.589  1.00  0.00    -0.130 N 
ATOM     11  H5  UNL     1     -20.466  33.425  -9.590  1.00  0.00     0.205 HD
BRANCH  10  12
HETATM   12  N6  UNL     1     -18.932  34.777  -9.233  1.00  0.00    -0.269 N 
ATOM     13  H6  UNL     1     -18.398  35.329  -9.903  1.00  0.00     0.189 HD
BRANCH  12  14
HETATM   14  C7  UNL     1     -18.362  34.480  -8.131  1.00  0.00     0.150 A 
HETATM   15  N7  UNL     1     -18.080  33.196  -7.872  1.00  0.00    -0.336 N 
HETATM   16  C8  UNL     1     -17.484  32.841  -6.727  1.00  0.00     0.182 A 
ATOM     17  H7  UNL     1     -18.322  32.479  -8.557  1.00  0.00     0.168 HD
HETATM   18  N8  UNL     1     -17.163  33.807  -5.816  1.00  0.00    -0.354 N 
HETATM   19  C9  UNL     1     -17.426  35.097  -6.035  1.00  0.00     0.040 A 
ATOM     20  H8  UNL     1     -16.708  33.535  -4.945  1.00  0.00     0.166 HD
HETATM   21  C10 UNL     1     -18.040  35.455  -7.214  1.00  0.00     0.097 A 
HETATM   22  C13 UNL     1     -17.065  36.104  -5.032  1.00  0.00     0.061 C 
HETATM   23  N9  UNL     1     -18.316  36.812  -7.440  1.00  0.00    -0.385 N 
HETATM   24  C11 UNL     1     -18.177  37.856  -6.441  1.00  0.00     0.120 C 
ATOM     25  H9  UNL     1     -18.635  37.084  -8.370  1.00  0.00     0.159 HD
HETATM   26  C12 UNL     1     -17.960  37.315  -5.058  1.00  0.00     0.026 C 
ENDBRANCH  12  14
ENDBRANCH  10  12
ENDBRANCH   7  10
BRANCH   4  27
HETATM   27  N2  UNL     1     -21.100  38.351 -11.583  1.00  0.00    -0.224 N 
ATOM     28  H2  UNL     1     -20.828  38.224 -12.558  1.00  0.00     0.177 HD
BRANCH  27  29
HETATM   29  C4  UNL     1     -20.977  39.660 -11.025  1.00  0.00     0.165 C 
BRANCH  29  30
HETATM   30  C5  UNL     1     -19.531  40.054 -10.794  1.00  0.00     0.249 C 
BRANCH  30  31
HETATM   31  N3  UNL     1     -19.011  39.548  -9.565  1.00  0.00    -0.078 N 
ATOM     32  H33 UNL     1     -19.761  39.361  -8.900  1.00  0.00     0.274 HD
ATOM     33  H32 UNL     1     -18.653  38.600  -9.683  1.00  0.00     0.274 HD
ATOM     34  H31 UNL     1     -18.302  40.156  -9.156  1.00  0.00     0.274 HD
ENDBRANCH  30  31
ENDBRANCH  29  30
ENDBRANCH  27  29
ENDBRANCH   4  27
BRANCH   1  35
HETATM   35  S1  UNL     1     -25.021  35.905  -9.551  1.00  0.00    -0.097 SA
HETATM   36  C1  UNL     1     -25.109  34.859  -8.060  1.00  0.00     0.099 C 
ENDBRANCH   1  35
TORSDOF 8
ENDMDL
