MODEL 1
REMARK VINA RESULT: -6.764780976      0.000      0.000
REMARK  7 active torsions:
REMARK  status: ('A' for Active; 'I' for Inactive)
REMARK    1  A    between atoms: S1_2  and  C2_3 
REMARK    2  A    between atoms: C2_3  and  C3_4 
REMARK    3  A    between atoms: C3_4  and  O1_5 
REMARK    4  A    between atoms: N1_8  and  C5_9 
REMARK    5  A    between atoms: C5_9  and  C6_10 
REMARK    6  A    between atoms: C10_18  and  N4_19 
REMARK    7  A    between atoms: C14_29  and  N7_30 
ROOT
HETATM    1  C6  UNL     1     -21.100  35.661 -10.547  1.00  0.00     0.100 A 
HETATM    2  C7  UNL     1     -20.804  36.163 -11.796  1.00  0.00     0.052 A 
HETATM    3  C8  UNL     1     -19.525  35.917 -12.517  1.00  0.00     0.071 C 
HETATM    4  N2  UNL     1     -21.827  36.831 -12.328  1.00  0.00    -0.192 N 
ATOM      5  H2  UNL     1     -21.865  37.301 -13.232  1.00  0.00     0.184 HD
HETATM    6  C9  UNL     1     -22.814  36.744 -11.388  1.00  0.00     0.708 A 
HETATM    7  N3  UNL     1     -24.013  37.332 -11.440  1.00  0.00    -0.022 N 
ATOM      8  H3  UNL     1     -24.278  37.844 -12.281  1.00  0.00     0.203 HD
HETATM    9  C10 UNL     1     -24.897  37.265 -10.393  1.00  0.00     0.694 A 
HETATM   10  N5  UNL     1     -24.456  36.563  -9.311  1.00  0.00    -0.140 N 
ATOM     11  H5  UNL     1     -25.061  36.472  -8.494  1.00  0.00     0.189 HD
HETATM   12  C11 UNL     1     -23.220  35.975  -9.297  1.00  0.00     0.360 A 
HETATM   13  O2  UNL     1     -22.892  35.359  -8.278  1.00  0.00    -0.245 OA
HETATM   14  N6  UNL     1     -22.369  36.040 -10.319  1.00  0.00    -0.092 N 
ENDROOT
BRANCH   1  15
HETATM   15  C5  UNL     1     -20.137  35.133  -9.625  1.00  0.00     0.123 C 
BRANCH  15  16
HETATM   16  N1  UNL     1     -19.145  35.830  -8.997  1.00  0.00    -0.365 N 
HETATM   17  C4  UNL     1     -19.166  35.560  -7.556  1.00  0.00     0.168 C 
HETATM   18  C3  UNL     1     -17.825  35.024  -7.060  1.00  0.00     0.111 C 
HETATM   19  C14 UNL     1     -16.683  35.785  -7.531  1.00  0.00     0.224 C 
HETATM   20  C13 UNL     1     -17.153  36.992  -8.288  1.00  0.00     0.080 C 
HETATM   21  C12 UNL     1     -18.037  36.505  -9.421  1.00  0.00     0.066 C 
BRANCH  18  22
HETATM   22  C2  UNL     1     -17.703  33.548  -7.469  1.00  0.00     0.115 C 
BRANCH  22  23
HETATM   23  S1  UNL     1     -17.582  32.571  -5.909  1.00  0.00    -0.170 SA
HETATM   24  C1  UNL     1     -16.200  31.396  -6.096  1.00  0.00     0.089 C 
ENDBRANCH  22  23
ENDBRANCH  18  22
BRANCH  18  25
HETATM   25  O1  UNL     1     -17.955  35.023  -5.674  1.00  0.00    -0.385 OA
ATOM     26  H1  UNL     1     -17.094  34.809  -5.334  1.00  0.00     0.210 HD
ENDBRANCH  18  25
BRANCH  19  27
HETATM   27  N7  UNL     1     -15.769  36.171  -6.483  1.00  0.00    -0.072 N 
ATOM     28  H73 UNL     1     -15.903  37.151  -6.232  1.00  0.00     0.274 HD
ATOM     29  H72 UNL     1     -16.028  35.732  -5.600  1.00  0.00     0.274 HD
ATOM     30  H71 UNL     1     -14.790  35.986  -6.702  1.00  0.00     0.274 HD
ENDBRANCH  19  27
ENDBRANCH  15  16
ENDBRANCH   1  15
BRANCH   9  31
HETATM   31  N4  UNL     1     -25.992  37.818 -10.450  1.00  0.00    -0.234 N 
ATOM     32  H42 UNL     1     -26.201  38.602 -11.068  1.00  0.00     0.174 HD
ATOM     33  H41 UNL     1     -26.772  37.505  -9.872  1.00  0.00     0.174 HD
ENDBRANCH   9  31
TORSDOF 7
ENDMDL
MODEL 2
REMARK VINA RESULT: -6.454355073      5.029      8.234
REMARK  7 active torsions:
REMARK  status: ('A' for Active; 'I' for Inactive)
REMARK    1  A    between atoms: S1_2  and  C2_3 
REMARK    2  A    between atoms: C2_3  and  C3_4 
REMARK    3  A    between atoms: C3_4  and  O1_5 
REMARK    4  A    between atoms: N1_8  and  C5_9 
REMARK    5  A    between atoms: C5_9  and  C6_10 
REMARK    6  A    between atoms: C10_18  and  N4_19 
REMARK    7  A    between atoms: C14_29  and  N7_30 
ROOT
HETATM    1  C6  UNL     1     -14.580  37.611  -6.977  1.00  0.00     0.100 A 
HETATM    2  C7  UNL     1     -13.478  38.203  -7.556  1.00  0.00     0.052 A 
HETATM    3  C8  UNL     1     -13.216  38.235  -9.021  1.00  0.00     0.071 C 
HETATM    4  N2  UNL     1     -12.706  38.819  -6.661  1.00  0.00    -0.192 N 
ATOM      5  H2  UNL     1     -11.836  39.324  -6.827  1.00  0.00     0.184 HD
HETATM    6  C9  UNL     1     -13.344  38.620  -5.469  1.00  0.00     0.708 A 
HETATM    7  N3  UNL     1     -12.905  38.991  -4.263  1.00  0.00    -0.022 N 
ATOM      8  H3  UNL     1     -12.048  39.541  -4.195  1.00  0.00     0.203 HD
HETATM    9  C10 UNL     1     -13.573  38.652  -3.115  1.00  0.00     0.694 A 
HETATM   10  N5  UNL     1     -14.705  37.915  -3.303  1.00  0.00    -0.140 N 
ATOM     11  H5  UNL     1     -15.254  37.626  -2.493  1.00  0.00     0.189 HD
HETATM   12  C11 UNL     1     -15.121  37.555  -4.556  1.00  0.00     0.360 A 
HETATM   13  O2  UNL     1     -16.155  36.885  -4.644  1.00  0.00    -0.245 OA
HETATM   14  N6  UNL     1     -14.469  37.892  -5.667  1.00  0.00    -0.092 N 
ENDROOT
BRANCH   1  15
HETATM   15  C5  UNL     1     -15.442  36.667  -7.627  1.00  0.00     0.123 C 
BRANCH  15  16
HETATM   16  N1  UNL     1     -15.224  35.326  -7.761  1.00  0.00    -0.365 N 
HETATM   17  C4  UNL     1     -16.418  34.574  -7.362  1.00  0.00     0.168 C 
HETATM   18  C3  UNL     1     -16.913  33.660  -8.482  1.00  0.00     0.111 C 
HETATM   19  C14 UNL     1     -15.863  32.872  -9.098  1.00  0.00     0.224 C 
HETATM   20  C13 UNL     1     -14.570  33.083  -8.364  1.00  0.00     0.080 C 
HETATM   21  C12 UNL     1     -14.272  34.570  -8.383  1.00  0.00     0.066 C 
BRANCH  18  22
HETATM   22  C2  UNL     1     -17.641  34.515  -9.530  1.00  0.00     0.115 C 
BRANCH  22  23
HETATM   23  S1  UNL     1     -19.040  35.345  -8.662  1.00  0.00    -0.170 SA
HETATM   24  C1  UNL     1     -20.561  35.001  -9.607  1.00  0.00     0.089 C 
ENDBRANCH  22  23
ENDBRANCH  18  22
BRANCH  18  25
HETATM   25  O1  UNL     1     -17.899  32.887  -7.873  1.00  0.00    -0.385 OA
ATOM     26  H1  UNL     1     -17.881  33.124  -6.953  1.00  0.00     0.210 HD
ENDBRANCH  18  25
BRANCH  19  27
HETATM   27  N7  UNL     1     -16.168  31.465  -9.189  1.00  0.00    -0.072 N 
ATOM     28  H73 UNL     1     -16.990  31.238  -8.628  1.00  0.00     0.274 HD
ATOM     29  H72 UNL     1     -16.524  31.233 -10.115  1.00  0.00     0.274 HD
ATOM     30  H71 UNL     1     -15.386  30.858  -8.943  1.00  0.00     0.274 HD
ENDBRANCH  19  27
ENDBRANCH  15  16
ENDBRANCH   1  15
BRANCH   9  31
HETATM   31  N4  UNL     1     -13.154  38.990  -2.011  1.00  0.00    -0.234 N 
ATOM     32  H42 UNL     1     -12.232  39.397  -1.855  1.00  0.00     0.174 HD
ATOM     33  H41 UNL     1     -13.727  38.888  -1.174  1.00  0.00     0.174 HD
ENDBRANCH   9  31
TORSDOF 7
ENDMDL
MODEL 3
REMARK VINA RESULT: -6.429159066      3.706      7.147
REMARK  7 active torsions:
REMARK  status: ('A' for Active; 'I' for Inactive)
REMARK    1  A    between atoms: S1_2  and  C2_3 
REMARK    2  A    between atoms: C2_3  and  C3_4 
REMARK    3  A    between atoms: C3_4  and  O1_5 
REMARK    4  A    between atoms: N1_8  and  C5_9 
REMARK    5  A    between atoms: C5_9  and  C6_10 
REMARK    6  A    between atoms: C10_18  and  N4_19 
REMARK    7  A    between atoms: C14_29  and  N7_30 
ROOT
HETATM    1  C6  UNL     1     -17.833  35.157  -7.012  1.00  0.00     0.100 A 
HETATM    2  C7  UNL     1     -18.038  35.529  -5.701  1.00  0.00     0.052 A 
HETATM    3  C8  UNL     1     -18.379  36.911  -5.265  1.00  0.00     0.071 C 
HETATM    4  N2  UNL     1     -17.976  34.492  -4.866  1.00  0.00    -0.192 N 
ATOM      5  H2  UNL     1     -18.086  34.498  -3.852  1.00  0.00     0.184 HD
HETATM    6  C9  UNL     1     -17.732  33.419  -5.675  1.00  0.00     0.708 A 
HETATM    7  N3  UNL     1     -17.513  32.161  -5.280  1.00  0.00    -0.022 N 
ATOM      8  H3  UNL     1     -17.598  31.930  -4.290  1.00  0.00     0.203 HD
HETATM    9  C10 UNL     1     -17.175  31.173  -6.168  1.00  0.00     0.694 A 
HETATM   10  N5  UNL     1     -17.081  31.574  -7.468  1.00  0.00    -0.140 N 
ATOM     11  H5  UNL     1     -16.832  30.892  -8.185  1.00  0.00     0.189 HD
HETATM   12  C11 UNL     1     -17.314  32.873  -7.832  1.00  0.00     0.360 A 
HETATM   13  O2  UNL     1     -17.206  33.159  -9.029  1.00  0.00    -0.245 OA
HETATM   14  N6  UNL     1     -17.647  33.827  -6.964  1.00  0.00    -0.092 N 
ENDROOT
BRANCH   1  15
HETATM   15  C5  UNL     1     -17.581  36.064  -8.094  1.00  0.00     0.123 C 
BRANCH  15  16
HETATM   16  N1  UNL     1     -18.401  36.308  -9.158  1.00  0.00    -0.365 N 
HETATM   17  C4  UNL     1     -17.744  37.207 -10.112  1.00  0.00     0.168 C 
HETATM   18  C3  UNL     1     -17.663  36.591 -11.507  1.00  0.00     0.111 C 
HETATM   19  C14 UNL     1     -18.913  36.012 -11.963  1.00  0.00     0.224 C 
HETATM   20  C13 UNL     1     -19.999  36.297 -10.966  1.00  0.00     0.080 C 
HETATM   21  C12 UNL     1     -19.549  35.738  -9.629  1.00  0.00     0.066 C 
BRANCH  18  22
HETATM   22  C2  UNL     1     -16.539  35.543 -11.519  1.00  0.00     0.115 C 
BRANCH  22  23
HETATM   23  S1  UNL     1     -15.555  35.834 -13.051  1.00  0.00    -0.170 SA
HETATM   24  C1  UNL     1     -16.304  34.847 -14.388  1.00  0.00     0.089 C 
ENDBRANCH  22  23
ENDBRANCH  18  22
BRANCH  18  25
HETATM   25  O1  UNL     1     -17.213  37.636 -12.311  1.00  0.00    -0.385 OA
ATOM     26  H1  UNL     1     -17.770  38.377 -12.104  1.00  0.00     0.210 HD
ENDBRANCH  18  25
BRANCH  19  27
HETATM   27  N7  UNL     1     -19.310  36.446 -13.280  1.00  0.00    -0.072 N 
ATOM     28  H73 UNL     1     -18.657  37.142 -13.641  1.00  0.00     0.274 HD
ATOM     29  H72 UNL     1     -19.162  35.703 -13.963  1.00  0.00     0.274 HD
ATOM     30  H71 UNL     1     -20.268  36.792 -13.327  1.00  0.00     0.274 HD
ENDBRANCH  19  27
ENDBRANCH  15  16
ENDBRANCH   1  15
BRANCH   9  31
HETATM   31  N4  UNL     1     -16.965  30.024  -5.791  1.00  0.00    -0.234 N 
ATOM     32  H42 UNL     1     -16.140  29.741  -5.263  1.00  0.00     0.174 HD
ATOM     33  H41 UNL     1     -17.631  29.275  -5.983  1.00  0.00     0.174 HD
ENDBRANCH   9  31
TORSDOF 7
ENDMDL
MODEL 4
REMARK VINA RESULT: -6.423230978      1.795      2.009
REMARK  7 active torsions:
REMARK  status: ('A' for Active; 'I' for Inactive)
REMARK    1  A    between atoms: S1_2  and  C2_3 
REMARK    2  A    between atoms: C2_3  and  C3_4 
REMARK    3  A    between atoms: C3_4  and  O1_5 
REMARK    4  A    between atoms: N1_8  and  C5_9 
REMARK    5  A    between atoms: C5_9  and  C6_10 
REMARK    6  A    between atoms: C10_18  and  N4_19 
REMARK    7  A    between atoms: C14_29  and  N7_30 
ROOT
HETATM    1  C6  UNL     1     -21.215  35.607 -10.648  1.00  0.00     0.100 A 
HETATM    2  C7  UNL     1     -20.962  36.073 -11.921  1.00  0.00     0.052 A 
HETATM    3  C8  UNL     1     -19.714  35.792 -12.683  1.00  0.00     0.071 C 
HETATM    4  N2  UNL     1     -21.997  36.740 -12.430  1.00  0.00    -0.192 N 
ATOM      5  H2  UNL     1     -22.063  37.186 -13.345  1.00  0.00     0.184 HD
HETATM    6  C9  UNL     1     -22.948  36.690 -11.451  1.00  0.00     0.708 A 
HETATM    7  N3  UNL     1     -24.141  37.291 -11.473  1.00  0.00    -0.022 N 
ATOM      8  H3  UNL     1     -24.432  37.785 -12.317  1.00  0.00     0.203 HD
HETATM    9  C10 UNL     1     -24.984  37.263 -10.392  1.00  0.00     0.694 A 
HETATM   10  N5  UNL     1     -24.511  36.584  -9.309  1.00  0.00    -0.140 N 
ATOM     11  H5  UNL     1     -25.084  36.522  -8.467  1.00  0.00     0.189 HD
HETATM   12  C11 UNL     1     -23.282  35.981  -9.327  1.00  0.00     0.360 A 
HETATM   13  O2  UNL     1     -22.922  35.387  -8.305  1.00  0.00    -0.245 OA
HETATM   14  N6  UNL     1     -22.470  36.009 -10.382  1.00  0.00    -0.092 N 
ENDROOT
BRANCH   1  15
HETATM   15  C5  UNL     1     -20.224  35.091  -9.749  1.00  0.00     0.123 C 
BRANCH  15  16
HETATM   16  N1  UNL     1     -18.891  35.390  -9.750  1.00  0.00    -0.365 N 
HETATM   17  C4  UNL     1     -18.669  36.723  -9.181  1.00  0.00     0.168 C 
HETATM   18  C3  UNL     1     -17.707  36.679  -7.995  1.00  0.00     0.111 C 
HETATM   19  C14 UNL     1     -16.506  35.905  -8.247  1.00  0.00     0.224 C 
HETATM   20  C13 UNL     1     -16.481  35.456  -9.678  1.00  0.00     0.080 C 
HETATM   21  C12 UNL     1     -17.750  34.664  -9.931  1.00  0.00     0.066 C 
BRANCH  18  22
HETATM   22  C2  UNL     1     -18.459  36.138  -6.770  1.00  0.00     0.115 C 
BRANCH  22  23
HETATM   23  S1  UNL     1     -18.158  37.325  -5.391  1.00  0.00    -0.170 SA
HETATM   24  C1  UNL     1     -16.618  36.822  -4.554  1.00  0.00     0.089 C 
ENDBRANCH  22  23
ENDBRANCH  18  22
BRANCH  18  25
HETATM   25  O1  UNL     1     -17.453  38.021  -7.720  1.00  0.00    -0.385 OA
ATOM     26  H1  UNL     1     -18.204  38.499  -8.051  1.00  0.00     0.210 HD
ENDBRANCH  18  25
BRANCH  19  27
HETATM   27  N7  UNL     1     -15.286  36.599  -7.913  1.00  0.00    -0.072 N 
ATOM     28  H73 UNL     1     -15.161  37.415  -8.513  1.00  0.00     0.274 HD
ATOM     29  H72 UNL     1     -15.372  37.064  -7.009  1.00  0.00     0.274 HD
ATOM     30  H71 UNL     1     -14.457  36.007  -7.935  1.00  0.00     0.274 HD
ENDBRANCH  19  27
ENDBRANCH  15  16
ENDBRANCH   1  15
BRANCH   9  31
HETATM   31  N4  UNL     1     -26.074  37.829 -10.421  1.00  0.00    -0.234 N 
ATOM     32  H42 UNL     1     -26.469  38.258 -11.258  1.00  0.00     0.174 HD
ATOM     33  H41 UNL     1     -26.660  37.890  -9.588  1.00  0.00     0.174 HD
ENDBRANCH   9  31
TORSDOF 7
ENDMDL
MODEL 5
REMARK VINA RESULT: -6.319877790      1.801      2.296
REMARK  7 active torsions:
REMARK  status: ('A' for Active; 'I' for Inactive)
REMARK    1  A    between atoms: S1_2  and  C2_3 
REMARK    2  A    between atoms: C2_3  and  C3_4 
REMARK    3  A    between atoms: C3_4  and  O1_5 
REMARK    4  A    between atoms: N1_8  and  C5_9 
REMARK    5  A    between atoms: C5_9  and  C6_10 
REMARK    6  A    between atoms: C10_18  and  N4_19 
REMARK    7  A    between atoms: C14_29  and  N7_30 
ROOT
HETATM    1  C6  UNL     1     -21.179  35.621 -10.575  1.00  0.00     0.100 A 
HETATM    2  C7  UNL     1     -20.812  36.241 -11.750  1.00  0.00     0.052 A 
HETATM    3  C8  UNL     1     -19.513  36.020 -12.443  1.00  0.00     0.071 C 
HETATM    4  N2  UNL     1     -21.786  37.004 -12.244  1.00  0.00    -0.192 N 
ATOM      5  H2  UNL     1     -21.767  37.569 -13.093  1.00  0.00     0.184 HD
HETATM    6  C9  UNL     1     -22.815  36.859 -11.358  1.00  0.00     0.708 A 
HETATM    7  N3  UNL     1     -23.988  37.498 -11.392  1.00  0.00    -0.022 N 
ATOM      8  H3  UNL     1     -24.197  38.108 -12.182  1.00  0.00     0.203 HD
HETATM    9  C10 UNL     1     -24.917  37.357 -10.394  1.00  0.00     0.694 A 
HETATM   10  N5  UNL     1     -24.550  36.525  -9.378  1.00  0.00    -0.140 N 
ATOM     11  H5  UNL     1     -25.191  36.373  -8.599  1.00  0.00     0.189 HD
HETATM   12  C11 UNL     1     -23.338  35.889  -9.380  1.00  0.00     0.360 A 
HETATM   13  O2  UNL     1     -23.078  35.153  -8.422  1.00  0.00    -0.245 OA
HETATM   14  N6  UNL     1     -22.442  36.027 -10.356  1.00  0.00    -0.092 N 
ENDROOT
BRANCH   1  15
HETATM   15  C5  UNL     1     -20.278  34.957  -9.678  1.00  0.00     0.123 C 
BRANCH  15  16
HETATM   16  N1  UNL     1     -19.270  35.537  -8.963  1.00  0.00    -0.365 N 
HETATM   17  C4  UNL     1     -18.435  34.508  -8.334  1.00  0.00     0.168 C 
HETATM   18  C3  UNL     1     -16.968  34.643  -8.738  1.00  0.00     0.111 C 
HETATM   19  C14 UNL     1     -16.459  35.998  -8.640  1.00  0.00     0.224 C 
HETATM   20  C13 UNL     1     -17.502  36.891  -8.034  1.00  0.00     0.080 C 
HETATM   21  C12 UNL     1     -18.744  36.795  -8.900  1.00  0.00     0.066 C 
BRANCH  18  22
HETATM   22  C2  UNL     1     -16.798  34.097 -10.164  1.00  0.00     0.115 C 
BRANCH  22  23
HETATM   23  S1  UNL     1     -15.995  35.430 -11.153  1.00  0.00    -0.170 SA
HETATM   24  C1  UNL     1     -16.173  34.996 -12.915  1.00  0.00     0.089 C 
ENDBRANCH  22  23
ENDBRANCH  18  22
BRANCH  18  25
HETATM   25  O1  UNL     1     -16.307  33.743  -7.906  1.00  0.00    -0.385 OA
ATOM     26  H1  UNL     1     -16.489  32.881  -8.263  1.00  0.00     0.210 HD
ENDBRANCH  18  25
BRANCH  19  27
HETATM   27  N7  UNL     1     -15.219  36.103  -7.911  1.00  0.00    -0.072 N 
ATOM     28  H73 UNL     1     -14.446  35.723  -8.458  1.00  0.00     0.274 HD
ATOM     29  H72 UNL     1     -14.921  37.076  -7.846  1.00  0.00     0.274 HD
ATOM     30  H71 UNL     1     -15.249  35.674  -6.986  1.00  0.00     0.274 HD
ENDBRANCH  19  27
ENDBRANCH  15  16
ENDBRANCH   1  15
BRANCH   9  31
HETATM   31  N4  UNL     1     -25.987  37.959 -10.431  1.00  0.00    -0.234 N 
ATOM     32  H42 UNL     1     -26.066  38.975 -10.458  1.00  0.00     0.174 HD
ATOM     33  H41 UNL     1     -26.875  37.457 -10.450  1.00  0.00     0.174 HD
ENDBRANCH   9  31
TORSDOF 7
ENDMDL
