MODEL 1
REMARK VINA RESULT: -8.085650729      0.000      0.000
REMARK  18 active torsions:
REMARK  status: ('A' for Active; 'I' for Inactive)
REMARK    1  A    between atoms: N1_2  and  C3_4 
REMARK    2  A    between atoms: C4_6  and  C5_7 
REMARK    3  A    between atoms: C5_7  and  O2_8 
REMARK    4  A    between atoms: C6_10  and  O3_11 
REMARK    5  A    between atoms: O3_11  and  C7_12 
REMARK    6  A    between atoms: C7_12  and  C8_14 
REMARK    7  A    between atoms: C8_14  and  O5_16 
REMARK    8  A    between atoms: C8_14  and  O6_18 
REMARK    9  A    between atoms: C10_20  and  N2_21 
REMARK       I    between atoms: N2_21  and  C11_23 
REMARK   10  A    between atoms: C11_23  and  C12_25 
REMARK   11  A    between atoms: C12_25  and  C13_27 
REMARK       I    between atoms: C13_27  and  N3_29 
REMARK   12  A    between atoms: N3_29  and  N4_31 
REMARK   13  A    between atoms: C14_33  and  C15_34 
REMARK   14  A    between atoms: C16_35  and  O10_36 
REMARK   15  A    between atoms: C17_39  and  C18_40 
REMARK   16  A    between atoms: C18_40  and  O12_41 
REMARK   17  A    between atoms: C19_43  and  O13_44 
REMARK   18  A    between atoms: C20_46  and  O14_47 
ROOT
HETATM    1  N2  UNL     1      31.434  -4.432   0.684  1.00  0.00    -0.344 N 
ATOM      2  H2  UNL     1      32.000  -3.691   1.097  1.00  0.00     0.163 HD
HETATM    3  C11 UNL     1      30.034  -4.264   0.611  1.00  0.00     0.298 C 
HETATM    4  O7  UNL     1      29.298  -5.143   0.112  1.00  0.00    -0.264 OA
ENDROOT
BRANCH   1   5
HETATM    5  C10 UNL     1      32.095  -5.631   0.186  1.00  0.00     0.150 C 
HETATM    6  C6  UNL     1      32.600  -5.434  -1.242  1.00  0.00     0.188 C 
HETATM    7  C4  UNL     1      33.673  -6.393  -1.601  1.00  0.00     0.179 C 
HETATM    8  O1  UNL     1      33.644  -7.513  -0.797  1.00  0.00    -0.345 OA
HETATM    9  C3  UNL     1      33.881  -7.267   0.537  1.00  0.00     0.389 C 
HETATM   10  C20 UNL     1      33.237  -6.045   1.086  1.00  0.00     0.202 C 
BRANCH   6  11
HETATM   11  O3  UNL     1      32.890  -4.092  -1.523  1.00  0.00    -0.307 OA
BRANCH  11  12
HETATM   12  C7  UNL     1      32.228  -3.293  -2.420  1.00  0.00     0.322 C 
HETATM   13  O4  UNL     1      31.347  -2.552  -1.963  1.00  0.00    -0.259 OA
BRANCH  12  14
HETATM   14  C8  UNL     1      32.517  -3.279  -3.886  1.00  0.00     0.247 C 
HETATM   15  C9  UNL     1      32.062  -1.905  -4.389  1.00  0.00     0.090 C 
BRANCH  14  16
HETATM   16  O5  UNL     1      31.766  -4.231  -4.557  1.00  0.00    -0.358 OA
ATOM     17  H5  UNL     1      32.003  -4.272  -5.476  1.00  0.00     0.213 HD
ENDBRANCH  14  16
BRANCH  14  18
HETATM   18  O6  UNL     1      33.861  -3.471  -4.145  1.00  0.00    -0.358 OA
ATOM     19  H6  UNL     1      34.066  -4.388  -4.281  1.00  0.00     0.213 HD
ENDBRANCH  14  18
ENDBRANCH  12  14
ENDBRANCH  11  12
ENDBRANCH   6  11
BRANCH   7  20
HETATM   20  C5  UNL     1      33.458  -6.850  -3.029  1.00  0.00     0.198 C 
BRANCH  20  21
HETATM   21  O2  UNL     1      32.081  -6.785  -3.283  1.00  0.00    -0.398 OA
ATOM     22  H2  UNL     1      31.766  -7.679  -3.359  1.00  0.00     0.209 HD
ENDBRANCH  20  21
ENDBRANCH   7  20
BRANCH   9  23
HETATM   23  N1  UNL     1      35.295  -7.194   0.851  1.00  0.00     0.111 N 
HETATM   24  C1  UNL     1      35.722  -5.870   1.194  1.00  0.00     0.312 C 
HETATM   25  C2  UNL     1      35.753  -8.172   1.783  1.00  0.00     0.312 C 
ENDBRANCH   9  23
BRANCH  10  26
HETATM   26  O14 UNL     1      32.663  -6.357   2.321  1.00  0.00    -0.389 OA
ATOM     27  H14 UNL     1      31.773  -6.026   2.335  1.00  0.00     0.210 HD
ENDBRANCH  10  26
ENDBRANCH   1   5
BRANCH   3  28
HETATM   28  C12 UNL     1      29.437  -3.040   1.128  1.00  0.00     0.307 C 
HETATM   29  O8  UNL     1      28.715  -2.307   0.373  1.00  0.00    -0.276 OA
BRANCH  28  30
HETATM   30  C13 UNL     1      29.636  -2.603   2.501  1.00  0.00     0.315 C 
HETATM   31  O9  UNL     1      29.961  -3.413   3.406  1.00  0.00    -0.262 OA
HETATM   32  N3  UNL     1      29.459  -1.244   2.830  1.00  0.00    -0.263 N 
ATOM     33  H3  UNL     1      29.194  -0.582   2.100  1.00  0.00     0.190 HD
BRANCH  32  34
HETATM   34  N4  UNL     1      29.641  -0.784   4.146  1.00  0.00    -0.308 N 
HETATM   35  C14 UNL     1      28.614  -0.287   4.740  1.00  0.00     0.126 C 
ATOM     36  H4  UNL     1      30.549  -0.842   4.610  1.00  0.00     0.186 HD
BRANCH  35  37
HETATM   37  C15 UNL     1      28.776   0.202   6.114  1.00  0.00     0.075 A 
HETATM   38  C16 UNL     1      29.699  -0.220   7.047  1.00  0.00     0.198 A 
HETATM   39  O11 UNL     1      29.507   0.470   8.147  1.00  0.00    -0.287 OA
HETATM   40  C17 UNL     1      28.535   1.317   8.032  1.00  0.00     0.113 A 
HETATM   41  C19 UNL     1      28.038   1.185   6.756  1.00  0.00     0.114 A 
BRANCH  38  42
HETATM   42  O10 UNL     1      30.675  -1.203   6.876  1.00  0.00    -0.340 OA
ATOM     43  H10 UNL     1      31.592  -1.066   6.669  1.00  0.00     0.220 HD
ENDBRANCH  38  42
BRANCH  40  44
HETATM   44  C18 UNL     1      27.995   2.284   9.033  1.00  0.00     0.232 C 
BRANCH  44  45
HETATM   45  O12 UNL     1      26.671   2.620   8.737  1.00  0.00    -0.394 OA
ATOM     46  H12 UNL     1      26.491   3.523   8.970  1.00  0.00     0.209 HD
ENDBRANCH  44  45
ENDBRANCH  40  44
BRANCH  41  47
HETATM   47  O13 UNL     1      27.002   1.861   6.145  1.00  0.00    -0.357 OA
ATOM     48  H13 UNL     1      26.097   1.775   6.421  1.00  0.00     0.217 HD
ENDBRANCH  41  47
ENDBRANCH  35  37
ENDBRANCH  32  34
ENDBRANCH  28  30
ENDBRANCH   3  28
TORSDOF 18
ENDMDL
MODEL 2
REMARK VINA RESULT: -8.061452876      0.514      1.110
REMARK  18 active torsions:
REMARK  status: ('A' for Active; 'I' for Inactive)
REMARK    1  A    between atoms: N1_2  and  C3_4 
REMARK    2  A    between atoms: C4_6  and  C5_7 
REMARK    3  A    between atoms: C5_7  and  O2_8 
REMARK    4  A    between atoms: C6_10  and  O3_11 
REMARK    5  A    between atoms: O3_11  and  C7_12 
REMARK    6  A    between atoms: C7_12  and  C8_14 
REMARK    7  A    between atoms: C8_14  and  O5_16 
REMARK    8  A    between atoms: C8_14  and  O6_18 
REMARK    9  A    between atoms: C10_20  and  N2_21 
REMARK       I    between atoms: N2_21  and  C11_23 
REMARK   10  A    between atoms: C11_23  and  C12_25 
REMARK   11  A    between atoms: C12_25  and  C13_27 
REMARK       I    between atoms: C13_27  and  N3_29 
REMARK   12  A    between atoms: N3_29  and  N4_31 
REMARK   13  A    between atoms: C14_33  and  C15_34 
REMARK   14  A    between atoms: C16_35  and  O10_36 
REMARK   15  A    between atoms: C17_39  and  C18_40 
REMARK   16  A    between atoms: C18_40  and  O12_41 
REMARK   17  A    between atoms: C19_43  and  O13_44 
REMARK   18  A    between atoms: C20_46  and  O14_47 
ROOT
HETATM    1  N2  UNL     1      31.499  -4.480   0.632  1.00  0.00    -0.344 N 
ATOM      2  H2  UNL     1      32.061  -3.738   1.050  1.00  0.00     0.163 HD
HETATM    3  C11 UNL     1      30.097  -4.321   0.566  1.00  0.00     0.298 C 
HETATM    4  O7  UNL     1      29.367  -5.202   0.063  1.00  0.00    -0.264 OA
ENDROOT
BRANCH   1   5
HETATM    5  C10 UNL     1      32.167  -5.670   0.123  1.00  0.00     0.150 C 
HETATM    6  C6  UNL     1      32.656  -5.462  -1.309  1.00  0.00     0.188 C 
HETATM    7  C4  UNL     1      33.735  -6.409  -1.682  1.00  0.00     0.179 C 
HETATM    8  O1  UNL     1      33.724  -7.533  -0.883  1.00  0.00    -0.345 OA
HETATM    9  C3  UNL     1      33.972  -7.290   0.450  1.00  0.00     0.389 C 
HETATM   10  C20 UNL     1      33.321  -6.077   1.010  1.00  0.00     0.202 C 
BRANCH   6  11
HETATM   11  O3  UNL     1      32.931  -4.116  -1.587  1.00  0.00    -0.307 OA
BRANCH  11  12
HETATM   12  C7  UNL     1      32.342  -3.356  -2.565  1.00  0.00     0.322 C 
HETATM   13  O4  UNL     1      32.053  -3.934  -3.622  1.00  0.00    -0.259 OA
BRANCH  12  14
HETATM   14  C8  UNL     1      32.044  -1.900  -2.414  1.00  0.00     0.247 C 
HETATM   15  C9  UNL     1      31.872  -1.359  -3.837  1.00  0.00     0.090 C 
BRANCH  14  16
HETATM   16  O5  UNL     1      33.111  -1.224  -1.845  1.00  0.00    -0.358 OA
ATOM     17  H5  UNL     1      32.878  -0.860  -0.999  1.00  0.00     0.213 HD
ENDBRANCH  14  16
BRANCH  14  18
HETATM   18  O6  UNL     1      30.900  -1.686  -1.670  1.00  0.00    -0.358 OA
ATOM     19  H6  UNL     1      30.974  -2.052  -0.797  1.00  0.00     0.213 HD
ENDBRANCH  14  18
ENDBRANCH  12  14
ENDBRANCH  11  12
ENDBRANCH   6  11
BRANCH   7  20
HETATM   20  C5  UNL     1      33.511  -6.862  -3.110  1.00  0.00     0.198 C 
BRANCH  20  21
HETATM   21  O2  UNL     1      32.128  -6.858  -3.335  1.00  0.00    -0.398 OA
ATOM     22  H2  UNL     1      31.994  -6.763  -4.271  1.00  0.00     0.209 HD
ENDBRANCH  20  21
ENDBRANCH   7  20
BRANCH   9  23
HETATM   23  N1  UNL     1      35.388  -7.205   0.751  1.00  0.00     0.111 N 
HETATM   24  C1  UNL     1      35.805  -5.880   1.098  1.00  0.00     0.312 C 
HETATM   25  C2  UNL     1      35.864  -8.185   1.672  1.00  0.00     0.312 C 
ENDBRANCH   9  23
BRANCH  10  26
HETATM   26  O14 UNL     1      32.762  -6.400   2.249  1.00  0.00    -0.389 OA
ATOM     27  H14 UNL     1      31.942  -5.931   2.345  1.00  0.00     0.210 HD
ENDBRANCH  10  26
ENDBRANCH   1   5
BRANCH   3  28
HETATM   28  C12 UNL     1      29.495  -3.105   1.095  1.00  0.00     0.307 C 
HETATM   29  O8  UNL     1      28.754  -2.378   0.351  1.00  0.00    -0.276 OA
BRANCH  28  30
HETATM   30  C13 UNL     1      29.705  -2.670   2.467  1.00  0.00     0.315 C 
HETATM   31  O9  UNL     1      30.072  -3.476   3.360  1.00  0.00    -0.262 OA
HETATM   32  N3  UNL     1      29.493  -1.319   2.807  1.00  0.00    -0.263 N 
ATOM     33  H3  UNL     1      29.195  -0.662   2.087  1.00  0.00     0.190 HD
BRANCH  32  34
HETATM   34  N4  UNL     1      29.687  -0.862   4.123  1.00  0.00    -0.308 N 
HETATM   35  C14 UNL     1      28.659  -0.390   4.735  1.00  0.00     0.126 C 
ATOM     36  H4  UNL     1      30.602  -0.902   4.573  1.00  0.00     0.186 HD
BRANCH  35  37
HETATM   37  C15 UNL     1      28.831   0.096   6.109  1.00  0.00     0.075 A 
HETATM   38  C16 UNL     1      29.746  -0.345   7.042  1.00  0.00     0.198 A 
HETATM   39  O11 UNL     1      29.569   0.349   8.142  1.00  0.00    -0.287 OA
HETATM   40  C17 UNL     1      28.615   1.216   8.027  1.00  0.00     0.113 A 
HETATM   41  C19 UNL     1      28.114   1.094   6.751  1.00  0.00     0.114 A 
BRANCH  38  42
HETATM   42  O10 UNL     1      30.702  -1.348   6.870  1.00  0.00    -0.340 OA
ATOM     43  H10 UNL     1      30.559  -2.286   6.920  1.00  0.00     0.220 HD
ENDBRANCH  38  42
BRANCH  40  44
HETATM   44  C18 UNL     1      28.095   2.193   9.029  1.00  0.00     0.232 C 
BRANCH  44  45
HETATM   45  O12 UNL     1      26.765   2.525   8.757  1.00  0.00    -0.394 OA
ATOM     46  H12 UNL     1      26.191   2.210   9.446  1.00  0.00     0.209 HD
ENDBRANCH  44  45
ENDBRANCH  40  44
BRANCH  41  47
HETATM   47  O13 UNL     1      27.092   1.791   6.141  1.00  0.00    -0.357 OA
ATOM     48  H13 UNL     1      26.227   1.879   6.526  1.00  0.00     0.217 HD
ENDBRANCH  41  47
ENDBRANCH  35  37
ENDBRANCH  32  34
ENDBRANCH  28  30
ENDBRANCH   3  28
TORSDOF 18
ENDMDL
MODEL 3
REMARK VINA RESULT: -7.686136265      1.025      1.138
REMARK  18 active torsions:
REMARK  status: ('A' for Active; 'I' for Inactive)
REMARK    1  A    between atoms: N1_2  and  C3_4 
REMARK    2  A    between atoms: C4_6  and  C5_7 
REMARK    3  A    between atoms: C5_7  and  O2_8 
REMARK    4  A    between atoms: C6_10  and  O3_11 
REMARK    5  A    between atoms: O3_11  and  C7_12 
REMARK    6  A    between atoms: C7_12  and  C8_14 
REMARK    7  A    between atoms: C8_14  and  O5_16 
REMARK    8  A    between atoms: C8_14  and  O6_18 
REMARK    9  A    between atoms: C10_20  and  N2_21 
REMARK       I    between atoms: N2_21  and  C11_23 
REMARK   10  A    between atoms: C11_23  and  C12_25 
REMARK   11  A    between atoms: C12_25  and  C13_27 
REMARK       I    between atoms: C13_27  and  N3_29 
REMARK   12  A    between atoms: N3_29  and  N4_31 
REMARK   13  A    between atoms: C14_33  and  C15_34 
REMARK   14  A    between atoms: C16_35  and  O10_36 
REMARK   15  A    between atoms: C17_39  and  C18_40 
REMARK   16  A    between atoms: C18_40  and  O12_41 
REMARK   17  A    between atoms: C19_43  and  O13_44 
REMARK   18  A    between atoms: C20_46  and  O14_47 
ROOT
HETATM    1  N2  UNL     1      31.020  -4.189   0.567  1.00  0.00    -0.344 N 
ATOM      2  H2  UNL     1      31.537  -3.402   0.960  1.00  0.00     0.163 HD
HETATM    3  C11 UNL     1      29.609  -4.164   0.595  1.00  0.00     0.298 C 
HETATM    4  O7  UNL     1      28.932  -5.104   0.125  1.00  0.00    -0.264 OA
ENDROOT
BRANCH   1   5
HETATM    5  C10 UNL     1      31.761  -5.305  -0.006  1.00  0.00     0.150 C 
HETATM    6  C6  UNL     1      32.104  -5.048  -1.472  1.00  0.00     0.188 C 
HETATM    7  C4  UNL     1      33.239  -5.880  -1.943  1.00  0.00     0.179 C 
HETATM    8  O1  UNL     1      33.412  -6.997  -1.155  1.00  0.00    -0.345 OA
HETATM    9  C3  UNL     1      33.746  -6.729   0.155  1.00  0.00     0.389 C 
HETATM   10  C20 UNL     1      33.023  -5.589   0.777  1.00  0.00     0.202 C 
BRANCH   6  11
HETATM   11  O3  UNL     1      32.214  -3.682  -1.763  1.00  0.00    -0.307 OA
BRANCH  11  12
HETATM   12  C7  UNL     1      33.343  -2.916  -1.630  1.00  0.00     0.322 C 
HETATM   13  O4  UNL     1      33.572  -2.449  -0.506  1.00  0.00    -0.259 OA
BRANCH  12  14
HETATM   14  C8  UNL     1      34.284  -2.628  -2.754  1.00  0.00     0.247 C 
HETATM   15  C9  UNL     1      34.546  -1.119  -2.705  1.00  0.00     0.090 C 
BRANCH  14  16
HETATM   16  O5  UNL     1      33.702  -2.902  -3.981  1.00  0.00    -0.358 OA
ATOM     17  H5  UNL     1      34.225  -3.517  -4.482  1.00  0.00     0.213 HD
ENDBRANCH  14  16
BRANCH  14  18
HETATM   18  O6  UNL     1      35.466  -3.332  -2.626  1.00  0.00    -0.358 OA
ATOM     19  H6  UNL     1      35.835  -3.558  -3.472  1.00  0.00     0.213 HD
ENDBRANCH  14  18
ENDBRANCH  12  14
ENDBRANCH  11  12
ENDBRANCH   6  11
BRANCH   7  20
HETATM   20  C5  UNL     1      32.942  -6.355  -3.351  1.00  0.00     0.198 C 
BRANCH  20  21
HETATM   21  O2  UNL     1      32.249  -5.325  -3.999  1.00  0.00    -0.398 OA
ATOM     22  H2  UNL     1      32.892  -4.800  -4.462  1.00  0.00     0.209 HD
ENDBRANCH  20  21
ENDBRANCH   7  20
BRANCH   9  23
HETATM   23  N1  UNL     1      35.166  -6.497   0.336  1.00  0.00     0.111 N 
HETATM   24  C1  UNL     1      35.469  -5.141   0.681  1.00  0.00     0.312 C 
HETATM   25  C2  UNL     1      35.821  -7.436   1.186  1.00  0.00     0.312 C 
ENDBRANCH   9  23
BRANCH  10  26
HETATM   26  O14 UNL     1      32.608  -5.967   2.056  1.00  0.00    -0.389 OA
ATOM     27  H14 UNL     1      32.946  -5.339   2.684  1.00  0.00     0.210 HD
ENDBRANCH  10  26
ENDBRANCH   1   5
BRANCH   3  28
HETATM   28  C12 UNL     1      28.930  -3.017   1.183  1.00  0.00     0.307 C 
HETATM   29  O8  UNL     1      28.123  -2.317   0.484  1.00  0.00    -0.276 OA
BRANCH  28  30
HETATM   30  C13 UNL     1      29.138  -2.622   2.568  1.00  0.00     0.315 C 
HETATM   31  O9  UNL     1      29.971  -3.215   3.300  1.00  0.00    -0.262 OA
HETATM   32  N3  UNL     1      28.392  -1.554   3.104  1.00  0.00    -0.263 N 
ATOM     33  H3  UNL     1      27.714  -1.070   2.515  1.00  0.00     0.190 HD
BRANCH  32  34
HETATM   34  N4  UNL     1      28.565  -1.143   4.439  1.00  0.00    -0.308 N 
HETATM   35  C14 UNL     1      28.399   0.107   4.692  1.00  0.00     0.126 C 
ATOM     36  H4  UNL     1      28.812  -1.807   5.173  1.00  0.00     0.186 HD
BRANCH  35  37
HETATM   37  C15 UNL     1      28.575   0.564   6.074  1.00  0.00     0.075 A 
HETATM   38  C16 UNL     1      29.527   0.144   6.978  1.00  0.00     0.198 A 
HETATM   39  O11 UNL     1      29.339   0.799   8.100  1.00  0.00    -0.287 OA
HETATM   40  C17 UNL     1      28.344   1.622   8.026  1.00  0.00     0.113 A 
HETATM   41  C19 UNL     1      27.824   1.510   6.757  1.00  0.00     0.114 A 
BRANCH  38  42
HETATM   42  O10 UNL     1      30.526  -0.808   6.762  1.00  0.00    -0.340 OA
ATOM     43  H10 UNL     1      30.852  -1.445   7.388  1.00  0.00     0.220 HD
ENDBRANCH  38  42
BRANCH  40  44
HETATM   44  C18 UNL     1      27.798   2.548   9.063  1.00  0.00     0.232 C 
BRANCH  44  45
HETATM   45  O12 UNL     1      26.453   2.833   8.817  1.00  0.00    -0.394 OA
ATOM     46  H12 UNL     1      26.317   3.066   7.906  1.00  0.00     0.209 HD
ENDBRANCH  44  45
ENDBRANCH  40  44
BRANCH  41  47
HETATM   47  O13 UNL     1      26.759   2.173   6.184  1.00  0.00    -0.357 OA
ATOM     48  H13 UNL     1      26.747   3.115   6.056  1.00  0.00     0.217 HD
ENDBRANCH  41  47
ENDBRANCH  35  37
ENDBRANCH  32  34
ENDBRANCH  28  30
ENDBRANCH   3  28
TORSDOF 18
ENDMDL
MODEL 4
REMARK VINA RESULT: -7.660592769      2.622      4.087
REMARK  18 active torsions:
REMARK  status: ('A' for Active; 'I' for Inactive)
REMARK    1  A    between atoms: N1_2  and  C3_4 
REMARK    2  A    between atoms: C4_6  and  C5_7 
REMARK    3  A    between atoms: C5_7  and  O2_8 
REMARK    4  A    between atoms: C6_10  and  O3_11 
REMARK    5  A    between atoms: O3_11  and  C7_12 
REMARK    6  A    between atoms: C7_12  and  C8_14 
REMARK    7  A    between atoms: C8_14  and  O5_16 
REMARK    8  A    between atoms: C8_14  and  O6_18 
REMARK    9  A    between atoms: C10_20  and  N2_21 
REMARK       I    between atoms: N2_21  and  C11_23 
REMARK   10  A    between atoms: C11_23  and  C12_25 
REMARK   11  A    between atoms: C12_25  and  C13_27 
REMARK       I    between atoms: C13_27  and  N3_29 
REMARK   12  A    between atoms: N3_29  and  N4_31 
REMARK   13  A    between atoms: C14_33  and  C15_34 
REMARK   14  A    between atoms: C16_35  and  O10_36 
REMARK   15  A    between atoms: C17_39  and  C18_40 
REMARK   16  A    between atoms: C18_40  and  O12_41 
REMARK   17  A    between atoms: C19_43  and  O13_44 
REMARK   18  A    between atoms: C20_46  and  O14_47 
ROOT
HETATM    1  N2  UNL     1      30.904  -3.255   0.220  1.00  0.00    -0.344 N 
ATOM      2  H2  UNL     1      31.485  -3.785   0.871  1.00  0.00     0.163 HD
HETATM    3  C11 UNL     1      29.582  -2.927   0.596  1.00  0.00     0.298 C 
HETATM    4  O7  UNL     1      28.832  -2.279  -0.166  1.00  0.00    -0.264 OA
ENDROOT
BRANCH   1   5
HETATM    5  C10 UNL     1      31.461  -2.862  -1.067  1.00  0.00     0.150 C 
HETATM    6  C6  UNL     1      32.263  -1.568  -0.951  1.00  0.00     0.188 C 
HETATM    7  C4  UNL     1      33.229  -1.398  -2.064  1.00  0.00     0.179 C 
HETATM    8  O1  UNL     1      32.872  -2.147  -3.165  1.00  0.00    -0.345 OA
HETATM    9  C3  UNL     1      32.875  -3.509  -2.957  1.00  0.00     0.389 C 
HETATM   10  C20 UNL     1      32.326  -3.956  -1.650  1.00  0.00     0.202 C 
BRANCH   6  11
HETATM   11  O3  UNL     1      32.803  -1.388   0.330  1.00  0.00    -0.307 OA
BRANCH  11  12
HETATM   12  C7  UNL     1      32.605  -0.304   1.146  1.00  0.00     0.322 C 
HETATM   13  O4  UNL     1      31.522  -0.246   1.744  1.00  0.00    -0.259 OA
BRANCH  12  14
HETATM   14  C8  UNL     1      33.612   0.782   1.337  1.00  0.00     0.247 C 
HETATM   15  C9  UNL     1      33.027   2.022   0.652  1.00  0.00     0.090 C 
BRANCH  14  16
HETATM   16  O5  UNL     1      34.803   0.484   0.695  1.00  0.00    -0.358 OA
ATOM     17  H5  UNL     1      35.078   1.195   0.128  1.00  0.00     0.213 HD
ENDBRANCH  14  16
BRANCH  14  18
HETATM   18  O6  UNL     1      33.848   1.032   2.675  1.00  0.00    -0.358 OA
ATOM     19  H6  UNL     1      34.418   1.783   2.799  1.00  0.00     0.213 HD
ENDBRANCH  14  18
ENDBRANCH  12  14
ENDBRANCH  11  12
ENDBRANCH   6  11
BRANCH   7  20
HETATM   20  C5  UNL     1      33.235   0.057  -2.485  1.00  0.00     0.198 C 
BRANCH  20  21
HETATM   21  O2  UNL     1      34.521   0.556  -2.235  1.00  0.00    -0.398 OA
ATOM     22  H2  UNL     1      34.646   0.552  -1.293  1.00  0.00     0.209 HD
ENDBRANCH  20  21
ENDBRANCH   7  20
BRANCH   9  23
HETATM   23  N1  UNL     1      34.193  -4.096  -3.102  1.00  0.00     0.111 N 
HETATM   24  C1  UNL     1      34.635  -4.771  -1.918  1.00  0.00     0.312 C 
HETATM   25  C2  UNL     1      34.371  -4.884  -4.277  1.00  0.00     0.312 C 
ENDBRANCH   9  23
BRANCH  10  26
HETATM   26  O14 UNL     1      31.479  -5.045  -1.869  1.00  0.00    -0.389 OA
ATOM     27  H14 UNL     1      30.888  -5.125  -1.129  1.00  0.00     0.210 HD
ENDBRANCH  10  26
ENDBRANCH   1   5
BRANCH   3  28
HETATM   28  C12 UNL     1      29.087  -3.352   1.898  1.00  0.00     0.307 C 
HETATM   29  O8  UNL     1      28.447  -4.450   2.016  1.00  0.00    -0.276 OA
BRANCH  28  30
HETATM   30  C13 UNL     1      29.293  -2.559   3.100  1.00  0.00     0.315 C 
HETATM   31  O9  UNL     1      29.659  -3.091   4.180  1.00  0.00    -0.262 OA
HETATM   32  N3  UNL     1      29.077  -1.167   3.060  1.00  0.00    -0.263 N 
ATOM     33  H3  UNL     1      28.779  -0.732   2.188  1.00  0.00     0.190 HD
BRANCH  32  34
HETATM   34  N4  UNL     1      29.267  -0.369   4.203  1.00  0.00    -0.308 N 
HETATM   35  C14 UNL     1      28.287  -0.296   5.033  1.00  0.00     0.126 C 
ATOM     36  H4  UNL     1      30.142   0.131   4.365  1.00  0.00     0.186 HD
BRANCH  35  37
HETATM   37  C15 UNL     1      28.456   0.531   6.233  1.00  0.00     0.075 A 
HETATM   38  C16 UNL     1      29.435   0.415   7.197  1.00  0.00     0.198 A 
HETATM   39  O11 UNL     1      29.228   1.345   8.100  1.00  0.00    -0.287 OA
HETATM   40  C17 UNL     1      28.195   2.075   7.824  1.00  0.00     0.113 A 
HETATM   41  C19 UNL     1      27.669   1.597   6.646  1.00  0.00     0.114 A 
BRANCH  38  42
HETATM   42  O10 UNL     1      30.473  -0.518   7.229  1.00  0.00    -0.340 OA
ATOM     43  H10 UNL     1      30.464  -1.395   6.864  1.00  0.00     0.220 HD
ENDBRANCH  38  42
BRANCH  40  44
HETATM   44  C18 UNL     1      27.618   3.227   8.579  1.00  0.00     0.232 C 
BRANCH  44  45
HETATM   45  O12 UNL     1      26.250   3.045   8.795  1.00  0.00    -0.394 OA
ATOM     46  H12 UNL     1      26.098   2.447   9.517  1.00  0.00     0.209 HD
ENDBRANCH  44  45
ENDBRANCH  40  44
BRANCH  41  47
HETATM   47  O13 UNL     1      26.570   2.032   5.936  1.00  0.00    -0.357 OA
ATOM     48  H13 UNL     1      25.964   1.438   5.508  1.00  0.00     0.217 HD
ENDBRANCH  41  47
ENDBRANCH  35  37
ENDBRANCH  32  34
ENDBRANCH  28  30
ENDBRANCH   3  28
TORSDOF 18
ENDMDL
MODEL 5
REMARK VINA RESULT: -7.655224551      2.380      3.113
REMARK  18 active torsions:
REMARK  status: ('A' for Active; 'I' for Inactive)
REMARK    1  A    between atoms: N1_2  and  C3_4 
REMARK    2  A    between atoms: C4_6  and  C5_7 
REMARK    3  A    between atoms: C5_7  and  O2_8 
REMARK    4  A    between atoms: C6_10  and  O3_11 
REMARK    5  A    between atoms: O3_11  and  C7_12 
REMARK    6  A    between atoms: C7_12  and  C8_14 
REMARK    7  A    between atoms: C8_14  and  O5_16 
REMARK    8  A    between atoms: C8_14  and  O6_18 
REMARK    9  A    between atoms: C10_20  and  N2_21 
REMARK       I    between atoms: N2_21  and  C11_23 
REMARK   10  A    between atoms: C11_23  and  C12_25 
REMARK   11  A    between atoms: C12_25  and  C13_27 
REMARK       I    between atoms: C13_27  and  N3_29 
REMARK   12  A    between atoms: N3_29  and  N4_31 
REMARK   13  A    between atoms: C14_33  and  C15_34 
REMARK   14  A    between atoms: C16_35  and  O10_36 
REMARK   15  A    between atoms: C17_39  and  C18_40 
REMARK   16  A    between atoms: C18_40  and  O12_41 
REMARK   17  A    between atoms: C19_43  and  O13_44 
REMARK   18  A    between atoms: C20_46  and  O14_47 
ROOT
HETATM    1  N2  UNL     1      31.316  -3.719   0.833  1.00  0.00    -0.344 N 
ATOM      2  H2  UNL     1      31.548  -3.176   1.665  1.00  0.00     0.163 HD
HETATM    3  C11 UNL     1      29.994  -4.190   0.669  1.00  0.00     0.298 C 
HETATM    4  O7  UNL     1      29.661  -4.858  -0.333  1.00  0.00    -0.264 OA
ENDROOT
BRANCH   1   5
HETATM    5  C10 UNL     1      32.357  -3.986  -0.150  1.00  0.00     0.150 C 
HETATM    6  C6  UNL     1      33.268  -2.774  -0.335  1.00  0.00     0.188 C 
HETATM    7  C4  UNL     1      34.584  -3.139  -0.916  1.00  0.00     0.179 C 
HETATM    8  O1  UNL     1      34.528  -4.341  -1.588  1.00  0.00    -0.345 OA
HETATM    9  C3  UNL     1      34.228  -5.427  -0.795  1.00  0.00     0.389 C 
HETATM   10  C20 UNL     1      33.178  -5.197   0.232  1.00  0.00     0.202 C 
BRANCH   6  11
HETATM   11  O3  UNL     1      33.332  -1.975   0.814  1.00  0.00    -0.307 OA
BRANCH  11  12
HETATM   12  C7  UNL     1      32.740  -0.749   0.979  1.00  0.00     0.322 C 
HETATM   13  O4  UNL     1      31.530  -0.745   1.245  1.00  0.00    -0.259 OA
BRANCH  12  14
HETATM   14  C8  UNL     1      33.473   0.547   0.854  1.00  0.00     0.247 C 
HETATM   15  C9  UNL     1      32.679   1.559   1.687  1.00  0.00     0.090 C 
BRANCH  14  16
HETATM   16  O5  UNL     1      33.471   1.003  -0.454  1.00  0.00    -0.358 OA
ATOM     17  H5  UNL     1      34.343   0.979  -0.830  1.00  0.00     0.213 HD
ENDBRANCH  14  16
BRANCH  14  18
HETATM   18  O6  UNL     1      34.771   0.448   1.317  1.00  0.00    -0.358 OA
ATOM     19  H6  UNL     1      35.209   1.291   1.320  1.00  0.00     0.213 HD
ENDBRANCH  14  18
ENDBRANCH  12  14
ENDBRANCH  11  12
ENDBRANCH   6  11
BRANCH   7  20
HETATM   20  C5  UNL     1      34.985  -2.074  -1.917  1.00  0.00     0.198 C 
BRANCH  20  21
HETATM   21  O2  UNL     1      35.570  -1.025  -1.195  1.00  0.00    -0.398 OA
ATOM     22  H2  UNL     1      36.044  -0.485  -1.817  1.00  0.00     0.209 HD
ENDBRANCH  20  21
ENDBRANCH   7  20
BRANCH   9  23
HETATM   23  N1  UNL     1      35.391  -5.967  -0.118  1.00  0.00     0.111 N 
HETATM   24  C1  UNL     1      35.425  -5.640   1.276  1.00  0.00     0.312 C 
HETATM   25  C2  UNL     1      35.635  -7.351  -0.359  1.00  0.00     0.312 C 
ENDBRANCH   9  23
BRANCH  10  26
HETATM   26  O14 UNL     1      32.297  -6.281   0.223  1.00  0.00    -0.389 OA
ATOM     27  H14 UNL     1      31.451  -5.989   0.543  1.00  0.00     0.210 HD
ENDBRANCH  10  26
ENDBRANCH   1   5
BRANCH   3  28
HETATM   28  C12 UNL     1      29.001  -3.887   1.691  1.00  0.00     0.307 C 
HETATM   29  O8  UNL     1      27.831  -4.393   1.623  1.00  0.00    -0.276 OA
BRANCH  28  30
HETATM   30  C13 UNL     1      29.290  -3.009   2.815  1.00  0.00     0.315 C 
HETATM   31  O9  UNL     1      29.974  -3.402   3.794  1.00  0.00    -0.262 OA
HETATM   32  N3  UNL     1      28.793  -1.690   2.811  1.00  0.00    -0.263 N 
ATOM     33  H3  UNL     1      28.237  -1.367   2.020  1.00  0.00     0.190 HD
BRANCH  32  34
HETATM   34  N4  UNL     1      29.051  -0.813   3.880  1.00  0.00    -0.308 N 
HETATM   35  C14 UNL     1      28.138  -0.701   4.778  1.00  0.00     0.126 C 
ATOM     36  H4  UNL     1      29.925  -0.288   3.940  1.00  0.00     0.186 HD
BRANCH  35  37
HETATM   37  C15 UNL     1      28.379   0.209   5.903  1.00  0.00     0.075 A 
HETATM   38  C16 UNL     1      29.432   0.175   6.793  1.00  0.00     0.198 A 
HETATM   39  O11 UNL     1      29.275   1.162   7.645  1.00  0.00    -0.287 OA
HETATM   40  C17 UNL     1      28.208   1.852   7.404  1.00  0.00     0.113 A 
HETATM   41  C19 UNL     1      27.603   1.286   6.304  1.00  0.00     0.114 A 
BRANCH  38  42
HETATM   42  O10 UNL     1      30.491  -0.735   6.806  1.00  0.00    -0.340 OA
ATOM     43  H10 UNL     1      30.768  -1.278   7.535  1.00  0.00     0.220 HD
ENDBRANCH  38  42
BRANCH  40  44
HETATM   44  C18 UNL     1      27.665   3.043   8.123  1.00  0.00     0.232 C 
BRANCH  44  45
HETATM   45  O12 UNL     1      26.345   2.823   8.524  1.00  0.00    -0.394 OA
ATOM     46  H12 UNL     1      25.742   3.348   8.011  1.00  0.00     0.209 HD
ENDBRANCH  44  45
ENDBRANCH  40  44
BRANCH  41  47
HETATM   47  O13 UNL     1      26.443   1.654   5.656  1.00  0.00    -0.357 OA
ATOM     48  H13 UNL     1      26.046   1.127   4.972  1.00  0.00     0.217 HD
ENDBRANCH  41  47
ENDBRANCH  35  37
ENDBRANCH  32  34
ENDBRANCH  28  30
ENDBRANCH   3  28
TORSDOF 18
ENDMDL
