MODEL 1
REMARK VINA RESULT: -3.643958736      0.000      0.000
REMARK  1 active torsions:
REMARK  status: ('A' for Active; 'I' for Inactive)
REMARK    1  A    between atoms: C7_7  and  O1_8 
ROOT
HETATM    1  C1  UNL     1      18.854   7.883  -1.917  1.00  0.00     0.012 C 
HETATM    2  C2  UNL     1      20.036   8.564  -2.536  1.00  0.00     0.012 A 
HETATM    3  C3  UNL     1      21.316   7.805  -2.228  1.00  0.00     0.018 A 
HETATM    4  C4  UNL     1      21.458   7.556  -3.709  1.00  0.00    -0.021 A 
HETATM    5  C5  UNL     1      21.269   6.113  -4.107  1.00  0.00     0.017 C 
HETATM    6  C6  UNL     1      22.737   8.193  -4.211  1.00  0.00     0.017 C 
HETATM    7  C7  UNL     1      20.205   8.342  -4.025  1.00  0.00     0.129 A 
ENDROOT
BRANCH   7   8
HETATM    8  O1  UNL     1      20.405   9.487  -4.773  1.00  0.00    -0.394 OA
ATOM      9  H1  UNL     1      20.700  10.246  -4.284  1.00  0.00     0.210 HD
ENDBRANCH   7   8
TORSDOF 1
ENDMDL
MODEL 2
REMARK VINA RESULT: -3.441236857      1.912      2.415
REMARK  1 active torsions:
REMARK  status: ('A' for Active; 'I' for Inactive)
REMARK    1  A    between atoms: C7_7  and  O1_8 
ROOT
HETATM    1  C1  UNL     1      18.676   7.701  -0.950  1.00  0.00     0.012 C 
HETATM    2  C2  UNL     1      19.107   7.246  -2.310  1.00  0.00     0.012 A 
HETATM    3  C3  UNL     1      19.915   8.328  -3.008  1.00  0.00     0.018 A 
HETATM    4  C4  UNL     1      21.090   7.382  -2.992  1.00  0.00    -0.021 A 
HETATM    5  C5  UNL     1      22.209   7.813  -2.075  1.00  0.00     0.017 C 
HETATM    6  C6  UNL     1      21.514   7.074  -4.413  1.00  0.00     0.017 C 
HETATM    7  C7  UNL     1      20.281   6.288  -2.332  1.00  0.00     0.129 A 
ENDROOT
BRANCH   7   8
HETATM    8  O1  UNL     1      20.100   5.150  -3.096  1.00  0.00    -0.394 OA
ATOM      9  H1  UNL     1      19.766   4.395  -2.626  1.00  0.00     0.210 HD
ENDBRANCH   7   8
TORSDOF 1
ENDMDL
MODEL 3
REMARK VINA RESULT: -3.347448026      1.566      2.702
REMARK  1 active torsions:
REMARK  status: ('A' for Active; 'I' for Inactive)
REMARK    1  A    between atoms: C7_7  and  O1_8 
ROOT
HETATM    1  C1  UNL     1      21.262   9.602  -5.156  1.00  0.00     0.012 C 
HETATM    2  C2  UNL     1      20.382   8.561  -4.537  1.00  0.00     0.012 A 
HETATM    3  C3  UNL     1      21.062   7.202  -4.551  1.00  0.00     0.018 A 
HETATM    4  C4  UNL     1      21.041   7.239  -3.043  1.00  0.00    -0.021 A 
HETATM    5  C5  UNL     1      22.407   7.379  -2.416  1.00  0.00     0.017 C 
HETATM    6  C6  UNL     1      20.215   6.083  -2.518  1.00  0.00     0.017 C 
HETATM    7  C7  UNL     1      20.329   8.573  -3.023  1.00  0.00     0.129 A 
ENDROOT
BRANCH   7   8
HETATM    8  O1  UNL     1      19.060   8.552  -2.475  1.00  0.00    -0.394 OA
ATOM      9  H1  UNL     1      18.672   9.404  -2.318  1.00  0.00     0.210 HD
ENDBRANCH   7   8
TORSDOF 1
ENDMDL
MODEL 4
REMARK VINA RESULT: -3.341818861      1.979      3.297
REMARK  1 active torsions:
REMARK  status: ('A' for Active; 'I' for Inactive)
REMARK    1  A    between atoms: C7_7  and  O1_8 
ROOT
HETATM    1  C1  UNL     1      23.279   6.454  -3.469  1.00  0.00     0.012 C 
HETATM    2  C2  UNL     1      22.124   6.485  -2.516  1.00  0.00     0.012 A 
HETATM    3  C3  UNL     1      21.800   7.913  -2.109  1.00  0.00     0.018 A 
HETATM    4  C4  UNL     1      20.456   7.736  -2.772  1.00  0.00    -0.021 A 
HETATM    5  C5  UNL     1      20.278   8.563  -4.022  1.00  0.00     0.017 C 
HETATM    6  C6  UNL     1      19.357   7.895  -1.742  1.00  0.00     0.017 C 
HETATM    7  C7  UNL     1      20.758   6.303  -3.145  1.00  0.00     0.129 A 
ENDROOT
BRANCH   7   8
HETATM    8  O1  UNL     1      19.950   5.357  -2.542  1.00  0.00    -0.394 OA
ATOM      9  H1  UNL     1      20.216   5.094  -1.668  1.00  0.00     0.210 HD
ENDBRANCH   7   8
TORSDOF 1
ENDMDL
MODEL 5
REMARK VINA RESULT: -3.205625812      1.001      2.818
REMARK  1 active torsions:
REMARK  status: ('A' for Active; 'I' for Inactive)
REMARK    1  A    between atoms: C7_7  and  O1_8 
ROOT
HETATM    1  C1  UNL     1      22.418   6.435  -5.430  1.00  0.00     0.012 C 
HETATM    2  C2  UNL     1      21.161   7.019  -4.864  1.00  0.00     0.012 A 
HETATM    3  C3  UNL     1      20.842   6.404  -3.512  1.00  0.00     0.018 A 
HETATM    4  C4  UNL     1      21.024   7.774  -2.909  1.00  0.00    -0.021 A 
HETATM    5  C5  UNL     1      22.242   7.898  -2.026  1.00  0.00     0.017 C 
HETATM    6  C6  UNL     1      19.726   8.224  -2.270  1.00  0.00     0.017 C 
HETATM    7  C7  UNL     1      21.303   8.400  -4.257  1.00  0.00     0.129 A 
ENDROOT
BRANCH   7   8
HETATM    8  O1  UNL     1      20.370   9.329  -4.677  1.00  0.00    -0.394 OA
ATOM      9  H1  UNL     1      20.696  10.217  -4.771  1.00  0.00     0.210 HD
ENDBRANCH   7   8
TORSDOF 1
ENDMDL
