MODEL 1
REMARK VINA RESULT: -4.352117453      0.000      0.000
REMARK  4 active torsions:
REMARK  status: ('A' for Active; 'I' for Inactive)
REMARK    1  A    between atoms: N1_2  and  N2_3 
REMARK    2  A    between atoms: N1_2  and  S1_6 
REMARK    3  A    between atoms: S1_6  and  N3_9 
REMARK    4  A    between atoms: N3_9  and  C2_11 
ROOT
HETATM    1  N3  UNL     1      20.559   8.088  -4.112  1.00  0.00    -0.301 N 
ATOM      2  H3  UNL     1      19.833   7.750  -4.743  1.00  0.00     0.173 HD
ENDROOT
BRANCH   1   3
HETATM    3  S1  UNL     1      21.861   9.044  -4.623  1.00  0.00     0.315 S 
HETATM    4  O1  UNL     1      22.132  10.079  -3.540  1.00  0.00    -0.187 OA
HETATM    5  O2  UNL     1      23.090   8.193  -4.709  1.00  0.00    -0.187 OA
BRANCH   3   6
HETATM    6  N1  UNL     1      21.613   9.854  -6.100  1.00  0.00    -0.114 NA
HETATM    7  C1  UNL     1      21.948  11.260  -6.049  1.00  0.00     0.157 C 
BRANCH   6   8
HETATM    8  N2  UNL     1      20.331   9.716  -6.610  1.00  0.00    -0.349 NA
ATOM      9  H22 UNL     1      19.828  10.598  -6.714  1.00  0.00     0.172 HD
ATOM     10  H21 UNL     1      20.375   9.171  -7.471  1.00  0.00     0.172 HD
ENDBRANCH   6   8
ENDBRANCH   3   6
ENDBRANCH   1   3
BRANCH   1  11
HETATM   11  C2  UNL     1      20.575   7.797  -2.693  1.00  0.00     0.094 C 
HETATM   12  C3  UNL     1      19.348   8.194  -1.982  1.00  0.00     0.026 C 
HETATM   13  C4  UNL     1      18.318   7.123  -1.796  1.00  0.00     0.002 C 
HETATM   14  C5  UNL     1      18.787   5.945  -1.013  1.00  0.00     0.000 C 
HETATM   15  C6  UNL     1      19.246   4.796  -1.889  1.00  0.00     0.000 C 
HETATM   16  C7  UNL     1      19.963   5.398  -3.082  1.00  0.00     0.002 C 
HETATM   17  C8  UNL     1      20.979   6.358  -2.535  1.00  0.00     0.026 C 
ENDBRANCH   1  11
TORSDOF 4
ENDMDL
MODEL 2
REMARK VINA RESULT: -4.324023684      0.950      1.154
REMARK  4 active torsions:
REMARK  status: ('A' for Active; 'I' for Inactive)
REMARK    1  A    between atoms: N1_2  and  N2_3 
REMARK    2  A    between atoms: N1_2  and  S1_6 
REMARK    3  A    between atoms: S1_6  and  N3_9 
REMARK    4  A    between atoms: N3_9  and  C2_11 
ROOT
HETATM    1  N3  UNL     1      20.438   8.216  -3.522  1.00  0.00    -0.301 N 
ATOM      2  H3  UNL     1      19.735   8.037  -4.239  1.00  0.00     0.173 HD
ENDROOT
BRANCH   1   3
HETATM    3  S1  UNL     1      21.835   9.132  -3.803  1.00  0.00     0.315 S 
HETATM    4  O1  UNL     1      22.269   9.738  -2.476  1.00  0.00    -0.187 OA
HETATM    5  O2  UNL     1      22.942   8.219  -4.231  1.00  0.00    -0.187 OA
BRANCH   3   6
HETATM    6  N1  UNL     1      21.648  10.387  -4.939  1.00  0.00    -0.114 NA
HETATM    7  C1  UNL     1      21.521   9.917  -6.300  1.00  0.00     0.157 C 
BRANCH   6   8
HETATM    8  N2  UNL     1      22.648  11.347  -4.887  1.00  0.00    -0.349 NA
ATOM      9  H22 UNL     1      22.328  12.263  -4.570  1.00  0.00     0.172 HD
ATOM     10  H21 UNL     1      23.430  10.981  -4.346  1.00  0.00     0.172 HD
ENDBRANCH   6   8
ENDBRANCH   3   6
ENDBRANCH   1   3
BRANCH   1  11
HETATM   11  C2  UNL     1      20.337   7.711  -2.168  1.00  0.00     0.094 C 
HETATM   12  C3  UNL     1      19.027   7.938  -1.537  1.00  0.00     0.026 C 
HETATM   13  C4  UNL     1      18.052   6.805  -1.618  1.00  0.00     0.002 C 
HETATM   14  C5  UNL     1      18.515   5.543  -0.974  1.00  0.00     0.000 C 
HETATM   15  C6  UNL     1      19.125   4.565  -1.958  1.00  0.00     0.000 C 
HETATM   16  C7  UNL     1      19.913   5.375  -2.969  1.00  0.00     0.002 C 
HETATM   17  C8  UNL     1      20.812   6.286  -2.184  1.00  0.00     0.026 C 
ENDBRANCH   1  11
TORSDOF 4
ENDMDL
MODEL 3
REMARK VINA RESULT: -4.244510252      3.048      3.973
REMARK  4 active torsions:
REMARK  status: ('A' for Active; 'I' for Inactive)
REMARK    1  A    between atoms: N1_2  and  N2_3 
REMARK    2  A    between atoms: N1_2  and  S1_6 
REMARK    3  A    between atoms: S1_6  and  N3_9 
REMARK    4  A    between atoms: N3_9  and  C2_11 
ROOT
HETATM    1  N3  UNL     1      21.979   6.085  -2.334  1.00  0.00    -0.301 N 
ATOM      2  H3  UNL     1      22.119   6.183  -1.329  1.00  0.00     0.173 HD
ENDROOT
BRANCH   1   3
HETATM    3  S1  UNL     1      23.256   6.020  -3.446  1.00  0.00     0.315 S 
HETATM    4  O1  UNL     1      23.008   7.087  -4.502  1.00  0.00    -0.187 OA
HETATM    5  O2  UNL     1      24.528   6.401  -2.753  1.00  0.00    -0.187 OA
BRANCH   3   6
HETATM    6  N1  UNL     1      23.448   4.518  -4.224  1.00  0.00    -0.114 NA
HETATM    7  C1  UNL     1      22.804   4.452  -5.517  1.00  0.00     0.157 C 
BRANCH   6   8
HETATM    8  N2  UNL     1      23.038   3.433  -3.463  1.00  0.00    -0.349 NA
ATOM      9  H22 UNL     1      22.366   3.668  -2.732  1.00  0.00     0.172 HD
ATOM     10  H21 UNL     1      22.716   2.694  -4.088  1.00  0.00     0.172 HD
ENDBRANCH   6   8
ENDBRANCH   3   6
ENDBRANCH   1   3
BRANCH   1  11
HETATM   11  C2  UNL     1      20.670   5.987  -2.948  1.00  0.00     0.094 C 
HETATM   12  C3  UNL     1      19.871   4.842  -2.481  1.00  0.00     0.026 C 
HETATM   13  C4  UNL     1      18.902   5.122  -1.374  1.00  0.00     0.002 C 
HETATM   14  C5  UNL     1      17.863   6.138  -1.704  1.00  0.00     0.000 C 
HETATM   15  C6  UNL     1      18.217   7.528  -1.211  1.00  0.00     0.000 C 
HETATM   16  C7  UNL     1      19.710   7.707  -1.399  1.00  0.00     0.002 C 
HETATM   17  C8  UNL     1      20.013   7.332  -2.821  1.00  0.00     0.026 C 
ENDBRANCH   1  11
TORSDOF 4
ENDMDL
MODEL 4
REMARK VINA RESULT: -4.216051417      2.847      5.292
REMARK  4 active torsions:
REMARK  status: ('A' for Active; 'I' for Inactive)
REMARK    1  A    between atoms: N1_2  and  N2_3 
REMARK    2  A    between atoms: N1_2  and  S1_6 
REMARK    3  A    between atoms: S1_6  and  N3_9 
REMARK    4  A    between atoms: N3_9  and  C2_11 
ROOT
HETATM    1  N3  UNL     1      20.796   7.291  -4.393  1.00  0.00    -0.301 N 
ATOM      2  H3  UNL     1      19.965   7.106  -4.956  1.00  0.00     0.173 HD
ENDROOT
BRANCH   1   3
HETATM    3  S1  UNL     1      20.854   7.050  -2.717  1.00  0.00     0.315 S 
HETATM    4  O1  UNL     1      20.468   5.605  -2.441  1.00  0.00    -0.187 OA
HETATM    5  O2  UNL     1      22.268   7.207  -2.248  1.00  0.00    -0.187 OA
BRANCH   3   6
HETATM    6  N1  UNL     1      19.830   8.068  -1.816  1.00  0.00    -0.114 NA
HETATM    7  C1  UNL     1      18.599   7.430  -1.404  1.00  0.00     0.157 C 
BRANCH   6   8
HETATM    8  N2  UNL     1      19.524   9.265  -2.449  1.00  0.00    -0.349 NA
ATOM      9  H22 UNL     1      19.122   9.970  -1.832  1.00  0.00     0.172 HD
ATOM     10  H21 UNL     1      20.348   9.589  -2.955  1.00  0.00     0.172 HD
ENDBRANCH   6   8
ENDBRANCH   3   6
ENDBRANCH   1   3
BRANCH   1  11
HETATM   11  C2  UNL     1      22.039   7.784  -4.952  1.00  0.00     0.094 C 
HETATM   12  C3  UNL     1      22.626   6.909  -5.980  1.00  0.00     0.026 C 
HETATM   13  C4  UNL     1      22.302   7.254  -7.401  1.00  0.00     0.002 C 
HETATM   14  C5  UNL     1      22.750   8.610  -7.826  1.00  0.00     0.000 C 
HETATM   15  C6  UNL     1      21.650   9.650  -7.740  1.00  0.00     0.000 C 
HETATM   16  C7  UNL     1      20.835   9.344  -6.500  1.00  0.00     0.002 C 
HETATM   17  C8  UNL     1      21.810   9.210  -5.366  1.00  0.00     0.026 C 
ENDBRANCH   1  11
TORSDOF 4
ENDMDL
MODEL 5
REMARK VINA RESULT: -4.166250752      3.465      5.411
REMARK  4 active torsions:
REMARK  status: ('A' for Active; 'I' for Inactive)
REMARK    1  A    between atoms: N1_2  and  N2_3 
REMARK    2  A    between atoms: N1_2  and  S1_6 
REMARK    3  A    between atoms: S1_6  and  N3_9 
REMARK    4  A    between atoms: N3_9  and  C2_11 
ROOT
HETATM    1  N3  UNL     1      19.472   7.779  -2.793  1.00  0.00    -0.301 N 
ATOM      2  H3  UNL     1      19.140   7.798  -3.757  1.00  0.00     0.173 HD
ENDROOT
BRANCH   1   3
HETATM    3  S1  UNL     1      18.794   6.788  -1.597  1.00  0.00     0.315 S 
HETATM    4  O1  UNL     1      18.952   7.497  -0.260  1.00  0.00    -0.187 OA
HETATM    5  O2  UNL     1      17.321   6.666  -1.839  1.00  0.00    -0.187 OA
BRANCH   3   6
HETATM    6  N1  UNL     1      19.491   5.239  -1.477  1.00  0.00    -0.114 NA
HETATM    7  C1  UNL     1      20.276   4.869  -2.633  1.00  0.00     0.157 C 
BRANCH   6   8
HETATM    8  N2  UNL     1      18.577   4.229  -1.213  1.00  0.00    -0.349 NA
ATOM      9  H22 UNL     1      18.387   4.091  -0.220  1.00  0.00     0.172 HD
ATOM     10  H21 UNL     1      17.738   4.390  -1.768  1.00  0.00     0.172 HD
ENDBRANCH   6   8
ENDBRANCH   3   6
ENDBRANCH   1   3
BRANCH   1  11
HETATM   11  C2  UNL     1      20.568   8.597  -2.315  1.00  0.00     0.094 C 
HETATM   12  C3  UNL     1      21.842   7.875  -2.173  1.00  0.00     0.026 C 
HETATM   13  C4  UNL     1      22.787   7.971  -3.331  1.00  0.00     0.002 C 
HETATM   14  C5  UNL     1      23.228   9.356  -3.657  1.00  0.00     0.000 C 
HETATM   15  C6  UNL     1      22.421   9.988  -4.774  1.00  0.00     0.000 C 
HETATM   16  C7  UNL     1      20.982   9.543  -4.599  1.00  0.00     0.002 C 
HETATM   17  C8  UNL     1      20.613   9.831  -3.172  1.00  0.00     0.026 C 
ENDBRANCH   1  11
TORSDOF 4
ENDMDL
