MODEL 1
REMARK VINA RESULT: -4.364960704      0.000      0.000
REMARK  3 active torsions:
REMARK  status: ('A' for Active; 'I' for Inactive)
REMARK    1  A    between atoms: C2_2  and  C3_3 
REMARK    2  A    between atoms: C3_3  and  N1_4 
REMARK       I    between atoms: N2_7  and  C6_8 
REMARK    3  A    between atoms: C8_14  and  C9_15 
ROOT
HETATM    1  N1  UNL     1      22.313   7.841  -4.551  1.00  0.00     0.100 N 
HETATM    2  C4  UNL     1      23.626   7.336  -4.785  1.00  0.00     0.293 C 
HETATM    3  C5  UNL     1      24.085   6.358  -3.726  1.00  0.00     0.156 C 
HETATM    4  N2  UNL     1      23.919   6.897  -2.393  1.00  0.00    -0.352 N 
HETATM    5  C6  UNL     1      24.784   6.628  -1.325  1.00  0.00     0.184 C 
HETATM    6  N3  UNL     1      24.469   5.695  -0.474  1.00  0.00    -0.374 N 
ATOM      7  H31 UNL     1      25.099   5.499   0.304  1.00  0.00     0.158 HD
ATOM      8  H32 UNL     1      23.609   5.154  -0.566  1.00  0.00     0.158 HD
HETATM    9  N4  UNL     1      25.980   7.381  -1.197  1.00  0.00    -0.064 NA
HETATM   10  C7  UNL     1      22.740   7.777  -2.240  1.00  0.00     0.161 C 
HETATM   11  C8  UNL     1      21.786   7.331  -3.325  1.00  0.00     0.245 C 
ENDROOT
BRANCH  11  12
HETATM   12  C9  UNL     1      20.360   7.674  -3.080  1.00  0.00     0.025 A 
HETATM   13  C10 UNL     1      19.959   9.050  -2.671  1.00  0.00     0.012 A 
HETATM   14  C11 UNL     1      19.856   7.921  -1.698  1.00  0.00    -0.012 A 
HETATM   15  C12 UNL     1      18.433   7.441  -1.362  1.00  0.00     0.010 C 
ENDBRANCH  11  12
BRANCH   1  16
HETATM   16  C3  UNL     1      21.505   7.665  -5.707  1.00  0.00     0.299 C 
BRANCH  16  17
HETATM   17  C2  UNL     1      21.190   8.926  -6.437  1.00  0.00    -0.007 C 
HETATM   18  C1  UNL     1      21.560  10.116  -5.984  1.00  0.00     0.008 C 
ENDBRANCH  16  17
ENDBRANCH   1  16
TORSDOF 3
ENDMDL
MODEL 2
REMARK VINA RESULT: -4.339806178      1.163      1.455
REMARK  3 active torsions:
REMARK  status: ('A' for Active; 'I' for Inactive)
REMARK    1  A    between atoms: C2_2  and  C3_3 
REMARK    2  A    between atoms: C3_3  and  N1_4 
REMARK       I    between atoms: N2_7  and  C6_8 
REMARK    3  A    between atoms: C8_14  and  C9_15 
ROOT
HETATM    1  N1  UNL     1      22.520   6.908  -3.833  1.00  0.00     0.100 N 
HETATM    2  C4  UNL     1      23.858   6.471  -3.613  1.00  0.00     0.293 C 
HETATM    3  C5  UNL     1      24.199   6.305  -2.149  1.00  0.00     0.156 C 
HETATM    4  N2  UNL     1      23.861   7.489  -1.386  1.00  0.00    -0.352 N 
HETATM    5  C6  UNL     1      24.592   7.945  -0.282  1.00  0.00     0.184 C 
HETATM    6  N3  UNL     1      24.190   7.635   0.916  1.00  0.00    -0.374 N 
ATOM      7  H31 UNL     1      24.723   7.966   1.721  1.00  0.00     0.158 HD
ATOM      8  H32 UNL     1      23.356   7.067   1.072  1.00  0.00     0.158 HD
HETATM    9  N4  UNL     1      25.752   8.734  -0.497  1.00  0.00    -0.064 NA
HETATM   10  C7  UNL     1      22.660   8.198  -1.873  1.00  0.00     0.161 C 
HETATM   11  C8  UNL     1      21.853   7.140  -2.590  1.00  0.00     0.245 C 
ENDROOT
BRANCH  11  12
HETATM   12  C9  UNL     1      20.403   7.441  -2.718  1.00  0.00     0.025 A 
HETATM   13  C10 UNL     1      19.901   8.843  -2.664  1.00  0.00     0.012 A 
HETATM   14  C11 UNL     1      19.607   7.900  -1.543  1.00  0.00    -0.012 A 
HETATM   15  C12 UNL     1      18.153   7.409  -1.430  1.00  0.00     0.010 C 
ENDBRANCH  11  12
BRANCH   1  16
HETATM   16  C3  UNL     1      21.862   6.042  -4.749  1.00  0.00     0.299 C 
BRANCH  16  17
HETATM   17  C2  UNL     1      21.640   6.629  -6.101  1.00  0.00    -0.007 C 
HETATM   18  C1  UNL     1      21.563   7.938  -6.299  1.00  0.00     0.008 C 
ENDBRANCH  16  17
ENDBRANCH   1  16
TORSDOF 3
ENDMDL
MODEL 3
REMARK VINA RESULT: -4.336951770      1.798      1.988
REMARK  3 active torsions:
REMARK  status: ('A' for Active; 'I' for Inactive)
REMARK    1  A    between atoms: C2_2  and  C3_3 
REMARK    2  A    between atoms: C3_3  and  N1_4 
REMARK       I    between atoms: N2_7  and  C6_8 
REMARK    3  A    between atoms: C8_14  and  C9_15 
ROOT
HETATM    1  N1  UNL     1      21.778   8.457  -5.123  1.00  0.00     0.100 N 
HETATM    2  C4  UNL     1      22.707   7.778  -5.964  1.00  0.00     0.293 C 
HETATM    3  C5  UNL     1      22.764   6.288  -5.708  1.00  0.00     0.156 C 
HETATM    4  N2  UNL     1      22.959   5.995  -4.303  1.00  0.00    -0.352 N 
HETATM    5  C6  UNL     1      23.695   4.904  -3.824  1.00  0.00     0.184 C 
HETATM    6  N3  UNL     1      23.066   3.820  -3.477  1.00  0.00    -0.374 N 
ATOM      7  H31 UNL     1      23.602   3.024  -3.128  1.00  0.00     0.158 HD
ATOM      8  H32 UNL     1      22.051   3.743  -3.545  1.00  0.00     0.158 HD
HETATM    9  N4  UNL     1      25.107   5.010  -3.729  1.00  0.00    -0.064 NA
HETATM   10  C7  UNL     1      22.310   6.960  -3.390  1.00  0.00     0.161 C 
HETATM   11  C8  UNL     1      21.176   7.549  -4.198  1.00  0.00     0.245 C 
ENDROOT
BRANCH  11  12
HETATM   12  C9  UNL     1      20.074   8.136  -3.390  1.00  0.00     0.025 A 
HETATM   13  C10 UNL     1      20.341   9.211  -2.393  1.00  0.00     0.012 A 
HETATM   14  C11 UNL     1      19.951   7.845  -1.932  1.00  0.00    -0.012 A 
HETATM   15  C12 UNL     1      18.533   7.701  -1.351  1.00  0.00     0.010 C 
ENDBRANCH  11  12
BRANCH   1  16
HETATM   16  C3  UNL     1      20.888   9.243  -5.905  1.00  0.00     0.299 C 
BRANCH  16  17
HETATM   17  C2  UNL     1      21.556  10.274  -6.748  1.00  0.00    -0.007 C 
HETATM   18  C1  UNL     1      21.980  11.428  -6.251  1.00  0.00     0.008 C 
ENDBRANCH  16  17
ENDBRANCH   1  16
TORSDOF 3
ENDMDL
MODEL 4
REMARK VINA RESULT: -4.311663172      2.390      4.945
REMARK  3 active torsions:
REMARK  status: ('A' for Active; 'I' for Inactive)
REMARK    1  A    between atoms: C2_2  and  C3_3 
REMARK    2  A    between atoms: C3_3  and  N1_4 
REMARK       I    between atoms: N2_7  and  C6_8 
REMARK    3  A    between atoms: C8_14  and  C9_15 
ROOT
HETATM    1  N1  UNL     1      20.678   7.744  -2.362  1.00  0.00     0.100 N 
HETATM    2  C4  UNL     1      20.035   8.914  -2.860  1.00  0.00     0.293 C 
HETATM    3  C5  UNL     1      20.448   9.265  -4.273  1.00  0.00     0.156 C 
HETATM    4  N2  UNL     1      21.888   9.313  -4.411  1.00  0.00    -0.352 N 
HETATM    5  C6  UNL     1      22.565  10.195  -5.262  1.00  0.00     0.184 C 
HETATM    6  N3  UNL     1      22.940   9.781  -6.437  1.00  0.00    -0.374 N 
ATOM      7  H31 UNL     1      23.433  10.424  -7.057  1.00  0.00     0.158 HD
ATOM      8  H32 UNL     1      22.752   8.829  -6.755  1.00  0.00     0.158 HD
HETATM    9  N4  UNL     1      22.826  11.519  -4.820  1.00  0.00    -0.064 NA
HETATM   10  C7  UNL     1      22.608   8.338  -3.565  1.00  0.00     0.161 C 
HETATM   11  C8  UNL     1      21.608   7.231  -3.318  1.00  0.00     0.245 C 
ENDROOT
BRANCH  11  12
HETATM   12  C9  UNL     1      22.206   5.920  -2.952  1.00  0.00     0.025 A 
HETATM   13  C10 UNL     1      23.615   5.824  -2.477  1.00  0.00     0.012 A 
HETATM   14  C11 UNL     1      23.240   5.279  -3.816  1.00  0.00    -0.012 A 
HETATM   15  C12 UNL     1      23.212   3.746  -3.943  1.00  0.00     0.010 C 
ENDBRANCH  11  12
BRANCH   1  16
HETATM   16  C3  UNL     1      19.714   6.825  -1.865  1.00  0.00     0.299 C 
BRANCH  16  17
HETATM   17  C2  UNL     1      18.399   7.438  -1.522  1.00  0.00    -0.007 C 
HETATM   18  C1  UNL     1      17.267   6.746  -1.550  1.00  0.00     0.008 C 
ENDBRANCH  16  17
ENDBRANCH   1  16
TORSDOF 3
ENDMDL
MODEL 5
REMARK VINA RESULT: -4.259728252      2.379      4.944
REMARK  3 active torsions:
REMARK  status: ('A' for Active; 'I' for Inactive)
REMARK    1  A    between atoms: C2_2  and  C3_3 
REMARK    2  A    between atoms: C3_3  and  N1_4 
REMARK       I    between atoms: N2_7  and  C6_8 
REMARK    3  A    between atoms: C8_14  and  C9_15 
ROOT
HETATM    1  N1  UNL     1      20.909   8.327  -2.586  1.00  0.00     0.100 N 
HETATM    2  C4  UNL     1      20.227   9.188  -3.494  1.00  0.00     0.293 C 
HETATM    3  C5  UNL     1      21.008   9.455  -4.762  1.00  0.00     0.156 C 
HETATM    4  N2  UNL     1      22.357   9.895  -4.476  1.00  0.00    -0.352 N 
HETATM    5  C6  UNL     1      23.064  10.816  -5.259  1.00  0.00     0.184 C 
HETATM    6  N3  UNL     1      23.903  10.376  -6.151  1.00  0.00    -0.374 N 
ATOM      7  H31 UNL     1      24.418  11.047  -6.722  1.00  0.00     0.158 HD
ATOM      8  H32 UNL     1      24.058   9.378  -6.295  1.00  0.00     0.158 HD
HETATM    9  N4  UNL     1      22.849  12.204  -5.058  1.00  0.00    -0.064 NA
HETATM   10  C7  UNL     1      22.945   9.286  -3.264  1.00  0.00     0.161 C 
HETATM   11  C8  UNL     1      22.201   7.982  -3.089  1.00  0.00     0.245 C 
ENDROOT
BRANCH  11  12
HETATM   12  C9  UNL     1      22.920   6.957  -2.287  1.00  0.00     0.025 A 
HETATM   13  C10 UNL     1      23.809   7.349  -1.157  1.00  0.00     0.012 A 
HETATM   14  C11 UNL     1      24.396   6.783  -2.408  1.00  0.00    -0.012 A 
HETATM   15  C12 UNL     1      24.957   5.353  -2.310  1.00  0.00     0.010 C 
ENDBRANCH  11  12
BRANCH   1  16
HETATM   16  C3  UNL     1      20.069   7.243  -2.209  1.00  0.00     0.299 C 
BRANCH  16  17
HETATM   17  C2  UNL     1      18.929   7.624  -1.329  1.00  0.00    -0.007 C 
HETATM   18  C1  UNL     1      17.736   7.055  -1.430  1.00  0.00     0.008 C 
ENDBRANCH  16  17
ENDBRANCH   1  16
TORSDOF 3
ENDMDL
