MODEL 1
REMARK VINA RESULT: -4.162129432      0.000      0.000
REMARK  0 active torsions:
REMARK  status: ('A' for Active; 'I' for Inactive)
ROOT
HETATM    1  C1  UNL     1      21.859   9.805  -8.080  1.00  0.00     0.172 C 
HETATM    2  N1  UNL     1      21.469   9.840  -6.667  1.00  0.00    -0.318 N 
HETATM    3  C2  UNL     1      22.457   9.829  -5.625  1.00  0.00     0.146 C 
HETATM    4  C3  UNL     1      22.097   9.008  -4.436  1.00  0.00     0.054 C 
HETATM    5  C4  UNL     1      20.659   8.688  -4.289  1.00  0.00     0.048 C 
HETATM    6  C5  UNL     1      20.503   7.165  -4.388  1.00  0.00     0.032 C 
HETATM    7  C6  UNL     1      20.883   6.772  -2.959  1.00  0.00     0.002 C 
HETATM    8  C7  UNL     1      19.993   7.716  -2.169  1.00  0.00     0.002 C 
HETATM    9  C8  UNL     1      20.168   9.023  -2.885  1.00  0.00     0.032 C 
HETATM   10  N2  UNL     1      19.790   9.357  -5.212  1.00  0.00    -0.312 N 
ATOM     11  H2  UNL     1      18.803   9.405  -4.961  1.00  0.00     0.182 HD
HETATM   12  N3  UNL     1      20.123   9.887  -6.292  1.00  0.00    -0.249 N 
ATOM     13  H3  UNL     1      19.430  10.342  -6.887  1.00  0.00     0.207 HD
ENDROOT
TORSDOF 0
ENDMDL
MODEL 2
REMARK VINA RESULT: -3.992797583      2.575      4.617
REMARK  0 active torsions:
REMARK  status: ('A' for Active; 'I' for Inactive)
ROOT
HETATM    1  C1  UNL     1      17.770   5.722  -1.569  1.00  0.00     0.172 C 
HETATM    2  N1  UNL     1      19.002   6.452  -1.889  1.00  0.00    -0.318 N 
HETATM    3  C2  UNL     1      19.152   7.837  -1.543  1.00  0.00     0.146 C 
HETATM    4  C3  UNL     1      19.854   8.660  -2.567  1.00  0.00     0.054 C 
HETATM    5  C4  UNL     1      20.659   7.907  -3.554  1.00  0.00     0.048 C 
HETATM    6  C5  UNL     1      20.049   8.145  -4.942  1.00  0.00     0.032 C 
HETATM    7  C6  UNL     1      20.666   9.507  -5.265  1.00  0.00     0.002 C 
HETATM    8  C7  UNL     1      22.128   9.225  -4.965  1.00  0.00     0.002 C 
HETATM    9  C8  UNL     1      22.066   8.483  -3.662  1.00  0.00     0.032 C 
HETATM   10  N2  UNL     1      20.796   6.505  -3.285  1.00  0.00    -0.312 N 
ATOM     11  H2  UNL     1      21.564   6.021  -3.747  1.00  0.00     0.182 HD
HETATM   12  N3  UNL     1      20.065   5.820  -2.540  1.00  0.00    -0.249 N 
ATOM     13  H3  UNL     1      20.240   4.823  -2.409  1.00  0.00     0.207 HD
ENDROOT
TORSDOF 0
ENDMDL
MODEL 3
REMARK VINA RESULT: -3.973517018      1.538      2.254
REMARK  0 active torsions:
REMARK  status: ('A' for Active; 'I' for Inactive)
ROOT
HETATM    1  C1  UNL     1      22.675  11.123  -6.019  1.00  0.00     0.172 C 
HETATM    2  N1  UNL     1      22.115   9.861  -5.524  1.00  0.00    -0.318 N 
HETATM    3  C2  UNL     1      20.825   9.404  -5.956  1.00  0.00     0.146 C 
HETATM    4  C3  UNL     1      20.002   8.767  -4.890  1.00  0.00     0.054 C 
HETATM    5  C4  UNL     1      20.745   8.306  -3.695  1.00  0.00     0.048 C 
HETATM    6  C5  UNL     1      20.243   9.109  -2.488  1.00  0.00     0.032 C 
HETATM    7  C6  UNL     1      18.966   8.329  -2.171  1.00  0.00     0.002 C 
HETATM    8  C7  UNL     1      19.511   6.911  -2.141  1.00  0.00     0.002 C 
HETATM    9  C8  UNL     1      20.390   6.863  -3.357  1.00  0.00     0.032 C 
HETATM   10  N2  UNL     1      22.173   8.376  -3.803  1.00  0.00    -0.312 N 
ATOM     11  H2  UNL     1      22.712   7.806  -3.152  1.00  0.00     0.182 HD
HETATM   12  N3  UNL     1      22.822   9.067  -4.616  1.00  0.00    -0.249 N 
ATOM     13  H3  UNL     1      23.842   9.053  -4.617  1.00  0.00     0.207 HD
ENDROOT
TORSDOF 0
ENDMDL
MODEL 4
REMARK VINA RESULT: -3.948697209      3.493      4.025
REMARK  0 active torsions:
REMARK  status: ('A' for Active; 'I' for Inactive)
ROOT
HETATM    1  C1  UNL     1      24.487   5.674  -4.713  1.00  0.00     0.172 C 
HETATM    2  N1  UNL     1      23.113   5.611  -4.204  1.00  0.00    -0.318 N 
HETATM    3  C2  UNL     1      22.000   5.986  -5.029  1.00  0.00     0.146 C 
HETATM    4  C3  UNL     1      20.925   6.733  -4.318  1.00  0.00     0.054 C 
HETATM    5  C4  UNL     1      20.926   6.612  -2.843  1.00  0.00     0.048 C 
HETATM    6  C5  UNL     1      21.178   8.007  -2.255  1.00  0.00     0.032 C 
HETATM    7  C6  UNL     1      19.765   8.586  -2.349  1.00  0.00     0.002 C 
HETATM    8  C7  UNL     1      18.967   7.469  -1.698  1.00  0.00     0.002 C 
HETATM    9  C8  UNL     1      19.543   6.234  -2.326  1.00  0.00     0.032 C 
HETATM   10  N2  UNL     1      21.852   5.654  -2.312  1.00  0.00    -0.312 N 
ATOM     11  H2  UNL     1      21.680   5.326  -1.363  1.00  0.00     0.182 HD
HETATM   12  N3  UNL     1      22.848   5.183  -2.899  1.00  0.00    -0.249 N 
ATOM     13  H3  UNL     1      23.453   4.503  -2.439  1.00  0.00     0.207 HD
ENDROOT
TORSDOF 0
ENDMDL
MODEL 5
REMARK VINA RESULT: -3.944367088      3.163      4.347
REMARK  0 active torsions:
REMARK  status: ('A' for Active; 'I' for Inactive)
ROOT
HETATM    1  C1  UNL     1      24.039   4.431  -3.774  1.00  0.00     0.172 C 
HETATM    2  N1  UNL     1      22.898   5.148  -3.194  1.00  0.00    -0.318 N 
HETATM    3  C2  UNL     1      21.564   4.930  -3.677  1.00  0.00     0.146 C 
HETATM    4  C3  UNL     1      20.724   6.158  -3.755  1.00  0.00     0.054 C 
HETATM    5  C4  UNL     1      21.192   7.308  -2.949  1.00  0.00     0.048 C 
HETATM    6  C5  UNL     1      21.536   8.451  -3.914  1.00  0.00     0.032 C 
HETATM    7  C6  UNL     1      20.134   9.011  -4.161  1.00  0.00     0.002 C 
HETATM    8  C7  UNL     1      19.642   9.162  -2.732  1.00  0.00     0.002 C 
HETATM    9  C8  UNL     1      20.062   7.870  -2.094  1.00  0.00     0.032 C 
HETATM   10  N2  UNL     1      22.289   7.028  -2.070  1.00  0.00    -0.312 N 
ATOM     11  H2  UNL     1      22.441   7.681  -1.302  1.00  0.00     0.182 HD
HETATM   12  N3  UNL     1      23.077   6.063  -2.152  1.00  0.00    -0.249 N 
ATOM     13  H3  UNL     1      23.832   5.946  -1.477  1.00  0.00     0.207 HD
ENDROOT
TORSDOF 0
ENDMDL
