MODEL 1
REMARK VINA RESULT: -4.816540082      0.000      0.000
REMARK  2 active torsions:
REMARK  status: ('A' for Active; 'I' for Inactive)
REMARK    1  A    between atoms: C1_1  and  C6_6 
REMARK    2  A    between atoms: C2_2  and  C3_3 
ROOT
HETATM    1  C6  UNL     1       3.896   4.791  -3.015  1.00  0.00     0.065 C 
HETATM    2  C7  UNL     1       4.269   5.907  -3.979  1.00  0.00     0.017 C 
HETATM    3  C8  UNL     1       2.886   6.534  -4.199  1.00  0.00     0.001 C 
HETATM    4  C9  UNL     1       2.152   6.355  -2.898  1.00  0.00     0.001 C 
HETATM    5  C10 UNL     1       3.103   5.586  -1.976  1.00  0.00     0.017 C 
ENDROOT
BRANCH   1   6
HETATM    6  C1  UNL     1       5.041   4.146  -2.425  1.00  0.00    -0.101 C 
HETATM    7  C2  UNL     1       5.993   3.633  -1.933  1.00  0.00    -0.101 C 
BRANCH   7   8
HETATM    8  C3  UNL     1       7.179   3.021  -1.313  1.00  0.00     0.065 A 
HETATM    9  C4  UNL     1       8.279   3.970  -0.829  1.00  0.00     0.018 A 
HETATM   10  C5  UNL     1       8.482   3.061  -1.997  1.00  0.00     0.018 A 
ENDBRANCH   7   8
ENDBRANCH   1   6
TORSDOF 2
ENDMDL
MODEL 2
REMARK VINA RESULT: -4.379812086      0.952      1.260
REMARK  2 active torsions:
REMARK  status: ('A' for Active; 'I' for Inactive)
REMARK    1  A    between atoms: C1_1  and  C6_6 
REMARK    2  A    between atoms: C2_2  and  C3_3 
ROOT
HETATM    1  C6  UNL     1       3.986   5.696  -3.932  1.00  0.00     0.065 C 
HETATM    2  C7  UNL     1       4.248   7.170  -3.664  1.00  0.00     0.017 C 
HETATM    3  C8  UNL     1       3.144   7.793  -4.527  1.00  0.00     0.001 C 
HETATM    4  C9  UNL     1       2.000   6.816  -4.483  1.00  0.00     0.001 C 
HETATM    5  C10 UNL     1       2.485   5.632  -3.642  1.00  0.00     0.017 C 
ENDROOT
BRANCH   1   6
HETATM    6  C1  UNL     1       4.730   4.821  -3.063  1.00  0.00    -0.101 C 
HETATM    7  C2  UNL     1       5.356   4.115  -2.341  1.00  0.00    -0.101 C 
BRANCH   7   8
HETATM    8  C3  UNL     1       6.145   3.261  -1.439  1.00  0.00     0.065 A 
HETATM    9  C4  UNL     1       7.466   3.835  -0.916  1.00  0.00     0.018 A 
HETATM   10  C5  UNL     1       7.430   2.696  -1.882  1.00  0.00     0.018 A 
ENDBRANCH   7   8
ENDBRANCH   1   6
TORSDOF 2
ENDMDL
MODEL 3
REMARK VINA RESULT: -4.188853086      0.907      1.258
REMARK  2 active torsions:
REMARK  status: ('A' for Active; 'I' for Inactive)
REMARK    1  A    between atoms: C1_1  and  C6_6 
REMARK    2  A    between atoms: C2_2  and  C3_3 
ROOT
HETATM    1  C6  UNL     1       3.951   5.880  -2.434  1.00  0.00     0.065 C 
HETATM    2  C7  UNL     1       2.982   5.345  -3.477  1.00  0.00     0.017 C 
HETATM    3  C8  UNL     1       2.298   6.653  -3.894  1.00  0.00     0.001 C 
HETATM    4  C9  UNL     1       3.356   7.717  -3.765  1.00  0.00     0.001 C 
HETATM    5  C10 UNL     1       4.605   7.011  -3.229  1.00  0.00     0.017 C 
ENDROOT
BRANCH   1   6
HETATM    6  C1  UNL     1       4.921   4.904  -2.009  1.00  0.00    -0.101 C 
HETATM    7  C2  UNL     1       5.736   4.114  -1.658  1.00  0.00    -0.101 C 
BRANCH   7   8
HETATM    8  C3  UNL     1       6.763   3.155  -1.218  1.00  0.00     0.065 A 
HETATM    9  C4  UNL     1       8.110   3.733  -0.774  1.00  0.00     0.018 A 
HETATM   10  C5  UNL     1       7.972   2.933  -2.028  1.00  0.00     0.018 A 
ENDBRANCH   7   8
ENDBRANCH   1   6
TORSDOF 2
ENDMDL
MODEL 4
REMARK VINA RESULT: -4.156544730      2.322      5.301
REMARK  2 active torsions:
REMARK  status: ('A' for Active; 'I' for Inactive)
REMARK    1  A    between atoms: C1_1  and  C6_6 
REMARK    2  A    between atoms: C2_2  and  C3_3 
ROOT
HETATM    1  C6  UNL     1       6.275   4.502  -1.394  1.00  0.00     0.065 C 
HETATM    2  C7  UNL     1       6.519   3.001  -1.407  1.00  0.00     0.017 C 
HETATM    3  C8  UNL     1       8.009   2.982  -1.774  1.00  0.00     0.001 C 
HETATM    4  C9  UNL     1       8.591   4.222  -1.151  1.00  0.00     0.001 C 
HETATM    5  C10 UNL     1       7.421   4.953  -0.486  1.00  0.00     0.017 C 
ENDROOT
BRANCH   1   6
HETATM    6  C1  UNL     1       4.993   4.862  -0.844  1.00  0.00    -0.101 C 
HETATM    7  C2  UNL     1       3.945   5.160  -0.371  1.00  0.00    -0.101 C 
BRANCH   7   8
HETATM    8  C3  UNL     1       2.657   5.533   0.238  1.00  0.00     0.065 A 
HETATM    9  C4  UNL     1       2.641   5.746   1.754  1.00  0.00     0.018 A 
HETATM   10  C5  UNL     1       1.947   4.588   1.116  1.00  0.00     0.018 A 
ENDBRANCH   7   8
ENDBRANCH   1   6
TORSDOF 2
ENDMDL
MODEL 5
REMARK VINA RESULT: -4.142578957      1.112      5.265
REMARK  2 active torsions:
REMARK  status: ('A' for Active; 'I' for Inactive)
REMARK    1  A    between atoms: C1_1  and  C6_6 
REMARK    2  A    between atoms: C2_2  and  C3_3 
ROOT
HETATM    1  C6  UNL     1       5.520   4.521  -1.314  1.00  0.00     0.065 C 
HETATM    2  C7  UNL     1       6.556   5.626  -1.179  1.00  0.00     0.017 C 
HETATM    3  C8  UNL     1       7.683   4.845  -0.491  1.00  0.00     0.001 C 
HETATM    4  C9  UNL     1       7.582   3.441  -1.024  1.00  0.00     0.001 C 
HETATM    5  C10 UNL     1       6.372   3.430  -1.964  1.00  0.00     0.017 C 
ENDROOT
BRANCH   1   6
HETATM    6  C1  UNL     1       4.406   4.889  -2.150  1.00  0.00    -0.101 C 
HETATM    7  C2  UNL     1       3.501   5.200  -2.855  1.00  0.00    -0.101 C 
BRANCH   7   8
HETATM    8  C3  UNL     1       2.397   5.591  -3.746  1.00  0.00     0.065 A 
HETATM    9  C4  UNL     1       2.723   6.589  -4.861  1.00  0.00     0.018 A 
HETATM   10  C5  UNL     1       1.854   6.959  -3.703  1.00  0.00     0.018 A 
ENDBRANCH   7   8
ENDBRANCH   1   6
TORSDOF 2
ENDMDL
