MODEL 1
REMARK VINA RESULT: -4.280687001      0.000      0.000
REMARK  3 active torsions:
REMARK  status: ('A' for Active; 'I' for Inactive)
REMARK    1  A    between atoms: N1_1  and  C1_5 
REMARK    2  A    between atoms: C1_5  and  C2_6 
REMARK    3  A    between atoms: N2_8  and  O1_9 
ROOT
HETATM    1  C2  UNL     1     -46.959 -30.518 -18.181  1.00  0.00     0.126 A 
HETATM    2  C3  UNL     1     -46.075 -29.321 -18.208  1.00  0.00     0.144 A 
HETATM    3  N2  UNL     1     -45.941 -30.379 -19.187  1.00  0.00    -0.191 NA
ENDROOT
BRANCH   1   4
HETATM    4  C1  UNL     1     -46.712 -31.570 -17.135  1.00  0.00     0.252 C 
BRANCH   4   5
HETATM    5  N1  UNL     1     -47.787 -31.698 -16.196  1.00  0.00    -0.078 N 
ATOM      6  H13 UNL     1     -47.552 -31.245 -15.313  1.00  0.00     0.274 HD
ATOM      7  H12 UNL     1     -48.582 -31.121 -16.474  1.00  0.00     0.274 HD
ATOM      8  H11 UNL     1     -48.075 -32.664 -16.044  1.00  0.00     0.274 HD
ENDBRANCH   4   5
ENDBRANCH   1   4
BRANCH   3   9
HETATM    9  O1  UNL     1     -46.303 -30.146 -20.469  1.00  0.00    -0.313 OA
ATOM     10  H1  UNL     1     -45.658 -29.817 -21.083  1.00  0.00     0.237 HD
ENDBRANCH   3   9
TORSDOF 3
ENDMDL
MODEL 2
REMARK VINA RESULT: -4.137329933      2.024      2.838
REMARK  3 active torsions:
REMARK  status: ('A' for Active; 'I' for Inactive)
REMARK    1  A    between atoms: N1_1  and  C1_5 
REMARK    2  A    between atoms: C1_5  and  C2_6 
REMARK    3  A    between atoms: N2_8  and  O1_9 
ROOT
HETATM    1  C2  UNL     1     -47.342 -31.141 -17.928  1.00  0.00     0.126 A 
HETATM    2  C3  UNL     1     -48.626 -30.867 -17.226  1.00  0.00     0.144 A 
HETATM    3  N2  UNL     1     -48.516 -30.755 -18.665  1.00  0.00    -0.191 NA
ENDROOT
BRANCH   1   4
HETATM    4  C1  UNL     1     -46.247 -30.114 -17.850  1.00  0.00     0.252 C 
BRANCH   4   5
HETATM    5  N1  UNL     1     -46.050 -29.404 -19.079  1.00  0.00    -0.078 N 
ATOM      6  H13 UNL     1     -45.568 -29.988 -19.763  1.00  0.00     0.274 HD
ATOM      7  H12 UNL     1     -46.935 -29.270 -19.567  1.00  0.00     0.274 HD
ATOM      8  H11 UNL     1     -45.565 -28.515 -18.956  1.00  0.00     0.274 HD
ENDBRANCH   4   5
ENDBRANCH   1   4
BRANCH   3   9
HETATM    9  O1  UNL     1     -49.135 -31.665 -19.450  1.00  0.00    -0.313 OA
ATOM     10  H1  UNL     1     -49.141 -32.578 -19.189  1.00  0.00     0.237 HD
ENDBRANCH   3   9
TORSDOF 3
ENDMDL
MODEL 3
REMARK VINA RESULT: -4.079790654      1.808      2.821
REMARK  3 active torsions:
REMARK  status: ('A' for Active; 'I' for Inactive)
REMARK    1  A    between atoms: N1_1  and  C1_5 
REMARK    2  A    between atoms: C1_5  and  C2_6 
REMARK    3  A    between atoms: N2_8  and  O1_9 
ROOT
HETATM    1  C2  UNL     1     -46.537 -30.714 -17.228  1.00  0.00     0.126 A 
HETATM    2  C3  UNL     1     -47.915 -31.168 -16.890  1.00  0.00     0.144 A 
HETATM    3  N2  UNL     1     -47.345 -31.404 -18.199  1.00  0.00    -0.191 NA
ENDROOT
BRANCH   1   4
HETATM    4  C1  UNL     1     -46.305 -29.251 -17.485  1.00  0.00     0.252 C 
BRANCH   4   5
HETATM    5  N1  UNL     1     -45.907 -28.970 -18.832  1.00  0.00    -0.078 N 
ATOM      6  H13 UNL     1     -45.540 -28.022 -18.912  1.00  0.00     0.274 HD
ATOM      7  H12 UNL     1     -45.068 -29.495 -19.080  1.00  0.00     0.274 HD
ATOM      8  H11 UNL     1     -46.649 -29.131 -19.513  1.00  0.00     0.274 HD
ENDBRANCH   4   5
ENDBRANCH   1   4
BRANCH   3   9
HETATM    9  O1  UNL     1     -47.014 -32.664 -18.561  1.00  0.00    -0.313 OA
ATOM     10  H1  UNL     1     -47.644 -33.192 -19.036  1.00  0.00     0.237 HD
ENDBRANCH   3   9
TORSDOF 3
ENDMDL
MODEL 4
REMARK VINA RESULT: -4.050996605      1.971      2.647
REMARK  3 active torsions:
REMARK  status: ('A' for Active; 'I' for Inactive)
REMARK    1  A    between atoms: N1_1  and  C1_5 
REMARK    2  A    between atoms: C1_5  and  C2_6 
REMARK    3  A    between atoms: N2_8  and  O1_9 
ROOT
HETATM    1  C2  UNL     1     -46.500 -30.150 -17.483  1.00  0.00     0.126 A 
HETATM    2  C3  UNL     1     -47.777 -30.300 -18.235  1.00  0.00     0.144 A 
HETATM    3  N2  UNL     1     -46.584 -31.023 -18.623  1.00  0.00    -0.191 NA
ENDROOT
BRANCH   1   4
HETATM    4  C1  UNL     1     -45.697 -28.893 -17.675  1.00  0.00     0.252 C 
BRANCH   4   5
HETATM    5  N1  UNL     1     -44.745 -28.666 -16.628  1.00  0.00    -0.078 N 
ATOM      6  H13 UNL     1     -44.236 -29.522 -16.409  1.00  0.00     0.274 HD
ATOM      7  H12 UNL     1     -43.971 -28.091 -16.960  1.00  0.00     0.274 HD
ATOM      8  H11 UNL     1     -45.160 -28.266 -15.788  1.00  0.00     0.274 HD
ENDBRANCH   4   5
ENDBRANCH   1   4
BRANCH   3   9
HETATM    9  O1  UNL     1     -46.530 -32.362 -18.439  1.00  0.00    -0.313 OA
ATOM     10  H1  UNL     1     -47.338 -32.853 -18.352  1.00  0.00     0.237 HD
ENDBRANCH   3   9
TORSDOF 3
ENDMDL
MODEL 5
REMARK VINA RESULT: -4.008007389      1.368      1.397
REMARK  3 active torsions:
REMARK  status: ('A' for Active; 'I' for Inactive)
REMARK    1  A    between atoms: N1_1  and  C1_5 
REMARK    2  A    between atoms: C1_5  and  C2_6 
REMARK    3  A    between atoms: N2_8  and  O1_9 
ROOT
HETATM    1  C2  UNL     1     -47.333 -30.117 -17.780  1.00  0.00     0.126 A 
HETATM    2  C3  UNL     1     -45.953 -30.443 -17.325  1.00  0.00     0.144 A 
HETATM    3  N2  UNL     1     -46.452 -30.899 -18.605  1.00  0.00    -0.191 NA
ENDROOT
BRANCH   1   4
HETATM    4  C1  UNL     1     -48.487 -30.857 -17.162  1.00  0.00     0.252 C 
BRANCH   4   5
HETATM    5  N1  UNL     1     -49.062 -30.173 -16.043  1.00  0.00    -0.078 N 
ATOM      6  H13 UNL     1     -48.680 -29.231 -15.958  1.00  0.00     0.274 HD
ATOM      7  H12 UNL     1     -50.040 -29.943 -16.221  1.00  0.00     0.274 HD
ATOM      8  H11 UNL     1     -48.964 -30.684 -15.166  1.00  0.00     0.274 HD
ENDBRANCH   4   5
ENDBRANCH   1   4
BRANCH   3   9
HETATM    9  O1  UNL     1     -45.955 -30.360 -19.742  1.00  0.00    -0.313 OA
ATOM     10  H1  UNL     1     -46.420 -30.487 -20.560  1.00  0.00     0.237 HD
ENDBRANCH   3   9
TORSDOF 3
ENDMDL
