MODEL 1
REMARK VINA RESULT: -3.547666035      0.000      0.000
REMARK  2 active torsions:
REMARK  status: ('A' for Active; 'I' for Inactive)
REMARK    1  A    between atoms: N1_1  and  C1_5 
REMARK    2  A    between atoms: C1_5  and  C2_6 
ROOT
HETATM    1  C2  UNL     1     -45.712 -29.218 -17.269  1.00  0.00     0.106 A 
HETATM    2  N2  UNL     1     -46.703 -28.912 -18.130  1.00  0.00    -0.353 N 
ATOM      3  H2  UNL     1     -46.916 -27.993 -18.518  1.00  0.00     0.166 HD
HETATM    4  C3  UNL     1     -47.355 -30.064 -18.372  1.00  0.00     0.106 A 
HETATM    5  C4  UNL     1     -46.766 -31.088 -17.658  1.00  0.00     0.106 A 
HETATM    6  N3  UNL     1     -45.743 -30.533 -16.978  1.00  0.00    -0.353 N 
ATOM      7  H3  UNL     1     -45.103 -31.022 -16.352  1.00  0.00     0.166 HD
ENDROOT
BRANCH   1   8
HETATM    8  C1  UNL     1     -44.710 -28.256 -16.703  1.00  0.00     0.305 C 
BRANCH   8   9
HETATM    9  N1  UNL     1     -44.099 -27.515 -17.790  1.00  0.00    -0.073 N 
ATOM     10  H13 UNL     1     -43.111 -27.324 -17.622  1.00  0.00     0.274 HD
ATOM     11  H12 UNL     1     -43.995 -28.078 -18.633  1.00  0.00     0.274 HD
ATOM     12  H11 UNL     1     -44.635 -26.663 -17.955  1.00  0.00     0.274 HD
ENDBRANCH   8   9
ENDBRANCH   1   8
TORSDOF 2
ENDMDL
MODEL 2
REMARK VINA RESULT: -3.525509593      1.276      1.276
REMARK  2 active torsions:
REMARK  status: ('A' for Active; 'I' for Inactive)
REMARK    1  A    between atoms: N1_1  and  C1_5 
REMARK    2  A    between atoms: C1_5  and  C2_6 
ROOT
HETATM    1  C2  UNL     1     -45.120 -28.474 -17.695  1.00  0.00     0.106 A 
HETATM    2  N2  UNL     1     -45.878 -28.839 -18.747  1.00  0.00    -0.353 N 
ATOM      3  H2  UNL     1     -46.004 -28.326 -19.620  1.00  0.00     0.166 HD
HETATM    4  C3  UNL     1     -46.437 -30.017 -18.414  1.00  0.00     0.106 A 
HETATM    5  C4  UNL     1     -46.023 -30.384 -17.149  1.00  0.00     0.106 A 
HETATM    6  N3  UNL     1     -45.201 -29.403 -16.722  1.00  0.00    -0.353 N 
ATOM      7  H3  UNL     1     -44.725 -29.369 -15.820  1.00  0.00     0.166 HD
ENDROOT
BRANCH   1   8
HETATM    8  C1  UNL     1     -44.297 -27.224 -17.593  1.00  0.00     0.305 C 
BRANCH   8   9
HETATM    9  N1  UNL     1     -45.015 -26.249 -16.794  1.00  0.00    -0.073 N 
ATOM     10  H13 UNL     1     -45.961 -26.086 -17.138  1.00  0.00     0.274 HD
ATOM     11  H12 UNL     1     -45.258 -26.607 -15.871  1.00  0.00     0.274 HD
ATOM     12  H11 UNL     1     -44.466 -25.390 -16.746  1.00  0.00     0.274 HD
ENDBRANCH   8   9
ENDBRANCH   1   8
TORSDOF 2
ENDMDL
MODEL 3
REMARK VINA RESULT: -3.525357456      0.030      1.392
REMARK  2 active torsions:
REMARK  status: ('A' for Active; 'I' for Inactive)
REMARK    1  A    between atoms: N1_1  and  C1_5 
REMARK    2  A    between atoms: C1_5  and  C2_6 
ROOT
HETATM    1  C2  UNL     1     -45.693 -29.245 -17.245  1.00  0.00     0.106 A 
HETATM    2  N2  UNL     1     -45.739 -30.561 -16.961  1.00  0.00    -0.353 N 
ATOM      3  H2  UNL     1     -45.117 -31.076 -16.338  1.00  0.00     0.166 HD
HETATM    4  C3  UNL     1     -46.772 -31.059 -17.666  1.00  0.00     0.106 A 
HETATM    5  C4  UNL     1     -47.368 -30.046 -18.391  1.00  0.00     0.106 A 
HETATM    6  N3  UNL     1     -46.674 -28.924 -18.110  1.00  0.00    -0.353 N 
ATOM      7  H3  UNL     1     -46.860 -27.994 -18.487  1.00  0.00     0.166 HD
ENDROOT
BRANCH   1   8
HETATM    8  C1  UNL     1     -44.704 -28.260 -16.695  1.00  0.00     0.305 C 
BRANCH   8   9
HETATM    9  N1  UNL     1     -44.109 -27.523 -17.794  1.00  0.00    -0.073 N 
ATOM     10  H13 UNL     1     -43.249 -27.955 -18.130  1.00  0.00     0.274 HD
ATOM     11  H12 UNL     1     -44.653 -27.600 -18.652  1.00  0.00     0.274 HD
ATOM     12  H11 UNL     1     -43.970 -26.554 -17.508  1.00  0.00     0.274 HD
ENDBRANCH   8   9
ENDBRANCH   1   8
TORSDOF 2
ENDMDL
MODEL 4
REMARK VINA RESULT: -3.505934863      1.275      1.783
REMARK  2 active torsions:
REMARK  status: ('A' for Active; 'I' for Inactive)
REMARK    1  A    between atoms: N1_1  and  C1_5 
REMARK    2  A    between atoms: C1_5  and  C2_6 
ROOT
HETATM    1  C2  UNL     1     -45.110 -28.477 -17.661  1.00  0.00     0.106 A 
HETATM    2  N2  UNL     1     -45.184 -29.412 -16.694  1.00  0.00    -0.353 N 
ATOM      3  H2  UNL     1     -44.705 -29.402 -15.793  1.00  0.00     0.166 HD
HETATM    4  C3  UNL     1     -46.016 -30.362 -17.157  1.00  0.00     0.106 A 
HETATM    5  C4  UNL     1     -46.460 -30.014 -18.418  1.00  0.00     0.106 A 
HETATM    6  N3  UNL     1     -45.878 -28.833 -18.708  1.00  0.00    -0.353 N 
ATOM      7  H3  UNL     1     -45.999 -28.301 -19.571  1.00  0.00     0.166 HD
ENDROOT
BRANCH   1   8
HETATM    8  C1  UNL     1     -44.298 -27.216 -17.606  1.00  0.00     0.305 C 
BRANCH   8   9
HETATM    9  N1  UNL     1     -44.996 -26.239 -16.793  1.00  0.00    -0.073 N 
ATOM     10  H13 UNL     1     -44.775 -25.281 -17.062  1.00  0.00     0.274 HD
ATOM     11  H12 UNL     1     -45.997 -26.215 -16.988  1.00  0.00     0.274 HD
ATOM     12  H11 UNL     1     -44.797 -26.421 -15.809  1.00  0.00     0.274 HD
ENDBRANCH   8   9
ENDBRANCH   1   8
TORSDOF 2
ENDMDL
MODEL 5
REMARK VINA RESULT: -3.445871863      2.137      3.217
REMARK  2 active torsions:
REMARK  status: ('A' for Active; 'I' for Inactive)
REMARK    1  A    between atoms: N1_1  and  C1_5 
REMARK    2  A    between atoms: C1_5  and  C2_6 
ROOT
HETATM    1  C2  UNL     1     -47.398 -29.044 -17.445  1.00  0.00     0.106 A 
HETATM    2  N2  UNL     1     -47.988 -29.069 -16.235  1.00  0.00    -0.353 N 
ATOM      3  H2  UNL     1     -48.176 -29.891 -15.660  1.00  0.00     0.166 HD
HETATM    4  C3  UNL     1     -48.282 -27.790 -15.937  1.00  0.00     0.106 A 
HETATM    5  C4  UNL     1     -47.871 -26.969 -16.968  1.00  0.00     0.106 A 
HETATM    6  N3  UNL     1     -47.323 -27.778 -17.898  1.00  0.00    -0.353 N 
ATOM      7  H3  UNL     1     -46.921 -27.482 -18.788  1.00  0.00     0.166 HD
ENDROOT
BRANCH   1   8
HETATM    8  C1  UNL     1     -46.890 -30.236 -18.202  1.00  0.00     0.305 C 
BRANCH   8   9
HETATM    9  N1  UNL     1     -46.147 -29.780 -19.361  1.00  0.00    -0.073 N 
ATOM     10  H13 UNL     1     -46.048 -30.506 -20.070  1.00  0.00     0.274 HD
ATOM     11  H12 UNL     1     -46.672 -29.106 -19.918  1.00  0.00     0.274 HD
ATOM     12  H11 UNL     1     -45.246 -29.412 -19.054  1.00  0.00     0.274 HD
ENDBRANCH   8   9
ENDBRANCH   1   8
TORSDOF 2
ENDMDL
