MODEL 1
REMARK VINA RESULT: -3.946367422      0.000      0.000
REMARK  1 active torsions:
REMARK  status: ('A' for Active; 'I' for Inactive)
REMARK    1  A    between atoms: C2_2  and  C3_3 
ROOT
HETATM    1  C3  UNL     1     -19.839  -7.928   8.725  1.00  0.00     0.344 C 
HETATM    2  N1  UNL     1     -20.498  -8.054  10.019  1.00  0.00    -0.043 N 
ATOM      3  H11 UNL     1     -19.967  -8.522  10.754  1.00  0.00     0.280 HD
ATOM      4  H12 UNL     1     -21.280  -8.708  10.067  1.00  0.00     0.280 HD
HETATM    5  C4  UNL     1     -20.817  -6.638  10.246  1.00  0.00     0.262 C 
HETATM    6  C5  UNL     1     -19.663  -5.940   9.541  1.00  0.00     0.198 C 
HETATM    7  O1  UNL     1     -18.877  -6.972   8.998  1.00  0.00    -0.355 OA
ENDROOT
BRANCH   1   8
HETATM    8  C2  UNL     1     -19.293  -9.194   8.226  1.00  0.00     0.023 C 
HETATM    9  C1  UNL     1     -19.922 -10.352   8.226  1.00  0.00     0.011 C 
ENDBRANCH   1   8
TORSDOF 1
ENDMDL
MODEL 2
REMARK VINA RESULT: -3.942244259      1.165      1.165
REMARK  1 active torsions:
REMARK  status: ('A' for Active; 'I' for Inactive)
REMARK    1  A    between atoms: C2_2  and  C3_3 
ROOT
HETATM    1  C3  UNL     1     -19.279  -8.218   9.153  1.00  0.00     0.344 C 
HETATM    2  N1  UNL     1     -18.646  -8.389  10.454  1.00  0.00    -0.043 N 
ATOM      3  H11 UNL     1     -17.626  -8.390  10.465  1.00  0.00     0.280 HD
ATOM      4  H12 UNL     1     -18.723  -9.313  10.878  1.00  0.00     0.280 HD
HETATM    5  C4  UNL     1     -19.305  -7.287  11.169  1.00  0.00     0.262 C 
HETATM    6  C5  UNL     1     -19.520  -6.274  10.054  1.00  0.00     0.198 C 
HETATM    7  O1  UNL     1     -19.017  -6.885   8.891  1.00  0.00    -0.355 OA
ENDROOT
BRANCH   1   8
HETATM    8  C2  UNL     1     -18.763  -9.135   8.132  1.00  0.00     0.023 C 
HETATM    9  C1  UNL     1     -19.480 -10.011   7.456  1.00  0.00     0.011 C 
ENDBRANCH   1   8
TORSDOF 1
ENDMDL
MODEL 3
REMARK VINA RESULT: -3.938776417      1.064      3.019
REMARK  1 active torsions:
REMARK  status: ('A' for Active; 'I' for Inactive)
REMARK    1  A    between atoms: C2_2  and  C3_3 
ROOT
HETATM    1  C3  UNL     1     -19.836  -7.570   9.225  1.00  0.00     0.344 C 
HETATM    2  N1  UNL     1     -20.322  -8.509   8.222  1.00  0.00    -0.043 N 
ATOM      3  H11 UNL     1     -20.688  -8.102   7.360  1.00  0.00     0.280 HD
ATOM      4  H12 UNL     1     -21.189  -8.999   8.443  1.00  0.00     0.280 HD
HETATM    5  C4  UNL     1     -19.118  -9.340   8.090  1.00  0.00     0.262 C 
HETATM    6  C5  UNL     1     -18.011  -8.332   8.367  1.00  0.00     0.198 C 
HETATM    7  O1  UNL     1     -18.668  -7.118   8.637  1.00  0.00    -0.355 OA
ENDROOT
BRANCH   1   8
HETATM    8  C2  UNL     1     -20.794  -6.504   9.535  1.00  0.00     0.023 C 
HETATM    9  C1  UNL     1     -21.503  -6.411  10.643  1.00  0.00     0.011 C 
ENDBRANCH   1   8
TORSDOF 1
ENDMDL
MODEL 4
REMARK VINA RESULT: -3.916027845      1.254      3.194
REMARK  1 active torsions:
REMARK  status: ('A' for Active; 'I' for Inactive)
REMARK    1  A    between atoms: C2_2  and  C3_3 
ROOT
HETATM    1  C3  UNL     1     -19.956  -8.023   8.805  1.00  0.00     0.344 C 
HETATM    2  N1  UNL     1     -20.433  -9.103   9.659  1.00  0.00    -0.043 N 
ATOM      3  H11 UNL     1     -21.445  -9.183   9.766  1.00  0.00     0.280 HD
ATOM      4  H12 UNL     1     -20.263  -8.997  10.660  1.00  0.00     0.280 HD
HETATM    5  C4  UNL     1     -19.756 -10.227   8.998  1.00  0.00     0.262 C 
HETATM    6  C5  UNL     1     -19.716  -9.760   7.550  1.00  0.00     0.198 C 
HETATM    7  O1  UNL     1     -20.312  -8.486   7.551  1.00  0.00    -0.355 OA
ENDROOT
BRANCH   1   8
HETATM    8  C2  UNL     1     -20.535  -6.718   9.141  1.00  0.00     0.023 C 
HETATM    9  C1  UNL     1     -21.190  -6.434  10.249  1.00  0.00     0.011 C 
ENDBRANCH   1   8
TORSDOF 1
ENDMDL
MODEL 5
REMARK VINA RESULT: -3.821043802      2.612      3.462
REMARK  1 active torsions:
REMARK  status: ('A' for Active; 'I' for Inactive)
REMARK    1  A    between atoms: C2_2  and  C3_3 
ROOT
HETATM    1  C3  UNL     1     -21.056  -8.008  11.300  1.00  0.00     0.344 C 
HETATM    2  N1  UNL     1     -21.136  -6.791  10.503  1.00  0.00    -0.043 N 
ATOM      3  H11 UNL     1     -21.552  -5.978  10.958  1.00  0.00     0.280 HD
ATOM      4  H12 UNL     1     -21.808  -6.796   9.735  1.00  0.00     0.280 HD
HETATM    5  C4  UNL     1     -19.719  -6.675  10.129  1.00  0.00     0.262 C 
HETATM    6  C5  UNL     1     -19.026  -7.283  11.340  1.00  0.00     0.198 C 
HETATM    7  O1  UNL     1     -20.062  -7.681  12.205  1.00  0.00    -0.355 OA
ENDROOT
BRANCH   1   8
HETATM    8  C2  UNL     1     -22.330  -8.375  11.927  1.00  0.00     0.023 C 
HETATM    9  C1  UNL     1     -22.464  -9.091  13.026  1.00  0.00     0.011 C 
ENDBRANCH   1   8
TORSDOF 1
ENDMDL
