MODEL 1
REMARK VINA RESULT: -2.921856759      0.000      0.000
REMARK  0 active torsions:
REMARK  status: ('A' for Active; 'I' for Inactive)
ROOT
HETATM    1  C1  UNL     1      26.499  46.545  50.441  1.00  0.00     0.261 C 
HETATM    2  C2  UNL     1      25.885  47.544  51.396  1.00  0.00     0.261 C 
HETATM    3  N1  UNL     1      26.423  48.799  50.882  1.00  0.00    -0.050 N 
ATOM      4  H11 UNL     1      26.227  49.631  51.438  1.00  0.00     0.279 HD
ATOM      5  H12 UNL     1      25.981  49.163  50.038  1.00  0.00     0.279 HD
HETATM    6  C3  UNL     1      27.823  48.429  50.759  1.00  0.00     0.462 C 
HETATM    7  N2  UNL     1      27.730  47.172  50.020  1.00  0.00    -0.050 N 
ATOM      8  H21 UNL     1      27.800  47.290  49.009  1.00  0.00     0.279 HD
ATOM      9  H22 UNL     1      28.549  46.574  50.133  1.00  0.00     0.279 HD
ENDROOT
TORSDOF 0
ENDMDL
MODEL 2
REMARK VINA RESULT: -2.901997722      0.808      2.350
REMARK  0 active torsions:
REMARK  status: ('A' for Active; 'I' for Inactive)
ROOT
HETATM    1  C1  UNL     1      27.347  48.888  50.996  1.00  0.00     0.261 C 
HETATM    2  C2  UNL     1      27.960  47.511  50.882  1.00  0.00     0.261 C 
HETATM    3  N1  UNL     1      27.090  46.892  49.888  1.00  0.00    -0.050 N 
ATOM      4  H11 UNL     1      27.244  45.899  49.714  1.00  0.00     0.279 HD
ATOM      5  H12 UNL     1      27.251  47.167  48.920  1.00  0.00     0.279 HD
HETATM    6  C3  UNL     1      25.796  47.248  50.446  1.00  0.00     0.462 C 
HETATM    7  N2  UNL     1      25.956  48.683  50.666  1.00  0.00    -0.050 N 
ATOM      8  H21 UNL     1      25.637  49.252  49.882  1.00  0.00     0.279 HD
ATOM      9  H22 UNL     1      25.314  49.060  51.364  1.00  0.00     0.279 HD
ENDROOT
TORSDOF 0
ENDMDL
MODEL 3
REMARK VINA RESULT: -2.800778324      1.333      2.145
REMARK  0 active torsions:
REMARK  status: ('A' for Active; 'I' for Inactive)
ROOT
HETATM    1  C1  UNL     1      28.223  47.949  51.990  1.00  0.00     0.261 C 
HETATM    2  C2  UNL     1      28.226  48.997  50.900  1.00  0.00     0.261 C 
HETATM    3  N1  UNL     1      26.823  49.398  50.887  1.00  0.00    -0.050 N 
ATOM      4  H11 UNL     1      26.549  50.041  50.144  1.00  0.00     0.279 HD
ATOM      5  H12 UNL     1      26.529  50.020  51.640  1.00  0.00     0.279 HD
HETATM    6  C3  UNL     1      26.197  48.087  50.860  1.00  0.00     0.462 C 
HETATM    7  N2  UNL     1      26.883  47.412  51.959  1.00  0.00    -0.050 N 
ATOM      8  H21 UNL     1      26.394  47.491  52.851  1.00  0.00     0.279 HD
ATOM      9  H22 UNL     1      26.854  46.395  51.891  1.00  0.00     0.279 HD
ENDROOT
TORSDOF 0
ENDMDL
MODEL 4
REMARK VINA RESULT: -2.790732565      1.414      1.935
REMARK  0 active torsions:
REMARK  status: ('A' for Active; 'I' for Inactive)
ROOT
HETATM    1  C1  UNL     1      26.313  48.145  50.913  1.00  0.00     0.261 C 
HETATM    2  C2  UNL     1      27.481  47.245  51.247  1.00  0.00     0.261 C 
HETATM    3  N1  UNL     1      28.326  48.148  52.020  1.00  0.00    -0.050 N 
ATOM      4  H11 UNL     1      29.246  47.789  52.277  1.00  0.00     0.279 HD
ATOM      5  H12 UNL     1      28.036  48.318  52.982  1.00  0.00     0.279 HD
HETATM    6  C3  UNL     1      28.316  49.302  51.137  1.00  0.00     0.462 C 
HETATM    7  N2  UNL     1      26.886  49.471  50.891  1.00  0.00    -0.050 N 
ATOM      8  H21 UNL     1      26.436  50.118  51.540  1.00  0.00     0.279 HD
ATOM      9  H22 UNL     1      26.680  49.988  50.036  1.00  0.00     0.279 HD
ENDROOT
TORSDOF 0
ENDMDL
MODEL 5
REMARK VINA RESULT: -2.724978165      1.318      2.262
REMARK  0 active torsions:
REMARK  status: ('A' for Active; 'I' for Inactive)
ROOT
HETATM    1  C1  UNL     1      27.490  47.182  52.213  1.00  0.00     0.261 C 
HETATM    2  C2  UNL     1      28.133  46.341  51.134  1.00  0.00     0.261 C 
HETATM    3  N1  UNL     1      27.710  47.048  49.931  1.00  0.00    -0.050 N 
ATOM      4  H11 UNL     1      27.942  46.600  49.044  1.00  0.00     0.279 HD
ATOM      5  H12 UNL     1      28.214  47.909  49.717  1.00  0.00     0.279 HD
HETATM    6  C3  UNL     1      26.294  47.193  50.221  1.00  0.00     0.462 C 
HETATM    7  N2  UNL     1      26.326  47.748  51.572  1.00  0.00    -0.050 N 
ATOM      8  H21 UNL     1      26.309  48.768  51.591  1.00  0.00     0.279 HD
ATOM      9  H22 UNL     1      25.462  47.598  52.092  1.00  0.00     0.279 HD
ENDROOT
TORSDOF 0
ENDMDL
