MODEL 1
REMARK VINA RESULT: -9.092674472      0.000      0.000
REMARK  6 active torsions:
REMARK  status: ('A' for Active; 'I' for Inactive)
REMARK    1  A    between atoms: C2_2  and  C4_11 
REMARK    2  A    between atoms: N1_3  and  N2_5 
REMARK    3  A    between atoms: C3_7  and  O1_9 
REMARK    4  A    between atoms: C6_18  and  N7_19 
REMARK    5  A    between atoms: N7_19  and  N8_21 
REMARK    6  A    between atoms: C7_23  and  C9_25 
ROOT
HETATM    1  C4  UNL     1     -51.033 -30.302  -5.917  1.00  0.00     0.077 A 
HETATM    2  C5  UNL     1     -51.843 -31.150  -5.218  1.00  0.00     0.146 A 
HETATM    3  N4  UNL     1     -52.919 -31.984  -5.628  1.00  0.00    -0.080 NA
HETATM    4  N5  UNL     1     -51.429 -31.082  -3.908  1.00  0.00    -0.285 N 
ATOM      5  H5  UNL     1     -51.842 -31.605  -3.135  1.00  0.00     0.188 HD
HETATM    6  N6  UNL     1     -50.431 -30.248  -3.802  1.00  0.00    -0.282 N 
ATOM      7  H6  UNL     1     -49.946 -30.021  -2.934  1.00  0.00     0.188 HD
HETATM    8  C6  UNL     1     -50.141 -29.737  -5.002  1.00  0.00     0.150 A 
ENDROOT
BRANCH   8   9
HETATM    9  N7  UNL     1     -49.220 -28.884  -5.289  1.00  0.00    -0.284 N 
ATOM     10  H7  UNL     1     -49.508 -27.964  -5.624  1.00  0.00     0.188 HD
BRANCH   9  11
HETATM   11  N8  UNL     1     -47.868 -29.136  -5.171  1.00  0.00    -0.305 N 
HETATM   12  C7  UNL     1     -46.973 -28.711  -6.020  1.00  0.00     0.033 C 
HETATM   13  C8  UNL     1     -47.462 -27.924  -7.155  1.00  0.00     0.067 C 
ATOM     14  H8  UNL     1     -47.550 -29.687  -4.373  1.00  0.00     0.186 HD
BRANCH  12  15
HETATM   15  C9  UNL     1     -45.586 -29.061  -5.759  1.00  0.00     0.269 C 
HETATM   16  C10 UNL     1     -44.606 -28.091  -6.430  1.00  0.00     0.043 C 
HETATM   17  C11 UNL     1     -43.300 -28.833  -6.242  1.00  0.00     0.033 C 
HETATM   18  C12 UNL     1     -43.696 -30.267  -5.906  1.00  0.00     0.273 C 
HETATM   19  N9  UNL     1     -45.127 -30.323  -6.216  1.00  0.00     0.094 N 
HETATM   20  C13 UNL     1     -45.259 -30.603  -7.605  1.00  0.00     0.310 C 
ENDBRANCH  12  15
ENDBRANCH   9  11
ENDBRANCH   8   9
BRANCH   1  21
HETATM   21  C2  UNL     1     -51.077 -30.026  -7.357  1.00  0.00     0.039 C 
HETATM   22  C1  UNL     1     -52.196 -29.078  -7.837  1.00  0.00     0.071 C 
HETATM   23  N1  UNL     1     -50.352 -30.441  -8.236  1.00  0.00    -0.301 N 
ATOM     24  H1  UNL     1     -50.683 -30.036  -9.112  1.00  0.00     0.186 HD
BRANCH  23  25
HETATM   25  N2  UNL     1     -49.332 -31.185  -8.524  1.00  0.00    -0.268 N 
HETATM   26  C3  UNL     1     -49.221 -32.187  -9.318  1.00  0.00     0.244 C 
HETATM   27  N3  UNL     1     -50.297 -32.701 -10.088  1.00  0.00    -0.055 NA
ATOM     28  H2  UNL     1     -48.471 -30.931  -8.039  1.00  0.00     0.190 HD
BRANCH  26  29
HETATM   29  O1  UNL     1     -47.979 -32.797  -9.425  1.00  0.00    -0.334 OA
ATOM     30  H1  UNL     1     -47.856 -33.436 -10.116  1.00  0.00     0.220 HD
ENDBRANCH  26  29
ENDBRANCH  23  25
ENDBRANCH   1  21
TORSDOF 6
ENDMDL
MODEL 2
REMARK VINA RESULT: -8.689560338      2.555      3.781
REMARK  6 active torsions:
REMARK  status: ('A' for Active; 'I' for Inactive)
REMARK    1  A    between atoms: C2_2  and  C4_11 
REMARK    2  A    between atoms: N1_3  and  N2_5 
REMARK    3  A    between atoms: C3_7  and  O1_9 
REMARK    4  A    between atoms: C6_18  and  N7_19 
REMARK    5  A    between atoms: N7_19  and  N8_21 
REMARK    6  A    between atoms: C7_23  and  C9_25 
ROOT
HETATM    1  C4  UNL     1     -49.720 -29.546  -6.212  1.00  0.00     0.077 A 
HETATM    2  C5  UNL     1     -49.723 -29.339  -4.862  1.00  0.00     0.146 A 
HETATM    3  N4  UNL     1     -50.569 -29.830  -3.831  1.00  0.00    -0.080 NA
HETATM    4  N5  UNL     1     -48.670 -28.492  -4.603  1.00  0.00    -0.285 N 
ATOM      5  H5  UNL     1     -48.408 -28.148  -3.679  1.00  0.00     0.188 HD
HETATM    6  N6  UNL     1     -48.058 -28.193  -5.716  1.00  0.00    -0.282 N 
ATOM      7  H6  UNL     1     -47.246 -27.581  -5.794  1.00  0.00     0.188 HD
HETATM    8  C6  UNL     1     -48.656 -28.811  -6.739  1.00  0.00     0.150 A 
ENDROOT
BRANCH   8   9
HETATM    9  N7  UNL     1     -48.334 -28.755  -7.985  1.00  0.00    -0.284 N 
ATOM     10  H7  UNL     1     -49.076 -28.861  -8.677  1.00  0.00     0.188 HD
BRANCH   9  11
HETATM   11  N8  UNL     1     -47.046 -28.559  -8.442  1.00  0.00    -0.305 N 
HETATM   12  C7  UNL     1     -46.182 -29.523  -8.613  1.00  0.00     0.033 C 
HETATM   13  C8  UNL     1     -46.634 -30.879  -8.291  1.00  0.00     0.067 C 
ATOM     14  H8  UNL     1     -46.752 -27.607  -8.660  1.00  0.00     0.186 HD
BRANCH  12  15
HETATM   15  C9  UNL     1     -44.862 -29.157  -9.100  1.00  0.00     0.269 C 
HETATM   16  C10 UNL     1     -43.924 -30.366  -9.200  1.00  0.00     0.043 C 
HETATM   17  C11 UNL     1     -42.598 -29.676  -9.441  1.00  0.00     0.033 C 
HETATM   18  C12 UNL     1     -42.819 -28.223  -9.033  1.00  0.00     0.273 C 
HETATM   19  N9  UNL     1     -44.102 -28.244  -8.325  1.00  0.00     0.094 N 
HETATM   20  C13 UNL     1     -43.844 -28.594  -6.970  1.00  0.00     0.310 C 
ENDBRANCH  12  15
ENDBRANCH   9  11
ENDBRANCH   8   9
BRANCH   1  21
HETATM   21  C2  UNL     1     -50.652 -30.380  -6.979  1.00  0.00     0.039 C 
HETATM   22  C1  UNL     1     -50.174 -30.833  -8.375  1.00  0.00     0.071 C 
HETATM   23  N1  UNL     1     -51.758 -30.770  -6.671  1.00  0.00    -0.301 N 
ATOM     24  H1  UNL     1     -52.107 -31.327  -7.452  1.00  0.00     0.186 HD
BRANCH  23  25
HETATM   25  N2  UNL     1     -52.680 -30.774  -5.761  1.00  0.00    -0.268 N 
HETATM   26  C3  UNL     1     -53.075 -31.704  -4.970  1.00  0.00     0.244 C 
HETATM   27  N3  UNL     1     -52.519 -33.011  -4.955  1.00  0.00    -0.055 NA
ATOM     28  H2  UNL     1     -53.174 -29.889  -5.655  1.00  0.00     0.190 HD
BRANCH  26  29
HETATM   29  O1  UNL     1     -54.102 -31.411  -4.085  1.00  0.00    -0.334 OA
ATOM     30  H1  UNL     1     -54.440 -32.117  -3.546  1.00  0.00     0.220 HD
ENDBRANCH  26  29
ENDBRANCH  23  25
ENDBRANCH   1  21
TORSDOF 6
ENDMDL
MODEL 3
REMARK VINA RESULT: -8.670955353      0.965      1.478
REMARK  6 active torsions:
REMARK  status: ('A' for Active; 'I' for Inactive)
REMARK    1  A    between atoms: C2_2  and  C4_11 
REMARK    2  A    between atoms: N1_3  and  N2_5 
REMARK    3  A    between atoms: C3_7  and  O1_9 
REMARK    4  A    between atoms: C6_18  and  N7_19 
REMARK    5  A    between atoms: N7_19  and  N8_21 
REMARK    6  A    between atoms: C7_23  and  C9_25 
ROOT
HETATM    1  C4  UNL     1     -51.112 -30.324  -6.139  1.00  0.00     0.077 A 
HETATM    2  C5  UNL     1     -51.910 -31.085  -5.334  1.00  0.00     0.146 A 
HETATM    3  N4  UNL     1     -53.062 -31.870  -5.612  1.00  0.00    -0.080 NA
HETATM    4  N5  UNL     1     -51.387 -30.979  -4.066  1.00  0.00    -0.285 N 
ATOM      5  H5  UNL     1     -51.763 -31.437  -3.235  1.00  0.00     0.188 HD
HETATM    6  N6  UNL     1     -50.336 -30.205  -4.084  1.00  0.00    -0.282 N 
ATOM      7  H6  UNL     1     -49.769 -29.966  -3.271  1.00  0.00     0.188 HD
HETATM    8  C6  UNL     1     -50.117 -29.772  -5.329  1.00  0.00     0.150 A 
ENDROOT
BRANCH   8   9
HETATM    9  N7  UNL     1     -49.174 -28.992  -5.733  1.00  0.00    -0.284 N 
ATOM     10  H7  UNL     1     -49.336 -27.986  -5.692  1.00  0.00     0.188 HD
BRANCH   9  11
HETATM   11  N8  UNL     1     -47.960 -29.433  -6.217  1.00  0.00    -0.305 N 
HETATM   12  C7  UNL     1     -46.877 -29.521  -5.492  1.00  0.00     0.033 C 
HETATM   13  C8  UNL     1     -46.991 -29.120  -4.088  1.00  0.00     0.067 C 
ATOM     14  H8  UNL     1     -47.904 -29.707  -7.199  1.00  0.00     0.186 HD
BRANCH  12  15
HETATM   15  C9  UNL     1     -45.673 -30.003  -6.148  1.00  0.00     0.269 C 
HETATM   16  C10 UNL     1     -44.501 -30.155  -5.170  1.00  0.00     0.043 C 
HETATM   17  C11 UNL     1     -43.356 -30.379  -6.135  1.00  0.00     0.033 C 
HETATM   18  C12 UNL     1     -43.874 -29.914  -7.492  1.00  0.00     0.273 C 
HETATM   19  N9  UNL     1     -45.112 -29.199  -7.173  1.00  0.00     0.094 N 
HETATM   20  C13 UNL     1     -44.766 -27.859  -6.838  1.00  0.00     0.310 C 
ENDBRANCH  12  15
ENDBRANCH   9  11
ENDBRANCH   8   9
BRANCH   1  21
HETATM   21  C2  UNL     1     -51.258 -30.117  -7.583  1.00  0.00     0.039 C 
HETATM   22  C1  UNL     1     -52.217 -28.988  -8.018  1.00  0.00     0.071 C 
HETATM   23  N1  UNL     1     -50.728 -30.711  -8.497  1.00  0.00    -0.301 N 
ATOM     24  H1  UNL     1     -51.068 -30.292  -9.364  1.00  0.00     0.186 HD
BRANCH  23  25
HETATM   25  N2  UNL     1     -49.908 -31.657  -8.830  1.00  0.00    -0.268 N 
HETATM   26  C3  UNL     1     -48.648 -31.630  -9.071  1.00  0.00     0.244 C 
HETATM   27  N3  UNL     1     -47.862 -30.449  -9.010  1.00  0.00    -0.055 NA
ATOM     28  H2  UNL     1     -50.336 -32.578  -8.915  1.00  0.00     0.190 HD
BRANCH  26  29
HETATM   29  O1  UNL     1     -48.026 -32.823  -9.411  1.00  0.00    -0.334 OA
ATOM     30  H1  UNL     1     -47.179 -33.009  -9.022  1.00  0.00     0.220 HD
ENDBRANCH  26  29
ENDBRANCH  23  25
ENDBRANCH   1  21
TORSDOF 6
ENDMDL
MODEL 4
REMARK VINA RESULT: -8.653578121      1.135      1.603
REMARK  6 active torsions:
REMARK  status: ('A' for Active; 'I' for Inactive)
REMARK    1  A    between atoms: C2_2  and  C4_11 
REMARK    2  A    between atoms: N1_3  and  N2_5 
REMARK    3  A    between atoms: C3_7  and  O1_9 
REMARK    4  A    between atoms: C6_18  and  N7_19 
REMARK    5  A    between atoms: N7_19  and  N8_21 
REMARK    6  A    between atoms: C7_23  and  C9_25 
ROOT
HETATM    1  C4  UNL     1     -50.717 -30.291  -6.305  1.00  0.00     0.077 A 
HETATM    2  C5  UNL     1     -51.422 -31.167  -5.530  1.00  0.00     0.146 A 
HETATM    3  N4  UNL     1     -52.602 -31.918  -5.783  1.00  0.00    -0.080 NA
HETATM    4  N5  UNL     1     -50.757 -31.233  -4.327  1.00  0.00    -0.285 N 
ATOM      5  H5  UNL     1     -51.039 -31.807  -3.532  1.00  0.00     0.188 HD
HETATM    6  N6  UNL     1     -49.713 -30.452  -4.355  1.00  0.00    -0.282 N 
ATOM      7  H6  UNL     1     -49.055 -30.322  -3.586  1.00  0.00     0.188 HD
HETATM    8  C6  UNL     1     -49.635 -29.846  -5.544  1.00  0.00     0.150 A 
ENDROOT
BRANCH   8   9
HETATM    9  N7  UNL     1     -48.741 -29.007  -5.938  1.00  0.00    -0.284 N 
ATOM     10  H7  UNL     1     -48.887 -28.019  -5.728  1.00  0.00     0.188 HD
BRANCH   9  11
HETATM   11  N8  UNL     1     -47.598 -29.360  -6.627  1.00  0.00    -0.305 N 
HETATM   12  C7  UNL     1     -47.103 -28.667  -7.618  1.00  0.00     0.033 C 
HETATM   13  C8  UNL     1     -47.826 -27.450  -7.996  1.00  0.00     0.067 C 
ATOM     14  H8  UNL     1     -47.112 -30.212  -6.347  1.00  0.00     0.186 HD
BRANCH  12  15
HETATM   15  C9  UNL     1     -45.893 -29.171  -8.244  1.00  0.00     0.269 C 
HETATM   16  C10 UNL     1     -45.477 -30.538  -7.687  1.00  0.00     0.043 C 
HETATM   17  C11 UNL     1     -44.092 -30.677  -8.282  1.00  0.00     0.033 C 
HETATM   18  C12 UNL     1     -43.699 -29.270  -8.722  1.00  0.00     0.273 C 
HETATM   19  N9  UNL     1     -44.706 -28.408  -8.097  1.00  0.00     0.094 N 
HETATM   20  C13 UNL     1     -44.272 -28.124  -6.772  1.00  0.00     0.310 C 
ENDBRANCH  12  15
ENDBRANCH   9  11
ENDBRANCH   8   9
BRANCH   1  21
HETATM   21  C2  UNL     1     -51.026 -29.885  -7.680  1.00  0.00     0.039 C 
HETATM   22  C1  UNL     1     -52.265 -28.983  -7.865  1.00  0.00     0.071 C 
HETATM   23  N1  UNL     1     -50.441 -30.159  -8.707  1.00  0.00    -0.301 N 
ATOM     24  H1  UNL     1     -50.943 -29.700  -9.468  1.00  0.00     0.186 HD
BRANCH  23  25
HETATM   25  N2  UNL     1     -49.444 -30.792  -9.237  1.00  0.00    -0.268 N 
HETATM   26  C3  UNL     1     -49.407 -31.878  -9.921  1.00  0.00     0.244 C 
HETATM   27  N3  UNL     1     -50.560 -32.643 -10.243  1.00  0.00    -0.055 NA
ATOM     28  H2  UNL     1     -48.535 -30.355  -9.087  1.00  0.00     0.190 HD
BRANCH  26  29
HETATM   29  O1  UNL     1     -48.171 -32.323 -10.367  1.00  0.00    -0.334 OA
ATOM     30  H1  UNL     1     -48.110 -32.649 -11.256  1.00  0.00     0.220 HD
ENDBRANCH  26  29
ENDBRANCH  23  25
ENDBRANCH   1  21
TORSDOF 6
ENDMDL
MODEL 5
REMARK VINA RESULT: -8.613730824      1.154      1.511
REMARK  6 active torsions:
REMARK  status: ('A' for Active; 'I' for Inactive)
REMARK    1  A    between atoms: C2_2  and  C4_11 
REMARK    2  A    between atoms: N1_3  and  N2_5 
REMARK    3  A    between atoms: C3_7  and  O1_9 
REMARK    4  A    between atoms: C6_18  and  N7_19 
REMARK    5  A    between atoms: N7_19  and  N8_21 
REMARK    6  A    between atoms: C7_23  and  C9_25 
ROOT
HETATM    1  C4  UNL     1     -50.782 -30.398  -6.268  1.00  0.00     0.077 A 
HETATM    2  C5  UNL     1     -51.538 -31.249  -5.514  1.00  0.00     0.146 A 
HETATM    3  N4  UNL     1     -52.763 -31.919  -5.783  1.00  0.00    -0.080 NA
HETATM    4  N5  UNL     1     -50.876 -31.389  -4.316  1.00  0.00    -0.285 N 
ATOM      5  H5  UNL     1     -51.192 -31.966  -3.536  1.00  0.00     0.188 HD
HETATM    6  N6  UNL     1     -49.785 -30.673  -4.327  1.00  0.00    -0.282 N 
ATOM      7  H6  UNL     1     -49.120 -30.606  -3.557  1.00  0.00     0.188 HD
HETATM    8  C6  UNL     1     -49.672 -30.042  -5.499  1.00  0.00     0.150 A 
ENDROOT
BRANCH   8   9
HETATM    9  N7  UNL     1     -48.728 -29.249  -5.874  1.00  0.00    -0.284 N 
ATOM     10  H7  UNL     1     -48.779 -28.273  -5.579  1.00  0.00     0.188 HD
BRANCH   9  11
HETATM   11  N8  UNL     1     -47.654 -29.637  -6.649  1.00  0.00    -0.305 N 
HETATM   12  C7  UNL     1     -46.434 -29.745  -6.197  1.00  0.00     0.033 C 
HETATM   13  C8  UNL     1     -46.225 -29.430  -4.782  1.00  0.00     0.067 C 
ATOM     14  H8  UNL     1     -47.823 -29.851  -7.632  1.00  0.00     0.186 HD
BRANCH  12  15
HETATM   15  C9  UNL     1     -45.409 -30.164  -7.139  1.00  0.00     0.269 C 
HETATM   16  C10 UNL     1     -43.996 -29.826  -6.647  1.00  0.00     0.043 C 
HETATM   17  C11 UNL     1     -43.189 -30.096  -7.899  1.00  0.00     0.033 C 
HETATM   18  C12 UNL     1     -44.205 -30.126  -9.036  1.00  0.00     0.273 C 
HETATM   19  N9  UNL     1     -45.427 -29.586  -8.434  1.00  0.00     0.094 N 
HETATM   20  C13 UNL     1     -45.363 -28.167  -8.518  1.00  0.00     0.310 C 
ENDBRANCH  12  15
ENDBRANCH   9  11
ENDBRANCH   8   9
BRANCH   1  21
HETATM   21  C2  UNL     1     -51.067 -29.936  -7.631  1.00  0.00     0.039 C 
HETATM   22  C1  UNL     1     -52.286 -29.004  -7.795  1.00  0.00     0.071 C 
HETATM   23  N1  UNL     1     -50.477 -30.184  -8.660  1.00  0.00    -0.301 N 
ATOM     24  H1  UNL     1     -50.961 -29.688  -9.409  1.00  0.00     0.186 HD
BRANCH  23  25
HETATM   25  N2  UNL     1     -49.486 -30.818  -9.203  1.00  0.00    -0.268 N 
HETATM   26  C3  UNL     1     -49.459 -31.900  -9.893  1.00  0.00     0.244 C 
HETATM   27  N3  UNL     1     -50.617 -32.661 -10.207  1.00  0.00    -0.055 NA
ATOM     28  H2  UNL     1     -48.575 -30.384  -9.060  1.00  0.00     0.190 HD
BRANCH  26  29
HETATM   29  O1  UNL     1     -48.228 -32.347 -10.352  1.00  0.00    -0.334 OA
ATOM     30  H1  UNL     1     -47.944 -32.060 -11.211  1.00  0.00     0.220 HD
ENDBRANCH  26  29
ENDBRANCH  23  25
ENDBRANCH   1  21
TORSDOF 6
ENDMDL
