MODEL 1
REMARK VINA RESULT: -8.587525481      0.000      0.000
REMARK  5 active torsions:
REMARK  status: ('A' for Active; 'I' for Inactive)
REMARK       I    between atoms: C1_2  and  N4_14 
REMARK       I    between atoms: N2_3  and  C2_5 
REMARK    1  A    between atoms: C2_5  and  C3_7 
REMARK    2  A    between atoms: N4_14  and  N5_16 
REMARK    3  A    between atoms: N5_16  and  C7_18 
REMARK    4  A    between atoms: N9_23  and  C8_24 
REMARK    5  A    between atoms: C8_24  and  C9_25 
ROOT
HETATM    1  N1  UNL     1      27.993  46.763   8.024  1.00  0.00    -0.062 NA
HETATM    2  C1  UNL     1      29.275  46.863   8.605  1.00  0.00     0.210 C 
HETATM    3  N2  UNL     1      29.997  47.912   8.470  1.00  0.00    -0.294 N 
ATOM      4  H2  UNL     1      30.921  47.967   8.897  1.00  0.00     0.172 HD
HETATM    5  C2  UNL     1      29.480  48.996   7.711  1.00  0.00     0.274 C 
HETATM    6  O1  UNL     1      28.874  49.937   8.264  1.00  0.00    -0.266 OA
HETATM    7  N4  UNL     1      29.780  45.777   9.359  1.00  0.00    -0.259 N 
ATOM      8  H4  UNL     1      30.778  45.567   9.327  1.00  0.00     0.190 HD
ENDROOT
BRANCH   7   9
HETATM    9  N5  UNL     1      28.937  44.985  10.149  1.00  0.00    -0.127 N 
ATOM     10  H5  UNL     1      28.515  45.353  11.001  1.00  0.00     0.205 HD
BRANCH   9  11
HETATM   11  C7  UNL     1      28.710  43.774   9.763  1.00  0.00     0.725 A 
HETATM   12  N6  UNL     1      27.887  42.843  10.258  1.00  0.00    -0.115 N 
HETATM   13  N7  UNL     1      27.968  41.719   9.544  1.00  0.00     0.007 NA
ATOM     14  H6  UNL     1      27.281  42.975  11.068  1.00  0.00     0.202 HD
HETATM   15  N8  UNL     1      28.857  41.970   8.597  1.00  0.00     0.009 NA
HETATM   16  N9  UNL     1      29.322  43.208   8.707  1.00  0.00    -0.099 N 
BRANCH  16  17
HETATM   17  C8  UNL     1      30.307  43.832   7.847  1.00  0.00     0.282 C 
BRANCH  17  18
HETATM   18  C9  UNL     1      29.842  43.730   6.392  1.00  0.00     0.405 C 
HETATM   19  F1  UNL     1      30.133  42.506   5.876  1.00  0.00    -0.169 F 
HETATM   20  F2  UNL     1      28.526  44.067   6.286  1.00  0.00    -0.169 F 
HETATM   21  F3  UNL     1      30.571  44.705   5.707  1.00  0.00    -0.169 F 
ENDBRANCH  17  18
ENDBRANCH  16  17
ENDBRANCH   9  11
ENDBRANCH   7   9
BRANCH   5  22
HETATM   22  C3  UNL     1      29.670  48.992   6.268  1.00  0.00     0.102 A 
HETATM   23  C4  UNL     1      29.686  50.075   5.419  1.00  0.00     0.038 A 
HETATM   24  C5  UNL     1      29.895  49.626   4.118  1.00  0.00     0.045 A 
HETATM   25  C6  UNL     1      30.002  48.255   4.217  1.00  0.00     0.104 A 
HETATM   26 CL1  UNL     1      30.275  47.192   2.836  1.00  0.00    -0.065 Cl
HETATM   27  N3  UNL     1      29.867  47.881   5.498  1.00  0.00    -0.342 N 
ATOM     28  H3  UNL     1      29.905  46.922   5.842  1.00  0.00     0.167 HD
ENDBRANCH   5  22
TORSDOF 5
ENDMDL
MODEL 2
REMARK VINA RESULT: -8.389768499      0.964      1.038
REMARK  5 active torsions:
REMARK  status: ('A' for Active; 'I' for Inactive)
REMARK       I    between atoms: C1_2  and  N4_14 
REMARK       I    between atoms: N2_3  and  C2_5 
REMARK    1  A    between atoms: C2_5  and  C3_7 
REMARK    2  A    between atoms: N4_14  and  N5_16 
REMARK    3  A    between atoms: N5_16  and  C7_18 
REMARK    4  A    between atoms: N9_23  and  C8_24 
REMARK    5  A    between atoms: C8_24  and  C9_25 
ROOT
HETATM    1  N1  UNL     1      27.831  46.897   7.860  1.00  0.00    -0.062 NA
HETATM    2  C1  UNL     1      29.123  46.963   8.422  1.00  0.00     0.210 C 
HETATM    3  N2  UNL     1      29.858  48.005   8.306  1.00  0.00    -0.294 N 
ATOM      4  H2  UNL     1      30.790  48.036   8.719  1.00  0.00     0.172 HD
HETATM    5  C2  UNL     1      29.344  49.118   7.587  1.00  0.00     0.274 C 
HETATM    6  O1  UNL     1      28.759  50.050   8.177  1.00  0.00    -0.266 OA
HETATM    7  N4  UNL     1      29.626  45.849   9.137  1.00  0.00    -0.259 N 
ATOM      8  H4  UNL     1      30.620  45.627   9.082  1.00  0.00     0.190 HD
ENDROOT
BRANCH   7   9
HETATM    9  N5  UNL     1      28.785  45.045   9.917  1.00  0.00    -0.127 N 
ATOM     10  H5  UNL     1      28.293  45.427  10.725  1.00  0.00     0.205 HD
BRANCH   9  11
HETATM   11  C7  UNL     1      28.651  43.806   9.581  1.00  0.00     0.725 A 
HETATM   12  N6  UNL     1      27.966  42.816  10.163  1.00  0.00    -0.115 N 
HETATM   13  N7  UNL     1      28.104  41.682   9.473  1.00  0.00     0.007 NA
ATOM     14  H6  UNL     1      27.415  42.914  11.016  1.00  0.00     0.202 HD
HETATM   15  N8  UNL     1      28.886  41.989   8.452  1.00  0.00     0.009 NA
HETATM   16  N9  UNL     1      29.231  43.269   8.492  1.00  0.00    -0.099 N 
BRANCH  16  17
HETATM   17  C8  UNL     1      30.079  43.958   7.540  1.00  0.00     0.282 C 
BRANCH  17  18
HETATM   18  C9  UNL     1      29.392  43.971   6.172  1.00  0.00     0.405 C 
HETATM   19  F1  UNL     1      29.724  42.864   5.455  1.00  0.00    -0.169 F 
HETATM   20  F2  UNL     1      28.049  44.145   6.313  1.00  0.00    -0.169 F 
HETATM   21  F3  UNL     1      29.888  45.106   5.526  1.00  0.00    -0.169 F 
ENDBRANCH  17  18
ENDBRANCH  16  17
ENDBRANCH   9  11
ENDBRANCH   7   9
BRANCH   5  22
HETATM   22  C3  UNL     1      29.510  49.153   6.141  1.00  0.00     0.102 A 
HETATM   23  C4  UNL     1      28.779  48.472   5.195  1.00  0.00     0.038 A 
HETATM   24  C5  UNL     1      29.269  48.791   3.931  1.00  0.00     0.045 A 
HETATM   25  C6  UNL     1      30.304  49.674   4.152  1.00  0.00     0.104 A 
HETATM   26 CL1  UNL     1      31.272  50.392   2.863  1.00  0.00    -0.065 Cl
HETATM   27  N3  UNL     1      30.444  49.887   5.469  1.00  0.00    -0.342 N 
ATOM     28  H3  UNL     1      31.138  50.498   5.900  1.00  0.00     0.167 HD
ENDBRANCH   5  22
TORSDOF 5
ENDMDL
MODEL 3
REMARK VINA RESULT: -8.006099550      5.703      7.199
REMARK  5 active torsions:
REMARK  status: ('A' for Active; 'I' for Inactive)
REMARK       I    between atoms: C1_2  and  N4_14 
REMARK       I    between atoms: N2_3  and  C2_5 
REMARK    1  A    between atoms: C2_5  and  C3_7 
REMARK    2  A    between atoms: N4_14  and  N5_16 
REMARK    3  A    between atoms: N5_16  and  C7_18 
REMARK    4  A    between atoms: N9_23  and  C8_24 
REMARK    5  A    between atoms: C8_24  and  C9_25 
ROOT
HETATM    1  N1  UNL     1      30.720  47.226   9.605  1.00  0.00    -0.062 NA
HETATM    2  C1  UNL     1      30.656  48.577   9.204  1.00  0.00     0.210 C 
HETATM    3  N2  UNL     1      29.775  48.993   8.372  1.00  0.00    -0.294 N 
ATOM      4  H2  UNL     1      29.744  49.973   8.093  1.00  0.00     0.172 HD
HETATM    5  C2  UNL     1      28.845  48.056   7.848  1.00  0.00     0.274 C 
HETATM    6  O1  UNL     1      27.727  47.893   8.379  1.00  0.00    -0.266 OA
HETATM    7  N4  UNL     1      31.587  49.502   9.733  1.00  0.00    -0.259 N 
ATOM      8  H4  UNL     1      31.929  50.260   9.143  1.00  0.00     0.190 HD
ENDROOT
BRANCH   7   9
HETATM    9  N5  UNL     1      32.049  49.396  11.051  1.00  0.00    -0.127 N 
ATOM     10  H5  UNL     1      31.398  49.354  11.835  1.00  0.00     0.205 HD
BRANCH   9  11
HETATM   11  C7  UNL     1      33.325  49.354  11.243  1.00  0.00     0.725 A 
HETATM   12  N6  UNL     1      34.337  49.401  10.371  1.00  0.00    -0.115 N 
HETATM   13  N7  UNL     1      35.508  49.326  11.008  1.00  0.00     0.007 NA
ATOM     14  H6  UNL     1      34.231  49.482   9.360  1.00  0.00     0.202 HD
HETATM   15  N8  UNL     1      35.201  49.233  12.291  1.00  0.00     0.009 NA
HETATM   16  N9  UNL     1      33.886  49.249  12.462  1.00  0.00    -0.099 N 
BRANCH  16  17
HETATM   17  C8  UNL     1      33.185  49.165  13.727  1.00  0.00     0.282 C 
BRANCH  17  18
HETATM   18  C9  UNL     1      33.989  49.906  14.798  1.00  0.00     0.405 C 
HETATM   19  F1  UNL     1      34.660  49.029  15.592  1.00  0.00    -0.169 F 
HETATM   20  F2  UNL     1      34.792  50.847  14.227  1.00  0.00    -0.169 F 
HETATM   21  F3  UNL     1      33.039  50.588  15.562  1.00  0.00    -0.169 F 
ENDBRANCH  17  18
ENDBRANCH  16  17
ENDBRANCH   9  11
ENDBRANCH   7   9
BRANCH   5  22
HETATM   22  C3  UNL     1      29.219  47.283   6.672  1.00  0.00     0.102 A 
HETATM   23  C4  UNL     1      29.571  47.760   5.430  1.00  0.00     0.038 A 
HETATM   24  C5  UNL     1      29.853  46.681   4.596  1.00  0.00     0.045 A 
HETATM   25  C6  UNL     1      29.659  45.558   5.372  1.00  0.00     0.104 A 
HETATM   26 CL1  UNL     1      29.885  43.910   4.784  1.00  0.00    -0.065 Cl
HETATM   27  N3  UNL     1      29.281  45.921   6.607  1.00  0.00    -0.342 N 
ATOM     28  H3  UNL     1      29.073  45.282   7.374  1.00  0.00     0.167 HD
ENDBRANCH   5  22
TORSDOF 5
ENDMDL
MODEL 4
REMARK VINA RESULT: -7.815500150      6.115      7.557
REMARK  5 active torsions:
REMARK  status: ('A' for Active; 'I' for Inactive)
REMARK       I    between atoms: C1_2  and  N4_14 
REMARK       I    between atoms: N2_3  and  C2_5 
REMARK    1  A    between atoms: C2_5  and  C3_7 
REMARK    2  A    between atoms: N4_14  and  N5_16 
REMARK    3  A    between atoms: N5_16  and  C7_18 
REMARK    4  A    between atoms: N9_23  and  C8_24 
REMARK    5  A    between atoms: C8_24  and  C9_25 
ROOT
HETATM    1  N1  UNL     1      33.020  48.889  12.217  1.00  0.00    -0.062 NA
HETATM    2  C1  UNL     1      33.294  49.406  10.933  1.00  0.00     0.210 C 
HETATM    3  N2  UNL     1      34.483  49.710  10.567  1.00  0.00    -0.294 N 
ATOM      4  H2  UNL     1      34.662  50.083   9.635  1.00  0.00     0.172 HD
HETATM    5  C2  UNL     1      35.545  49.514  11.489  1.00  0.00     0.274 C 
HETATM    6  O1  UNL     1      36.213  48.459  11.488  1.00  0.00    -0.266 OA
HETATM    7  N4  UNL     1      32.228  49.597  10.021  1.00  0.00    -0.259 N 
ATOM      8  H4  UNL     1      32.253  50.391   9.382  1.00  0.00     0.190 HD
ENDROOT
BRANCH   7   9
HETATM    9  N5  UNL     1      31.139  48.717   9.981  1.00  0.00    -0.127 N 
ATOM     10  H5  UNL     1      30.840  48.211  10.814  1.00  0.00     0.205 HD
BRANCH   9  11
HETATM   11  C7  UNL     1      30.525  48.567   8.855  1.00  0.00     0.725 A 
HETATM   12  N6  UNL     1      30.303  49.435   7.863  1.00  0.00    -0.115 N 
HETATM   13  N7  UNL     1      29.621  48.853   6.875  1.00  0.00     0.007 NA
ATOM     14  H6  UNL     1      30.611  50.408   7.862  1.00  0.00     0.202 HD
HETATM   15  N8  UNL     1      29.425  47.607   7.273  1.00  0.00     0.009 NA
HETATM   16  N9  UNL     1      29.964  47.407   8.469  1.00  0.00    -0.099 N 
BRANCH  16  17
HETATM   17  C8  UNL     1      29.947  46.167   9.219  1.00  0.00     0.282 C 
BRANCH  17  18
HETATM   18  C9  UNL     1      28.620  45.447   8.971  1.00  0.00     0.405 C 
HETATM   19  F1  UNL     1      27.597  46.339   8.870  1.00  0.00    -0.169 F 
HETATM   20  F2  UNL     1      28.720  44.612   7.900  1.00  0.00    -0.169 F 
HETATM   21  F3  UNL     1      28.423  44.645  10.098  1.00  0.00    -0.169 F 
ENDBRANCH  17  18
ENDBRANCH  16  17
ENDBRANCH   9  11
ENDBRANCH   7   9
BRANCH   5  22
HETATM   22  C3  UNL     1      35.845  50.571  12.444  1.00  0.00     0.102 A 
HETATM   23  C4  UNL     1      35.721  50.526  13.814  1.00  0.00     0.038 A 
HETATM   24  C5  UNL     1      36.114  51.753  14.344  1.00  0.00     0.045 A 
HETATM   25  C6  UNL     1      36.472  52.522  13.257  1.00  0.00     0.104 A 
HETATM   26 CL1  UNL     1      37.050  54.184  13.382  1.00  0.00    -0.065 Cl
HETATM   27  N3  UNL     1      36.310  51.815  12.128  1.00  0.00    -0.342 N 
ATOM     28  H3  UNL     1      36.503  52.153  11.186  1.00  0.00     0.167 HD
ENDBRANCH   5  22
TORSDOF 5
ENDMDL
MODEL 5
REMARK VINA RESULT: -7.415864261      1.810      2.080
REMARK  5 active torsions:
REMARK  status: ('A' for Active; 'I' for Inactive)
REMARK       I    between atoms: C1_2  and  N4_14 
REMARK       I    between atoms: N2_3  and  C2_5 
REMARK    1  A    between atoms: C2_5  and  C3_7 
REMARK    2  A    between atoms: N4_14  and  N5_16 
REMARK    3  A    between atoms: N5_16  and  C7_18 
REMARK    4  A    between atoms: N9_23  and  C8_24 
REMARK    5  A    between atoms: C8_24  and  C9_25 
ROOT
HETATM    1  N1  UNL     1      30.392  46.032   7.765  1.00  0.00    -0.062 NA
HETATM    2  C1  UNL     1      28.989  45.916   7.666  1.00  0.00     0.210 C 
HETATM    3  N2  UNL     1      28.375  46.079   6.554  1.00  0.00    -0.294 N 
ATOM      4  H2  UNL     1      27.361  45.992   6.501  1.00  0.00     0.172 HD
HETATM    5  C2  UNL     1      29.141  46.385   5.397  1.00  0.00     0.274 C 
HETATM    6  O1  UNL     1      29.528  45.484   4.625  1.00  0.00    -0.266 OA
HETATM    7  N4  UNL     1      28.236  45.610   8.825  1.00  0.00    -0.259 N 
ATOM      8  H4  UNL     1      27.310  46.022   8.942  1.00  0.00     0.190 HD
ENDROOT
BRANCH   7   9
HETATM    9  N5  UNL     1      28.737  44.754   9.813  1.00  0.00    -0.127 N 
ATOM     10  H5  UNL     1      29.263  45.119  10.608  1.00  0.00     0.205 HD
BRANCH   9  11
HETATM   11  C7  UNL     1      28.513  43.489   9.688  1.00  0.00     0.725 A 
HETATM   12  N6  UNL     1      27.507  42.735  10.144  1.00  0.00    -0.115 N 
HETATM   13  N7  UNL     1      27.673  41.462   9.779  1.00  0.00     0.007 NA
ATOM     14  H6  UNL     1      26.722  43.084  10.695  1.00  0.00     0.202 HD
HETATM   15  N8  UNL     1      28.800  41.443   9.088  1.00  0.00     0.009 NA
HETATM   16  N9  UNL     1      29.329  42.657   9.016  1.00  0.00    -0.099 N 
BRANCH  16  17
HETATM   17  C8  UNL     1      30.559  43.017   8.341  1.00  0.00     0.282 C 
BRANCH  17  18
HETATM   18  C9  UNL     1      30.434  42.679   6.854  1.00  0.00     0.405 C 
HETATM   19  F1  UNL     1      30.995  41.469   6.584  1.00  0.00    -0.169 F 
HETATM   20  F2  UNL     1      29.139  42.779   6.447  1.00  0.00    -0.169 F 
HETATM   21  F3  UNL     1      31.151  43.678   6.190  1.00  0.00    -0.169 F 
ENDBRANCH  17  18
ENDBRANCH  16  17
ENDBRANCH   9  11
ENDBRANCH   7   9
BRANCH   5  22
HETATM   22  C3  UNL     1      29.470  47.777   5.125  1.00  0.00     0.102 A 
HETATM   23  C4  UNL     1      29.077  48.888   5.836  1.00  0.00     0.038 A 
HETATM   24  C5  UNL     1      29.614  50.023   5.233  1.00  0.00     0.045 A 
HETATM   25  C6  UNL     1      30.332  49.558   4.152  1.00  0.00     0.104 A 
HETATM   26 CL1  UNL     1      31.219  50.604   3.042  1.00  0.00    -0.065 Cl
HETATM   27  N3  UNL     1      30.244  48.220   4.092  1.00  0.00    -0.342 N 
ATOM     28  H3  UNL     1      30.684  47.630   3.386  1.00  0.00     0.167 HD
ENDBRANCH   5  22
TORSDOF 5
ENDMDL
