MODEL 1
REMARK VINA RESULT: -7.921989458      0.000      0.000
REMARK  6 active torsions:
REMARK  status: ('A' for Active; 'I' for Inactive)
REMARK    1  A    between atoms: N1_3  and  C2_5 
REMARK    2  A    between atoms: C2_5  and  C3_6 
REMARK    3  A    between atoms: C3_6  and  N2_7 
REMARK    4  A    between atoms: N2_7  and  C4_9 
REMARK    5  A    between atoms: C7_18  and  N6_19 
REMARK    6  A    between atoms: N6_19  and  C8_21 
ROOT
HETATM    1  S1  UNL     1      20.576  55.963 -17.839  1.00  0.00    -0.075 SA
HETATM    2  C1  UNL     1      21.088  54.523 -18.312  1.00  0.00     0.165 C 
HETATM    3  N1  UNL     1      21.457  53.428 -18.833  1.00  0.00    -0.389 N 
ATOM      4  H1  UNL     1      22.094  53.424 -19.630  1.00  0.00     0.159 HD
ENDROOT
BRANCH   3   5
HETATM    5  C2  UNL     1      20.964  52.180 -18.281  1.00  0.00     0.139 C 
BRANCH   5   6
HETATM    6  C3  UNL     1      20.978  51.151 -19.396  1.00  0.00     0.141 C 
BRANCH   6   7
HETATM    7  N2  UNL     1      21.853  50.074 -18.945  1.00  0.00    -0.373 N 
ATOM      8  H2  UNL     1      21.467  49.202 -18.582  1.00  0.00     0.161 HD
BRANCH   7   9
HETATM    9  C4  UNL     1      23.131  50.256 -19.018  1.00  0.00     0.133 A 
HETATM   10  N3  UNL     1      23.712  50.946 -19.995  1.00  0.00    -0.337 N 
HETATM   11  C5  UNL     1      25.034  51.149 -20.093  1.00  0.00     0.183 A 
ATOM     12  H3  UNL     1      23.114  51.348 -20.717  1.00  0.00     0.168 HD
HETATM   13  N4  UNL     1      25.823  50.619 -19.143  1.00  0.00    -0.336 N 
HETATM   14  C6  UNL     1      25.283  49.911 -18.134  1.00  0.00     0.153 A 
ATOM     15  H4  UNL     1      26.834  50.753 -19.186  1.00  0.00     0.168 HD
HETATM   16  N5  UNL     1      25.834  49.282 -17.069  1.00  0.00    -0.174 N 
HETATM   17  C13 UNL     1      23.918  49.703 -18.033  1.00  0.00     0.137 A 
HETATM   18  C7  UNL     1      24.876  48.701 -16.323  1.00  0.00     0.680 A 
ATOM     19  H5  UNL     1      26.832  49.254 -16.861  1.00  0.00     0.186 HD
HETATM   20  N8  UNL     1      23.715  48.967 -16.924  1.00  0.00    -0.184 N 
ATOM     21  H8  UNL     1      22.802  48.656 -16.590  1.00  0.00     0.184 HD
BRANCH  18  22
HETATM   22  N6  UNL     1      25.104  48.024 -15.236  1.00  0.00    -0.221 N 
ATOM     23  H6  UNL     1      25.560  47.113 -15.299  1.00  0.00     0.178 HD
BRANCH  22  24
HETATM   24  C8  UNL     1      24.722  48.540 -13.935  1.00  0.00     0.102 C 
HETATM   25  C9  UNL     1      23.836  47.565 -13.212  1.00  0.00     0.053 C 
HETATM   26  C10 UNL     1      23.838  47.723 -11.730  1.00  0.00     0.234 C 
HETATM   27  N7  UNL     1      25.136  47.948 -11.159  1.00  0.00    -0.075 N 
HETATM   28  C11 UNL     1      25.655  49.184 -11.756  1.00  0.00     0.234 C 
ATOM     29  H72 UNL     1      25.128  47.967 -10.139  1.00  0.00     0.277 HD
ATOM     30  H71 UNL     1      25.766  47.153 -11.269  1.00  0.00     0.277 HD
HETATM   31  C12 UNL     1      26.000  48.837 -13.186  1.00  0.00     0.053 C 
ENDBRANCH  22  24
ENDBRANCH  18  22
ENDBRANCH   7   9
ENDBRANCH   6   7
ENDBRANCH   5   6
ENDBRANCH   3   5
TORSDOF 6
ENDMDL
MODEL 2
REMARK VINA RESULT: -7.881872455      1.037      1.142
REMARK  6 active torsions:
REMARK  status: ('A' for Active; 'I' for Inactive)
REMARK    1  A    between atoms: N1_3  and  C2_5 
REMARK    2  A    between atoms: C2_5  and  C3_6 
REMARK    3  A    between atoms: C3_6  and  N2_7 
REMARK    4  A    between atoms: N2_7  and  C4_9 
REMARK    5  A    between atoms: C7_18  and  N6_19 
REMARK    6  A    between atoms: N6_19  and  C8_21 
ROOT
HETATM    1  S1  UNL     1      20.648  54.522 -17.396  1.00  0.00    -0.075 SA
HETATM    2  C1  UNL     1      20.683  52.952 -17.701  1.00  0.00     0.165 C 
HETATM    3  N1  UNL     1      20.848  51.706 -17.866  1.00  0.00    -0.389 N 
ATOM      4  H1  UNL     1      21.076  51.105 -17.074  1.00  0.00     0.159 HD
ENDROOT
BRANCH   3   5
HETATM    5  C2  UNL     1      20.709  51.144 -19.197  1.00  0.00     0.139 C 
BRANCH   5   6
HETATM    6  C3  UNL     1      21.948  50.313 -19.473  1.00  0.00     0.141 C 
BRANCH   6   7
HETATM    7  N2  UNL     1      23.089  51.185 -19.216  1.00  0.00    -0.373 N 
ATOM      8  H2  UNL     1      22.954  52.157 -18.937  1.00  0.00     0.161 HD
BRANCH   7   9
HETATM    9  C4  UNL     1      24.276  50.691 -19.354  1.00  0.00     0.133 A 
HETATM   10  N3  UNL     1      25.072  50.985 -20.378  1.00  0.00    -0.337 N 
HETATM   11  C5  UNL     1      26.306  50.487 -20.542  1.00  0.00     0.183 A 
ATOM     12  H3  UNL     1      24.721  51.632 -21.084  1.00  0.00     0.168 HD
HETATM   13  N4  UNL     1      26.769  49.634 -19.612  1.00  0.00    -0.336 N 
HETATM   14  C6  UNL     1      26.001  49.304 -18.558  1.00  0.00     0.153 A 
ATOM     15  H4  UNL     1      27.703  49.235 -19.706  1.00  0.00     0.168 HD
HETATM   16  N5  UNL     1      26.215  48.488 -17.498  1.00  0.00    -0.174 N 
HETATM   17  C13 UNL     1      24.727  49.819 -18.387  1.00  0.00     0.137 A 
HETATM   18  C7  UNL     1      25.138  48.478 -16.692  1.00  0.00     0.680 A 
ATOM     19  H5  UNL     1      27.070  47.957 -17.336  1.00  0.00     0.186 HD
HETATM   20  N8  UNL     1      24.240  49.294 -17.247  1.00  0.00    -0.184 N 
ATOM     21  H8  UNL     1      23.317  49.493 -16.862  1.00  0.00     0.184 HD
BRANCH  18  22
HETATM   22  N6  UNL     1      25.051  47.784 -15.595  1.00  0.00    -0.221 N 
ATOM     23  H6  UNL     1      25.234  46.781 -15.620  1.00  0.00     0.178 HD
BRANCH  22  24
HETATM   24  C8  UNL     1      24.698  48.412 -14.335  1.00  0.00     0.102 C 
HETATM   25  C9  UNL     1      23.844  47.496 -13.503  1.00  0.00     0.053 C 
HETATM   26  C10 UNL     1      23.884  47.787 -12.042  1.00  0.00     0.234 C 
HETATM   27  N7  UNL     1      25.194  48.076 -11.530  1.00  0.00    -0.075 N 
HETATM   28  C11 UNL     1      25.681  49.258 -12.249  1.00  0.00     0.234 C 
ATOM     29  H72 UNL     1      25.213  48.186 -10.516  1.00  0.00     0.277 HD
ATOM     30  H71 UNL     1      25.831  47.281 -11.586  1.00  0.00     0.277 HD
HETATM   31  C12 UNL     1      25.992  48.788 -13.652  1.00  0.00     0.053 C 
ENDBRANCH  22  24
ENDBRANCH  18  22
ENDBRANCH   7   9
ENDBRANCH   6   7
ENDBRANCH   5   6
ENDBRANCH   3   5
TORSDOF 6
ENDMDL
MODEL 3
REMARK VINA RESULT: -7.728665300      2.415      3.960
REMARK  6 active torsions:
REMARK  status: ('A' for Active; 'I' for Inactive)
REMARK    1  A    between atoms: N1_3  and  C2_5 
REMARK    2  A    between atoms: C2_5  and  C3_6 
REMARK    3  A    between atoms: C3_6  and  N2_7 
REMARK    4  A    between atoms: N2_7  and  C4_9 
REMARK    5  A    between atoms: C7_18  and  N6_19 
REMARK    6  A    between atoms: N6_19  and  C8_21 
ROOT
HETATM    1  S1  UNL     1      26.625  48.861 -17.398  1.00  0.00    -0.075 SA
HETATM    2  C1  UNL     1      26.781  49.531 -18.843  1.00  0.00     0.165 C 
HETATM    3  N1  UNL     1      26.990  50.173 -19.916  1.00  0.00    -0.389 N 
ATOM      4  H1  UNL     1      27.937  50.448 -20.176  1.00  0.00     0.159 HD
ENDROOT
BRANCH   3   5
HETATM    5  C2  UNL     1      25.866  50.512 -20.768  1.00  0.00     0.139 C 
BRANCH   5   6
HETATM    6  C3  UNL     1      24.845  51.236 -19.910  1.00  0.00     0.141 C 
BRANCH   6   7
HETATM    7  N2  UNL     1      23.586  50.520 -20.082  1.00  0.00    -0.373 N 
ATOM      8  H2  UNL     1      23.466  49.842 -20.835  1.00  0.00     0.161 HD
BRANCH   7   9
HETATM    9  C4  UNL     1      22.625  50.768 -19.253  1.00  0.00     0.133 A 
HETATM   10  N3  UNL     1      21.654  51.641 -19.505  1.00  0.00    -0.337 N 
HETATM   11  C5  UNL     1      20.647  51.915 -18.662  1.00  0.00     0.183 A 
ATOM     12  H3  UNL     1      21.676  52.133 -20.398  1.00  0.00     0.168 HD
HETATM   13  N4  UNL     1      20.619  51.267 -17.485  1.00  0.00    -0.336 N 
HETATM   14  C6  UNL     1      21.579  50.375 -17.183  1.00  0.00     0.153 A 
ATOM     15  H4  UNL     1      19.868  51.452 -16.820  1.00  0.00     0.168 HD
HETATM   16  N5  UNL     1      21.788  49.599 -16.092  1.00  0.00    -0.174 N 
HETATM   17  C13 UNL     1      22.619  50.091 -18.053  1.00  0.00     0.137 A 
HETATM   18  C7  UNL     1      22.899  48.857 -16.253  1.00  0.00     0.680 A 
ATOM     19  H5  UNL     1      21.187  49.580 -15.268  1.00  0.00     0.186 HD
HETATM   20  N8  UNL     1      23.393  49.168 -17.452  1.00  0.00    -0.184 N 
ATOM     21  H8  UNL     1      24.238  48.765 -17.857  1.00  0.00     0.184 HD
BRANCH  18  22
HETATM   22  N6  UNL     1      23.351  48.016 -15.370  1.00  0.00    -0.221 N 
ATOM     23  H6  UNL     1      23.478  47.037 -15.629  1.00  0.00     0.178 HD
BRANCH  22  24
HETATM   24  C8  UNL     1      23.679  48.443 -14.023  1.00  0.00     0.102 C 
HETATM   25  C9  UNL     1      22.791  47.767 -13.016  1.00  0.00     0.053 C 
HETATM   26  C10 UNL     1      23.367  47.699 -11.644  1.00  0.00     0.234 C 
HETATM   27  N7  UNL     1      24.759  47.348 -11.601  1.00  0.00    -0.075 N 
HETATM   28  C11 UNL     1      25.480  48.380 -12.354  1.00  0.00     0.234 C 
ATOM     29  H72 UNL     1      25.112  47.221 -10.653  1.00  0.00     0.277 HD
ATOM     30  H71 UNL     1      24.945  46.402 -11.936  1.00  0.00     0.277 HD
HETATM   31  C12 UNL     1      25.144  48.140 -13.808  1.00  0.00     0.053 C 
ENDBRANCH  22  24
ENDBRANCH  18  22
ENDBRANCH   7   9
ENDBRANCH   6   7
ENDBRANCH   5   6
ENDBRANCH   3   5
TORSDOF 6
ENDMDL
MODEL 4
REMARK VINA RESULT: -7.659370782      1.227      1.619
REMARK  6 active torsions:
REMARK  status: ('A' for Active; 'I' for Inactive)
REMARK    1  A    between atoms: N1_3  and  C2_5 
REMARK    2  A    between atoms: C2_5  and  C3_6 
REMARK    3  A    between atoms: C3_6  and  N2_7 
REMARK    4  A    between atoms: N2_7  and  C4_9 
REMARK    5  A    between atoms: C7_18  and  N6_19 
REMARK    6  A    between atoms: N6_19  and  C8_21 
ROOT
HETATM    1  S1  UNL     1      21.292  55.223 -18.499  1.00  0.00    -0.075 SA
HETATM    2  C1  UNL     1      21.015  53.698 -18.104  1.00  0.00     0.165 C 
HETATM    3  N1  UNL     1      20.946  52.485 -17.742  1.00  0.00    -0.389 N 
ATOM      4  H1  UNL     1      21.250  52.206 -16.810  1.00  0.00     0.159 HD
ENDROOT
BRANCH   3   5
HETATM    5  C2  UNL     1      20.427  51.499 -18.671  1.00  0.00     0.139 C 
BRANCH   5   6
HETATM    6  C3  UNL     1      21.606  50.698 -19.192  1.00  0.00     0.141 C 
BRANCH   6   7
HETATM    7  N2  UNL     1      22.409  50.350 -18.025  1.00  0.00    -0.373 N 
ATOM      8  H2  UNL     1      22.044  50.474 -17.080  1.00  0.00     0.161 HD
BRANCH   7   9
HETATM    9  C4  UNL     1      23.598  49.880 -18.222  1.00  0.00     0.133 A 
HETATM   10  N3  UNL     1      24.338  50.194 -19.281  1.00  0.00    -0.337 N 
HETATM   11  C5  UNL     1      25.572  49.720 -19.507  1.00  0.00     0.183 A 
ATOM     12  H3  UNL     1      23.941  50.837 -19.966  1.00  0.00     0.168 HD
HETATM   13  N4  UNL     1      26.095  48.872 -18.604  1.00  0.00    -0.336 N 
HETATM   14  C6  UNL     1      25.386  48.524 -17.516  1.00  0.00     0.153 A 
ATOM     15  H4  UNL     1      27.031  48.493 -18.745  1.00  0.00     0.168 HD
HETATM   16  N5  UNL     1      25.665  47.707 -16.472  1.00  0.00    -0.174 N 
HETATM   17  C13 UNL     1      24.111  49.013 -17.282  1.00  0.00     0.137 A 
HETATM   18  C7  UNL     1      24.629  47.673 -15.615  1.00  0.00     0.680 A 
ATOM     19  H5  UNL     1      26.538  47.192 -16.353  1.00  0.00     0.186 HD
HETATM   20  N8  UNL     1      23.690  48.474 -16.122  1.00  0.00    -0.184 N 
ATOM     21  H8  UNL     1      22.783  48.653 -15.693  1.00  0.00     0.184 HD
BRANCH  18  22
HETATM   22  N6  UNL     1      24.608  46.973 -14.519  1.00  0.00    -0.221 N 
ATOM     23  H6  UNL     1      24.405  45.974 -14.565  1.00  0.00     0.178 HD
BRANCH  22  24
HETATM   24  C8  UNL     1      24.868  47.587 -13.230  1.00  0.00     0.102 C 
HETATM   25  C9  UNL     1      25.748  48.797 -13.383  1.00  0.00     0.053 C 
HETATM   26  C10 UNL     1      25.630  49.779 -12.268  1.00  0.00     0.234 C 
HETATM   27  N7  UNL     1      24.285  50.021 -11.829  1.00  0.00    -0.075 N 
HETATM   28  C11 UNL     1      23.750  48.735 -11.369  1.00  0.00     0.234 C 
ATOM     29  H72 UNL     1      24.218  50.758 -11.127  1.00  0.00     0.277 HD
ATOM     30  H71 UNL     1      23.705  50.467 -12.540  1.00  0.00     0.277 HD
HETATM   31  C12 UNL     1      23.526  47.912 -12.617  1.00  0.00     0.053 C 
ENDBRANCH  22  24
ENDBRANCH  18  22
ENDBRANCH   7   9
ENDBRANCH   6   7
ENDBRANCH   5   6
ENDBRANCH   3   5
TORSDOF 6
ENDMDL
MODEL 5
REMARK VINA RESULT: -7.651421669      1.301      1.742
REMARK  6 active torsions:
REMARK  status: ('A' for Active; 'I' for Inactive)
REMARK    1  A    between atoms: N1_3  and  C2_5 
REMARK    2  A    between atoms: C2_5  and  C3_6 
REMARK    3  A    between atoms: C3_6  and  N2_7 
REMARK    4  A    between atoms: N2_7  and  C4_9 
REMARK    5  A    between atoms: C7_18  and  N6_19 
REMARK    6  A    between atoms: N6_19  and  C8_21 
ROOT
HETATM    1  S1  UNL     1      21.380  55.248 -18.482  1.00  0.00    -0.075 SA
HETATM    2  C1  UNL     1      20.913  53.837 -17.891  1.00  0.00     0.165 C 
HETATM    3  N1  UNL     1      20.646  52.744 -17.306  1.00  0.00    -0.389 N 
ATOM      4  H1  UNL     1      20.425  52.732 -16.310  1.00  0.00     0.159 HD
ENDROOT
BRANCH   3   5
HETATM    5  C2  UNL     1      20.658  51.511 -18.071  1.00  0.00     0.139 C 
BRANCH   5   6
HETATM    6  C3  UNL     1      21.671  51.679 -19.189  1.00  0.00     0.141 C 
BRANCH   6   7
HETATM    7  N2  UNL     1      22.339  50.390 -19.329  1.00  0.00    -0.373 N 
ATOM      8  H2  UNL     1      21.804  49.536 -19.491  1.00  0.00     0.161 HD
BRANCH   7   9
HETATM    9  C4  UNL     1      23.629  50.360 -19.243  1.00  0.00     0.133 A 
HETATM   10  N3  UNL     1      24.423  51.190 -19.913  1.00  0.00    -0.337 N 
HETATM   11  C5  UNL     1      25.761  51.178 -19.841  1.00  0.00     0.183 A 
ATOM     12  H3  UNL     1      23.984  51.880 -20.523  1.00  0.00     0.168 HD
HETATM   13  N4  UNL     1      26.339  50.268 -19.038  1.00  0.00    -0.336 N 
HETATM   14  C6  UNL     1      25.580  49.406 -18.339  1.00  0.00     0.153 A 
ATOM     15  H4  UNL     1      27.356  50.231 -18.959  1.00  0.00     0.168 HD
HETATM   16  N5  UNL     1      25.895  48.410 -17.476  1.00  0.00    -0.174 N 
HETATM   17  C13 UNL     1      24.197  49.417 -18.414  1.00  0.00     0.137 A 
HETATM   18  C7  UNL     1      24.777  47.815 -17.022  1.00  0.00     0.680 A 
ATOM     19  H5  UNL     1      26.844  48.150 -17.209  1.00  0.00     0.186 HD
HETATM   20  N8  UNL     1      23.751  48.440 -17.602  1.00  0.00    -0.184 N 
ATOM     21  H8  UNL     1      22.769  48.211 -17.452  1.00  0.00     0.184 HD
BRANCH  18  22
HETATM   22  N6  UNL     1      24.766  46.825 -16.178  1.00  0.00    -0.221 N 
ATOM     23  H6  UNL     1      25.044  45.895 -16.493  1.00  0.00     0.178 HD
BRANCH  22  24
HETATM   24  C8  UNL     1      24.366  47.018 -14.797  1.00  0.00     0.102 C 
HETATM   25  C9  UNL     1      25.005  48.252 -14.223  1.00  0.00     0.053 C 
HETATM   26  C10 UNL     1      24.273  48.833 -13.062  1.00  0.00     0.234 C 
HETATM   27  N7  UNL     1      22.846  48.868 -13.217  1.00  0.00    -0.075 N 
HETATM   28  C11 UNL     1      22.403  47.480 -13.395  1.00  0.00     0.234 C 
ATOM     29  H72 UNL     1      22.371  49.346 -12.452  1.00  0.00     0.277 HD
ATOM     30  H71 UNL     1      22.539  49.487 -13.967  1.00  0.00     0.277 HD
HETATM   31  C12 UNL     1      22.856  47.077 -14.779  1.00  0.00     0.053 C 
ENDBRANCH  22  24
ENDBRANCH  18  22
ENDBRANCH   7   9
ENDBRANCH   6   7
ENDBRANCH   5   6
ENDBRANCH   3   5
TORSDOF 6
ENDMDL
