MODEL 1
REMARK VINA RESULT: -6.868187574      0.000      0.000
REMARK  9 active torsions:
REMARK  status: ('A' for Active; 'I' for Inactive)
REMARK    1  A    between atoms: C1_2  and  C2_3 
REMARK       I    between atoms: C1_2  and  N1_12 
REMARK    2  A    between atoms: C2_3  and  C3_4 
REMARK    3  A    between atoms: C3_4  and  C4_5 
REMARK    4  A    between atoms: C4_5  and  C5_6 
REMARK    5  A    between atoms: C5_6  and  C6_7 
REMARK    6  A    between atoms: C6_7  and  C7_8 
REMARK    7  A    between atoms: N1_12  and  C8_14 
REMARK    8  A    between atoms: C8_14  and  C9_15 
REMARK    9  A    between atoms: C9_15  and  N2_16 
REMARK       I    between atoms: N2_16  and  C10_18 
REMARK       I    between atoms: C10_18  and  N3_20 
ROOT
HETATM    1  O1  UNL     1       1.863  12.468 -43.003  1.00  0.00    -0.274 OA
HETATM    2  C1  UNL     1       0.851  13.094 -43.383  1.00  0.00     0.217 C 
HETATM    3  N1  UNL     1      -0.182  12.429 -44.052  1.00  0.00    -0.360 N 
ATOM      4  H1  UNL     1      -0.992  12.971 -44.355  1.00  0.00     0.162 HD
ENDROOT
BRANCH   3   5
HETATM    5  C8  UNL     1      -0.159  11.029 -44.331  1.00  0.00     0.142 C 
BRANCH   5   6
HETATM    6  C9  UNL     1      -1.151  10.296 -43.483  1.00  0.00     0.144 C 
BRANCH   6   7
HETATM    7  N2  UNL     1      -1.687  11.180 -42.489  1.00  0.00    -0.341 N 
HETATM    8  C10 UNL     1      -1.336  11.220 -41.128  1.00  0.00     0.318 C 
HETATM    9  O2  UNL     1      -0.446  10.390 -40.730  1.00  0.00    -0.247 OA
HETATM   10  N3  UNL     1      -1.919  12.123 -40.201  1.00  0.00    -0.334 N 
HETATM   11  C11 UNL     1      -2.924  13.106 -40.503  1.00  0.00     0.127 C 
HETATM   12  C14 UNL     1      -1.620  12.230 -38.798  1.00  0.00     0.127 C 
HETATM   13  C12 UNL     1      -2.406  14.293 -39.677  1.00  0.00     0.022 C 
HETATM   14  C13 UNL     1      -2.104  13.621 -38.374  1.00  0.00     0.022 C 
ATOM     15  H2  UNL     1      -2.394  11.847 -42.801  1.00  0.00     0.164 HD
ENDBRANCH   6   7
ENDBRANCH   5   6
ENDBRANCH   3   5
BRANCH   2  16
HETATM   16  C2  UNL     1       0.703  14.568 -43.141  1.00  0.00     0.103 C 
BRANCH  16  17
HETATM   17  C3  UNL     1       0.571  14.764 -41.658  1.00  0.00     0.009 C 
BRANCH  17  18
HETATM   18  C4  UNL     1       1.404  15.956 -41.246  1.00  0.00     0.001 C 
BRANCH  18  19
HETATM   19  C5  UNL     1       2.874  15.757 -41.491  1.00  0.00     0.004 C 
BRANCH  19  20
HETATM   20  C6  UNL     1       3.390  14.691 -40.548  1.00  0.00     0.059 C 
BRANCH  20  21
HETATM   21  C7  UNL     1       4.754  15.130 -40.045  1.00  0.00     0.188 C 
HETATM   22 CL1  UNL     1       4.973  16.877 -40.308  1.00  0.00    -0.084 Cl
HETATM   23 CL2  UNL     1       4.883  14.730 -38.305  1.00  0.00    -0.084 Cl
HETATM   24 CL3  UNL     1       6.009  14.210 -40.900  1.00  0.00    -0.084 Cl
ENDBRANCH  20  21
ENDBRANCH  19  20
ENDBRANCH  18  19
ENDBRANCH  17  18
ENDBRANCH  16  17
ENDBRANCH   2  16
TORSDOF 9
ENDMDL
MODEL 2
REMARK VINA RESULT: -6.813793412      2.023      2.171
REMARK  9 active torsions:
REMARK  status: ('A' for Active; 'I' for Inactive)
REMARK    1  A    between atoms: C1_2  and  C2_3 
REMARK       I    between atoms: C1_2  and  N1_12 
REMARK    2  A    between atoms: C2_3  and  C3_4 
REMARK    3  A    between atoms: C3_4  and  C4_5 
REMARK    4  A    between atoms: C4_5  and  C5_6 
REMARK    5  A    between atoms: C5_6  and  C6_7 
REMARK    6  A    between atoms: C6_7  and  C7_8 
REMARK    7  A    between atoms: N1_12  and  C8_14 
REMARK    8  A    between atoms: C8_14  and  C9_15 
REMARK    9  A    between atoms: C9_15  and  N2_16 
REMARK       I    between atoms: N2_16  and  C10_18 
REMARK       I    between atoms: C10_18  and  N3_20 
ROOT
HETATM    1  O1  UNL     1       0.349  13.245 -44.894  1.00  0.00    -0.274 OA
HETATM    2  C1  UNL     1       0.067  14.404 -44.521  1.00  0.00     0.217 C 
HETATM    3  N1  UNL     1      -1.194  14.947 -44.792  1.00  0.00    -0.360 N 
ATOM      4  H1  UNL     1      -1.390  15.898 -44.479  1.00  0.00     0.162 HD
ENDROOT
BRANCH   3   5
HETATM    5  C8  UNL     1      -2.219  14.235 -45.486  1.00  0.00     0.142 C 
BRANCH   5   6
HETATM    6  C9  UNL     1      -3.466  14.150 -44.661  1.00  0.00     0.144 C 
BRANCH   6   7
HETATM    7  N2  UNL     1      -3.125  14.111 -43.269  1.00  0.00    -0.341 N 
HETATM    8  C10 UNL     1      -2.970  12.958 -42.477  1.00  0.00     0.318 C 
HETATM    9  O2  UNL     1      -3.145  11.828 -43.052  1.00  0.00    -0.247 OA
HETATM   10  N3  UNL     1      -2.636  13.002 -41.098  1.00  0.00    -0.334 N 
HETATM   11  C11 UNL     1      -2.411  14.192 -40.324  1.00  0.00     0.127 C 
HETATM   12  C14 UNL     1      -2.460  11.877 -40.219  1.00  0.00     0.127 C 
HETATM   13  C12 UNL     1      -1.198  13.754 -39.490  1.00  0.00     0.022 C 
HETATM   14  C13 UNL     1      -1.645  12.400 -39.032  1.00  0.00     0.022 C 
ATOM     15  H2  UNL     1      -2.979  15.009 -42.806  1.00  0.00     0.164 HD
ENDBRANCH   6   7
ENDBRANCH   5   6
ENDBRANCH   3   5
BRANCH   2  16
HETATM   16  C2  UNL     1       1.055  15.251 -43.775  1.00  0.00     0.103 C 
BRANCH  16  17
HETATM   17  C3  UNL     1       1.072  14.767 -42.353  1.00  0.00     0.009 C 
BRANCH  17  18
HETATM   18  C4  UNL     1       1.117  15.962 -41.429  1.00  0.00     0.001 C 
BRANCH  18  19
HETATM   19  C5  UNL     1       2.518  16.391 -41.092  1.00  0.00     0.004 C 
BRANCH  19  20
HETATM   20  C6  UNL     1       3.383  15.160 -40.924  1.00  0.00     0.059 C 
BRANCH  20  21
HETATM   21  C7  UNL     1       4.706  15.594 -40.319  1.00  0.00     0.188 C 
HETATM   22 CL1  UNL     1       4.789  17.370 -40.233  1.00  0.00    -0.084 Cl
HETATM   23 CL2  UNL     1       4.859  14.874 -38.688  1.00  0.00    -0.084 Cl
HETATM   24 CL3  UNL     1       6.032  14.958 -41.313  1.00  0.00    -0.084 Cl
ENDBRANCH  20  21
ENDBRANCH  19  20
ENDBRANCH  18  19
ENDBRANCH  17  18
ENDBRANCH  16  17
ENDBRANCH   2  16
TORSDOF 9
ENDMDL
MODEL 3
REMARK VINA RESULT: -6.757951817      2.169      2.612
REMARK  9 active torsions:
REMARK  status: ('A' for Active; 'I' for Inactive)
REMARK    1  A    between atoms: C1_2  and  C2_3 
REMARK       I    between atoms: C1_2  and  N1_12 
REMARK    2  A    between atoms: C2_3  and  C3_4 
REMARK    3  A    between atoms: C3_4  and  C4_5 
REMARK    4  A    between atoms: C4_5  and  C5_6 
REMARK    5  A    between atoms: C5_6  and  C6_7 
REMARK    6  A    between atoms: C6_7  and  C7_8 
REMARK    7  A    between atoms: N1_12  and  C8_14 
REMARK    8  A    between atoms: C8_14  and  C9_15 
REMARK    9  A    between atoms: C9_15  and  N2_16 
REMARK       I    between atoms: N2_16  and  C10_18 
REMARK       I    between atoms: C10_18  and  N3_20 
ROOT
HETATM    1  O1  UNL     1       0.171  13.962 -45.729  1.00  0.00    -0.274 OA
HETATM    2  C1  UNL     1      -0.105  14.626 -44.706  1.00  0.00     0.217 C 
HETATM    3  N1  UNL     1      -1.432  14.759 -44.284  1.00  0.00    -0.360 N 
ATOM      4  H1  UNL     1      -1.623  15.312 -43.449  1.00  0.00     0.162 HD
ENDROOT
BRANCH   3   5
HETATM    5  C8  UNL     1      -2.533  14.156 -44.966  1.00  0.00     0.142 C 
BRANCH   5   6
HETATM    6  C9  UNL     1      -3.430  13.438 -44.007  1.00  0.00     0.144 C 
BRANCH   6   7
HETATM    7  N2  UNL     1      -2.786  13.327 -42.730  1.00  0.00    -0.341 N 
HETATM    8  C10 UNL     1      -3.181  13.957 -41.536  1.00  0.00     0.318 C 
HETATM    9  O2  UNL     1      -4.222  14.701 -41.585  1.00  0.00    -0.247 OA
HETATM   10  N3  UNL     1      -2.485  13.803 -40.309  1.00  0.00    -0.334 N 
HETATM   11  C11 UNL     1      -1.307  13.004 -40.104  1.00  0.00     0.127 C 
HETATM   12  C14 UNL     1      -2.818  14.409 -39.048  1.00  0.00     0.127 C 
HETATM   13  C12 UNL     1      -1.636  12.369 -38.745  1.00  0.00     0.022 C 
HETATM   14  C13 UNL     1      -2.109  13.567 -37.981  1.00  0.00     0.022 C 
ATOM     15  H2  UNL     1      -1.958  12.732 -42.683  1.00  0.00     0.164 HD
ENDBRANCH   6   7
ENDBRANCH   5   6
ENDBRANCH   3   5
BRANCH   2  16
HETATM   16  C2  UNL     1       0.964  15.300 -43.897  1.00  0.00     0.103 C 
BRANCH  16  17
HETATM   17  C3  UNL     1       0.976  14.648 -42.544  1.00  0.00     0.009 C 
BRANCH  17  18
HETATM   18  C4  UNL     1       1.112  15.719 -41.486  1.00  0.00     0.001 C 
BRANCH  18  19
HETATM   19  C5  UNL     1       2.539  16.134 -41.251  1.00  0.00     0.004 C 
BRANCH  19  20
HETATM   20  C6  UNL     1       3.335  14.925 -40.808  1.00  0.00     0.059 C 
BRANCH  20  21
HETATM   21  C7  UNL     1       4.667  15.413 -40.265  1.00  0.00     0.188 C 
HETATM   22 CL1  UNL     1       6.002  14.793 -41.265  1.00  0.00    -0.084 Cl
HETATM   23 CL2  UNL     1       4.663  17.203 -40.251  1.00  0.00    -0.084 Cl
HETATM   24 CL3  UNL     1       4.842  14.864 -38.586  1.00  0.00    -0.084 Cl
ENDBRANCH  20  21
ENDBRANCH  19  20
ENDBRANCH  18  19
ENDBRANCH  17  18
ENDBRANCH  16  17
ENDBRANCH   2  16
TORSDOF 9
ENDMDL
MODEL 4
REMARK VINA RESULT: -6.638978905      3.305      5.198
REMARK  9 active torsions:
REMARK  status: ('A' for Active; 'I' for Inactive)
REMARK    1  A    between atoms: C1_2  and  C2_3 
REMARK       I    between atoms: C1_2  and  N1_12 
REMARK    2  A    between atoms: C2_3  and  C3_4 
REMARK    3  A    between atoms: C3_4  and  C4_5 
REMARK    4  A    between atoms: C4_5  and  C5_6 
REMARK    5  A    between atoms: C5_6  and  C6_7 
REMARK    6  A    between atoms: C6_7  and  C7_8 
REMARK    7  A    between atoms: N1_12  and  C8_14 
REMARK    8  A    between atoms: C8_14  and  C9_15 
REMARK    9  A    between atoms: C9_15  and  N2_16 
REMARK       I    between atoms: N2_16  and  C10_18 
REMARK       I    between atoms: C10_18  and  N3_20 
ROOT
HETATM    1  O1  UNL     1       1.693  12.442 -43.323  1.00  0.00    -0.274 OA
HETATM    2  C1  UNL     1       0.514  12.846 -43.423  1.00  0.00     0.217 C 
HETATM    3  N1  UNL     1      -0.409  12.146 -44.206  1.00  0.00    -0.360 N 
ATOM      4  H1  UNL     1      -1.362  12.506 -44.272  1.00  0.00     0.162 HD
ENDROOT
BRANCH   3   5
HETATM    5  C8  UNL     1      -0.084  10.952 -44.919  1.00  0.00     0.142 C 
BRANCH   5   6
HETATM    6  C9  UNL     1      -0.816  10.889 -46.223  1.00  0.00     0.144 C 
BRANCH   6   7
HETATM    7  N2  UNL     1      -0.779  12.172 -46.863  1.00  0.00    -0.341 N 
HETATM    8  C10 UNL     1      -1.851  12.819 -47.504  1.00  0.00     0.318 C 
HETATM    9  O2  UNL     1      -2.977  12.210 -47.517  1.00  0.00    -0.247 OA
HETATM   10  N3  UNL     1      -1.734  14.092 -48.122  1.00  0.00    -0.334 N 
HETATM   11  C11 UNL     1      -0.539  14.889 -48.186  1.00  0.00     0.127 C 
HETATM   12  C14 UNL     1      -2.774  14.821 -48.797  1.00  0.00     0.127 C 
HETATM   13  C12 UNL     1      -1.122  16.283 -47.912  1.00  0.00     0.022 C 
HETATM   14  C13 UNL     1      -2.305  16.279 -48.831  1.00  0.00     0.022 C 
ATOM     15  H2  UNL     1       0.114  12.665 -46.852  1.00  0.00     0.164 HD
ENDBRANCH   6   7
ENDBRANCH   5   6
ENDBRANCH   3   5
BRANCH   2  16
HETATM   16  C2  UNL     1       0.046  14.083 -42.714  1.00  0.00     0.103 C 
BRANCH  16  17
HETATM   17  C3  UNL     1       1.129  15.114 -42.855  1.00  0.00     0.009 C 
BRANCH  17  18
HETATM   18  C4  UNL     1       1.157  15.968 -41.609  1.00  0.00     0.001 C 
BRANCH  18  19
HETATM   19  C5  UNL     1       2.550  16.355 -41.194  1.00  0.00     0.004 C 
BRANCH  19  20
HETATM   20  C6  UNL     1       3.373  15.099 -40.999  1.00  0.00     0.059 C 
BRANCH  20  21
HETATM   21  C7  UNL     1       4.679  15.492 -40.331  1.00  0.00     0.188 C 
HETATM   22 CL1  UNL     1       4.769  14.790 -38.698  1.00  0.00    -0.084 Cl
HETATM   23 CL2  UNL     1       6.039  14.920 -41.343  1.00  0.00    -0.084 Cl
HETATM   24 CL3  UNL     1       4.776  17.263 -40.252  1.00  0.00    -0.084 Cl
ENDBRANCH  20  21
ENDBRANCH  19  20
ENDBRANCH  18  19
ENDBRANCH  17  18
ENDBRANCH  16  17
ENDBRANCH   2  16
TORSDOF 9
ENDMDL
MODEL 5
REMARK VINA RESULT: -6.614645156      2.972      4.708
REMARK  9 active torsions:
REMARK  status: ('A' for Active; 'I' for Inactive)
REMARK    1  A    between atoms: C1_2  and  C2_3 
REMARK       I    between atoms: C1_2  and  N1_12 
REMARK    2  A    between atoms: C2_3  and  C3_4 
REMARK    3  A    between atoms: C3_4  and  C4_5 
REMARK    4  A    between atoms: C4_5  and  C5_6 
REMARK    5  A    between atoms: C5_6  and  C6_7 
REMARK    6  A    between atoms: C6_7  and  C7_8 
REMARK    7  A    between atoms: N1_12  and  C8_14 
REMARK    8  A    between atoms: C8_14  and  C9_15 
REMARK    9  A    between atoms: C9_15  and  N2_16 
REMARK       I    between atoms: N2_16  and  C10_18 
REMARK       I    between atoms: C10_18  and  N3_20 
ROOT
HETATM    1  O1  UNL     1       4.127  17.472 -40.335  1.00  0.00    -0.274 OA
HETATM    2  C1  UNL     1       4.217  16.286 -40.721  1.00  0.00     0.217 C 
HETATM    3  N1  UNL     1       3.107  15.634 -41.268  1.00  0.00    -0.360 N 
ATOM      4  H1  UNL     1       3.213  14.664 -41.568  1.00  0.00     0.162 HD
ENDROOT
BRANCH   3   5
HETATM    5  C8  UNL     1       1.833  16.258 -41.427  1.00  0.00     0.142 C 
BRANCH   5   6
HETATM    6  C9  UNL     1       1.158  15.790 -42.679  1.00  0.00     0.144 C 
BRANCH   6   7
HETATM    7  N2  UNL     1       0.250  14.723 -42.370  1.00  0.00    -0.341 N 
HETATM    8  C10 UNL     1       0.542  13.347 -42.380  1.00  0.00     0.318 C 
HETATM    9  O2  UNL     1       1.736  13.006 -42.691  1.00  0.00    -0.247 OA
HETATM   10  N3  UNL     1      -0.417  12.347 -42.069  1.00  0.00    -0.334 N 
HETATM   11  C11 UNL     1      -1.788  12.581 -41.705  1.00  0.00     0.127 C 
HETATM   12  C14 UNL     1      -0.205  10.925 -42.056  1.00  0.00     0.127 C 
HETATM   13  C12 UNL     1      -1.953  11.555 -40.574  1.00  0.00     0.022 C 
HETATM   14  C13 UNL     1      -1.335  10.343 -41.201  1.00  0.00     0.022 C 
ATOM     15  H2  UNL     1      -0.702  14.990 -42.118  1.00  0.00     0.164 HD
ENDBRANCH   6   7
ENDBRANCH   5   6
ENDBRANCH   3   5
BRANCH   2  16
HETATM   16  C2  UNL     1       5.505  15.523 -40.616  1.00  0.00     0.103 C 
BRANCH  16  17
HETATM   17  C3  UNL     1       5.216  14.267 -39.845  1.00  0.00     0.009 C 
BRANCH  17  18
HETATM   18  C4  UNL     1       4.929  14.631 -38.406  1.00  0.00     0.001 C 
BRANCH  18  19
HETATM   19  C5  UNL     1       5.924  14.045 -37.443  1.00  0.00     0.004 C 
BRANCH  19  20
HETATM   20  C6  UNL     1       6.374  12.696 -37.961  1.00  0.00     0.059 C 
BRANCH  20  21
HETATM   21  C7  UNL     1       7.867  12.570 -37.710  1.00  0.00     0.188 C 
HETATM   22 CL1  UNL     1       8.774  12.985 -39.184  1.00  0.00    -0.084 Cl
HETATM   23 CL2  UNL     1       8.318  13.656 -36.361  1.00  0.00    -0.084 Cl
HETATM   24 CL3  UNL     1       8.229  10.908 -37.203  1.00  0.00    -0.084 Cl
ENDBRANCH  20  21
ENDBRANCH  19  20
ENDBRANCH  18  19
ENDBRANCH  17  18
ENDBRANCH  16  17
ENDBRANCH   2  16
TORSDOF 9
ENDMDL
