MODEL 1
REMARK VINA RESULT: -5.919569938      0.000      0.000
REMARK  11 active torsions:
REMARK  status: ('A' for Active; 'I' for Inactive)
REMARK    1  A    between atoms: C2_2  and  C3_4 
REMARK       I    between atoms: C3_4  and  N1_6 
REMARK    2  A    between atoms: N1_6  and  C4_8 
REMARK    3  A    between atoms: C4_8  and  C5_9 
REMARK    4  A    between atoms: C5_9  and  C6_10 
REMARK    5  A    between atoms: C6_10  and  N2_12 
REMARK    6  A    between atoms: N2_12  and  C7_14 
REMARK    7  A    between atoms: C7_14  and  C8_15 
REMARK    8  A    between atoms: C8_15  and  C9_16 
REMARK    9  A    between atoms: C9_16  and  C10_17 
REMARK   10  A    between atoms: C10_17  and  C11_18 
REMARK   11  A    between atoms: C11_18  and  C12_19 
ROOT
HETATM    1  C6  UNL     1      -0.904  13.552 -42.030  1.00  0.00     0.074 C 
HETATM    2  S1  UNL     1      -0.296  13.110 -43.471  1.00  0.00    -0.066 SA
ENDROOT
BRANCH   1   3
HETATM    3  C5  UNL     1      -2.054  12.824 -41.438  1.00  0.00     0.089 C 
BRANCH   3   4
HETATM    4  C4  UNL     1      -1.581  12.075 -40.240  1.00  0.00     0.130 C 
BRANCH   4   5
HETATM    5  N1  UNL     1      -2.330  12.378 -39.042  1.00  0.00    -0.356 N 
HETATM    6  C3  UNL     1      -1.786  13.315 -38.131  1.00  0.00     0.258 C 
HETATM    7  O1  UNL     1      -0.658  13.849 -38.411  1.00  0.00    -0.267 OA
ATOM      8  H1  UNL     1      -3.227  11.929 -38.858  1.00  0.00     0.162 HD
BRANCH   6   9
HETATM    9  C2  UNL     1      -2.398  13.733 -36.891  1.00  0.00     0.069 C 
HETATM   10  C1  UNL     1      -2.273  13.006 -35.811  1.00  0.00     0.037 C 
HETATM   11 BR1  UNL     1      -3.412  15.361 -36.781  1.00  0.00    -0.046 Br
ENDBRANCH   6   9
ENDBRANCH   4   5
ENDBRANCH   3   4
ENDBRANCH   1   3
BRANCH   1  12
HETATM   12  N2  UNL     1      -0.318  14.646 -41.346  1.00  0.00    -0.384 N 
ATOM     13  H2  UNL     1      -0.905  15.310 -40.841  1.00  0.00     0.160 HD
BRANCH  12  14
HETATM   14  C7  UNL     1       1.122  14.815 -41.368  1.00  0.00     0.120 C 
BRANCH  14  15
HETATM   15  C8  UNL     1       1.535  16.099 -40.690  1.00  0.00     0.020 C 
BRANCH  15  16
HETATM   16  C9  UNL     1       3.023  16.207 -40.603  1.00  0.00     0.002 C 
BRANCH  16  17
HETATM   17  C10 UNL     1       3.490  17.490 -39.974  1.00  0.00     0.001 C 
BRANCH  17  18
HETATM   18  C11 UNL     1       4.845  17.388 -39.355  1.00  0.00     0.011 C 
BRANCH  18  19
HETATM   19  C12 UNL     1       5.423  15.996 -39.453  1.00  0.00     0.085 C 
HETATM   20 BR2  UNL     1       5.157  15.052 -37.787  1.00  0.00    -0.097 Br
ENDBRANCH  18  19
ENDBRANCH  17  18
ENDBRANCH  16  17
ENDBRANCH  15  16
ENDBRANCH  14  15
ENDBRANCH  12  14
ENDBRANCH   1  12
TORSDOF 11
ENDMDL
MODEL 2
REMARK VINA RESULT: -5.816720914      1.983      6.559
REMARK  11 active torsions:
REMARK  status: ('A' for Active; 'I' for Inactive)
REMARK    1  A    between atoms: C2_2  and  C3_4 
REMARK       I    between atoms: C3_4  and  N1_6 
REMARK    2  A    between atoms: N1_6  and  C4_8 
REMARK    3  A    between atoms: C4_8  and  C5_9 
REMARK    4  A    between atoms: C5_9  and  C6_10 
REMARK    5  A    between atoms: C6_10  and  N2_12 
REMARK    6  A    between atoms: N2_12  and  C7_14 
REMARK    7  A    between atoms: C7_14  and  C8_15 
REMARK    8  A    between atoms: C8_15  and  C9_16 
REMARK    9  A    between atoms: C9_16  and  C10_17 
REMARK   10  A    between atoms: C10_17  and  C11_18 
REMARK   11  A    between atoms: C11_18  and  C12_19 
ROOT
HETATM    1  C6  UNL     1       0.358  13.879 -41.222  1.00  0.00     0.074 C 
HETATM    2  S1  UNL     1       0.810  13.904 -42.782  1.00  0.00    -0.066 SA
ENDROOT
BRANCH   1   3
HETATM    3  C5  UNL     1       0.538  15.074 -40.360  1.00  0.00     0.089 C 
BRANCH   3   4
HETATM    4  C4  UNL     1       1.317  16.095 -41.115  1.00  0.00     0.130 C 
BRANCH   4   5
HETATM    5  N1  UNL     1       2.344  16.732 -40.322  1.00  0.00    -0.356 N 
HETATM    6  C3  UNL     1       3.648  16.185 -40.351  1.00  0.00     0.258 C 
HETATM    7  O1  UNL     1       3.858  15.153 -41.077  1.00  0.00    -0.267 OA
ATOM      8  H1  UNL     1       2.133  17.554 -39.757  1.00  0.00     0.162 HD
BRANCH   6   9
HETATM    9  C2  UNL     1       4.789  16.693 -39.624  1.00  0.00     0.069 C 
HETATM   10  C1  UNL     1       4.900  17.971 -39.372  1.00  0.00     0.037 C 
HETATM   11 BR1  UNL     1       6.177  15.517 -39.003  1.00  0.00    -0.046 Br
ENDBRANCH   6   9
ENDBRANCH   4   5
ENDBRANCH   3   4
ENDBRANCH   1   3
BRANCH   1  12
HETATM   12  N2  UNL     1      -0.214  12.693 -40.693  1.00  0.00    -0.384 N 
ATOM     13  H2  UNL     1       0.341  12.076 -40.101  1.00  0.00     0.160 HD
BRANCH  12  14
HETATM   14  C7  UNL     1      -1.592  12.366 -41.002  1.00  0.00     0.120 C 
BRANCH  14  15
HETATM   15  C8  UNL     1      -2.338  11.914 -39.769  1.00  0.00     0.020 C 
BRANCH  15  16
HETATM   16  C9  UNL     1      -1.453  11.948 -38.564  1.00  0.00     0.002 C 
BRANCH  16  17
HETATM   17  C10 UNL     1      -2.040  12.727 -37.420  1.00  0.00     0.001 C 
BRANCH  17  18
HETATM   18  C11 UNL     1      -1.808  14.199 -37.524  1.00  0.00     0.011 C 
BRANCH  18  19
HETATM   19  C12 UNL     1      -3.095  14.981 -37.633  1.00  0.00     0.085 C 
HETATM   20 BR2  UNL     1      -3.358  15.570 -39.455  1.00  0.00    -0.097 Br
ENDBRANCH  18  19
ENDBRANCH  17  18
ENDBRANCH  16  17
ENDBRANCH  15  16
ENDBRANCH  14  15
ENDBRANCH  12  14
ENDBRANCH   1  12
TORSDOF 11
ENDMDL
MODEL 3
REMARK VINA RESULT: -5.814175908      2.020      2.532
REMARK  11 active torsions:
REMARK  status: ('A' for Active; 'I' for Inactive)
REMARK    1  A    between atoms: C2_2  and  C3_4 
REMARK       I    between atoms: C3_4  and  N1_6 
REMARK    2  A    between atoms: N1_6  and  C4_8 
REMARK    3  A    between atoms: C4_8  and  C5_9 
REMARK    4  A    between atoms: C5_9  and  C6_10 
REMARK    5  A    between atoms: C6_10  and  N2_12 
REMARK    6  A    between atoms: N2_12  and  C7_14 
REMARK    7  A    between atoms: C7_14  and  C8_15 
REMARK    8  A    between atoms: C8_15  and  C9_16 
REMARK    9  A    between atoms: C9_16  and  C10_17 
REMARK   10  A    between atoms: C10_17  and  C11_18 
REMARK   11  A    between atoms: C11_18  and  C12_19 
ROOT
HETATM    1  C6  UNL     1       1.088  14.916 -42.636  1.00  0.00     0.074 C 
HETATM    2  S1  UNL     1       0.499  14.944 -44.150  1.00  0.00    -0.066 SA
ENDROOT
BRANCH   1   3
HETATM    3  C5  UNL     1       1.472  13.633 -41.996  1.00  0.00     0.089 C 
BRANCH   3   4
HETATM    4  C4  UNL     1       0.235  12.872 -41.669  1.00  0.00     0.130 C 
BRANCH   4   5
HETATM    5  N1  UNL     1      -0.259  13.127 -40.335  1.00  0.00    -0.356 N 
HETATM    6  C3  UNL     1      -1.485  13.820 -40.196  1.00  0.00     0.258 C 
HETATM    7  O1  UNL     1      -2.099  14.187 -41.257  1.00  0.00    -0.267 OA
ATOM      8  H1  UNL     1       0.262  12.816 -39.516  1.00  0.00     0.162 HD
BRANCH   6   9
HETATM    9  C2  UNL     1      -2.122  14.157 -38.944  1.00  0.00     0.069 C 
HETATM   10  C1  UNL     1      -2.871  15.225 -38.848  1.00  0.00     0.037 C 
HETATM   11 BR1  UNL     1      -1.894  13.060 -37.383  1.00  0.00    -0.046 Br
ENDBRANCH   6   9
ENDBRANCH   4   5
ENDBRANCH   3   4
ENDBRANCH   1   3
BRANCH   1  12
HETATM   12  N2  UNL     1       1.231  16.140 -41.934  1.00  0.00    -0.384 N 
ATOM     13  H2  UNL     1       1.061  17.027 -42.408  1.00  0.00     0.160 HD
BRANCH  12  14
HETATM   14  C7  UNL     1       1.620  16.120 -40.537  1.00  0.00     0.120 C 
BRANCH  14  15
HETATM   15  C8  UNL     1       2.917  16.862 -40.319  1.00  0.00     0.020 C 
BRANCH  15  16
HETATM   16  C9  UNL     1       4.072  15.915 -40.253  1.00  0.00     0.002 C 
BRANCH  16  17
HETATM   17  C10 UNL     1       3.857  14.783 -39.286  1.00  0.00     0.001 C 
BRANCH  17  18
HETATM   18  C11 UNL     1       4.808  14.799 -38.134  1.00  0.00     0.011 C 
BRANCH  18  19
HETATM   19  C12 UNL     1       6.144  15.401 -38.496  1.00  0.00     0.085 C 
HETATM   20 BR2  UNL     1       7.377  14.008 -39.022  1.00  0.00    -0.097 Br
ENDBRANCH  18  19
ENDBRANCH  17  18
ENDBRANCH  16  17
ENDBRANCH  15  16
ENDBRANCH  14  15
ENDBRANCH  12  14
ENDBRANCH   1  12
TORSDOF 11
ENDMDL
MODEL 4
REMARK VINA RESULT: -5.779253241      2.383      6.913
REMARK  11 active torsions:
REMARK  status: ('A' for Active; 'I' for Inactive)
REMARK    1  A    between atoms: C2_2  and  C3_4 
REMARK       I    between atoms: C3_4  and  N1_6 
REMARK    2  A    between atoms: N1_6  and  C4_8 
REMARK    3  A    between atoms: C4_8  and  C5_9 
REMARK    4  A    between atoms: C5_9  and  C6_10 
REMARK    5  A    between atoms: C6_10  and  N2_12 
REMARK    6  A    between atoms: N2_12  and  C7_14 
REMARK    7  A    between atoms: C7_14  and  C8_15 
REMARK    8  A    between atoms: C8_15  and  C9_16 
REMARK    9  A    between atoms: C9_16  and  C10_17 
REMARK   10  A    between atoms: C10_17  and  C11_18 
REMARK   11  A    between atoms: C11_18  and  C12_19 
ROOT
HETATM    1  C6  UNL     1       0.227  14.407 -40.566  1.00  0.00     0.074 C 
HETATM    2  S1  UNL     1      -0.022  13.650 -41.982  1.00  0.00    -0.066 SA
ENDROOT
BRANCH   1   3
HETATM    3  C5  UNL     1       1.216  15.509 -40.460  1.00  0.00     0.089 C 
BRANCH   3   4
HETATM    4  C4  UNL     1       2.568  14.971 -40.777  1.00  0.00     0.130 C 
BRANCH   4   5
HETATM    5  N1  UNL     1       3.353  14.663 -39.603  1.00  0.00    -0.356 N 
HETATM    6  C3  UNL     1       4.758  14.811 -39.679  1.00  0.00     0.258 C 
HETATM    7  O1  UNL     1       5.268  15.210 -40.782  1.00  0.00    -0.267 OA
ATOM      8  H1  UNL     1       2.905  14.348 -38.743  1.00  0.00     0.162 HD
BRANCH   6   9
HETATM    9  C2  UNL     1       5.690  14.549 -38.606  1.00  0.00     0.069 C 
HETATM   10  C1  UNL     1       5.322  14.688 -37.359  1.00  0.00     0.037 C 
HETATM   11 BR1  UNL     1       7.493  13.992 -38.968  1.00  0.00    -0.046 Br
ENDBRANCH   6   9
ENDBRANCH   4   5
ENDBRANCH   3   4
ENDBRANCH   1   3
BRANCH   1  12
HETATM   12  N2  UNL     1      -0.517  13.999 -39.431  1.00  0.00    -0.384 N 
ATOM     13  H2  UNL     1      -0.327  14.412 -38.517  1.00  0.00     0.160 HD
BRANCH  12  14
HETATM   14  C7  UNL     1      -1.548  12.990 -39.577  1.00  0.00     0.120 C 
BRANCH  14  15
HETATM   15  C8  UNL     1      -1.930  12.399 -38.241  1.00  0.00     0.020 C 
BRANCH  15  16
HETATM   16  C9  UNL     1      -1.604  13.339 -37.125  1.00  0.00     0.002 C 
BRANCH  16  17
HETATM   17  C10 UNL     1      -2.611  13.307 -36.009  1.00  0.00     0.001 C 
BRANCH  17  18
HETATM   18  C11 UNL     1      -3.641  14.385 -36.109  1.00  0.00     0.011 C 
BRANCH  18  19
HETATM   19  C12 UNL     1      -3.177  15.551 -36.948  1.00  0.00     0.085 C 
HETATM   20 BR2  UNL     1      -4.267  15.695 -38.539  1.00  0.00    -0.097 Br
ENDBRANCH  18  19
ENDBRANCH  17  18
ENDBRANCH  16  17
ENDBRANCH  15  16
ENDBRANCH  14  15
ENDBRANCH  12  14
ENDBRANCH   1  12
TORSDOF 11
ENDMDL
MODEL 5
REMARK VINA RESULT: -5.725931695      1.162      1.555
REMARK  11 active torsions:
REMARK  status: ('A' for Active; 'I' for Inactive)
REMARK    1  A    between atoms: C2_2  and  C3_4 
REMARK       I    between atoms: C3_4  and  N1_6 
REMARK    2  A    between atoms: N1_6  and  C4_8 
REMARK    3  A    between atoms: C4_8  and  C5_9 
REMARK    4  A    between atoms: C5_9  and  C6_10 
REMARK    5  A    between atoms: C6_10  and  N2_12 
REMARK    6  A    between atoms: N2_12  and  C7_14 
REMARK    7  A    between atoms: C7_14  and  C8_15 
REMARK    8  A    between atoms: C8_15  and  C9_16 
REMARK    9  A    between atoms: C9_16  and  C10_17 
REMARK   10  A    between atoms: C10_17  and  C11_18 
REMARK   11  A    between atoms: C11_18  and  C12_19 
ROOT
HETATM    1  C6  UNL     1       0.595  14.521 -42.305  1.00  0.00     0.074 C 
HETATM    2  S1  UNL     1       0.360  14.044 -43.840  1.00  0.00    -0.066 SA
ENDROOT
BRANCH   1   3
HETATM    3  C5  UNL     1       0.249  13.627 -41.172  1.00  0.00     0.089 C 
BRANCH   3   4
HETATM    4  C4  UNL     1      -1.219  13.706 -40.931  1.00  0.00     0.130 C 
BRANCH   4   5
HETATM    5  N1  UNL     1      -1.559  14.281 -39.650  1.00  0.00    -0.356 N 
HETATM    6  C3  UNL     1      -1.965  13.410 -38.612  1.00  0.00     0.258 C 
HETATM    7  O1  UNL     1      -2.012  12.155 -38.855  1.00  0.00    -0.267 OA
ATOM      8  H1  UNL     1      -1.508  15.288 -39.499  1.00  0.00     0.162 HD
BRANCH   6   9
HETATM    9  C2  UNL     1      -2.340  13.812 -37.275  1.00  0.00     0.069 C 
HETATM   10  C1  UNL     1      -2.013  13.077 -36.245  1.00  0.00     0.037 C 
HETATM   11 BR1  UNL     1      -3.326  15.432 -36.964  1.00  0.00    -0.046 Br
ENDBRANCH   6   9
ENDBRANCH   4   5
ENDBRANCH   3   4
ENDBRANCH   1   3
BRANCH   1  12
HETATM   12  N2  UNL     1       1.139  15.809 -42.063  1.00  0.00    -0.384 N 
ATOM     13  H2  UNL     1       1.255  16.469 -42.832  1.00  0.00     0.160 HD
BRANCH  12  14
HETATM   14  C7  UNL     1       1.528  16.178 -40.716  1.00  0.00     0.120 C 
BRANCH  14  15
HETATM   15  C8  UNL     1       3.013  16.001 -40.508  1.00  0.00     0.020 C 
BRANCH  15  16
HETATM   16  C9  UNL     1       3.633  17.250 -39.968  1.00  0.00     0.002 C 
BRANCH  16  17
HETATM   17  C10 UNL     1       5.076  17.079 -39.584  1.00  0.00     0.001 C 
BRANCH  17  18
HETATM   18  C11 UNL     1       5.701  15.851 -40.162  1.00  0.00     0.011 C 
BRANCH  18  19
HETATM   19  C12 UNL     1       6.430  15.030 -39.125  1.00  0.00     0.085 C 
HETATM   20 BR2  UNL     1       5.316  14.801 -37.562  1.00  0.00    -0.097 Br
ENDBRANCH  18  19
ENDBRANCH  17  18
ENDBRANCH  16  17
ENDBRANCH  15  16
ENDBRANCH  14  15
ENDBRANCH  12  14
ENDBRANCH   1  12
TORSDOF 11
ENDMDL
