MODEL 1
REMARK VINA RESULT: -5.805229947      0.000      0.000
REMARK  3 active torsions:
REMARK  status: ('A' for Active; 'I' for Inactive)
REMARK    1  A    between atoms: C2_2  and  C3_3 
REMARK    2  A    between atoms: C5_7  and  C7_9 
REMARK       I    between atoms: C7_9  and  N1_11 
REMARK    3  A    between atoms: N1_11  and  C8_13 
ROOT
HETATM    1  C3  UNL     1      -2.420  13.020 -39.771  1.00  0.00     0.046 A 
HETATM    2  C4  UNL     1      -2.491  11.975 -40.883  1.00  0.00     0.134 A 
HETATM    3 CL1  UNL     1      -1.165  10.792 -40.978  1.00  0.00    -0.100 Cl
HETATM    4 CL2  UNL     1      -4.050  11.370 -41.418  1.00  0.00    -0.100 Cl
HETATM    5  C5  UNL     1      -2.142  13.441 -41.128  1.00  0.00     0.079 A 
HETATM    6  C6  UNL     1      -3.282  14.207 -41.827  1.00  0.00     0.029 C 
ENDROOT
BRANCH   5   7
HETATM    7  C7  UNL     1      -0.839  13.653 -41.741  1.00  0.00     0.230 C 
HETATM    8  O1  UNL     1      -0.654  13.438 -42.963  1.00  0.00    -0.273 OA
HETATM    9  N1  UNL     1       0.310  14.112 -41.018  1.00  0.00    -0.356 N 
ATOM     10  H1  UNL     1       0.200  14.298 -40.022  1.00  0.00     0.162 HD
BRANCH   9  11
HETATM   11  C8  UNL     1       1.590  14.327 -41.593  1.00  0.00     0.084 A 
HETATM   12  C9  UNL     1       2.790  14.656 -40.797  1.00  0.00     0.027 A 
HETATM   13  C10 UNL     1       2.161  15.748 -41.627  1.00  0.00     0.027 A 
ENDBRANCH   9  11
ENDBRANCH   5   7
BRANCH   1  14
HETATM   14  C2  UNL     1      -1.433  12.690 -38.710  1.00  0.00     0.004 C 
HETATM   15  C1  UNL     1      -1.998  13.162 -37.362  1.00  0.00     0.005 C 
ENDBRANCH   1  14
TORSDOF 3
ENDMDL
MODEL 2
REMARK VINA RESULT: -5.480395984      1.728      2.618
REMARK  3 active torsions:
REMARK  status: ('A' for Active; 'I' for Inactive)
REMARK    1  A    between atoms: C2_2  and  C3_3 
REMARK    2  A    between atoms: C5_7  and  C7_9 
REMARK       I    between atoms: C7_9  and  N1_11 
REMARK    3  A    between atoms: N1_11  and  C8_13 
ROOT
HETATM    1  C3  UNL     1      -2.261  13.596 -41.769  1.00  0.00     0.046 A 
HETATM    2  C4  UNL     1      -1.526  12.610 -40.862  1.00  0.00     0.134 A 
HETATM    3 CL1  UNL     1      -1.252  13.104 -39.174  1.00  0.00    -0.100 Cl
HETATM    4 CL2  UNL     1      -1.736  10.883 -41.094  1.00  0.00    -0.100 Cl
HETATM    5  C5  UNL     1      -0.835  13.425 -41.952  1.00  0.00     0.079 A 
HETATM    6  C6  UNL     1      -0.424  12.560 -43.160  1.00  0.00     0.029 C 
ENDROOT
BRANCH   5   7
HETATM    7  C7  UNL     1       0.231  14.291 -41.470  1.00  0.00     0.230 C 
HETATM    8  O1  UNL     1       0.027  15.509 -41.248  1.00  0.00    -0.273 OA
HETATM    9  N1  UNL     1       1.566  13.837 -41.217  1.00  0.00    -0.356 N 
ATOM     10  H1  UNL     1       1.773  12.853 -41.386  1.00  0.00     0.162 HD
BRANCH   9  11
HETATM   11  C8  UNL     1       2.623  14.662 -40.747  1.00  0.00     0.084 A 
HETATM   12  C9  UNL     1       3.540  15.394 -41.643  1.00  0.00     0.027 A 
HETATM   13  C10 UNL     1       4.068  14.185 -40.912  1.00  0.00     0.027 A 
ENDBRANCH   9  11
ENDBRANCH   5   7
BRANCH   1  14
HETATM   14  C2  UNL     1      -2.950  14.684 -41.029  1.00  0.00     0.004 C 
HETATM   15  C1  UNL     1      -4.255  15.019 -41.767  1.00  0.00     0.005 C 
ENDBRANCH   1  14
TORSDOF 3
ENDMDL
MODEL 3
REMARK VINA RESULT: -4.991012220      1.849      2.660
REMARK  3 active torsions:
REMARK  status: ('A' for Active; 'I' for Inactive)
REMARK    1  A    between atoms: C2_2  and  C3_3 
REMARK    2  A    between atoms: C5_7  and  C7_9 
REMARK       I    between atoms: C7_9  and  N1_11 
REMARK    3  A    between atoms: N1_11  and  C8_13 
ROOT
HETATM    1  C3  UNL     1      -3.027  12.341 -41.361  1.00  0.00     0.046 A 
HETATM    2  C4  UNL     1      -3.204  13.700 -42.036  1.00  0.00     0.134 A 
HETATM    3 CL1  UNL     1      -2.752  13.824 -43.752  1.00  0.00    -0.100 Cl
HETATM    4 CL2  UNL     1      -4.520  14.754 -41.548  1.00  0.00    -0.100 Cl
HETATM    5  C5  UNL     1      -2.091  13.397 -41.037  1.00  0.00     0.079 A 
HETATM    6  C6  UNL     1      -2.318  14.084 -39.677  1.00  0.00     0.029 C 
ENDROOT
BRANCH   5   7
HETATM    7  C7  UNL     1      -0.746  13.581 -41.563  1.00  0.00     0.230 C 
HETATM    8  O1  UNL     1      -0.085  12.613 -42.008  1.00  0.00    -0.273 OA
HETATM    9  N1  UNL     1      -0.083  14.851 -41.612  1.00  0.00    -0.356 N 
ATOM     10  H1  UNL     1      -0.588  15.663 -41.258  1.00  0.00     0.162 HD
BRANCH   9  11
HETATM   11  C8  UNL     1       1.227  15.057 -42.119  1.00  0.00     0.084 A 
HETATM   12  C9  UNL     1       2.448  14.877 -41.308  1.00  0.00     0.027 A 
HETATM   13  C10 UNL     1       2.020  16.282 -41.654  1.00  0.00     0.027 A 
ENDBRANCH   9  11
ENDBRANCH   5   7
BRANCH   1  14
HETATM   14  C2  UNL     1      -2.828  11.224 -42.321  1.00  0.00     0.004 C 
HETATM   15  C1  UNL     1      -3.615  10.006 -41.814  1.00  0.00     0.005 C 
ENDBRANCH   1  14
TORSDOF 3
ENDMDL
MODEL 4
REMARK VINA RESULT: -4.981781711      2.201      2.571
REMARK  3 active torsions:
REMARK  status: ('A' for Active; 'I' for Inactive)
REMARK    1  A    between atoms: C2_2  and  C3_3 
REMARK    2  A    between atoms: C5_7  and  C7_9 
REMARK       I    between atoms: C7_9  and  N1_11 
REMARK    3  A    between atoms: N1_11  and  C8_13 
ROOT
HETATM    1  C3  UNL     1      -2.596  12.961 -40.130  1.00  0.00     0.046 A 
HETATM    2  C4  UNL     1      -2.705  11.824 -41.144  1.00  0.00     0.134 A 
HETATM    3 CL1  UNL     1      -1.253  10.832 -41.418  1.00  0.00    -0.100 Cl
HETATM    4 CL2  UNL     1      -4.224  10.966 -41.336  1.00  0.00    -0.100 Cl
HETATM    5  C5  UNL     1      -2.633  13.297 -41.537  1.00  0.00     0.079 A 
HETATM    6  C6  UNL     1      -3.983  13.835 -42.051  1.00  0.00     0.029 C 
ENDROOT
BRANCH   5   7
HETATM    7  C7  UNL     1      -1.509  13.634 -42.398  1.00  0.00     0.230 C 
HETATM    8  O1  UNL     1      -0.457  14.130 -41.928  1.00  0.00    -0.273 OA
HETATM    9  N1  UNL     1      -1.511  13.434 -43.817  1.00  0.00    -0.356 N 
ATOM     10  H1  UNL     1      -2.349  13.033 -44.238  1.00  0.00     0.162 HD
BRANCH   9  11
HETATM   11  C8  UNL     1      -0.429  13.754 -44.678  1.00  0.00     0.084 A 
HETATM   12  C9  UNL     1      -0.265  15.075 -45.318  1.00  0.00     0.027 A 
HETATM   13  C10 UNL     1      -0.693  13.912 -46.178  1.00  0.00     0.027 A 
ENDBRANCH   9  11
ENDBRANCH   5   7
BRANCH   1  14
HETATM   14  C2  UNL     1      -1.396  12.865 -39.257  1.00  0.00     0.004 C 
HETATM   15  C1  UNL     1      -1.840  13.065 -37.801  1.00  0.00     0.005 C 
ENDBRANCH   1  14
TORSDOF 3
ENDMDL
MODEL 5
REMARK VINA RESULT: -4.955831252      2.287      4.954
REMARK  3 active torsions:
REMARK  status: ('A' for Active; 'I' for Inactive)
REMARK    1  A    between atoms: C2_2  and  C3_3 
REMARK    2  A    between atoms: C5_7  and  C7_9 
REMARK       I    between atoms: C7_9  and  N1_11 
REMARK    3  A    between atoms: N1_11  and  C8_13 
ROOT
HETATM    1  C3  UNL     1       0.698  14.393 -43.382  1.00  0.00     0.046 A 
HETATM    2  C4  UNL     1       1.331  13.395 -42.413  1.00  0.00     0.134 A 
HETATM    3 CL1  UNL     1       0.651  11.751 -42.375  1.00  0.00    -0.100 Cl
HETATM    4 CL2  UNL     1       3.048  13.485 -42.063  1.00  0.00    -0.100 Cl
HETATM    5  C5  UNL     1       0.425  14.540 -41.968  1.00  0.00     0.079 A 
HETATM    6  C6  UNL     1       1.204  15.665 -41.260  1.00  0.00     0.029 C 
ENDROOT
BRANCH   5   7
HETATM    7  C7  UNL     1      -0.767  14.117 -41.246  1.00  0.00     0.230 C 
HETATM    8  O1  UNL     1      -1.908  14.238 -41.752  1.00  0.00    -0.273 OA
HETATM    9  N1  UNL     1      -0.734  13.544 -39.934  1.00  0.00    -0.356 N 
ATOM     10  H1  UNL     1       0.176  13.429 -39.488  1.00  0.00     0.162 HD
BRANCH   9  11
HETATM   11  C8  UNL     1      -1.881  13.123 -39.209  1.00  0.00     0.084 A 
HETATM   12  C9  UNL     1      -2.605  13.993 -38.261  1.00  0.00     0.027 A 
HETATM   13  C10 UNL     1      -1.760  12.876 -37.703  1.00  0.00     0.027 A 
ENDBRANCH   9  11
ENDBRANCH   5   7
BRANCH   1  14
HETATM   14  C2  UNL     1      -0.170  13.756 -44.406  1.00  0.00     0.004 C 
HETATM   15  C1  UNL     1      -0.453  14.787 -45.508  1.00  0.00     0.005 C 
ENDBRANCH   1  14
TORSDOF 3
ENDMDL
