MODEL 1
REMARK VINA RESULT: -7.692410119      0.000      0.000
REMARK  11 active torsions:
REMARK  status: ('A' for Active; 'I' for Inactive)
REMARK    1  A    between atoms: C2_2  and  O1_3 
REMARK    2  A    between atoms: C2_2  and  C3_5 
REMARK    3  A    between atoms: C3_5  and  C4_6 
REMARK    4  A    between atoms: C9_11  and  O2_13 
REMARK    5  A    between atoms: O2_13  and  C11_14 
REMARK    6  A    between atoms: C13_17  and  O4_18 
REMARK    7  A    between atoms: C14_20  and  O5_21 
REMARK    8  A    between atoms: C15_23  and  O6_24 
REMARK    9  A    between atoms: C20_30  and  C21_31 
REMARK   10  A    between atoms: C21_31  and  O8_33 
REMARK   11  A    between atoms: O8_33  and  C22_34 
ROOT
HETATM    1  C4  UNL     1       4.567   0.687  10.186  1.00  0.00     0.003 C 
HETATM    2  C5  UNL     1       4.386  -0.782  10.044  1.00  0.00     0.010 C 
HETATM    3  C6  UNL     1       3.012  -1.067   9.485  1.00  0.00     0.035 C 
HETATM    4  C7  UNL     1       2.866  -0.190   8.269  1.00  0.00    -0.072 C 
HETATM    5  C8  UNL     1       2.834  -0.707   7.051  1.00  0.00     0.014 C 
HETATM    6  C9  UNL     1       2.693   0.132   5.844  1.00  0.00     0.078 C 
HETATM    7  C10 UNL     1       1.317   0.559   5.491  1.00  0.00     0.051 C 
HETATM    8  C16 UNL     1       3.536   1.360   6.103  1.00  0.00     0.043 C 
HETATM    9  C17 UNL     1       3.341   2.023   7.412  1.00  0.00     0.018 C 
HETATM   10  C18 UNL     1       2.758   1.249   8.525  1.00  0.00    -0.008 C 
HETATM   11  C19 UNL     1       1.252   1.545   8.693  1.00  0.00     0.021 C 
HETATM   12  C20 UNL     1       3.365   1.514   9.883  1.00  0.00     0.102 C 
ENDROOT
BRANCH   6  13
HETATM   13  O2  UNL     1       3.253  -0.466   4.716  1.00  0.00    -0.344 OA
BRANCH  13  14
HETATM   14  C11 UNL     1       4.375   0.195   4.246  1.00  0.00     0.292 C 
HETATM   15  O3  UNL     1       3.922   1.045   3.230  1.00  0.00    -0.356 OA
HETATM   16  C12 UNL     1       4.915   1.858   2.731  1.00  0.00     0.205 C 
HETATM   17  C13 UNL     1       5.828   1.010   1.882  1.00  0.00     0.173 C 
HETATM   18  C14 UNL     1       5.537  -0.473   2.127  1.00  0.00     0.182 C 
HETATM   19  C15 UNL     1       5.395  -0.734   3.622  1.00  0.00     0.204 C 
BRANCH  17  20
HETATM   20  O4  UNL     1       7.134   1.284   2.281  1.00  0.00    -0.391 OA
ATOM     21  H4  UNL     1       7.449   1.999   1.741  1.00  0.00     0.210 HD
ENDBRANCH  17  20
BRANCH  18  22
HETATM   22  O5  UNL     1       6.649  -1.163   1.653  1.00  0.00    -0.390 OA
ATOM     23  H5  UNL     1       7.296  -1.121   2.347  1.00  0.00     0.210 HD
ENDBRANCH  18  22
BRANCH  19  24
HETATM   24  O6  UNL     1       6.684  -0.530   4.155  1.00  0.00    -0.388 OA
ATOM     25  H6  UNL     1       7.219   0.010   3.586  1.00  0.00     0.210 HD
ENDBRANCH  19  24
ENDBRANCH  13  14
ENDBRANCH   6  13
BRANCH  12  26
HETATM   26  C21 UNL     1       3.547   2.938  10.206  1.00  0.00     0.264 C 
HETATM   27  O7  UNL     1       3.843   3.393  11.336  1.00  0.00    -0.265 OA
BRANCH  26  28
HETATM   28  O8  UNL     1       3.395   3.937   9.224  1.00  0.00    -0.316 OA
BRANCH  28  29
HETATM   29  C22 UNL     1       2.591   5.057   9.398  1.00  0.00     0.123 C 
HETATM   30  C23 UNL     1       1.322   4.783  10.170  1.00  0.00     0.040 C 
HETATM   31  C24 UNL     1       2.301   5.655   8.041  1.00  0.00     0.040 C 
ENDBRANCH  28  29
ENDBRANCH  26  28
ENDBRANCH  12  26
BRANCH   1  32
HETATM   32  C3  UNL     1       5.838   1.138   9.513  1.00  0.00     0.037 C 
BRANCH  32  33
HETATM   33  C2  UNL     1       6.886   1.534  10.538  1.00  0.00     0.114 C 
HETATM   34  C1  UNL     1       8.228   0.994  10.094  1.00  0.00     0.039 C 
BRANCH  33  35
HETATM   35  O1  UNL     1       6.926   2.941  10.553  1.00  0.00    -0.396 OA
ATOM     36  H1  UNL     1       6.274   3.271  11.160  1.00  0.00     0.210 HD
ENDBRANCH  33  35
ENDBRANCH  32  33
ENDBRANCH   1  32
TORSDOF 11
ENDMDL
MODEL 2
REMARK VINA RESULT: -7.658747245      1.126      1.367
REMARK  11 active torsions:
REMARK  status: ('A' for Active; 'I' for Inactive)
REMARK    1  A    between atoms: C2_2  and  O1_3 
REMARK    2  A    between atoms: C2_2  and  C3_5 
REMARK    3  A    between atoms: C3_5  and  C4_6 
REMARK    4  A    between atoms: C9_11  and  O2_13 
REMARK    5  A    between atoms: O2_13  and  C11_14 
REMARK    6  A    between atoms: C13_17  and  O4_18 
REMARK    7  A    between atoms: C14_20  and  O5_21 
REMARK    8  A    between atoms: C15_23  and  O6_24 
REMARK    9  A    between atoms: C20_30  and  C21_31 
REMARK   10  A    between atoms: C21_31  and  O8_33 
REMARK   11  A    between atoms: O8_33  and  C22_34 
ROOT
HETATM    1  C4  UNL     1       4.321   0.339   9.603  1.00  0.00     0.003 C 
HETATM    2  C5  UNL     1       3.967  -1.054   9.222  1.00  0.00     0.010 C 
HETATM    3  C6  UNL     1       2.563  -1.081   8.664  1.00  0.00     0.035 C 
HETATM    4  C7  UNL     1       2.510   0.001   7.617  1.00  0.00    -0.072 C 
HETATM    5  C8  UNL     1       2.404  -0.295   6.331  1.00  0.00     0.014 C 
HETATM    6  C9  UNL     1       2.352   0.748   5.286  1.00  0.00     0.078 C 
HETATM    7  C10 UNL     1       1.033   1.383   5.051  1.00  0.00     0.051 C 
HETATM    8  C16 UNL     1       3.337   1.809   5.722  1.00  0.00     0.043 C 
HETATM    9  C17 UNL     1       3.235   2.258   7.129  1.00  0.00     0.018 C 
HETATM   10  C18 UNL     1       2.575   1.379   8.114  1.00  0.00    -0.008 C 
HETATM   11  C19 UNL     1       1.116   1.813   8.374  1.00  0.00     0.021 C 
HETATM   12  C20 UNL     1       3.223   1.338   9.478  1.00  0.00     0.102 C 
ENDROOT
BRANCH   6  13
HETATM   13  O2  UNL     1       2.826   0.289   4.058  1.00  0.00    -0.344 OA
BRANCH  13  14
HETATM   14  C11 UNL     1       4.101   0.740   3.761  1.00  0.00     0.292 C 
HETATM   15  O3  UNL     1       3.961   1.586   2.655  1.00  0.00    -0.356 OA
HETATM   16  C12 UNL     1       5.140   2.204   2.302  1.00  0.00     0.205 C 
HETATM   17  C13 UNL     1       6.028   1.175   1.649  1.00  0.00     0.173 C 
HETATM   18  C14 UNL     1       5.464  -0.228   1.893  1.00  0.00     0.182 C 
HETATM   19  C15 UNL     1       5.043  -0.373   3.350  1.00  0.00     0.204 C 
BRANCH  17  20
HETATM   20  O4  UNL     1       7.279   1.267   2.253  1.00  0.00    -0.391 OA
ATOM     21  H4  UNL     1       7.897   0.816   1.690  1.00  0.00     0.210 HD
ENDBRANCH  17  20
BRANCH  18  22
HETATM   22  O5  UNL     1       6.511  -1.109   1.637  1.00  0.00    -0.390 OA
ATOM     23  H5  UNL     1       6.105  -1.920   1.353  1.00  0.00     0.210 HD
ENDBRANCH  18  22
BRANCH  19  24
HETATM   24  O6  UNL     1       6.245  -0.338   4.085  1.00  0.00    -0.388 OA
ATOM     25  H6  UNL     1       6.915   0.171   3.643  1.00  0.00     0.210 HD
ENDBRANCH  19  24
ENDBRANCH  13  14
ENDBRANCH   6  13
BRANCH  12  26
HETATM   26  C21 UNL     1       3.575   2.656  10.028  1.00  0.00     0.264 C 
HETATM   27  O7  UNL     1       4.471   3.412   9.582  1.00  0.00    -0.265 OA
BRANCH  26  28
HETATM   28  O8  UNL     1       2.902   3.187  11.146  1.00  0.00    -0.316 OA
BRANCH  28  29
HETATM   29  C22 UNL     1       2.772   4.552  11.377  1.00  0.00     0.123 C 
HETATM   30  C23 UNL     1       3.356   5.006  12.694  1.00  0.00     0.040 C 
HETATM   31  C24 UNL     1       1.312   4.922  11.255  1.00  0.00     0.040 C 
ENDBRANCH  28  29
ENDBRANCH  26  28
ENDBRANCH  12  26
BRANCH   1  32
HETATM   32  C3  UNL     1       5.630   0.748   8.977  1.00  0.00     0.037 C 
BRANCH  32  33
HETATM   33  C2  UNL     1       6.701   0.948  10.034  1.00  0.00     0.114 C 
HETATM   34  C1  UNL     1       6.362   0.092  11.235  1.00  0.00     0.039 C 
BRANCH  33  35
HETATM   35  O1  UNL     1       7.914   0.510   9.472  1.00  0.00    -0.396 OA
ATOM     36  H1  UNL     1       8.411   1.259   9.166  1.00  0.00     0.210 HD
ENDBRANCH  33  35
ENDBRANCH  32  33
ENDBRANCH   1  32
TORSDOF 11
ENDMDL
MODEL 3
REMARK VINA RESULT: -7.594995938      1.923      3.397
REMARK  11 active torsions:
REMARK  status: ('A' for Active; 'I' for Inactive)
REMARK    1  A    between atoms: C2_2  and  O1_3 
REMARK    2  A    between atoms: C2_2  and  C3_5 
REMARK    3  A    between atoms: C3_5  and  C4_6 
REMARK    4  A    between atoms: C9_11  and  O2_13 
REMARK    5  A    between atoms: O2_13  and  C11_14 
REMARK    6  A    between atoms: C13_17  and  O4_18 
REMARK    7  A    between atoms: C14_20  and  O5_21 
REMARK    8  A    between atoms: C15_23  and  O6_24 
REMARK    9  A    between atoms: C20_30  and  C21_31 
REMARK   10  A    between atoms: C21_31  and  O8_33 
REMARK   11  A    between atoms: O8_33  and  C22_34 
ROOT
HETATM    1  C4  UNL     1       2.867   2.835   8.567  1.00  0.00     0.003 C 
HETATM    2  C5  UNL     1       4.329   2.857   8.299  1.00  0.00     0.010 C 
HETATM    3  C6  UNL     1       4.938   1.542   8.726  1.00  0.00     0.035 C 
HETATM    4  C7  UNL     1       4.093   0.467   8.093  1.00  0.00    -0.072 C 
HETATM    5  C8  UNL     1       4.568  -0.294   7.119  1.00  0.00     0.014 C 
HETATM    6  C9  UNL     1       3.758  -1.353   6.483  1.00  0.00     0.078 C 
HETATM    7  C10 UNL     1       3.684  -2.649   7.199  1.00  0.00     0.051 C 
HETATM    8  C16 UNL     1       2.365  -0.780   6.361  1.00  0.00     0.043 C 
HETATM    9  C17 UNL     1       1.809  -0.145   7.577  1.00  0.00     0.018 C 
HETATM   10  C18 UNL     1       2.736   0.321   8.627  1.00  0.00    -0.008 C 
HETATM   11  C19 UNL     1       2.836  -0.696   9.786  1.00  0.00     0.021 C 
HETATM   12  C20 UNL     1       2.363   1.630   9.282  1.00  0.00     0.102 C 
ENDROOT
BRANCH   6  13
HETATM   13  O2  UNL     1       4.164  -1.614   5.175  1.00  0.00    -0.344 OA
BRANCH  13  14
HETATM   14  C11 UNL     1       4.838  -0.555   4.590  1.00  0.00     0.292 C 
HETATM   15  O3  UNL     1       3.897   0.104   3.791  1.00  0.00    -0.356 OA
HETATM   16  C12 UNL     1       4.392   1.255   3.221  1.00  0.00     0.205 C 
HETATM   17  C13 UNL     1       5.340   0.857   2.117  1.00  0.00     0.173 C 
HETATM   18  C14 UNL     1       5.667  -0.634   2.225  1.00  0.00     0.182 C 
HETATM   19  C15 UNL     1       5.961  -0.998   3.676  1.00  0.00     0.204 C 
BRANCH  17  20
HETATM   20  O4  UNL     1       6.511   1.588   2.297  1.00  0.00    -0.391 OA
ATOM     21  H4  UNL     1       7.163   0.992   2.647  1.00  0.00     0.210 HD
ENDBRANCH  17  20
BRANCH  18  22
HETATM   22  O5  UNL     1       6.820  -0.827   1.470  1.00  0.00    -0.390 OA
ATOM     23  H5  UNL     1       6.813  -0.148   0.807  1.00  0.00     0.210 HD
ENDBRANCH  18  22
BRANCH  19  24
HETATM   24  O6  UNL     1       7.172  -0.343   3.981  1.00  0.00    -0.388 OA
ATOM     25  H6  UNL     1       7.599  -0.011   3.200  1.00  0.00     0.210 HD
ENDBRANCH  19  24
ENDBRANCH  13  14
ENDBRANCH   6  13
BRANCH  12  26
HETATM   26  C21 UNL     1       0.949   1.739   9.673  1.00  0.00     0.264 C 
HETATM   27  O7  UNL     1      -0.024   1.333   8.993  1.00  0.00    -0.265 OA
BRANCH  26  28
HETATM   28  O8  UNL     1       0.569   2.333  10.893  1.00  0.00    -0.316 OA
BRANCH  28  29
HETATM   29  C22 UNL     1       0.142   3.652  10.994  1.00  0.00     0.123 C 
HETATM   30  C23 UNL     1       1.231   4.617  11.398  1.00  0.00     0.040 C 
HETATM   31  C24 UNL     1      -1.032   3.704  11.945  1.00  0.00     0.040 C 
ENDBRANCH  28  29
ENDBRANCH  26  28
ENDBRANCH  12  26
BRANCH   1  32
HETATM   32  C3  UNL     1       2.091   3.216   7.331  1.00  0.00     0.037 C 
BRANCH  32  33
HETATM   33  C2  UNL     1       2.345   4.664   6.953  1.00  0.00     0.114 C 
HETATM   34  C1  UNL     1       1.523   4.996   5.727  1.00  0.00     0.039 C 
BRANCH  33  35
HETATM   35  O1  UNL     1       1.911   5.448   8.038  1.00  0.00    -0.396 OA
ATOM     36  H1  UNL     1       2.326   5.143   8.836  1.00  0.00     0.210 HD
ENDBRANCH  33  35
ENDBRANCH  32  33
ENDBRANCH   1  32
TORSDOF 11
ENDMDL
MODEL 4
REMARK VINA RESULT: -7.507130835      1.818      7.027
REMARK  11 active torsions:
REMARK  status: ('A' for Active; 'I' for Inactive)
REMARK    1  A    between atoms: C2_2  and  O1_3 
REMARK    2  A    between atoms: C2_2  and  C3_5 
REMARK    3  A    between atoms: C3_5  and  C4_6 
REMARK    4  A    between atoms: C9_11  and  O2_13 
REMARK    5  A    between atoms: O2_13  and  C11_14 
REMARK    6  A    between atoms: C13_17  and  O4_18 
REMARK    7  A    between atoms: C14_20  and  O5_21 
REMARK    8  A    between atoms: C15_23  and  O6_24 
REMARK    9  A    between atoms: C20_30  and  C21_31 
REMARK   10  A    between atoms: C21_31  and  O8_33 
REMARK   11  A    between atoms: O8_33  and  C22_34 
ROOT
HETATM    1  C4  UNL     1       0.887   0.329   5.737  1.00  0.00     0.003 C 
HETATM    2  C5  UNL     1       0.120  -0.016   6.963  1.00  0.00     0.010 C 
HETATM    3  C6  UNL     1       0.845  -1.105   7.719  1.00  0.00     0.035 C 
HETATM    4  C7  UNL     1       2.271  -0.640   7.854  1.00  0.00    -0.072 C 
HETATM    5  C8  UNL     1       2.771  -0.293   9.030  1.00  0.00     0.014 C 
HETATM    6  C9  UNL     1       4.165   0.168   9.187  1.00  0.00     0.078 C 
HETATM    7  C10 UNL     1       5.204  -0.887   9.272  1.00  0.00     0.051 C 
HETATM    8  C16 UNL     1       4.444   1.035   7.981  1.00  0.00     0.043 C 
HETATM    9  C17 UNL     1       4.064   0.470   6.666  1.00  0.00     0.018 C 
HETATM   10  C18 UNL     1       3.055  -0.605   6.615  1.00  0.00    -0.008 C 
HETATM   11  C19 UNL     1       3.714  -1.996   6.484  1.00  0.00     0.021 C 
HETATM   12  C20 UNL     1       2.079  -0.520   5.465  1.00  0.00     0.102 C 
ENDROOT
BRANCH   6  13
HETATM   13  O2  UNL     1       4.323   1.008  10.288  1.00  0.00    -0.344 OA
BRANCH  13  14
HETATM   14  C11 UNL     1       5.322   1.952  10.118  1.00  0.00     0.292 C 
HETATM   15  O3  UNL     1       6.414   1.493  10.863  1.00  0.00    -0.356 OA
HETATM   16  C12 UNL     1       7.535   2.276  10.707  1.00  0.00     0.205 C 
HETATM   17  C13 UNL     1       7.312   3.563  11.461  1.00  0.00     0.173 C 
HETATM   18  C14 UNL     1       5.837   3.688  11.851  1.00  0.00     0.182 C 
HETATM   19  C15 UNL     1       4.953   3.314  10.667  1.00  0.00     0.204 C 
BRANCH  17  20
HETATM   20  O4  UNL     1       7.639   4.607  10.599  1.00  0.00    -0.391 OA
ATOM     21  H4  UNL     1       6.900   5.205  10.589  1.00  0.00     0.210 HD
ENDBRANCH  17  20
BRANCH  18  22
HETATM   22  O5  UNL     1       5.636   5.032  12.155  1.00  0.00    -0.390 OA
ATOM     23  H5  UNL     1       5.040   5.362  11.493  1.00  0.00     0.210 HD
ENDBRANCH  18  22
BRANCH  19  24
HETATM   24  O6  UNL     1       5.159   4.334   9.717  1.00  0.00    -0.388 OA
ATOM     25  H6  UNL     1       4.343   4.753   9.467  1.00  0.00     0.210 HD
ENDBRANCH  19  24
ENDBRANCH  13  14
ENDBRANCH   6  13
BRANCH  12  26
HETATM   26  C21 UNL     1       2.697  -0.249   4.157  1.00  0.00     0.264 C 
HETATM   27  O7  UNL     1       2.179  -0.504   3.044  1.00  0.00    -0.265 OA
BRANCH  26  28
HETATM   28  O8  UNL     1       3.971   0.345   4.058  1.00  0.00    -0.316 OA
BRANCH  28  29
HETATM   29  C22 UNL     1       4.898  -0.006   3.083  1.00  0.00     0.123 C 
HETATM   30  C23 UNL     1       6.108  -0.730   3.626  1.00  0.00     0.040 C 
HETATM   31  C24 UNL     1       5.287   1.239   2.321  1.00  0.00     0.040 C 
ENDBRANCH  28  29
ENDBRANCH  26  28
ENDBRANCH  12  26
BRANCH   1  32
HETATM   32  C3  UNL     1       1.130   1.815   5.659  1.00  0.00     0.037 C 
BRANCH  32  33
HETATM   33  C2  UNL     1       0.505   2.532   6.842  1.00  0.00     0.114 C 
HETATM   34  C1  UNL     1       1.588   3.288   7.580  1.00  0.00     0.039 C 
BRANCH  33  35
HETATM   35  O1  UNL     1      -0.430   3.443   6.317  1.00  0.00    -0.396 OA
ATOM     36  H1  UNL     1      -1.283   3.282   6.704  1.00  0.00     0.210 HD
ENDBRANCH  33  35
ENDBRANCH  32  33
ENDBRANCH   1  32
TORSDOF 11
ENDMDL
MODEL 5
REMARK VINA RESULT: -7.314916356      2.388      4.198
REMARK  11 active torsions:
REMARK  status: ('A' for Active; 'I' for Inactive)
REMARK    1  A    between atoms: C2_2  and  O1_3 
REMARK    2  A    between atoms: C2_2  and  C3_5 
REMARK    3  A    between atoms: C3_5  and  C4_6 
REMARK    4  A    between atoms: C9_11  and  O2_13 
REMARK    5  A    between atoms: O2_13  and  C11_14 
REMARK    6  A    between atoms: C13_17  and  O4_18 
REMARK    7  A    between atoms: C14_20  and  O5_21 
REMARK    8  A    between atoms: C15_23  and  O6_24 
REMARK    9  A    between atoms: C20_30  and  C21_31 
REMARK   10  A    between atoms: C21_31  and  O8_33 
REMARK   11  A    between atoms: O8_33  and  C22_34 
ROOT
HETATM    1  C4  UNL     1       4.455  -0.357   9.956  1.00  0.00     0.003 C 
HETATM    2  C5  UNL     1       3.039  -0.810   9.984  1.00  0.00     0.010 C 
HETATM    3  C6  UNL     1       2.137   0.376  10.228  1.00  0.00     0.035 C 
HETATM    4  C7  UNL     1       2.550   1.426   9.230  1.00  0.00    -0.072 C 
HETATM    5  C8  UNL     1       1.758   1.766   8.225  1.00  0.00     0.014 C 
HETATM    6  C9  UNL     1       2.142   2.792   7.233  1.00  0.00     0.078 C 
HETATM    7  C10 UNL     1       1.929   4.205   7.628  1.00  0.00     0.051 C 
HETATM    8  C16 UNL     1       3.615   2.572   6.972  1.00  0.00     0.043 C 
HETATM    9  C17 UNL     1       4.478   2.432   8.167  1.00  0.00     0.018 C 
HETATM   10  C18 UNL     1       3.863   2.039   9.450  1.00  0.00    -0.008 C 
HETATM   11  C19 UNL     1       3.621   3.262  10.362  1.00  0.00     0.021 C 
HETATM   12  C20 UNL     1       4.676   1.079  10.287  1.00  0.00     0.102 C 
ENDROOT
BRANCH   6  13
HETATM   13  O2  UNL     1       1.517   2.596   6.002  1.00  0.00    -0.344 OA
BRANCH  13  14
HETATM   14  C11 UNL     1       1.908   1.427   5.371  1.00  0.00     0.292 C 
HETATM   15  O3  UNL     1       2.240   1.792   4.060  1.00  0.00    -0.356 OA
HETATM   16  C12 UNL     1       2.756   0.746   3.329  1.00  0.00     0.205 C 
HETATM   17  C13 UNL     1       1.621  -0.188   2.989  1.00  0.00     0.173 C 
HETATM   18  C14 UNL     1       0.389   0.165   3.827  1.00  0.00     0.182 C 
HETATM   19  C15 UNL     1       0.797   0.403   5.276  1.00  0.00     0.204 C 
BRANCH  17  20
HETATM   20  O4  UNL     1       2.036  -1.476   3.319  1.00  0.00    -0.391 OA
ATOM     21  H4  UNL     1       2.268  -1.912   2.508  1.00  0.00     0.210 HD
ENDBRANCH  17  20
BRANCH  18  22
HETATM   22  O5  UNL     1      -0.441  -0.951   3.771  1.00  0.00    -0.390 OA
ATOM     23  H5  UNL     1      -0.653  -1.071   2.853  1.00  0.00     0.210 HD
ENDBRANCH  18  22
BRANCH  19  24
HETATM   24  O6  UNL     1       1.206  -0.858   5.755  1.00  0.00    -0.388 OA
ATOM     25  H6  UNL     1       2.141  -0.884   5.926  1.00  0.00     0.210 HD
ENDBRANCH  19  24
ENDBRANCH  13  14
ENDBRANCH   6  13
BRANCH  12  26
HETATM   26  C21 UNL     1       6.099   1.430  10.414  1.00  0.00     0.264 C 
HETATM   27  O7  UNL     1       7.041   0.876   9.796  1.00  0.00    -0.265 OA
BRANCH  26  28
HETATM   28  O8  UNL     1       6.526   2.459  11.276  1.00  0.00    -0.316 OA
BRANCH  28  29
HETATM   29  C22 UNL     1       7.285   3.543  10.848  1.00  0.00     0.123 C 
HETATM   30  C23 UNL     1       8.739   3.463  11.246  1.00  0.00     0.040 C 
HETATM   31  C24 UNL     1       6.635   4.811  11.351  1.00  0.00     0.040 C 
ENDBRANCH  28  29
ENDBRANCH  26  28
ENDBRANCH  12  26
BRANCH   1  32
HETATM   32  C3  UNL     1       5.146  -0.838   8.706  1.00  0.00     0.037 C 
BRANCH  32  33
HETATM   33  C2  UNL     1       4.140  -1.343   7.687  1.00  0.00     0.114 C 
HETATM   34  C1  UNL     1       4.575  -0.890   6.311  1.00  0.00     0.039 C 
BRANCH  33  35
HETATM   35  O1  UNL     1       4.168  -2.748   7.751  1.00  0.00    -0.396 OA
ATOM     36  H1  UNL     1       3.485  -3.053   8.337  1.00  0.00     0.210 HD
ENDBRANCH  33  35
ENDBRANCH  32  33
ENDBRANCH   1  32
TORSDOF 11
ENDMDL
