MODEL 1
REMARK VINA RESULT: -6.340659003      0.000      0.000
REMARK  9 active torsions:
REMARK  status: ('A' for Active; 'I' for Inactive)
REMARK    1  A    between atoms: C2_2  and  C3_3 
REMARK    2  A    between atoms: C3_3  and  N1_4 
REMARK    3  A    between atoms: C6_7  and  C19_23 
REMARK    4  A    between atoms: C9_11  and  O2_12 
REMARK    5  A    between atoms: C15_19  and  C16_20 
REMARK    6  A    between atoms: C19_23  and  O3_24 
REMARK    7  A    between atoms: C21_27  and  O4_28 
REMARK    8  A    between atoms: O4_28  and  C22_29 
REMARK    9  A    between atoms: C22_29  and  C23_30 
ROOT
HETATM    1  C16 UNL     1      -2.932  36.479  -3.495  1.00  0.00     0.125 C 
HETATM    2  C17 UNL     1      -2.299  35.801  -2.339  1.00  0.00    -0.001 C 
HETATM    3  C18 UNL     1      -2.921  34.709  -1.647  1.00  0.00     0.010 C 
HETATM    4  C19 UNL     1      -4.378  34.403  -1.743  1.00  0.00     0.094 C 
HETATM    5  C20 UNL     1      -4.646  33.846  -3.095  1.00  0.00     0.096 C 
HETATM    6  C21 UNL     1      -3.619  34.247  -4.163  1.00  0.00     0.220 C 
HETATM    7  N2  UNL     1      -3.800  35.674  -4.302  1.00  0.00    -0.387 N 
ATOM      8  H2  UNL     1      -4.495  36.079  -4.928  1.00  0.00     0.156 HD
ENDROOT
BRANCH   6   9
HETATM    9  O4  UNL     1      -3.921  33.550  -5.284  1.00  0.00    -0.366 OA
BRANCH   9  10
HETATM   10  C22 UNL     1      -4.612  32.424  -5.337  1.00  0.00     0.178 C 
BRANCH  10  11
HETATM   11  C23 UNL     1      -4.066  31.167  -5.901  1.00  0.00    -0.030 C 
HETATM   12  C24 UNL     1      -3.301  30.304  -4.944  1.00  0.00     0.016 C 
HETATM   13  C25 UNL     1      -5.251  30.291  -6.364  1.00  0.00     0.016 C 
HETATM   14  C26 UNL     1      -3.219  31.536  -7.115  1.00  0.00     0.016 C 
ENDBRANCH  10  11
ENDBRANCH   9  10
ENDBRANCH   6   9
BRANCH   4  15
HETATM   15  C6  UNL     1      -5.336  35.410  -1.220  1.00  0.00     0.051 C 
HETATM   16  C5  UNL     1      -5.847  36.396  -2.224  1.00  0.00     0.064 C 
HETATM   17  C4  UNL     1      -7.283  36.270  -2.652  1.00  0.00     0.060 C 
HETATM   18  N1  UNL     1      -7.540  35.283  -3.605  1.00  0.00    -0.383 N 
HETATM   19  C15 UNL     1      -7.739  33.938  -3.229  1.00  0.00     0.114 C 
HETATM   20  C14 UNL     1      -8.378  33.715  -1.902  1.00  0.00     0.067 C 
HETATM   21  C12 UNL     1      -7.616  34.147  -0.719  1.00  0.00    -0.046 A 
HETATM   22  C11 UNL     1      -8.407  33.708   0.321  1.00  0.00     0.011 A 
HETATM   23  C13 UNL     1      -6.432  34.797  -0.393  1.00  0.00    -0.001 A 
HETATM   24  C10 UNL     1      -8.080  33.884   1.649  1.00  0.00     0.040 A 
HETATM   25  C9  UNL     1      -6.911  34.524   1.994  1.00  0.00     0.099 A 
HETATM   26  C8  UNL     1      -6.107  34.969   0.945  1.00  0.00     0.109 A 
HETATM   27  O1  UNL     1      -4.900  35.622   1.048  1.00  0.00    -0.346 OA
HETATM   28  C7  UNL     1      -4.668  36.263  -0.157  1.00  0.00     0.194 C 
BRANCH  18  29
HETATM   29  C3  UNL     1      -8.239  35.718  -4.791  1.00  0.00     0.149 C 
BRANCH  29  30
HETATM   30  C2  UNL     1      -9.475  36.467  -4.484  1.00  0.00    -0.018 C 
HETATM   31  C1  UNL     1     -10.653  35.851  -4.371  1.00  0.00     0.008 C 
ENDBRANCH  29  30
ENDBRANCH  18  29
BRANCH  25  32
HETATM   32  O2  UNL     1      -6.538  34.724   3.319  1.00  0.00    -0.358 OA
ATOM     33  H2  UNL     1      -5.630  34.648   3.588  1.00  0.00     0.217 HD
ENDBRANCH  25  32
ENDBRANCH   4  15
BRANCH   4  34
HETATM   34  O3  UNL     1      -4.461  33.261  -0.885  1.00  0.00    -0.384 OA
ATOM     35  H3  UNL     1      -3.788  32.652  -1.167  1.00  0.00     0.211 HD
ENDBRANCH   4  34
TORSDOF 9
ENDMDL
MODEL 2
REMARK VINA RESULT: -6.165583597      0.813      1.240
REMARK  9 active torsions:
REMARK  status: ('A' for Active; 'I' for Inactive)
REMARK    1  A    between atoms: C2_2  and  C3_3 
REMARK    2  A    between atoms: C3_3  and  N1_4 
REMARK    3  A    between atoms: C6_7  and  C19_23 
REMARK    4  A    between atoms: C9_11  and  O2_12 
REMARK    5  A    between atoms: C15_19  and  C16_20 
REMARK    6  A    between atoms: C19_23  and  O3_24 
REMARK    7  A    between atoms: C21_27  and  O4_28 
REMARK    8  A    between atoms: O4_28  and  C22_29 
REMARK    9  A    between atoms: C22_29  and  C23_30 
ROOT
HETATM    1  C16 UNL     1      -2.538  36.701  -2.366  1.00  0.00     0.125 C 
HETATM    2  C17 UNL     1      -2.170  35.734  -1.305  1.00  0.00    -0.001 C 
HETATM    3  C18 UNL     1      -2.959  34.573  -1.009  1.00  0.00     0.010 C 
HETATM    4  C19 UNL     1      -4.382  34.421  -1.434  1.00  0.00     0.094 C 
HETATM    5  C20 UNL     1      -4.406  34.201  -2.903  1.00  0.00     0.096 C 
HETATM    6  C21 UNL     1      -3.175  34.739  -3.647  1.00  0.00     0.220 C 
HETATM    7  N2  UNL     1      -3.265  36.172  -3.479  1.00  0.00    -0.387 N 
ATOM      8  H2  UNL     1      -3.809  36.762  -4.108  1.00  0.00     0.156 HD
ENDROOT
BRANCH   6   9
HETATM    9  O4  UNL     1      -3.283  34.335  -4.935  1.00  0.00    -0.366 OA
BRANCH   9  10
HETATM   10  C22 UNL     1      -3.564  33.110  -5.344  1.00  0.00     0.178 C 
BRANCH  10  11
HETATM   11  C23 UNL     1      -4.587  32.818  -6.376  1.00  0.00    -0.030 C 
HETATM   12  C24 UNL     1      -5.722  33.793  -6.460  1.00  0.00     0.016 C 
HETATM   13  C25 UNL     1      -3.908  32.879  -7.761  1.00  0.00     0.016 C 
HETATM   14  C26 UNL     1      -5.093  31.398  -6.135  1.00  0.00     0.016 C 
ENDBRANCH  10  11
ENDBRANCH   9  10
ENDBRANCH   6   9
BRANCH   4  15
HETATM   15  C6  UNL     1      -5.380  35.366  -0.871  1.00  0.00     0.051 C 
HETATM   16  C5  UNL     1      -5.824  36.459  -1.792  1.00  0.00     0.064 C 
HETATM   17  C4  UNL     1      -7.225  36.386  -2.333  1.00  0.00     0.060 C 
HETATM   18  N1  UNL     1      -7.408  35.512  -3.406  1.00  0.00    -0.383 N 
HETATM   19  C15 UNL     1      -7.627  34.133  -3.197  1.00  0.00     0.114 C 
HETATM   20  C14 UNL     1      -8.356  33.765  -1.952  1.00  0.00     0.067 C 
HETATM   21  C12 UNL     1      -7.683  34.060  -0.677  1.00  0.00    -0.046 A 
HETATM   22  C11 UNL     1      -8.543  33.510   0.248  1.00  0.00     0.011 A 
HETATM   23  C13 UNL     1      -6.528  34.667  -0.197  1.00  0.00    -0.001 A 
HETATM   24  C10 UNL     1      -8.312  33.535   1.608  1.00  0.00     0.040 A 
HETATM   25  C9  UNL     1      -7.174  34.130   2.104  1.00  0.00     0.099 A 
HETATM   26  C8  UNL     1      -6.300  34.687   1.172  1.00  0.00     0.109 A 
HETATM   27  O1  UNL     1      -5.107  35.322   1.432  1.00  0.00    -0.346 OA
HETATM   28  C7  UNL     1      -4.794  36.093   0.326  1.00  0.00     0.194 C 
BRANCH  18  29
HETATM   29  C3  UNL     1      -8.024  36.078  -4.582  1.00  0.00     0.149 C 
BRANCH  29  30
HETATM   30  C2  UNL     1      -9.335  36.698  -4.300  1.00  0.00    -0.018 C 
HETATM   31  C1  UNL     1     -10.473  36.015  -4.443  1.00  0.00     0.008 C 
ENDBRANCH  29  30
ENDBRANCH  18  29
BRANCH  25  32
HETATM   32  O2  UNL     1      -6.897  34.180   3.466  1.00  0.00    -0.358 OA
ATOM     33  H2  UNL     1      -6.051  33.910   3.804  1.00  0.00     0.217 HD
ENDBRANCH  25  32
ENDBRANCH   4  15
BRANCH   4  34
HETATM   34  O3  UNL     1      -4.677  33.129  -0.894  1.00  0.00    -0.384 OA
ATOM     35  H3  UNL     1      -5.121  32.638  -1.575  1.00  0.00     0.211 HD
ENDBRANCH   4  34
TORSDOF 9
ENDMDL
MODEL 3
REMARK VINA RESULT: -5.984022216      7.961     10.239
REMARK  9 active torsions:
REMARK  status: ('A' for Active; 'I' for Inactive)
REMARK    1  A    between atoms: C2_2  and  C3_3 
REMARK    2  A    between atoms: C3_3  and  N1_4 
REMARK    3  A    between atoms: C6_7  and  C19_23 
REMARK    4  A    between atoms: C9_11  and  O2_12 
REMARK    5  A    between atoms: C15_19  and  C16_20 
REMARK    6  A    between atoms: C19_23  and  O3_24 
REMARK    7  A    between atoms: C21_27  and  O4_28 
REMARK    8  A    between atoms: O4_28  and  C22_29 
REMARK    9  A    between atoms: C22_29  and  C23_30 
ROOT
HETATM    1  C16 UNL     1      -1.242  37.647   8.821  1.00  0.00     0.125 C 
HETATM    2  C17 UNL     1      -0.662  36.284   8.785  1.00  0.00    -0.001 C 
HETATM    3  C18 UNL     1      -1.180  35.244   7.944  1.00  0.00     0.010 C 
HETATM    4  C19 UNL     1      -2.544  35.286   7.338  1.00  0.00     0.094 C 
HETATM    5  C20 UNL     1      -2.541  36.310   6.261  1.00  0.00     0.096 C 
HETATM    6  C21 UNL     1      -1.464  37.393   6.416  1.00  0.00     0.220 C 
HETATM    7  N2  UNL     1      -1.856  38.105   7.611  1.00  0.00    -0.387 N 
ATOM      8  H2  UNL     1      -2.522  38.877   7.594  1.00  0.00     0.156 HD
ENDROOT
BRANCH   6   9
HETATM    9  O4  UNL     1      -1.501  38.151   5.295  1.00  0.00    -0.366 OA
BRANCH   9  10
HETATM   10  C22 UNL     1      -2.585  38.666   4.740  1.00  0.00     0.178 C 
BRANCH  10  11
HETATM   11  C23 UNL     1      -2.854  38.603   3.284  1.00  0.00    -0.030 C 
HETATM   12  C24 UNL     1      -4.238  38.179   2.897  1.00  0.00     0.016 C 
HETATM   13  C25 UNL     1      -2.699  40.025   2.702  1.00  0.00     0.016 C 
HETATM   14  C26 UNL     1      -1.800  37.694   2.659  1.00  0.00     0.016 C 
ENDBRANCH  10  11
ENDBRANCH   9  10
ENDBRANCH   6   9
BRANCH   4  15
HETATM   15  C6  UNL     1      -3.712  35.264   8.254  1.00  0.00     0.051 C 
HETATM   16  C5  UNL     1      -4.411  36.576   8.437  1.00  0.00     0.064 C 
HETATM   17  C4  UNL     1      -5.774  36.728   7.821  1.00  0.00     0.060 C 
HETATM   18  N1  UNL     1      -5.785  37.001   6.452  1.00  0.00    -0.383 N 
HETATM   19  C15 UNL     1      -5.686  35.964   5.499  1.00  0.00     0.114 C 
HETATM   20  C14 UNL     1      -6.284  34.657   5.887  1.00  0.00     0.067 C 
HETATM   21  C12 UNL     1      -5.662  33.953   7.019  1.00  0.00    -0.046 A 
HETATM   22  C11 UNL     1      -6.354  32.762   7.047  1.00  0.00     0.011 A 
HETATM   23  C13 UNL     1      -4.659  34.133   7.965  1.00  0.00    -0.001 A 
HETATM   24  C10 UNL     1      -6.101  31.757   7.957  1.00  0.00     0.040 A 
HETATM   25  C9  UNL     1      -5.111  31.915   8.901  1.00  0.00     0.099 A 
HETATM   26  C8  UNL     1      -4.407  33.118   8.877  1.00  0.00     0.109 A 
HETATM   27  O1  UNL     1      -3.379  33.491   9.712  1.00  0.00    -0.346 OA
HETATM   28  C7  UNL     1      -3.272  34.871   9.653  1.00  0.00     0.194 C 
BRANCH  18  29
HETATM   29  C3  UNL     1      -6.540  38.162   6.046  1.00  0.00     0.149 C 
BRANCH  29  30
HETATM   30  C2  UNL     1      -5.808  39.426   6.266  1.00  0.00    -0.018 C 
HETATM   31  C1  UNL     1      -5.889  40.439   5.401  1.00  0.00     0.008 C 
ENDBRANCH  29  30
ENDBRANCH  18  29
BRANCH  25  32
HETATM   32  O2  UNL     1      -4.818  30.931   9.840  1.00  0.00    -0.358 OA
ATOM     33  H2  UNL     1      -5.491  30.342  10.158  1.00  0.00     0.217 HD
ENDBRANCH  25  32
ENDBRANCH   4  15
BRANCH   4  34
HETATM   34  O3  UNL     1      -2.548  34.045   6.625  1.00  0.00    -0.384 OA
ATOM     35  H3  UNL     1      -2.286  33.370   7.239  1.00  0.00     0.211 HD
ENDBRANCH   4  34
TORSDOF 9
ENDMDL
MODEL 4
REMARK VINA RESULT: -5.927873885      0.777      1.087
REMARK  9 active torsions:
REMARK  status: ('A' for Active; 'I' for Inactive)
REMARK    1  A    between atoms: C2_2  and  C3_3 
REMARK    2  A    between atoms: C3_3  and  N1_4 
REMARK    3  A    between atoms: C6_7  and  C19_23 
REMARK    4  A    between atoms: C9_11  and  O2_12 
REMARK    5  A    between atoms: C15_19  and  C16_20 
REMARK    6  A    between atoms: C19_23  and  O3_24 
REMARK    7  A    between atoms: C21_27  and  O4_28 
REMARK    8  A    between atoms: O4_28  and  C22_29 
REMARK    9  A    between atoms: C22_29  and  C23_30 
ROOT
HETATM    1  C16 UNL     1      -2.934  36.023  -4.374  1.00  0.00     0.125 C 
HETATM    2  C17 UNL     1      -2.162  35.463  -3.239  1.00  0.00    -0.001 C 
HETATM    3  C18 UNL     1      -2.718  34.515  -2.317  1.00  0.00     0.010 C 
HETATM    4  C19 UNL     1      -4.185  34.296  -2.155  1.00  0.00     0.094 C 
HETATM    5  C20 UNL     1      -4.684  33.585  -3.362  1.00  0.00     0.096 C 
HETATM    6  C21 UNL     1      -3.817  33.773  -4.614  1.00  0.00     0.220 C 
HETATM    7  N2  UNL     1      -3.951  35.178  -4.923  1.00  0.00    -0.387 N 
ATOM      8  H2  UNL     1      -4.716  35.542  -5.491  1.00  0.00     0.156 HD
ENDROOT
BRANCH   6   9
HETATM    9  O4  UNL     1      -4.319  32.956  -5.570  1.00  0.00    -0.366 OA
BRANCH   9  10
HETATM   10  C22 UNL     1      -3.628  32.100  -6.302  1.00  0.00     0.178 C 
BRANCH  10  11
HETATM   11  C23 UNL     1      -3.839  30.633  -6.245  1.00  0.00    -0.030 C 
HETATM   12  C24 UNL     1      -3.177  29.839  -7.329  1.00  0.00     0.016 C 
HETATM   13  C25 UNL     1      -3.219  30.106  -4.933  1.00  0.00     0.016 C 
HETATM   14  C26 UNL     1      -5.344  30.386  -6.216  1.00  0.00     0.016 C 
ENDBRANCH  10  11
ENDBRANCH   9  10
ENDBRANCH   6   9
BRANCH   4  15
HETATM   15  C6  UNL     1      -5.005  35.424  -1.643  1.00  0.00     0.051 C 
HETATM   16  C5  UNL     1      -5.673  36.261  -2.689  1.00  0.00     0.064 C 
HETATM   17  C4  UNL     1      -7.166  36.146  -2.821  1.00  0.00     0.060 C 
HETATM   18  N1  UNL     1      -7.620  35.034  -3.532  1.00  0.00    -0.383 N 
HETATM   19  C15 UNL     1      -7.776  33.779  -2.904  1.00  0.00     0.114 C 
HETATM   20  C14 UNL     1      -8.158  33.807  -1.465  1.00  0.00     0.067 C 
HETATM   21  C12 UNL     1      -7.177  34.382  -0.530  1.00  0.00    -0.046 A 
HETATM   22  C11 UNL     1      -7.768  34.160   0.695  1.00  0.00     0.011 A 
HETATM   23  C13 UNL     1      -5.938  35.012  -0.539  1.00  0.00    -0.001 A 
HETATM   24  C10 UNL     1      -7.193  34.529   1.893  1.00  0.00     0.040 A 
HETATM   25  C9  UNL     1      -5.965  35.153   1.906  1.00  0.00     0.099 A 
HETATM   26  C8  UNL     1      -5.363  35.379   0.669  1.00  0.00     0.109 A 
HETATM   27  O1  UNL     1      -4.144  35.974   0.439  1.00  0.00    -0.346 OA
HETATM   28  C7  UNL     1      -4.129  36.400  -0.879  1.00  0.00     0.194 C 
BRANCH  18  29
HETATM   29  C3  UNL     1      -8.520  35.308  -4.626  1.00  0.00     0.149 C 
BRANCH  29  30
HETATM   30  C2  UNL     1      -9.900  35.587  -4.176  1.00  0.00    -0.018 C 
HETATM   31  C1  UNL     1     -10.552  36.684  -4.568  1.00  0.00     0.008 C 
ENDBRANCH  29  30
ENDBRANCH  18  29
BRANCH  25  32
HETATM   32  O2  UNL     1      -5.344  35.544   3.088  1.00  0.00    -0.358 OA
ATOM     33  H2  UNL     1      -4.463  35.258   3.295  1.00  0.00     0.217 HD
ENDBRANCH  25  32
ENDBRANCH   4  15
BRANCH   4  34
HETATM   34  O3  UNL     1      -4.186  33.285  -1.143  1.00  0.00    -0.384 OA
ATOM     35  H3  UNL     1      -3.614  32.589  -1.444  1.00  0.00     0.211 HD
ENDBRANCH   4  34
TORSDOF 9
ENDMDL
MODEL 5
REMARK VINA RESULT: -5.855479345      1.221      1.670
REMARK  9 active torsions:
REMARK  status: ('A' for Active; 'I' for Inactive)
REMARK    1  A    between atoms: C2_2  and  C3_3 
REMARK    2  A    between atoms: C3_3  and  N1_4 
REMARK    3  A    between atoms: C6_7  and  C19_23 
REMARK    4  A    between atoms: C9_11  and  O2_12 
REMARK    5  A    between atoms: C15_19  and  C16_20 
REMARK    6  A    between atoms: C19_23  and  O3_24 
REMARK    7  A    between atoms: C21_27  and  O4_28 
REMARK    8  A    between atoms: O4_28  and  C22_29 
REMARK    9  A    between atoms: C22_29  and  C23_30 
ROOT
HETATM    1  C16 UNL     1      -4.022  38.291  -3.507  1.00  0.00     0.125 C 
HETATM    2  C17 UNL     1      -3.177  37.859  -2.369  1.00  0.00    -0.001 C 
HETATM    3  C18 UNL     1      -3.324  36.578  -1.738  1.00  0.00     0.010 C 
HETATM    4  C19 UNL     1      -4.546  35.733  -1.879  1.00  0.00     0.094 C 
HETATM    5  C20 UNL     1      -4.573  35.182  -3.259  1.00  0.00     0.096 C 
HETATM    6  C21 UNL     1      -3.782  36.003  -4.286  1.00  0.00     0.220 C 
HETATM    7  N2  UNL     1      -4.505  37.252  -4.366  1.00  0.00    -0.387 N 
ATOM      8  H2  UNL     1      -5.302  37.383  -4.989  1.00  0.00     0.156 HD
ENDROOT
BRANCH   6   9
HETATM    9  O4  UNL     1      -3.784  35.298  -5.443  1.00  0.00    -0.366 OA
BRANCH   9  10
HETATM   10  C22 UNL     1      -3.914  33.988  -5.554  1.00  0.00     0.178 C 
BRANCH  10  11
HETATM   11  C23 UNL     1      -4.757  33.345  -6.590  1.00  0.00    -0.030 C 
HETATM   12  C24 UNL     1      -5.871  34.185  -7.136  1.00  0.00     0.016 C 
HETATM   13  C25 UNL     1      -3.865  33.028  -7.810  1.00  0.00     0.016 C 
HETATM   14  C26 UNL     1      -5.284  32.036  -6.009  1.00  0.00     0.016 C 
ENDBRANCH  10  11
ENDBRANCH   9  10
ENDBRANCH   6   9
BRANCH   4  15
HETATM   15  C6  UNL     1      -5.823  36.260  -1.332  1.00  0.00     0.051 C 
HETATM   16  C5  UNL     1      -6.614  37.126  -2.263  1.00  0.00     0.064 C 
HETATM   17  C4  UNL     1      -7.890  36.560  -2.821  1.00  0.00     0.060 C 
HETATM   18  N1  UNL     1      -7.736  35.680  -3.894  1.00  0.00    -0.383 N 
HETATM   19  C15 UNL     1      -7.453  34.313  -3.683  1.00  0.00     0.114 C 
HETATM   20  C14 UNL     1      -8.020  33.707  -2.446  1.00  0.00     0.067 C 
HETATM   21  C12 UNL     1      -7.513  34.221  -1.164  1.00  0.00    -0.046 A 
HETATM   22  C11 UNL     1      -8.134  33.400  -0.248  1.00  0.00     0.011 A 
HETATM   23  C13 UNL     1      -6.656  35.198  -0.671  1.00  0.00    -0.001 A 
HETATM   24  C10 UNL     1      -7.945  33.503   1.114  1.00  0.00     0.040 A 
HETATM   25  C9  UNL     1      -7.100  34.463   1.623  1.00  0.00     0.099 A 
HETATM   26  C8  UNL     1      -6.469  35.296   0.700  1.00  0.00     0.109 A 
HETATM   27  O1  UNL     1      -5.583  36.313   0.975  1.00  0.00    -0.346 OA
HETATM   28  C7  UNL     1      -5.549  37.147  -0.130  1.00  0.00     0.194 C 
BRANCH  18  29
HETATM   29  C3  UNL     1      -8.497  35.991  -5.080  1.00  0.00     0.149 C 
BRANCH  29  30
HETATM   30  C2  UNL     1      -9.826  36.558  -4.774  1.00  0.00    -0.018 C 
HETATM   31  C1  UNL     1     -10.890  35.776  -4.582  1.00  0.00     0.008 C 
ENDBRANCH  29  30
ENDBRANCH  18  29
BRANCH  25  32
HETATM   32  O2  UNL     1      -6.877  34.606   2.989  1.00  0.00    -0.358 OA
ATOM     33  H2  UNL     1      -6.834  33.849   3.560  1.00  0.00     0.217 HD
ENDBRANCH  25  32
ENDBRANCH   4  15
BRANCH   4  34
HETATM   34  O3  UNL     1      -4.178  34.609  -1.073  1.00  0.00    -0.384 OA
ATOM     35  H3  UNL     1      -3.297  34.769  -0.758  1.00  0.00     0.211 HD
ENDBRANCH   4  34
TORSDOF 9
ENDMDL
