MODEL 1
REMARK VINA RESULT: -7.313491460      0.000      0.000
REMARK  16 active torsions:
REMARK  status: ('A' for Active; 'I' for Inactive)
REMARK    1  A    between atoms: S1_2  and  C2_5 
REMARK    2  A    between atoms: C2_5  and  C3_6 
REMARK    3  A    between atoms: C4_7  and  C5_8 
REMARK    4  A    between atoms: C6_9  and  C7_10 
REMARK    5  A    between atoms: C7_10  and  N1_11 
REMARK    6  A    between atoms: N1_11  and  C8_12 
REMARK    7  A    between atoms: C8_12  and  C9_13 
REMARK    8  A    between atoms: C9_13  and  N2_14 
REMARK       I    between atoms: N2_14  and  C10_16 
REMARK    9  A    between atoms: C10_16  and  C11_18 
REMARK   10  A    between atoms: C11_18  and  C12_19 
REMARK   11  A    between atoms: C13_20  and  C14_21 
REMARK   12  A    between atoms: C14_21  and  C15_22 
REMARK   13  A    between atoms: C15_22  and  C16_23 
REMARK   14  A    between atoms: C16_23  and  C17_24 
REMARK   15  A    between atoms: C17_24  and  N3_25 
REMARK   16  A    between atoms: C19_29  and  N5_30 
ROOT
HETATM    1  N2  UNL     1      21.200 -13.611  22.777  1.00  0.00    -0.359 N 
ATOM      2  H2  UNL     1      22.029 -13.822  22.222  1.00  0.00     0.162 HD
HETATM    3  C10 UNL     1      20.041 -13.119  22.139  1.00  0.00     0.228 C 
HETATM    4  O3  UNL     1      19.031 -12.866  22.843  1.00  0.00    -0.273 OA
ENDROOT
BRANCH   3   5
HETATM    5  C11 UNL     1      19.958 -12.887  20.674  1.00  0.00     0.196 C 
BRANCH   5   6
HETATM    6  C12 UNL     1      18.653 -12.352  20.288  1.00  0.00    -0.097 C 
HETATM    7  C13 UNL     1      17.565 -11.900  19.986  1.00  0.00    -0.106 C 
BRANCH   7   8
HETATM    8  C14 UNL     1      16.252 -11.338  19.643  1.00  0.00     0.094 C 
BRANCH   8   9
HETATM    9  C15 UNL     1      15.377 -11.250  20.896  1.00  0.00     0.014 C 
BRANCH   9  10
HETATM   10  C16 UNL     1      14.023 -10.736  20.517  1.00  0.00     0.023 C 
BRANCH  10  11
HETATM   11  C17 UNL     1      13.634  -9.538  21.360  1.00  0.00     0.150 C 
BRANCH  11  12
HETATM   12  N3  UNL     1      12.652  -9.863  22.369  1.00  0.00    -0.273 N 
HETATM   13  C18 UNL     1      12.133  -9.011  23.230  1.00  0.00     0.218 A 
HETATM   14  N4  UNL     1      11.266  -9.675  24.007  1.00  0.00    -0.185 N 
HETATM   15  C19 UNL     1      11.276 -10.948  23.590  1.00  0.00     0.691 A 
ATOM     16  H4  UNL     1      10.707  -9.287  24.767  1.00  0.00     0.185 HD
HETATM   17  N6  UNL     1      12.142 -11.050  22.572  1.00  0.00    -0.129 N 
ATOM     18  H6  UNL     1      12.362 -11.898  22.051  1.00  0.00     0.206 HD
BRANCH  15  19
HETATM   19  N5  UNL     1      10.553 -11.907  24.106  1.00  0.00    -0.233 N 
ATOM     20  H52 UNL     1      10.052 -12.638  23.601  1.00  0.00     0.174 HD
ATOM     21  H51 UNL     1      10.399 -12.044  25.105  1.00  0.00     0.174 HD
ENDBRANCH  15  19
ENDBRANCH  11  12
ENDBRANCH  10  11
ENDBRANCH   9  10
ENDBRANCH   8   9
ENDBRANCH   7   8
ENDBRANCH   5   6
ENDBRANCH   3   5
BRANCH   1  22
HETATM   22  C9  UNL     1      21.226 -13.821  24.212  1.00  0.00     0.150 C 
BRANCH  22  23
HETATM   23  C8  UNL     1      21.354 -15.316  24.433  1.00  0.00     0.258 C 
BRANCH  23  24
HETATM   24  N1  UNL     1      20.053 -15.849  24.708  1.00  0.00    -0.052 N 
HETATM   25  C20 UNL     1      19.828 -16.249  26.143  1.00  0.00     0.266 A 
HETATM   26  C21 UNL     1      19.097 -15.138  25.497  1.00  0.00     0.266 A 
BRANCH  24  27
HETATM   27  C7  UNL     1      19.587 -16.856  23.768  1.00  0.00     0.332 C 
BRANCH  27  28
HETATM   28  C6  UNL     1      18.520 -16.348  22.905  1.00  0.00    -0.065 C 
HETATM   29  C5  UNL     1      17.634 -15.939  22.173  1.00  0.00    -0.013 C 
BRANCH  29  30
HETATM   30  C4  UNL     1      16.617 -15.479  21.304  1.00  0.00    -0.014 C 
HETATM   31  C3  UNL     1      15.740 -15.105  20.562  1.00  0.00    -0.078 C 
BRANCH  31  32
HETATM   32  C2  UNL     1      14.653 -14.670  19.655  1.00  0.00     0.234 C 
BRANCH  32  33
HETATM   33  S1  UNL     1      13.153 -14.515  20.633  1.00  0.00     0.151 S 
HETATM   34  C1  UNL     1      12.458 -16.160  20.747  1.00  0.00     0.162 C 
HETATM   35  O1  UNL     1      12.201 -13.651  19.843  1.00  0.00    -0.227 OA
HETATM   36  O2  UNL     1      13.466 -13.943  21.962  1.00  0.00    -0.227 OA
ENDBRANCH  32  33
ENDBRANCH  31  32
ENDBRANCH  29  30
ENDBRANCH  27  28
ENDBRANCH  24  27
ENDBRANCH  23  24
ENDBRANCH  22  23
ENDBRANCH   1  22
TORSDOF 16
ENDMDL
MODEL 2
REMARK VINA RESULT: -6.943509519      0.679      1.194
REMARK  16 active torsions:
REMARK  status: ('A' for Active; 'I' for Inactive)
REMARK    1  A    between atoms: S1_2  and  C2_5 
REMARK    2  A    between atoms: C2_5  and  C3_6 
REMARK    3  A    between atoms: C4_7  and  C5_8 
REMARK    4  A    between atoms: C6_9  and  C7_10 
REMARK    5  A    between atoms: C7_10  and  N1_11 
REMARK    6  A    between atoms: N1_11  and  C8_12 
REMARK    7  A    between atoms: C8_12  and  C9_13 
REMARK    8  A    between atoms: C9_13  and  N2_14 
REMARK       I    between atoms: N2_14  and  C10_16 
REMARK    9  A    between atoms: C10_16  and  C11_18 
REMARK   10  A    between atoms: C11_18  and  C12_19 
REMARK   11  A    between atoms: C13_20  and  C14_21 
REMARK   12  A    between atoms: C14_21  and  C15_22 
REMARK   13  A    between atoms: C15_22  and  C16_23 
REMARK   14  A    between atoms: C16_23  and  C17_24 
REMARK   15  A    between atoms: C17_24  and  N3_25 
REMARK   16  A    between atoms: C19_29  and  N5_30 
ROOT
HETATM    1  N2  UNL     1      21.140 -13.618  22.749  1.00  0.00    -0.359 N 
ATOM      2  H2  UNL     1      21.957 -13.789  22.163  1.00  0.00     0.162 HD
HETATM    3  C10 UNL     1      19.932 -13.196  22.154  1.00  0.00     0.228 C 
HETATM    4  O3  UNL     1      18.938 -12.992  22.895  1.00  0.00    -0.273 OA
ENDROOT
BRANCH   3   5
HETATM    5  C11 UNL     1      19.780 -12.983  20.691  1.00  0.00     0.196 C 
BRANCH   5   6
HETATM    6  C12 UNL     1      18.476 -12.405  20.366  1.00  0.00    -0.097 C 
HETATM    7  C13 UNL     1      17.384 -11.943  20.092  1.00  0.00    -0.106 C 
BRANCH   7   8
HETATM    8  C14 UNL     1      16.056 -11.410  19.765  1.00  0.00     0.094 C 
BRANCH   8   9
HETATM    9  C15 UNL     1      15.151 -11.468  20.999  1.00  0.00     0.014 C 
BRANCH   9  10
HETATM   10  C16 UNL     1      14.064 -10.448  20.861  1.00  0.00     0.023 C 
BRANCH  10  11
HETATM   11  C17 UNL     1      12.774 -10.930  21.495  1.00  0.00     0.150 C 
BRANCH  11  12
HETATM   12  N3  UNL     1      12.377 -10.125  22.628  1.00  0.00    -0.273 N 
HETATM   13  C18 UNL     1      11.543 -10.503  23.575  1.00  0.00     0.218 A 
HETATM   14  N4  UNL     1      11.417  -9.495  24.449  1.00  0.00    -0.185 N 
HETATM   15  C19 UNL     1      12.197  -8.502  24.003  1.00  0.00     0.691 A 
ATOM     16  H4  UNL     1      10.839  -9.486  25.290  1.00  0.00     0.185 HD
HETATM   17  N6  UNL     1      12.787  -8.908  22.871  1.00  0.00    -0.129 N 
ATOM     18  H6  UNL     1      13.438  -8.366  22.303  1.00  0.00     0.206 HD
BRANCH  15  19
HETATM   19  N5  UNL     1      12.340  -7.344  24.593  1.00  0.00    -0.233 N 
ATOM     20  H52 UNL     1      11.816  -6.996  25.397  1.00  0.00     0.174 HD
ATOM     21  H51 UNL     1      13.010  -6.628  24.313  1.00  0.00     0.174 HD
ENDBRANCH  15  19
ENDBRANCH  11  12
ENDBRANCH  10  11
ENDBRANCH   9  10
ENDBRANCH   8   9
ENDBRANCH   7   8
ENDBRANCH   5   6
ENDBRANCH   3   5
BRANCH   1  22
HETATM   22  C9  UNL     1      21.234 -13.813  24.183  1.00  0.00     0.150 C 
BRANCH  22  23
HETATM   23  C8  UNL     1      21.465 -15.294  24.409  1.00  0.00     0.258 C 
BRANCH  23  24
HETATM   24  N1  UNL     1      20.195 -15.929  24.602  1.00  0.00    -0.052 N 
HETATM   25  C20 UNL     1      19.941 -16.412  26.007  1.00  0.00     0.266 A 
HETATM   26  C21 UNL     1      19.159 -15.325  25.380  1.00  0.00     0.266 A 
BRANCH  24  27
HETATM   27  C7  UNL     1      19.841 -16.921  23.599  1.00  0.00     0.332 C 
BRANCH  27  28
HETATM   28  C6  UNL     1      18.731 -16.474  22.757  1.00  0.00    -0.065 C 
HETATM   29  C5  UNL     1      17.815 -16.111  22.038  1.00  0.00    -0.013 C 
BRANCH  29  30
HETATM   30  C4  UNL     1      16.767 -15.693  21.184  1.00  0.00    -0.014 C 
HETATM   31  C3  UNL     1      15.877 -15.352  20.442  1.00  0.00    -0.078 C 
BRANCH  31  32
HETATM   32  C2  UNL     1      14.791 -14.955  19.517  1.00  0.00     0.234 C 
BRANCH  32  33
HETATM   33  S1  UNL     1      13.266 -14.870  20.465  1.00  0.00     0.151 S 
HETATM   34  C1  UNL     1      12.565 -16.517  20.433  1.00  0.00     0.162 C 
HETATM   35  O1  UNL     1      12.337 -13.944  19.720  1.00  0.00    -0.227 OA
HETATM   36  O2  UNL     1      13.547 -14.403  21.842  1.00  0.00    -0.227 OA
ENDBRANCH  32  33
ENDBRANCH  31  32
ENDBRANCH  29  30
ENDBRANCH  27  28
ENDBRANCH  24  27
ENDBRANCH  23  24
ENDBRANCH  22  23
ENDBRANCH   1  22
TORSDOF 16
ENDMDL
MODEL 3
REMARK VINA RESULT: -6.770505399      0.937      1.089
REMARK  16 active torsions:
REMARK  status: ('A' for Active; 'I' for Inactive)
REMARK    1  A    between atoms: S1_2  and  C2_5 
REMARK    2  A    between atoms: C2_5  and  C3_6 
REMARK    3  A    between atoms: C4_7  and  C5_8 
REMARK    4  A    between atoms: C6_9  and  C7_10 
REMARK    5  A    between atoms: C7_10  and  N1_11 
REMARK    6  A    between atoms: N1_11  and  C8_12 
REMARK    7  A    between atoms: C8_12  and  C9_13 
REMARK    8  A    between atoms: C9_13  and  N2_14 
REMARK       I    between atoms: N2_14  and  C10_16 
REMARK    9  A    between atoms: C10_16  and  C11_18 
REMARK   10  A    between atoms: C11_18  and  C12_19 
REMARK   11  A    between atoms: C13_20  and  C14_21 
REMARK   12  A    between atoms: C14_21  and  C15_22 
REMARK   13  A    between atoms: C15_22  and  C16_23 
REMARK   14  A    between atoms: C16_23  and  C17_24 
REMARK   15  A    between atoms: C17_24  and  N3_25 
REMARK   16  A    between atoms: C19_29  and  N5_30 
ROOT
HETATM    1  N2  UNL     1      21.097 -13.682  22.742  1.00  0.00    -0.359 N 
ATOM      2  H2  UNL     1      21.895 -13.975  22.177  1.00  0.00     0.162 HD
HETATM    3  C10 UNL     1      19.943 -13.174  22.107  1.00  0.00     0.228 C 
HETATM    4  O3  UNL     1      18.973 -12.819  22.822  1.00  0.00    -0.273 OA
ENDROOT
BRANCH   3   5
HETATM    5  C11 UNL     1      19.821 -13.040  20.633  1.00  0.00     0.196 C 
BRANCH   5   6
HETATM    6  C12 UNL     1      18.549 -12.427  20.252  1.00  0.00    -0.097 C 
HETATM    7  C13 UNL     1      17.483 -11.936  19.933  1.00  0.00    -0.106 C 
BRANCH   7   8
HETATM    8  C14 UNL     1      16.184 -11.366  19.553  1.00  0.00     0.094 C 
BRANCH   8   9
HETATM    9  C15 UNL     1      15.207 -11.462  20.726  1.00  0.00     0.014 C 
BRANCH   9  10
HETATM   10  C16 UNL     1      13.821 -11.176  20.238  1.00  0.00     0.023 C 
BRANCH  10  11
HETATM   11  C17 UNL     1      13.293  -9.877  20.813  1.00  0.00     0.150 C 
BRANCH  11  12
HETATM   12  N3  UNL     1      12.545 -10.072  22.034  1.00  0.00    -0.273 N 
HETATM   13  C18 UNL     1      12.371  -9.165  22.974  1.00  0.00     0.218 A 
HETATM   14  N4  UNL     1      11.631  -9.709  23.950  1.00  0.00    -0.185 N 
HETATM   15  C19 UNL     1      11.364 -10.966  23.572  1.00  0.00     0.691 A 
ATOM     16  H4  UNL     1      11.330  -9.254  24.812  1.00  0.00     0.185 HD
HETATM   17  N6  UNL     1      11.939 -11.177  22.380  1.00  0.00    -0.129 N 
ATOM     18  H6  UNL     1      11.908 -12.042  21.842  1.00  0.00     0.206 HD
BRANCH  15  19
HETATM   19  N5  UNL     1      10.661 -11.819  24.269  1.00  0.00    -0.233 N 
ATOM     20  H52 UNL     1      11.014 -12.513  24.928  1.00  0.00     0.174 HD
ATOM     21  H51 UNL     1       9.644 -11.898  24.236  1.00  0.00     0.174 HD
ENDBRANCH  15  19
ENDBRANCH  11  12
ENDBRANCH  10  11
ENDBRANCH   9  10
ENDBRANCH   8   9
ENDBRANCH   7   8
ENDBRANCH   5   6
ENDBRANCH   3   5
BRANCH   1  22
HETATM   22  C9  UNL     1      21.163 -13.792  24.186  1.00  0.00     0.150 C 
BRANCH  22  23
HETATM   23  C8  UNL     1      21.303 -15.268  24.506  1.00  0.00     0.258 C 
BRANCH  23  24
HETATM   24  N1  UNL     1      20.001 -15.799  24.785  1.00  0.00    -0.052 N 
HETATM   25  C20 UNL     1      19.742 -16.093  26.240  1.00  0.00     0.266 A 
HETATM   26  C21 UNL     1      19.014 -15.045  25.493  1.00  0.00     0.266 A 
BRANCH  24  27
HETATM   27  C7  UNL     1      19.575 -16.882  23.913  1.00  0.00     0.332 C 
BRANCH  27  28
HETATM   28  C6  UNL     1      18.561 -16.443  22.953  1.00  0.00    -0.065 C 
HETATM   29  C5  UNL     1      17.729 -16.081  22.138  1.00  0.00    -0.013 C 
BRANCH  29  30
HETATM   30  C4  UNL     1      16.783 -15.656  21.176  1.00  0.00    -0.014 C 
HETATM   31  C3  UNL     1      15.973 -15.313  20.348  1.00  0.00    -0.078 C 
BRANCH  31  32
HETATM   32  C2  UNL     1      14.976 -14.918  19.326  1.00  0.00     0.234 C 
BRANCH  32  33
HETATM   33  S1  UNL     1      13.474 -15.856  19.636  1.00  0.00     0.151 S 
HETATM   34  C1  UNL     1      13.008 -15.509  21.329  1.00  0.00     0.162 C 
HETATM   35  O1  UNL     1      13.839 -17.316  19.534  1.00  0.00    -0.227 OA
HETATM   36  O2  UNL     1      12.421 -15.466  18.671  1.00  0.00    -0.227 OA
ENDBRANCH  32  33
ENDBRANCH  31  32
ENDBRANCH  29  30
ENDBRANCH  27  28
ENDBRANCH  24  27
ENDBRANCH  23  24
ENDBRANCH  22  23
ENDBRANCH   1  22
TORSDOF 16
ENDMDL
MODEL 4
REMARK VINA RESULT: -6.599609783      1.218      1.572
REMARK  16 active torsions:
REMARK  status: ('A' for Active; 'I' for Inactive)
REMARK    1  A    between atoms: S1_2  and  C2_5 
REMARK    2  A    between atoms: C2_5  and  C3_6 
REMARK    3  A    between atoms: C4_7  and  C5_8 
REMARK    4  A    between atoms: C6_9  and  C7_10 
REMARK    5  A    between atoms: C7_10  and  N1_11 
REMARK    6  A    between atoms: N1_11  and  C8_12 
REMARK    7  A    between atoms: C8_12  and  C9_13 
REMARK    8  A    between atoms: C9_13  and  N2_14 
REMARK       I    between atoms: N2_14  and  C10_16 
REMARK    9  A    between atoms: C10_16  and  C11_18 
REMARK   10  A    between atoms: C11_18  and  C12_19 
REMARK   11  A    between atoms: C13_20  and  C14_21 
REMARK   12  A    between atoms: C14_21  and  C15_22 
REMARK   13  A    between atoms: C15_22  and  C16_23 
REMARK   14  A    between atoms: C16_23  and  C17_24 
REMARK   15  A    between atoms: C17_24  and  N3_25 
REMARK   16  A    between atoms: C19_29  and  N5_30 
ROOT
HETATM    1  N2  UNL     1      21.671 -13.787  23.132  1.00  0.00    -0.359 N 
ATOM      2  H2  UNL     1      22.421 -13.796  22.441  1.00  0.00     0.162 HD
HETATM    3  C10 UNL     1      20.365 -13.424  22.737  1.00  0.00     0.228 C 
HETATM    4  O3  UNL     1      19.456 -13.420  23.605  1.00  0.00    -0.273 OA
ENDROOT
BRANCH   3   5
HETATM    5  C11 UNL     1      20.014 -13.048  21.343  1.00  0.00     0.196 C 
BRANCH   5   6
HETATM    6  C12 UNL     1      18.621 -12.613  21.239  1.00  0.00    -0.097 C 
HETATM    7  C13 UNL     1      17.457 -12.268  21.163  1.00  0.00    -0.106 C 
BRANCH   7   8
HETATM    8  C14 UNL     1      16.046 -11.869  21.090  1.00  0.00     0.094 C 
BRANCH   8   9
HETATM    9  C15 UNL     1      15.662 -11.569  19.640  1.00  0.00     0.014 C 
BRANCH   9  10
HETATM   10  C16 UNL     1      14.195 -11.278  19.569  1.00  0.00     0.023 C 
BRANCH  10  11
HETATM   11  C17 UNL     1      13.396 -12.282  20.375  1.00  0.00     0.150 C 
BRANCH  11  12
HETATM   12  N3  UNL     1      12.658 -11.667  21.455  1.00  0.00    -0.273 N 
HETATM   13  C18 UNL     1      12.533 -10.370  21.651  1.00  0.00     0.218 A 
HETATM   14  N4  UNL     1      11.785 -10.180  22.746  1.00  0.00    -0.185 N 
HETATM   15  C19 UNL     1      11.462 -11.397  23.203  1.00  0.00     0.691 A 
ATOM     16  H4  UNL     1      11.514  -9.285  23.152  1.00  0.00     0.185 HD
HETATM   17  N6  UNL     1      12.011 -12.311  22.391  1.00  0.00    -0.129 N 
ATOM     18  H6  UNL     1      11.937 -13.323  22.486  1.00  0.00     0.206 HD
BRANCH  15  19
HETATM   19  N5  UNL     1      10.733 -11.625  24.264  1.00  0.00    -0.233 N 
ATOM     20  H52 UNL     1       9.714 -11.624  24.321  1.00  0.00     0.174 HD
ATOM     21  H51 UNL     1      11.105 -11.835  25.191  1.00  0.00     0.174 HD
ENDBRANCH  15  19
ENDBRANCH  11  12
ENDBRANCH  10  11
ENDBRANCH   9  10
ENDBRANCH   8   9
ENDBRANCH   7   8
ENDBRANCH   5   6
ENDBRANCH   3   5
BRANCH   1  22
HETATM   22  C9  UNL     1      21.959 -14.147  24.507  1.00  0.00     0.150 C 
BRANCH  22  23
HETATM   23  C8  UNL     1      22.418 -15.592  24.494  1.00  0.00     0.258 C 
BRANCH  23  24
HETATM   24  N1  UNL     1      21.277 -16.434  24.697  1.00  0.00    -0.052 N 
HETATM   25  C20 UNL     1      21.254 -17.153  26.021  1.00  0.00     0.266 A 
HETATM   26  C21 UNL     1      20.265 -16.117  25.655  1.00  0.00     0.266 A 
BRANCH  24  27
HETATM   27  C7  UNL     1      20.948 -17.309  23.582  1.00  0.00     0.332 C 
BRANCH  27  28
HETATM   28  C6  UNL     1      19.689 -16.927  22.941  1.00  0.00    -0.065 C 
HETATM   29  C5  UNL     1      18.650 -16.608  22.388  1.00  0.00    -0.013 C 
BRANCH  29  30
HETATM   30  C4  UNL     1      17.458 -16.226  21.729  1.00  0.00    -0.014 C 
HETATM   31  C3  UNL     1      16.446 -15.912  21.150  1.00  0.00    -0.078 C 
BRANCH  31  32
HETATM   32  C2  UNL     1      15.211 -15.543  20.420  1.00  0.00     0.234 C 
BRANCH  32  33
HETATM   33  S1  UNL     1      13.810 -16.123  21.386  1.00  0.00     0.151 S 
HETATM   34  C1  UNL     1      12.460 -16.336  20.230  1.00  0.00     0.162 C 
HETATM   35  O1  UNL     1      13.446 -15.013  22.341  1.00  0.00    -0.227 OA
HETATM   36  O2  UNL     1      14.157 -17.381  22.085  1.00  0.00    -0.227 OA
ENDBRANCH  32  33
ENDBRANCH  31  32
ENDBRANCH  29  30
ENDBRANCH  27  28
ENDBRANCH  24  27
ENDBRANCH  23  24
ENDBRANCH  22  23
ENDBRANCH   1  22
TORSDOF 16
ENDMDL
MODEL 5
REMARK VINA RESULT: -6.560719165      2.248      3.726
REMARK  16 active torsions:
REMARK  status: ('A' for Active; 'I' for Inactive)
REMARK    1  A    between atoms: S1_2  and  C2_5 
REMARK    2  A    between atoms: C2_5  and  C3_6 
REMARK    3  A    between atoms: C4_7  and  C5_8 
REMARK    4  A    between atoms: C6_9  and  C7_10 
REMARK    5  A    between atoms: C7_10  and  N1_11 
REMARK    6  A    between atoms: N1_11  and  C8_12 
REMARK    7  A    between atoms: C8_12  and  C9_13 
REMARK    8  A    between atoms: C9_13  and  N2_14 
REMARK       I    between atoms: N2_14  and  C10_16 
REMARK    9  A    between atoms: C10_16  and  C11_18 
REMARK   10  A    between atoms: C11_18  and  C12_19 
REMARK   11  A    between atoms: C13_20  and  C14_21 
REMARK   12  A    between atoms: C14_21  and  C15_22 
REMARK   13  A    between atoms: C15_22  and  C16_23 
REMARK   14  A    between atoms: C16_23  and  C17_24 
REMARK   15  A    between atoms: C17_24  and  N3_25 
REMARK   16  A    between atoms: C19_29  and  N5_30 
ROOT
HETATM    1  N2  UNL     1      17.598 -15.693  23.497  1.00  0.00    -0.359 N 
ATOM      2  H2  UNL     1      16.622 -15.410  23.583  1.00  0.00     0.162 HD
HETATM    3  C10 UNL     1      18.056 -16.257  22.287  1.00  0.00     0.228 C 
HETATM    4  O3  UNL     1      19.262 -16.599  22.203  1.00  0.00    -0.273 OA
ENDROOT
BRANCH   3   5
HETATM    5  C11 UNL     1      17.178 -16.466  21.106  1.00  0.00     0.196 C 
BRANCH   5   6
HETATM    6  C12 UNL     1      15.838 -15.923  21.332  1.00  0.00    -0.097 C 
HETATM    7  C13 UNL     1      14.716 -15.490  21.511  1.00  0.00    -0.106 C 
BRANCH   7   8
HETATM    8  C14 UNL     1      13.351 -14.991  21.723  1.00  0.00     0.094 C 
BRANCH   8   9
HETATM    9  C15 UNL     1      13.185 -13.624  21.053  1.00  0.00     0.014 C 
BRANCH   9  10
HETATM   10  C16 UNL     1      13.180 -12.558  22.104  1.00  0.00     0.023 C 
BRANCH  10  11
HETATM   11  C17 UNL     1      12.319 -11.381  21.689  1.00  0.00     0.150 C 
BRANCH  11  12
HETATM   12  N3  UNL     1      12.074 -10.461  22.776  1.00  0.00    -0.273 N 
HETATM   13  C18 UNL     1      11.378 -10.732  23.862  1.00  0.00     0.218 A 
HETATM   14  N4  UNL     1      11.365  -9.638  24.636  1.00  0.00    -0.185 N 
HETATM   15  C19 UNL     1      12.072  -8.703  23.989  1.00  0.00     0.691 A 
ATOM     16  H4  UNL     1      10.906  -9.538  25.542  1.00  0.00     0.185 HD
HETATM   17  N6  UNL     1      12.506  -9.228  22.835  1.00  0.00    -0.129 N 
ATOM     18  H6  UNL     1      13.071  -8.753  22.131  1.00  0.00     0.206 HD
BRANCH  15  19
HETATM   19  N5  UNL     1      12.286  -7.492  24.431  1.00  0.00    -0.233 N 
ATOM     20  H52 UNL     1      13.095  -7.166  24.961  1.00  0.00     0.174 HD
ATOM     21  H51 UNL     1      11.652  -6.704  24.297  1.00  0.00     0.174 HD
ENDBRANCH  15  19
ENDBRANCH  11  12
ENDBRANCH  10  11
ENDBRANCH   9  10
ENDBRANCH   8   9
ENDBRANCH   7   8
ENDBRANCH   5   6
ENDBRANCH   3   5
BRANCH   1  22
HETATM   22  C9  UNL     1      18.498 -15.511  24.619  1.00  0.00     0.150 C 
BRANCH  22  23
HETATM   23  C8  UNL     1      18.770 -14.023  24.725  1.00  0.00     0.258 C 
BRANCH  23  24
HETATM   24  N1  UNL     1      20.173 -13.801  24.534  1.00  0.00    -0.052 N 
HETATM   25  C20 UNL     1      20.798 -12.847  25.518  1.00  0.00     0.266 A 
HETATM   26  C21 UNL     1      21.147 -14.282  25.463  1.00  0.00     0.266 A 
BRANCH  24  27
HETATM   27  C7  UNL     1      20.574 -13.530  23.162  1.00  0.00     0.332 C 
BRANCH  27  28
HETATM   28  C6  UNL     1      19.467 -13.005  22.363  1.00  0.00    -0.065 C 
HETATM   29  C5  UNL     1      18.532 -12.567  21.713  1.00  0.00    -0.013 C 
BRANCH  29  30
HETATM   30  C4  UNL     1      17.432 -12.068  20.977  1.00  0.00    -0.014 C 
HETATM   31  C3  UNL     1      16.498 -11.623  20.354  1.00  0.00    -0.078 C 
BRANCH  31  32
HETATM   32  C2  UNL     1      15.362 -11.053  19.594  1.00  0.00     0.234 C 
BRANCH  32  33
HETATM   33  S1  UNL     1      15.549 -11.546  17.876  1.00  0.00     0.151 S 
HETATM   34  C1  UNL     1      15.186 -13.298  17.816  1.00  0.00     0.162 C 
HETATM   35  O1  UNL     1      17.002 -11.350  17.518  1.00  0.00    -0.227 OA
HETATM   36  O2  UNL     1      14.643 -10.753  17.015  1.00  0.00    -0.227 OA
ENDBRANCH  32  33
ENDBRANCH  31  32
ENDBRANCH  29  30
ENDBRANCH  27  28
ENDBRANCH  24  27
ENDBRANCH  23  24
ENDBRANCH  22  23
ENDBRANCH   1  22
TORSDOF 16
ENDMDL
