MODEL 1
REMARK VINA RESULT: -4.715011043      0.000      0.000
REMARK  4 active torsions:
REMARK  status: ('A' for Active; 'I' for Inactive)
REMARK    1  A    between atoms: C1_4  and  N2_5 
REMARK    2  A    between atoms: N2_5  and  N3_7 
REMARK    3  A    between atoms: N3_7  and  N4_8 
REMARK    4  A    between atoms: N4_8  and  C2_10 
ROOT
HETATM    1  N3  UNL     1      12.794  -7.430  23.803  1.00  0.00    -0.024 NA
ENDROOT
BRANCH   1   2
HETATM    2  N2  UNL     1      12.190  -6.506  24.667  1.00  0.00    -0.281 N 
ATOM      3  H2  UNL     1      11.670  -5.704  24.312  1.00  0.00     0.185 HD
BRANCH   2   4
HETATM    4  C1  UNL     1      12.337  -6.739  26.063  1.00  0.00     0.188 C 
HETATM    5  N1  UNL     1      12.977  -5.917  26.822  1.00  0.00    -0.394 N 
ATOM      6  H12 UNL     1      13.382  -5.084  26.395  1.00  0.00     0.156 HD
ATOM      7  H11 UNL     1      13.082  -6.083  27.822  1.00  0.00     0.156 HD
ENDBRANCH   2   4
ENDBRANCH   1   2
BRANCH   1   8
HETATM    8  N4  UNL     1      11.987  -8.481  23.602  1.00  0.00    -0.288 N 
ATOM      9  H4  UNL     1      11.009  -8.344  23.346  1.00  0.00     0.180 HD
BRANCH   8  10
HETATM   10  C2  UNL     1      12.517  -9.786  23.750  1.00  0.00     0.291 A 
HETATM   11  N5  UNL     1      11.564 -10.889  23.462  1.00  0.00    -0.328 N 
HETATM   12  C3  UNL     1      12.804 -10.639  22.676  1.00  0.00     0.263 A 
ATOM     13  H5  UNL     1      10.712 -11.416  23.656  1.00  0.00     0.165 HD
HETATM   14  O1  UNL     1      13.456 -11.082  21.698  1.00  0.00    -0.269 OA
ENDBRANCH   8  10
ENDBRANCH   1   8
TORSDOF 4
ENDMDL
MODEL 2
REMARK VINA RESULT: -4.584974475      2.608      3.225
REMARK  4 active torsions:
REMARK  status: ('A' for Active; 'I' for Inactive)
REMARK    1  A    between atoms: C1_4  and  N2_5 
REMARK    2  A    between atoms: N2_5  and  N3_7 
REMARK    3  A    between atoms: N3_7  and  N4_8 
REMARK    4  A    between atoms: N4_8  and  C2_10 
ROOT
HETATM    1  N3  UNL     1      12.688  -7.199  23.938  1.00  0.00    -0.024 NA
ENDROOT
BRANCH   1   2
HETATM    2  N2  UNL     1      11.743  -6.415  24.616  1.00  0.00    -0.281 N 
ATOM      3  H2  UNL     1      11.901  -5.424  24.794  1.00  0.00     0.185 HD
BRANCH   2   4
HETATM    4  C1  UNL     1      10.555  -7.068  25.044  1.00  0.00     0.188 C 
HETATM    5  N1  UNL     1      10.035  -8.036  24.369  1.00  0.00    -0.394 N 
ATOM      6  H12 UNL     1      10.500  -8.327  23.510  1.00  0.00     0.156 HD
ATOM      7  H11 UNL     1       9.182  -8.504  24.676  1.00  0.00     0.156 HD
ENDBRANCH   2   4
ENDBRANCH   1   2
BRANCH   1   8
HETATM    8  N4  UNL     1      13.555  -7.743  24.802  1.00  0.00    -0.288 N 
ATOM      9  H4  UNL     1      13.624  -7.394  25.758  1.00  0.00     0.180 HD
BRANCH   8  10
HETATM   10  C2  UNL     1      14.376  -8.812  24.364  1.00  0.00     0.291 A 
HETATM   11  N5  UNL     1      15.837  -8.557  24.444  1.00  0.00    -0.328 N 
HETATM   12  C3  UNL     1      15.136  -9.614  25.224  1.00  0.00     0.263 A 
ATOM     13  H5  UNL     1      16.678  -8.047  24.172  1.00  0.00     0.165 HD
HETATM   14  O1  UNL     1      15.350 -10.523  26.064  1.00  0.00    -0.269 OA
ENDBRANCH   8  10
ENDBRANCH   1   8
TORSDOF 4
ENDMDL
MODEL 3
REMARK VINA RESULT: -4.557345085      1.574      2.067
REMARK  4 active torsions:
REMARK  status: ('A' for Active; 'I' for Inactive)
REMARK    1  A    between atoms: C1_4  and  N2_5 
REMARK    2  A    between atoms: N2_5  and  N3_7 
REMARK    3  A    between atoms: N3_7  and  N4_8 
REMARK    4  A    between atoms: N4_8  and  C2_10 
ROOT
HETATM    1  N3  UNL     1      12.667  -7.070  23.834  1.00  0.00    -0.024 NA
ENDROOT
BRANCH   1   2
HETATM    2  N2  UNL     1      11.673  -6.515  24.652  1.00  0.00    -0.281 N 
ATOM      3  H2  UNL     1      11.669  -5.523  24.891  1.00  0.00     0.185 HD
BRANCH   2   4
HETATM    4  C1  UNL     1      10.668  -7.399  25.133  1.00  0.00     0.188 C 
HETATM    5  N1  UNL     1       9.929  -8.083  24.328  1.00  0.00    -0.394 N 
ATOM      6  H12 UNL     1      10.080  -7.974  23.325  1.00  0.00     0.156 HD
ATOM      7  H11 UNL     1       9.208  -8.717  24.672  1.00  0.00     0.156 HD
ENDBRANCH   2   4
ENDBRANCH   1   2
BRANCH   1   8
HETATM    8  N4  UNL     1      13.472  -7.867  24.549  1.00  0.00    -0.288 N 
ATOM      9  H4  UNL     1      13.867  -7.549  25.434  1.00  0.00     0.180 HD
BRANCH   8  10
HETATM   10  C2  UNL     1      13.766  -9.161  24.052  1.00  0.00     0.291 A 
HETATM   11  N5  UNL     1      13.126 -10.280  24.792  1.00  0.00    -0.328 N 
HETATM   12  C3  UNL     1      12.843  -9.961  23.366  1.00  0.00     0.263 A 
ATOM     13  H5  UNL     1      12.987 -10.839  25.634  1.00  0.00     0.165 HD
HETATM   14  O1  UNL     1      12.152 -10.345  22.389  1.00  0.00    -0.269 OA
ENDBRANCH   8  10
ENDBRANCH   1   8
TORSDOF 4
ENDMDL
MODEL 4
REMARK VINA RESULT: -4.542867653      5.775      7.629
REMARK  4 active torsions:
REMARK  status: ('A' for Active; 'I' for Inactive)
REMARK    1  A    between atoms: C1_4  and  N2_5 
REMARK    2  A    between atoms: N2_5  and  N3_7 
REMARK    3  A    between atoms: N3_7  and  N4_8 
REMARK    4  A    between atoms: N4_8  and  C2_10 
ROOT
HETATM    1  N3  UNL     1      17.392  -6.323  28.759  1.00  0.00    -0.024 NA
ENDROOT
BRANCH   1   2
HETATM    2  N2  UNL     1      17.358  -7.411  27.876  1.00  0.00    -0.281 N 
ATOM      3  H2  UNL     1      18.131  -7.608  27.241  1.00  0.00     0.185 HD
BRANCH   2   4
HETATM    4  C1  UNL     1      16.194  -8.229  27.909  1.00  0.00     0.188 C 
HETATM    5  N1  UNL     1      15.575  -8.565  26.830  1.00  0.00    -0.394 N 
ATOM      6  H12 UNL     1      15.941  -8.229  25.939  1.00  0.00     0.156 HD
ATOM      7  H11 UNL     1      14.741  -9.152  26.853  1.00  0.00     0.156 HD
ENDBRANCH   2   4
ENDBRANCH   1   2
BRANCH   1   8
HETATM    8  N4  UNL     1      17.019  -5.198  28.133  1.00  0.00    -0.288 N 
ATOM      9  H4  UNL     1      17.304  -5.021  27.169  1.00  0.00     0.180 HD
BRANCH   8  10
HETATM   10  C2  UNL     1      16.222  -4.259  28.833  1.00  0.00     0.291 A 
HETATM   11  N5  UNL     1      15.882  -3.030  28.072  1.00  0.00    -0.328 N 
HETATM   12  C3  UNL     1      14.873  -4.015  28.548  1.00  0.00     0.263 A 
ATOM     13  H5  UNL     1      16.142  -2.168  27.592  1.00  0.00     0.165 HD
HETATM   14  O1  UNL     1      13.636  -4.236  28.548  1.00  0.00    -0.269 OA
ENDBRANCH   8  10
ENDBRANCH   1   8
TORSDOF 4
ENDMDL
MODEL 5
REMARK VINA RESULT: -4.526868458      2.007      2.832
REMARK  4 active torsions:
REMARK  status: ('A' for Active; 'I' for Inactive)
REMARK    1  A    between atoms: C1_4  and  N2_5 
REMARK    2  A    between atoms: N2_5  and  N3_7 
REMARK    3  A    between atoms: N3_7  and  N4_8 
REMARK    4  A    between atoms: N4_8  and  C2_10 
ROOT
HETATM    1  N3  UNL     1      10.993  -8.245  24.607  1.00  0.00    -0.024 NA
ENDROOT
BRANCH   1   2
HETATM    2  N2  UNL     1       9.648  -8.190  24.213  1.00  0.00    -0.281 N 
ATOM      3  H2  UNL     1       9.344  -7.612  23.430  1.00  0.00     0.185 HD
BRANCH   2   4
HETATM    4  C1  UNL     1       8.727  -8.978  24.958  1.00  0.00     0.188 C 
HETATM    5  N1  UNL     1       8.879 -10.252  25.088  1.00  0.00    -0.394 N 
ATOM      6  H12 UNL     1       9.684 -10.689  24.639  1.00  0.00     0.156 HD
ATOM      7  H11 UNL     1       8.220 -10.817  25.621  1.00  0.00     0.156 HD
ENDBRANCH   2   4
ENDBRANCH   1   2
BRANCH   1   8
HETATM    8  N4  UNL     1      11.766  -8.633  23.584  1.00  0.00    -0.288 N 
ATOM      9  H4  UNL     1      11.769  -8.111  22.707  1.00  0.00     0.180 HD
BRANCH   8  10
HETATM   10  C2  UNL     1      12.581  -9.781  23.742  1.00  0.00     0.291 A 
HETATM   11  N5  UNL     1      11.855 -11.077  23.707  1.00  0.00    -0.328 N 
HETATM   12  C3  UNL     1      12.879 -10.674  22.704  1.00  0.00     0.263 A 
ATOM     13  H5  UNL     1      11.175 -11.738  24.083  1.00  0.00     0.165 HD
HETATM   14  O1  UNL     1      13.456 -11.085  21.666  1.00  0.00    -0.269 OA
ENDBRANCH   8  10
ENDBRANCH   1   8
TORSDOF 4
ENDMDL
