MODEL 1
REMARK VINA RESULT: -7.759295992      0.000      0.000
REMARK  7 active torsions:
REMARK  status: ('A' for Active; 'I' for Inactive)
REMARK    1  A    between atoms: C3_3  and  C4_4 
REMARK    2  A    between atoms: C4_4  and  C5_5 
REMARK    3  A    between atoms: C6_9  and  N2_10 
REMARK    4  A    between atoms: C8_14  and  N4_15 
REMARK    5  A    between atoms: C15_26  and  S1_27 
REMARK    6  A    between atoms: C17_29  and  O1_30 
REMARK    7  A    between atoms: C18_32  and  O2_33 
ROOT
HETATM    1  N2  UNL     1       6.181  23.051  22.661  1.00  0.00    -0.249 N 
HETATM    2  N3  UNL     1       5.824  24.051  23.487  1.00  0.00    -0.290 N 
ATOM      3  H3  UNL     1       6.319  24.318  24.337  1.00  0.00     0.187 HD
HETATM    4  C7  UNL     1       4.736  24.629  23.025  1.00  0.00     0.122 A 
HETATM    5  C8  UNL     1       3.966  25.686  23.480  1.00  0.00     0.135 A 
HETATM    6  N5  UNL     1       2.886  26.018  22.729  1.00  0.00    -0.337 N 
ATOM      7  H5  UNL     1       2.302  26.793  23.042  1.00  0.00     0.168 HD
HETATM    8  C13 UNL     1       2.544  25.383  21.596  1.00  0.00     0.182 A 
HETATM    9  N6  UNL     1       3.280  24.352  21.137  1.00  0.00    -0.348 N 
ATOM     10  H6  UNL     1       3.034  23.859  20.278  1.00  0.00     0.167 HD
HETATM   11  C14 UNL     1       4.359  24.005  21.868  1.00  0.00     0.100 A 
HETATM   12  C15 UNL     1       5.297  23.007  21.662  1.00  0.00     0.118 A 
ENDROOT
BRANCH   1  13
HETATM   13  C6  UNL     1       7.334  22.278  22.957  1.00  0.00     0.339 C 
HETATM   14  N1  UNL     1       8.255  22.363  21.823  1.00  0.00    -0.043 N 
HETATM   15  C5  UNL     1       9.585  22.397  22.352  1.00  0.00     0.223 C 
ATOM     16  H12 UNL     1       8.052  23.149  21.205  1.00  0.00     0.280 HD
ATOM     17  H11 UNL     1       8.116  21.618  21.141  1.00  0.00     0.280 HD
HETATM   18  C18 UNL     1       9.482  21.985  23.806  1.00  0.00     0.181 C 
HETATM   19  C17 UNL     1       8.111  22.607  24.145  1.00  0.00     0.201 C 
BRANCH  15  20
HETATM   20  C4  UNL     1      10.508  21.478  21.577  1.00  0.00     0.062 C 
BRANCH  20  21
HETATM   21  C3  UNL     1       9.782  20.732  20.523  1.00  0.00    -0.029 C 
HETATM   22  C2  UNL     1       9.099  19.639  20.820  1.00  0.00    -0.035 C 
HETATM   23  C1  UNL     1       8.376  18.907  19.737  1.00  0.00     0.036 C 
ENDBRANCH  20  21
ENDBRANCH  15  20
BRANCH  18  24
HETATM   24  O2  UNL     1      10.455  22.639  24.560  1.00  0.00    -0.391 OA
ATOM     25  H2  UNL     1      10.123  22.828  25.430  1.00  0.00     0.210 HD
ENDBRANCH  18  24
BRANCH  19  26
HETATM   26  O1  UNL     1       7.688  21.888  25.264  1.00  0.00    -0.389 OA
ATOM     27  H1  UNL     1       6.972  22.319  25.715  1.00  0.00     0.210 HD
ENDBRANCH  19  26
ENDBRANCH   1  13
BRANCH  12  28
HETATM   28  S1  UNL     1       5.338  21.863  20.325  1.00  0.00    -0.113 SA
HETATM   29  C16 UNL     1       4.995  20.205  20.971  1.00  0.00     0.097 C 
ENDBRANCH  12  28
BRANCH   5  30
HETATM   30  N4  UNL     1       4.293  26.384  24.671  1.00  0.00    -0.365 N 
HETATM   31  C9  UNL     1       3.548  26.491  25.906  1.00  0.00     0.124 C 
HETATM   32  C10 UNL     1       4.581  26.807  26.982  1.00  0.00     0.021 C 
HETATM   33  C11 UNL     1       5.912  26.741  26.261  1.00  0.00     0.021 C 
HETATM   34  C12 UNL     1       5.503  27.153  24.853  1.00  0.00     0.124 C 
ENDBRANCH   5  30
TORSDOF 7
ENDMDL
MODEL 2
REMARK VINA RESULT: -7.738473912      2.335      4.351
REMARK  7 active torsions:
REMARK  status: ('A' for Active; 'I' for Inactive)
REMARK    1  A    between atoms: C3_3  and  C4_4 
REMARK    2  A    between atoms: C4_4  and  C5_5 
REMARK    3  A    between atoms: C6_9  and  N2_10 
REMARK    4  A    between atoms: C8_14  and  N4_15 
REMARK    5  A    between atoms: C15_26  and  S1_27 
REMARK    6  A    between atoms: C17_29  and  O1_30 
REMARK    7  A    between atoms: C18_32  and  O2_33 
ROOT
HETATM    1  N2  UNL     1       6.360  24.484  25.232  1.00  0.00    -0.249 N 
HETATM    2  N3  UNL     1       5.567  24.142  24.201  1.00  0.00    -0.290 N 
ATOM      3  H3  UNL     1       5.768  23.411  23.519  1.00  0.00     0.187 HD
HETATM    4  C7  UNL     1       4.490  24.900  24.210  1.00  0.00     0.122 A 
HETATM    5  C8  UNL     1       3.377  24.963  23.389  1.00  0.00     0.135 A 
HETATM    6  N5  UNL     1       2.441  25.891  23.708  1.00  0.00    -0.337 N 
ATOM      7  H5  UNL     1       1.611  25.959  23.119  1.00  0.00     0.168 HD
HETATM    8  C13 UNL     1       2.545  26.725  24.755  1.00  0.00     0.182 A 
HETATM    9  N6  UNL     1       3.620  26.679  25.565  1.00  0.00    -0.348 N 
ATOM     10  H6  UNL     1       3.716  27.305  26.365  1.00  0.00     0.167 HD
HETATM   11  C14 UNL     1       4.565  25.763  25.267  1.00  0.00     0.100 A 
HETATM   12  C15 UNL     1       5.763  25.475  25.899  1.00  0.00     0.118 A 
ENDROOT
BRANCH   1  13
HETATM   13  C6  UNL     1       7.587  23.799  25.428  1.00  0.00     0.339 C 
HETATM   14  N1  UNL     1       7.693  22.740  24.425  1.00  0.00    -0.043 N 
HETATM   15  C5  UNL     1       9.066  22.659  24.028  1.00  0.00     0.223 C 
ATOM     16  H12 UNL     1       7.059  22.873  23.637  1.00  0.00     0.280 HD
ATOM     17  H11 UNL     1       7.318  21.847  24.748  1.00  0.00     0.280 HD
HETATM   18  C18 UNL     1       9.858  23.449  25.050  1.00  0.00     0.181 C 
HETATM   19  C17 UNL     1       8.830  24.557  25.360  1.00  0.00     0.201 C 
BRANCH  15  20
HETATM   20  C4  UNL     1       9.533  21.219  23.954  1.00  0.00     0.062 C 
BRANCH  20  21
HETATM   21  C3  UNL     1       9.533  20.712  22.561  1.00  0.00    -0.029 C 
HETATM   22  C2  UNL     1      10.216  21.337  21.616  1.00  0.00    -0.035 C 
HETATM   23  C1  UNL     1      10.198  20.803  20.222  1.00  0.00     0.036 C 
ENDBRANCH  20  21
ENDBRANCH  15  20
BRANCH  18  24
HETATM   24  O2  UNL     1      10.967  24.039  24.446  1.00  0.00    -0.391 OA
ATOM     25  H2  UNL     1      11.686  24.095  25.065  1.00  0.00     0.210 HD
ENDBRANCH  18  24
BRANCH  19  26
HETATM   26  O1  UNL     1       9.223  25.035  26.610  1.00  0.00    -0.389 OA
ATOM     27  H1  UNL     1       8.634  25.704  26.938  1.00  0.00     0.210 HD
ENDBRANCH  19  26
ENDBRANCH   1  13
BRANCH  12  28
HETATM   28  S1  UNL     1       6.413  26.264  27.331  1.00  0.00    -0.113 SA
HETATM   29  C16 UNL     1       5.109  26.349  28.587  1.00  0.00     0.097 C 
ENDBRANCH  12  28
BRANCH   5  30
HETATM   30  N4  UNL     1       3.227  24.100  22.273  1.00  0.00    -0.365 N 
HETATM   31  C9  UNL     1       3.934  24.101  21.011  1.00  0.00     0.124 C 
HETATM   32  C10 UNL     1       3.823  22.676  20.479  1.00  0.00     0.021 C 
HETATM   33  C11 UNL     1       3.126  21.911  21.585  1.00  0.00     0.021 C 
HETATM   34  C12 UNL     1       2.280  23.010  22.213  1.00  0.00     0.124 C 
ENDBRANCH   5  30
TORSDOF 7
ENDMDL
MODEL 3
REMARK VINA RESULT: -7.674813423      1.277      1.423
REMARK  7 active torsions:
REMARK  status: ('A' for Active; 'I' for Inactive)
REMARK    1  A    between atoms: C3_3  and  C4_4 
REMARK    2  A    between atoms: C4_4  and  C5_5 
REMARK    3  A    between atoms: C6_9  and  N2_10 
REMARK    4  A    between atoms: C8_14  and  N4_15 
REMARK    5  A    between atoms: C15_26  and  S1_27 
REMARK    6  A    between atoms: C17_29  and  O1_30 
REMARK    7  A    between atoms: C18_32  and  O2_33 
ROOT
HETATM    1  N2  UNL     1       6.251  23.579  23.992  1.00  0.00    -0.249 N 
HETATM    2  N3  UNL     1       5.683  24.568  24.704  1.00  0.00    -0.290 N 
ATOM      3  H3  UNL     1       6.084  25.002  25.536  1.00  0.00     0.187 HD
HETATM    4  C7  UNL     1       4.528  24.889  24.160  1.00  0.00     0.122 A 
HETATM    5  C8  UNL     1       3.561  25.823  24.487  1.00  0.00     0.135 A 
HETATM    6  N5  UNL     1       2.472  25.877  23.680  1.00  0.00    -0.337 N 
ATOM      7  H5  UNL     1       1.744  26.556  23.899  1.00  0.00     0.168 HD
HETATM    8  C13 UNL     1       2.300  25.086  22.608  1.00  0.00     0.182 A 
HETATM    9  N6  UNL     1       3.230  24.171  22.274  1.00  0.00    -0.348 N 
ATOM     10  H6  UNL     1       3.115  23.562  21.463  1.00  0.00     0.167 HD
HETATM   11  C14 UNL     1       4.322  24.100  23.063  1.00  0.00     0.100 A 
HETATM   12  C15 UNL     1       5.433  23.278  22.981  1.00  0.00     0.118 A 
ENDROOT
BRANCH   1  13
HETATM   13  C6  UNL     1       7.512  23.063  24.393  1.00  0.00     0.339 C 
HETATM   14  N1  UNL     1       8.235  22.625  23.199  1.00  0.00    -0.043 N 
HETATM   15  C5  UNL     1       9.619  22.935  23.398  1.00  0.00     0.223 C 
ATOM     16  H12 UNL     1       7.858  23.021  22.338  1.00  0.00     0.280 HD
ATOM     17  H11 UNL     1       8.075  21.643  22.976  1.00  0.00     0.280 HD
HETATM   18  C18 UNL     1       9.782  23.256  24.870  1.00  0.00     0.181 C 
HETATM   19  C17 UNL     1       8.420  23.932  25.130  1.00  0.00     0.201 C 
BRANCH  15  20
HETATM   20  C4  UNL     1      10.506  21.781  22.978  1.00  0.00     0.062 C 
BRANCH  20  21
HETATM   21  C3  UNL     1       9.788  20.824  22.104  1.00  0.00    -0.029 C 
HETATM   22  C2  UNL     1      10.027  20.789  20.803  1.00  0.00    -0.035 C 
HETATM   23  C1  UNL     1       9.289  19.814  19.947  1.00  0.00     0.036 C 
ENDBRANCH  20  21
ENDBRANCH  15  20
BRANCH  18  24
HETATM   24  O2  UNL     1      10.782  24.211  25.044  1.00  0.00    -0.391 OA
ATOM     25  H2  UNL     1      10.436  25.082  24.884  1.00  0.00     0.210 HD
ENDBRANCH  18  24
BRANCH  19  26
HETATM   26  O1  UNL     1       8.251  23.817  26.510  1.00  0.00    -0.389 OA
ATOM     27  H1  UNL     1       8.148  24.663  26.929  1.00  0.00     0.210 HD
ENDBRANCH  19  26
ENDBRANCH   1  13
BRANCH  12  28
HETATM   28  S1  UNL     1       5.738  22.040  21.767  1.00  0.00    -0.113 SA
HETATM   29  C16 UNL     1       5.394  20.417  22.496  1.00  0.00     0.097 C 
ENDBRANCH  12  28
BRANCH   5  30
HETATM   30  N4  UNL     1       3.703  26.679  25.610  1.00  0.00    -0.365 N 
HETATM   31  C9  UNL     1       2.867  26.801  26.783  1.00  0.00     0.124 C 
HETATM   32  C10 UNL     1       3.769  27.371  27.873  1.00  0.00     0.021 C 
HETATM   33  C11 UNL     1       5.142  27.426  27.236  1.00  0.00     0.021 C 
HETATM   34  C12 UNL     1       4.780  27.629  25.772  1.00  0.00     0.124 C 
ENDBRANCH   5  30
TORSDOF 7
ENDMDL
MODEL 4
REMARK VINA RESULT: -7.555437474      3.069      5.648
REMARK  7 active torsions:
REMARK  status: ('A' for Active; 'I' for Inactive)
REMARK    1  A    between atoms: C3_3  and  C4_4 
REMARK    2  A    between atoms: C4_4  and  C5_5 
REMARK    3  A    between atoms: C6_9  and  N2_10 
REMARK    4  A    between atoms: C8_14  and  N4_15 
REMARK    5  A    between atoms: C15_26  and  S1_27 
REMARK    6  A    between atoms: C17_29  and  O1_30 
REMARK    7  A    between atoms: C18_32  and  O2_33 
ROOT
HETATM    1  N2  UNL     1       3.614  25.278  23.717  1.00  0.00    -0.249 N 
HETATM    2  N3  UNL     1       4.136  24.613  22.671  1.00  0.00    -0.290 N 
ATOM      3  H3  UNL     1       5.122  24.384  22.550  1.00  0.00     0.187 HD
HETATM    4  C7  UNL     1       3.174  24.303  21.827  1.00  0.00     0.122 A 
HETATM    5  C8  UNL     1       3.163  23.634  20.616  1.00  0.00     0.135 A 
HETATM    6  N5  UNL     1       1.958  23.495  20.010  1.00  0.00    -0.337 N 
ATOM      7  H5  UNL     1       1.922  23.006  19.116  1.00  0.00     0.168 HD
HETATM    8  C13 UNL     1       0.809  23.966  20.521  1.00  0.00     0.182 A 
HETATM    9  N6  UNL     1       0.798  24.621  21.698  1.00  0.00    -0.348 N 
ATOM     10  H6  UNL     1      -0.066  24.985  22.101  1.00  0.00     0.167 HD
HETATM   11  C14 UNL     1       1.987  24.770  22.320  1.00  0.00     0.100 A 
HETATM   12  C15 UNL     1       2.298  25.384  23.521  1.00  0.00     0.118 A 
ENDROOT
BRANCH   1  13
HETATM   13  C6  UNL     1       4.467  25.718  24.762  1.00  0.00     0.339 C 
HETATM   14  N1  UNL     1       5.569  24.766  24.894  1.00  0.00    -0.043 N 
HETATM   15  C5  UNL     1       6.749  25.514  25.208  1.00  0.00     0.223 C 
ATOM     16  H12 UNL     1       5.682  24.172  24.072  1.00  0.00     0.280 HD
ATOM     17  H11 UNL     1       5.377  24.025  25.568  1.00  0.00     0.280 HD
HETATM   18  C18 UNL     1       6.286  26.902  25.605  1.00  0.00     0.181 C 
HETATM   19  C17 UNL     1       5.073  27.039  24.661  1.00  0.00     0.201 C 
BRANCH  15  20
HETATM   20  C4  UNL     1       7.541  24.853  26.317  1.00  0.00     0.062 C 
BRANCH  20  21
HETATM   21  C3  UNL     1       8.814  24.282  25.819  1.00  0.00    -0.029 C 
HETATM   22  C2  UNL     1       8.812  23.352  24.877  1.00  0.00    -0.035 C 
HETATM   23  C1  UNL     1      10.110  22.795  24.394  1.00  0.00     0.036 C 
ENDBRANCH  20  21
ENDBRANCH  15  20
BRANCH  18  24
HETATM   24  O2  UNL     1       7.238  27.849  25.231  1.00  0.00    -0.391 OA
ATOM     25  H2  UNL     1       6.896  28.400  24.536  1.00  0.00     0.210 HD
ENDBRANCH  18  24
BRANCH  19  26
HETATM   26  O1  UNL     1       4.291  28.023  25.268  1.00  0.00    -0.389 OA
ATOM     27  H1  UNL     1       4.731  28.864  25.292  1.00  0.00     0.210 HD
ENDBRANCH  19  26
ENDBRANCH   1  13
BRANCH  12  28
HETATM   28  S1  UNL     1       1.173  26.177  24.618  1.00  0.00    -0.113 SA
HETATM   29  C16 UNL     1      -0.200  25.044  24.959  1.00  0.00     0.097 C 
ENDBRANCH  12  28
BRANCH   5  30
HETATM   30  N4  UNL     1       4.354  23.120  20.041  1.00  0.00    -0.365 N 
HETATM   31  C9  UNL     1       5.516  23.827  19.551  1.00  0.00     0.124 C 
HETATM   32  C10 UNL     1       6.666  22.828  19.625  1.00  0.00     0.021 C 
HETATM   33  C11 UNL     1       6.064  21.606  20.289  1.00  0.00     0.021 C 
HETATM   34  C12 UNL     1       4.614  21.712  19.838  1.00  0.00     0.124 C 
ENDBRANCH   5  30
TORSDOF 7
ENDMDL
MODEL 5
REMARK VINA RESULT: -7.392568192      1.858      2.554
REMARK  7 active torsions:
REMARK  status: ('A' for Active; 'I' for Inactive)
REMARK    1  A    between atoms: C3_3  and  C4_4 
REMARK    2  A    between atoms: C4_4  and  C5_5 
REMARK    3  A    between atoms: C6_9  and  N2_10 
REMARK    4  A    between atoms: C8_14  and  N4_15 
REMARK    5  A    between atoms: C15_26  and  S1_27 
REMARK    6  A    between atoms: C17_29  and  O1_30 
REMARK    7  A    between atoms: C18_32  and  O2_33 
ROOT
HETATM    1  N2  UNL     1       6.332  24.356  24.778  1.00  0.00    -0.249 N 
HETATM    2  N3  UNL     1       5.673  25.144  25.646  1.00  0.00    -0.290 N 
ATOM      3  H3  UNL     1       5.991  25.383  26.585  1.00  0.00     0.187 HD
HETATM    4  C7  UNL     1       4.553  25.560  25.092  1.00  0.00     0.122 A 
HETATM    5  C8  UNL     1       3.529  26.376  25.539  1.00  0.00     0.135 A 
HETATM    6  N5  UNL     1       2.506  26.593  24.676  1.00  0.00    -0.337 N 
ATOM      7  H5  UNL     1       1.737  27.191  24.981  1.00  0.00     0.168 HD
HETATM    8  C13 UNL     1       2.448  26.067  23.442  1.00  0.00     0.182 A 
HETATM    9  N6  UNL     1       3.435  25.271  22.989  1.00  0.00    -0.348 N 
ATOM     10  H6  UNL     1       3.407  24.862  22.054  1.00  0.00     0.167 HD
HETATM   11  C14 UNL     1       4.464  25.041  23.831  1.00  0.00     0.100 A 
HETATM   12  C15 UNL     1       5.608  24.280  23.660  1.00  0.00     0.118 A 
ENDROOT
BRANCH   1  13
HETATM   13  C6  UNL     1       7.576  23.786  25.157  1.00  0.00     0.339 C 
HETATM   14  N1  UNL     1       8.004  22.863  24.106  1.00  0.00    -0.043 N 
HETATM   15  C5  UNL     1       9.427  22.972  23.992  1.00  0.00     0.223 C 
ATOM     16  H12 UNL     1       7.520  23.017  23.221  1.00  0.00     0.280 HD
ATOM     17  H11 UNL     1       7.689  21.906  24.265  1.00  0.00     0.280 HD
HETATM   18  C18 UNL     1       9.902  23.721  25.220  1.00  0.00     0.181 C 
HETATM   19  C17 UNL     1       8.703  24.674  25.411  1.00  0.00     0.201 C 
BRANCH  15  20
HETATM   20  C4  UNL     1      10.076  21.608  23.886  1.00  0.00     0.062 C 
BRANCH  20  21
HETATM   21  C3  UNL     1       9.796  20.965  22.580  1.00  0.00    -0.029 C 
HETATM   22  C2  UNL     1      10.411  21.374  21.482  1.00  0.00    -0.035 C 
HETATM   23  C1  UNL     1      10.109  20.708  20.180  1.00  0.00     0.036 C 
ENDBRANCH  20  21
ENDBRANCH  15  20
BRANCH  18  24
HETATM   24  O2  UNL     1      11.023  24.489  24.909  1.00  0.00    -0.391 OA
ATOM     25  H2  UNL     1      11.147  25.167  25.563  1.00  0.00     0.210 HD
ENDBRANCH  18  24
BRANCH  19  26
HETATM   26  O1  UNL     1       8.786  25.046  26.753  1.00  0.00    -0.389 OA
ATOM     27  H1  UNL     1       8.752  24.296  27.335  1.00  0.00     0.210 HD
ENDBRANCH  19  26
ENDBRANCH   1  13
BRANCH  12  28
HETATM   28  S1  UNL     1       6.054  23.360  22.227  1.00  0.00    -0.113 SA
HETATM   29  C16 UNL     1       5.044  21.857  22.166  1.00  0.00     0.097 C 
ENDBRANCH  12  28
BRANCH   5  30
HETATM   30  N4  UNL     1       3.550  26.953  26.836  1.00  0.00    -0.365 N 
HETATM   31  C9  UNL     1       4.412  27.986  27.366  1.00  0.00     0.124 C 
HETATM   32  C10 UNL     1       3.636  28.615  28.519  1.00  0.00     0.021 C 
HETATM   33  C11 UNL     1       2.283  27.934  28.481  1.00  0.00     0.021 C 
HETATM   34  C12 UNL     1       2.654  26.575  27.905  1.00  0.00     0.124 C 
ENDBRANCH   5  30
TORSDOF 7
ENDMDL
