MODEL 1
REMARK VINA RESULT: -7.485360736      0.000      0.000
REMARK  3 active torsions:
REMARK  status: ('A' for Active; 'I' for Inactive)
REMARK    1  A    between atoms: C2_2  and  C3_4 
REMARK    2  A    between atoms: C4_6  and  C5_7 
REMARK    3  A    between atoms: C12_20  and  N3_21 
ROOT
HETATM    1  C5  UNL     1      34.511 -14.437  31.436  1.00  0.00     0.061 A 
HETATM    2  N1  UNL     1      34.860 -13.172  31.226  1.00  0.00    -0.335 N 
ATOM      3  H1  UNL     1      35.288 -12.701  32.023  1.00  0.00     0.168 HD
HETATM    4  C6  UNL     1      34.735 -12.434  30.133  1.00  0.00     0.143 A 
HETATM    5  N2  UNL     1      35.117 -11.202  30.054  1.00  0.00    -0.380 N 
ATOM      6  H21 UNL     1      35.020 -10.635  29.213  1.00  0.00     0.158 HD
ATOM      7  H22 UNL     1      35.547 -10.712  30.839  1.00  0.00     0.158 HD
HETATM    8  S2  UNL     1      34.015 -13.254  28.820  1.00  0.00    -0.058 SA
HETATM    9  C7  UNL     1      33.609 -14.874  29.210  1.00  0.00    -0.005 A 
HETATM   10  C8  UNL     1      33.915 -15.262  30.487  1.00  0.00    -0.017 A 
HETATM   11  C9  UNL     1      33.527 -16.674  30.644  1.00  0.00     0.042 C 
HETATM   12  C10 UNL     1      33.141 -17.159  29.291  1.00  0.00     0.010 C 
HETATM   13  C11 UNL     1      32.970 -15.965  28.441  1.00  0.00     0.047 C 
ENDROOT
BRANCH   1  14
HETATM   14  C4  UNL     1      34.765 -14.972  32.807  1.00  0.00     0.068 A 
HETATM   15  S1  UNL     1      33.675 -15.687  33.902  1.00  0.00    -0.080 SA
HETATM   16  C3  UNL     1      34.739 -16.019  35.183  1.00  0.00     0.077 A 
HETATM   17  C13 UNL     1      35.935 -15.560  34.723  1.00  0.00     0.101 A 
HETATM   18  C12 UNL     1      35.948 -15.010  33.480  1.00  0.00     0.147 A 
HETATM   19  N4  UNL     1      37.111 -15.686  35.587  1.00  0.00    -0.098 NA
BRANCH  16  20
HETATM   20  C2  UNL     1      34.393 -16.650  36.460  1.00  0.00     0.164 C 
HETATM   21  C1  UNL     1      34.665 -18.073  36.733  1.00  0.00     0.097 C 
HETATM   22  O1  UNL     1      33.849 -15.932  37.331  1.00  0.00    -0.292 OA
ENDBRANCH  16  20
BRANCH  18  23
HETATM   23  N3  UNL     1      37.199 -14.500  32.927  1.00  0.00    -0.112 N 
HETATM   24  O2  UNL     1      38.035 -15.255  32.401  1.00  0.00    -0.532 OA
HETATM   25  O3  UNL     1      37.426 -13.148  32.975  1.00  0.00    -0.532 OA
ENDBRANCH  18  23
ENDBRANCH   1  14
TORSDOF 3
ENDMDL
MODEL 2
REMARK VINA RESULT: -7.472146014      3.367      6.419
REMARK  3 active torsions:
REMARK  status: ('A' for Active; 'I' for Inactive)
REMARK    1  A    between atoms: C2_2  and  C3_4 
REMARK    2  A    between atoms: C4_6  and  C5_7 
REMARK    3  A    between atoms: C12_20  and  N3_21 
ROOT
HETATM    1  C5  UNL     1      36.882 -14.676  35.154  1.00  0.00     0.061 A 
HETATM    2  N1  UNL     1      37.473 -14.201  36.245  1.00  0.00    -0.335 N 
ATOM      3  H1  UNL     1      37.507 -13.184  36.314  1.00  0.00     0.168 HD
HETATM    4  C6  UNL     1      38.023 -14.855  37.257  1.00  0.00     0.143 A 
HETATM    5  N2  UNL     1      38.572 -14.273  38.271  1.00  0.00    -0.380 N 
ATOM      6  H21 UNL     1      38.996 -14.776  39.050  1.00  0.00     0.158 HD
ATOM      7  H22 UNL     1      38.617 -13.257  38.360  1.00  0.00     0.158 HD
HETATM    8  S2  UNL     1      37.948 -16.554  37.109  1.00  0.00    -0.058 SA
HETATM    9  C7  UNL     1      37.166 -17.046  35.665  1.00  0.00    -0.005 A 
HETATM   10  C8  UNL     1      36.727 -16.027  34.862  1.00  0.00    -0.017 A 
HETATM   11  C9  UNL     1      36.062 -16.621  33.688  1.00  0.00     0.042 C 
HETATM   12  C10 UNL     1      35.967 -18.083  33.951  1.00  0.00     0.010 C 
HETATM   13  C11 UNL     1      36.869 -18.374  35.082  1.00  0.00     0.047 C 
ENDROOT
BRANCH   1  14
HETATM   14  C4  UNL     1      36.385 -13.660  34.179  1.00  0.00     0.068 A 
HETATM   15  S1  UNL     1      36.742 -13.493  32.522  1.00  0.00    -0.080 SA
HETATM   16  C3  UNL     1      35.785 -12.139  32.162  1.00  0.00     0.077 A 
HETATM   17  C13 UNL     1      35.200 -11.843  33.355  1.00  0.00     0.101 A 
HETATM   18  C12 UNL     1      35.515 -12.638  34.411  1.00  0.00     0.147 A 
HETATM   19  N4  UNL     1      34.284 -10.701  33.420  1.00  0.00    -0.098 NA
BRANCH  16  20
HETATM   20  C2  UNL     1      35.660 -11.484  30.856  1.00  0.00     0.164 C 
HETATM   21  C1  UNL     1      34.877 -12.072  29.754  1.00  0.00     0.097 C 
HETATM   22  O1  UNL     1      36.248 -10.389  30.700  1.00  0.00    -0.292 OA
ENDBRANCH  16  20
BRANCH  18  23
HETATM   23  N3  UNL     1      34.922 -12.375  35.718  1.00  0.00    -0.112 N 
HETATM   24  O2  UNL     1      34.245 -13.233  36.311  1.00  0.00    -0.532 OA
HETATM   25  O3  UNL     1      35.152 -11.156  36.302  1.00  0.00    -0.532 OA
ENDBRANCH  18  23
ENDBRANCH   1  14
TORSDOF 3
ENDMDL
MODEL 3
REMARK VINA RESULT: -7.282627566      2.731      5.007
REMARK  3 active torsions:
REMARK  status: ('A' for Active; 'I' for Inactive)
REMARK    1  A    between atoms: C2_2  and  C3_4 
REMARK    2  A    between atoms: C4_6  and  C5_7 
REMARK    3  A    between atoms: C12_20  and  N3_21 
ROOT
HETATM    1  C5  UNL     1      35.277 -16.015  32.527  1.00  0.00     0.061 A 
HETATM    2  N1  UNL     1      36.001 -16.731  33.381  1.00  0.00    -0.335 N 
ATOM      3  H1  UNL     1      36.487 -16.192  34.098  1.00  0.00     0.168 HD
HETATM    4  C6  UNL     1      36.184 -18.042  33.437  1.00  0.00     0.143 A 
HETATM    5  N2  UNL     1      36.921 -18.623  34.325  1.00  0.00    -0.380 N 
ATOM      6  H21 UNL     1      37.061 -19.632  34.368  1.00  0.00     0.158 HD
ATOM      7  H22 UNL     1      37.415 -18.103  35.051  1.00  0.00     0.158 HD
HETATM    8  S2  UNL     1      35.357 -18.912  32.224  1.00  0.00    -0.058 SA
HETATM    9  C7  UNL     1      34.459 -17.884  31.185  1.00  0.00    -0.005 A 
HETATM   10  C8  UNL     1      34.536 -16.548  31.477  1.00  0.00    -0.017 A 
HETATM   11  C9  UNL     1      33.694 -15.818  30.513  1.00  0.00     0.042 C 
HETATM   12  C10 UNL     1      32.949 -16.848  29.738  1.00  0.00     0.010 C 
HETATM   13  C11 UNL     1      33.607 -18.142  30.003  1.00  0.00     0.047 C 
ENDROOT
BRANCH   1  14
HETATM   14  C4  UNL     1      35.303 -14.535  32.720  1.00  0.00     0.068 A 
HETATM   15  S1  UNL     1      35.416 -13.300  31.554  1.00  0.00    -0.080 SA
HETATM   16  C3  UNL     1      35.368 -11.944  32.574  1.00  0.00     0.077 A 
HETATM   17  C13 UNL     1      35.263 -12.490  33.816  1.00  0.00     0.101 A 
HETATM   18  C12 UNL     1      35.231 -13.846  33.893  1.00  0.00     0.147 A 
HETATM   19  N4  UNL     1      35.195 -11.592  34.971  1.00  0.00    -0.098 NA
BRANCH  16  20
HETATM   20  C2  UNL     1      35.431 -10.539  32.158  1.00  0.00     0.164 C 
HETATM   21  C1  UNL     1      35.981 -10.131  30.852  1.00  0.00     0.097 C 
HETATM   22  O1  UNL     1      34.996  -9.679  32.958  1.00  0.00    -0.292 OA
ENDBRANCH  16  20
BRANCH  18  23
HETATM   23  N3  UNL     1      35.118 -14.496  35.195  1.00  0.00    -0.112 N 
HETATM   24  O2  UNL     1      34.014 -14.810  35.674  1.00  0.00    -0.532 OA
HETATM   25  O3  UNL     1      36.272 -14.782  35.879  1.00  0.00    -0.532 OA
ENDBRANCH  18  23
ENDBRANCH   1  14
TORSDOF 3
ENDMDL
MODEL 4
REMARK VINA RESULT: -7.145840781      2.956      6.229
REMARK  3 active torsions:
REMARK  status: ('A' for Active; 'I' for Inactive)
REMARK    1  A    between atoms: C2_2  and  C3_4 
REMARK    2  A    between atoms: C4_6  and  C5_7 
REMARK    3  A    between atoms: C12_20  and  N3_21 
ROOT
HETATM    1  C5  UNL     1      35.025 -16.273  33.235  1.00  0.00     0.061 A 
HETATM    2  N1  UNL     1      35.336 -17.307  32.460  1.00  0.00    -0.335 N 
ATOM      3  H1  UNL     1      35.535 -17.077  31.487  1.00  0.00     0.168 HD
HETATM    4  C6  UNL     1      35.425 -18.593  32.767  1.00  0.00     0.143 A 
HETATM    5  N2  UNL     1      35.738 -19.511  31.915  1.00  0.00    -0.380 N 
ATOM      6  H21 UNL     1      35.807 -20.500  32.152  1.00  0.00     0.158 HD
ATOM      7  H22 UNL     1      35.942 -19.303  30.937  1.00  0.00     0.158 HD
HETATM    8  S2  UNL     1      35.084 -18.941  34.403  1.00  0.00    -0.058 SA
HETATM    9  C7  UNL     1      34.698 -17.532  35.301  1.00  0.00    -0.005 A 
HETATM   10  C8  UNL     1      34.719 -16.362  34.589  1.00  0.00    -0.017 A 
HETATM   11  C9  UNL     1      34.393 -15.259  35.510  1.00  0.00     0.042 C 
HETATM   12  C10 UNL     1      34.365 -15.844  36.878  1.00  0.00     0.010 C 
HETATM   13  C11 UNL     1      34.325 -17.310  36.716  1.00  0.00     0.047 C 
ENDROOT
BRANCH   1  14
HETATM   14  C4  UNL     1      34.983 -14.938  32.567  1.00  0.00     0.068 A 
HETATM   15  S1  UNL     1      35.789 -13.499  32.988  1.00  0.00    -0.080 SA
HETATM   16  C3  UNL     1      35.228 -12.488  31.745  1.00  0.00     0.077 A 
HETATM   17  C13 UNL     1      34.415 -13.305  31.020  1.00  0.00     0.101 A 
HETATM   18  C12 UNL     1      34.286 -14.586  31.451  1.00  0.00     0.147 A 
HETATM   19  N4  UNL     1      33.743 -12.754  29.840  1.00  0.00    -0.098 NA
BRANCH  16  20
HETATM   20  C2  UNL     1      35.570 -11.075  31.551  1.00  0.00     0.164 C 
HETATM   21  C1  UNL     1      35.270 -10.048  32.565  1.00  0.00     0.097 C 
HETATM   22  O1  UNL     1      36.136 -10.759  30.479  1.00  0.00    -0.292 OA
ENDBRANCH  16  20
BRANCH  18  23
HETATM   23  N3  UNL     1      33.431 -15.515  30.718  1.00  0.00    -0.112 N 
HETATM   24  O2  UNL     1      32.219 -15.625  30.973  1.00  0.00    -0.532 OA
HETATM   25  O3  UNL     1      33.992 -16.255  29.709  1.00  0.00    -0.532 OA
ENDBRANCH  18  23
ENDBRANCH   1  14
TORSDOF 3
ENDMDL
MODEL 5
REMARK VINA RESULT: -7.130825881      2.867      4.360
REMARK  3 active torsions:
REMARK  status: ('A' for Active; 'I' for Inactive)
REMARK    1  A    between atoms: C2_2  and  C3_4 
REMARK    2  A    between atoms: C4_6  and  C5_7 
REMARK    3  A    between atoms: C12_20  and  N3_21 
ROOT
HETATM    1  C5  UNL     1      35.314 -15.798  33.798  1.00  0.00     0.061 A 
HETATM    2  N1  UNL     1      36.172 -16.659  34.335  1.00  0.00    -0.335 N 
ATOM      3  H1  UNL     1      36.615 -16.348  35.200  1.00  0.00     0.168 HD
HETATM    4  C6  UNL     1      36.535 -17.860  33.913  1.00  0.00     0.143 A 
HETATM    5  N2  UNL     1      37.389 -18.608  34.531  1.00  0.00    -0.380 N 
ATOM      6  H21 UNL     1      37.668 -19.533  34.205  1.00  0.00     0.158 HD
ATOM      7  H22 UNL     1      37.844 -18.317  35.397  1.00  0.00     0.158 HD
HETATM    8  S2  UNL     1      35.774 -18.347  32.464  1.00  0.00    -0.058 SA
HETATM    9  C7  UNL     1      34.692 -17.157  31.868  1.00  0.00    -0.005 A 
HETATM   10  C8  UNL     1      34.601 -16.019  32.624  1.00  0.00    -0.017 A 
HETATM   11  C9  UNL     1      33.619 -15.123  31.989  1.00  0.00     0.042 C 
HETATM   12  C10 UNL     1      32.983 -15.903  30.891  1.00  0.00     0.010 C 
HETATM   13  C11 UNL     1      33.825 -17.095  30.670  1.00  0.00     0.047 C 
ENDROOT
BRANCH   1  14
HETATM   14  C4  UNL     1      35.147 -14.499  34.515  1.00  0.00     0.068 A 
HETATM   15  S1  UNL     1      34.480 -14.197  36.052  1.00  0.00    -0.080 SA
HETATM   16  C3  UNL     1      34.678 -12.512  36.120  1.00  0.00     0.077 A 
HETATM   17  C13 UNL     1      35.267 -12.219  34.928  1.00  0.00     0.101 A 
HETATM   18  C12 UNL     1      35.511 -13.258  34.088  1.00  0.00     0.147 A 
HETATM   19  N4  UNL     1      35.592 -10.820  34.635  1.00  0.00    -0.098 NA
BRANCH  16  20
HETATM   20  C2  UNL     1      34.283 -11.633  37.225  1.00  0.00     0.164 C 
HETATM   21  C1  UNL     1      35.273 -10.976  38.098  1.00  0.00     0.097 C 
HETATM   22  O1  UNL     1      33.057 -11.452  37.410  1.00  0.00    -0.292 OA
ENDBRANCH  16  20
BRANCH  18  23
HETATM   23  N3  UNL     1      36.143 -13.012  32.795  1.00  0.00    -0.112 N 
HETATM   24  O2  UNL     1      35.516 -12.501  31.850  1.00  0.00    -0.532 OA
HETATM   25  O3  UNL     1      37.467 -13.336  32.648  1.00  0.00    -0.532 OA
ENDBRANCH  18  23
ENDBRANCH   1  14
TORSDOF 3
ENDMDL
