MODEL 1
REMARK VINA RESULT: -9.441655059      0.000      0.000
REMARK  6 active torsions:
REMARK  status: ('A' for Active; 'I' for Inactive)
REMARK    1  A    between atoms: C2_2  and  C3_3 
REMARK    2  A    between atoms: C3_3  and  C4_4 
REMARK    3  A    between atoms: C4_4  and  O1_5 
REMARK    4  A    between atoms: O1_5  and  C5_6 
REMARK    5  A    between atoms: C11_17  and  O4_18 
REMARK    6  A    between atoms: C19_27  and  O5_28 
ROOT
HETATM    1  C5  UNL     1      -6.705  19.981 -21.791  1.00  0.00     0.160 A 
HETATM    2  N1  UNL     1      -5.545  19.836 -21.097  1.00  0.00    -0.316 N 
ATOM      3  H1  UNL     1      -5.371  18.985 -20.563  1.00  0.00     0.170 HD
HETATM    4  C6  UNL     1      -4.640  20.802 -21.118  1.00  0.00     0.157 A 
HETATM    5  C7  UNL     1      -4.903  21.951 -21.854  1.00  0.00     0.050 A 
HETATM    6  C8  UNL     1      -6.063  22.142 -22.571  1.00  0.00     0.111 A 
HETATM    7  O2  UNL     1      -6.192  23.264 -23.222  1.00  0.00    -0.272 OA
HETATM    8  C9  UNL     1      -7.298  23.425 -23.894  1.00  0.00     0.315 A 
HETATM    9  O3  UNL     1      -7.434  24.522 -24.535  1.00  0.00    -0.258 OA
HETATM   10  C10 UNL     1      -8.303  22.499 -23.948  1.00  0.00     0.155 A 
HETATM   11  N2  UNL     1      -9.501  22.698 -24.689  1.00  0.00    -0.093 NA
HETATM   12  C11 UNL     1      -8.166  21.278 -23.242  1.00  0.00     0.113 A 
HETATM   13  C12 UNL     1      -6.992  21.123 -22.536  1.00  0.00     0.085 A 
HETATM   14  C13 UNL     1      -4.081  23.173 -22.064  1.00  0.00     0.015 C 
HETATM   15  C14 UNL     1      -2.760  23.317 -22.036  1.00  0.00    -0.015 C 
HETATM   16  C15 UNL     1      -1.650  22.363 -21.798  1.00  0.00    -0.008 C 
HETATM   17  C16 UNL     1      -1.767  21.175 -22.780  1.00  0.00     0.021 C 
HETATM   18  C17 UNL     1      -0.390  23.077 -22.245  1.00  0.00     0.024 C 
HETATM   19  C18 UNL     1      -0.659  23.681 -23.595  1.00  0.00     0.014 C 
HETATM   20  C19 UNL     1       0.103  24.090 -21.296  1.00  0.00     0.132 C 
HETATM   21  C21 UNL     1       0.447  23.516 -19.941  1.00  0.00     0.111 C 
HETATM   22  C22 UNL     1      -0.651  22.628 -19.521  1.00  0.00     0.137 C 
HETATM   23  O6  UNL     1      -0.848  22.608 -18.295  1.00  0.00    -0.297 OA
HETATM   24  C23 UNL     1      -1.475  21.810 -20.459  1.00  0.00     0.097 C 
HETATM   25  C24 UNL     1      -2.607  21.287 -19.675  1.00  0.00     0.139 C 
HETATM   26  C25 UNL     1      -3.297  22.369 -18.874  1.00  0.00     0.041 C 
HETATM   27  O7  UNL     1      -3.536  20.451 -20.344  1.00  0.00    -0.329 OA
ENDROOT
BRANCH   1  28
HETATM   28  O1  UNL     1      -7.592  18.954 -21.731  1.00  0.00    -0.335 OA
BRANCH  28  29
HETATM   29  C4  UNL     1      -7.991  18.174 -20.658  1.00  0.00     0.177 C 
BRANCH  29  30
HETATM   30  C3  UNL     1      -8.340  18.947 -19.412  1.00  0.00     0.026 C 
BRANCH  30  31
HETATM   31  C2  UNL     1      -9.849  19.147 -19.362  1.00  0.00    -0.002 C 
HETATM   32  C1  UNL     1     -10.295  20.271 -20.248  1.00  0.00     0.005 C 
ENDBRANCH  30  31
ENDBRANCH  29  30
ENDBRANCH  28  29
ENDBRANCH   1  28
BRANCH  12  33
HETATM   33  O4  UNL     1      -9.157  20.363 -23.294  1.00  0.00    -0.358 OA
ATOM     34  H4  UNL     1      -9.520  20.111 -24.135  1.00  0.00     0.217 HD
ENDBRANCH  12  33
BRANCH  20  35
HETATM   35  O5  UNL     1       1.209  24.730 -21.799  1.00  0.00    -0.390 OA
HETATM   36  C20 UNL     1       1.637  25.819 -21.086  1.00  0.00     0.202 C 
ENDBRANCH  20  35
TORSDOF 6
ENDMDL
MODEL 2
REMARK VINA RESULT: -9.046528270      1.876      2.495
REMARK  6 active torsions:
REMARK  status: ('A' for Active; 'I' for Inactive)
REMARK    1  A    between atoms: C2_2  and  C3_3 
REMARK    2  A    between atoms: C3_3  and  C4_4 
REMARK    3  A    between atoms: C4_4  and  O1_5 
REMARK    4  A    between atoms: O1_5  and  C5_6 
REMARK    5  A    between atoms: C11_17  and  O4_18 
REMARK    6  A    between atoms: C19_27  and  O5_28 
ROOT
HETATM    1  C5  UNL     1      -5.059  21.076 -21.468  1.00  0.00     0.160 A 
HETATM    2  N1  UNL     1      -4.089  20.650 -20.616  1.00  0.00    -0.316 N 
ATOM      3  H1  UNL     1      -4.131  19.709 -20.224  1.00  0.00     0.170 HD
HETATM    4  C6  UNL     1      -3.092  21.459 -20.295  1.00  0.00     0.157 A 
HETATM    5  C7  UNL     1      -3.061  22.735 -20.842  1.00  0.00     0.050 A 
HETATM    6  C8  UNL     1      -4.021  23.210 -21.709  1.00  0.00     0.111 A 
HETATM    7  O2  UNL     1      -3.881  24.427 -22.155  1.00  0.00    -0.272 OA
HETATM    8  C9  UNL     1      -4.800  24.858 -22.974  1.00  0.00     0.315 A 
HETATM    9  O3  UNL     1      -4.673  26.050 -23.416  1.00  0.00    -0.258 OA
HETATM   10  C10 UNL     1      -5.876  24.115 -23.377  1.00  0.00     0.155 A 
HETATM   11  N2  UNL     1      -6.865  24.608 -24.272  1.00  0.00    -0.093 NA
HETATM   12  C11 UNL     1      -6.031  22.792 -22.894  1.00  0.00     0.113 A 
HETATM   13  C12 UNL     1      -5.051  22.352 -22.030  1.00  0.00     0.085 A 
HETATM   14  C13 UNL     1      -2.076  23.836 -20.673  1.00  0.00     0.015 C 
HETATM   15  C14 UNL     1      -0.780  23.772 -20.381  1.00  0.00    -0.015 C 
HETATM   16  C15 UNL     1       0.137  22.635 -20.127  1.00  0.00    -0.008 C 
HETATM   17  C16 UNL     1       0.083  21.648 -21.316  1.00  0.00     0.021 C 
HETATM   18  C17 UNL     1       1.537  23.211 -20.201  1.00  0.00     0.024 C 
HETATM   19  C18 UNL     1       1.622  24.054 -21.443  1.00  0.00     0.014 C 
HETATM   20  C19 UNL     1       1.943  23.975 -19.009  1.00  0.00     0.132 C 
HETATM   21  C21 UNL     1       1.934  23.150 -17.743  1.00  0.00     0.111 C 
HETATM   22  C22 UNL     1       0.676  22.384 -17.698  1.00  0.00     0.137 C 
HETATM   23  O6  UNL     1       0.233  22.201 -16.552  1.00  0.00    -0.297 OA
HETATM   24  C23 UNL     1      -0.031  21.858 -18.903  1.00  0.00     0.097 C 
HETATM   25  C24 UNL     1      -1.352  21.396 -18.446  1.00  0.00     0.139 C 
HETATM   26  C25 UNL     1      -2.058  22.430 -17.597  1.00  0.00     0.041 C 
HETATM   27  O7  UNL     1      -2.218  20.827 -19.414  1.00  0.00    -0.329 OA
ENDROOT
BRANCH   1  28
HETATM   28  O1  UNL     1      -6.055  20.199 -21.759  1.00  0.00    -0.335 OA
BRANCH  28  29
HETATM   29  C4  UNL     1      -6.830  19.413 -20.923  1.00  0.00     0.177 C 
BRANCH  29  30
HETATM   30  C3  UNL     1      -7.930  18.650 -21.617  1.00  0.00     0.026 C 
BRANCH  30  31
HETATM   31  C2  UNL     1      -9.151  19.551 -21.743  1.00  0.00    -0.002 C 
HETATM   32  C1  UNL     1      -9.836  19.757 -20.425  1.00  0.00     0.005 C 
ENDBRANCH  30  31
ENDBRANCH  29  30
ENDBRANCH  28  29
ENDBRANCH   1  28
BRANCH  12  33
HETATM   33  O4  UNL     1      -7.091  22.058 -23.291  1.00  0.00    -0.358 OA
ATOM     34  H4  UNL     1      -7.626  22.359 -24.016  1.00  0.00     0.217 HD
ENDBRANCH  12  33
BRANCH  20  35
HETATM   35  O5  UNL     1       3.196  24.511 -19.178  1.00  0.00    -0.390 OA
HETATM   36  C20 UNL     1       3.507  25.561 -18.354  1.00  0.00     0.202 C 
ENDBRANCH  20  35
TORSDOF 6
ENDMDL
MODEL 3
REMARK VINA RESULT: -8.824160607      1.214      1.369
REMARK  6 active torsions:
REMARK  status: ('A' for Active; 'I' for Inactive)
REMARK    1  A    between atoms: C2_2  and  C3_3 
REMARK    2  A    between atoms: C3_3  and  C4_4 
REMARK    3  A    between atoms: C4_4  and  O1_5 
REMARK    4  A    between atoms: O1_5  and  C5_6 
REMARK    5  A    between atoms: C11_17  and  O4_18 
REMARK    6  A    between atoms: C19_27  and  O5_28 
ROOT
HETATM    1  C5  UNL     1      -5.671  20.608 -21.615  1.00  0.00     0.160 A 
HETATM    2  N1  UNL     1      -4.566  20.353 -20.864  1.00  0.00    -0.316 N 
ATOM      3  H1  UNL     1      -4.481  19.468 -20.365  1.00  0.00     0.170 HD
HETATM    4  C6  UNL     1      -3.602  21.256 -20.784  1.00  0.00     0.157 A 
HETATM    5  C7  UNL     1      -3.745  22.453 -21.475  1.00  0.00     0.050 A 
HETATM    6  C8  UNL     1      -4.846  22.755 -22.245  1.00  0.00     0.111 A 
HETATM    7  O2  UNL     1      -4.863  23.913 -22.845  1.00  0.00    -0.272 OA
HETATM    8  C9  UNL     1      -5.914  24.180 -23.569  1.00  0.00     0.315 A 
HETATM    9  O3  UNL     1      -5.941  25.312 -24.160  1.00  0.00    -0.258 OA
HETATM   10  C10 UNL     1      -6.971  23.327 -23.728  1.00  0.00     0.155 A 
HETATM   11  N2  UNL     1      -8.107  23.641 -24.524  1.00  0.00    -0.093 NA
HETATM   12  C11 UNL     1      -6.956  22.068 -23.078  1.00  0.00     0.113 A 
HETATM   13  C12 UNL     1      -5.839  21.801 -22.316  1.00  0.00     0.085 A 
HETATM   14  C13 UNL     1      -2.836  23.626 -21.575  1.00  0.00     0.015 C 
HETATM   15  C14 UNL     1      -1.512  23.679 -21.464  1.00  0.00    -0.015 C 
HETATM   16  C15 UNL     1      -0.482  22.642 -21.212  1.00  0.00    -0.008 C 
HETATM   17  C16 UNL     1      -0.616  21.513 -22.259  1.00  0.00     0.021 C 
HETATM   18  C17 UNL     1       0.845  23.290 -21.550  1.00  0.00     0.024 C 
HETATM   19  C18 UNL     1       0.698  23.975 -22.880  1.00  0.00     0.014 C 
HETATM   20  C19 UNL     1       1.345  24.222 -20.524  1.00  0.00     0.132 C 
HETATM   21  C21 UNL     1       1.569  23.563 -19.183  1.00  0.00     0.111 C 
HETATM   22  C22 UNL     1       0.393  22.732 -18.871  1.00  0.00     0.137 C 
HETATM   23  O6  UNL     1       0.122  22.667 -17.661  1.00  0.00    -0.297 OA
HETATM   24  C23 UNL     1      -0.424  22.016 -19.895  1.00  0.00     0.097 C 
HETATM   25  C24 UNL     1      -1.632  21.535 -19.205  1.00  0.00     0.139 C 
HETATM   26  C25 UNL     1      -2.298  22.621 -18.390  1.00  0.00     0.041 C 
HETATM   27  O7  UNL     1      -2.572  20.795 -19.968  1.00  0.00    -0.329 OA
ENDROOT
BRANCH   1  28
HETATM   28  O1  UNL     1      -6.624  19.641 -21.658  1.00  0.00    -0.335 OA
BRANCH  28  29
HETATM   29  C4  UNL     1      -7.071  18.776 -20.673  1.00  0.00     0.177 C 
BRANCH  29  30
HETATM   30  C3  UNL     1      -8.517  18.369 -20.799  1.00  0.00     0.026 C 
BRANCH  30  31
HETATM   31  C2  UNL     1      -9.360  19.256 -19.892  1.00  0.00    -0.002 C 
HETATM   32  C1  UNL     1     -10.211  20.210 -20.674  1.00  0.00     0.005 C 
ENDBRANCH  30  31
ENDBRANCH  29  30
ENDBRANCH  28  29
ENDBRANCH   1  28
BRANCH  12  33
HETATM   33  O4  UNL     1      -7.999  21.225 -23.233  1.00  0.00    -0.358 OA
ATOM     34  H4  UNL     1      -8.873  21.576 -23.352  1.00  0.00     0.217 HD
ENDBRANCH  12  33
BRANCH  20  35
HETATM   35  O5  UNL     1       2.518  24.809 -20.930  1.00  0.00    -0.390 OA
HETATM   36  C20 UNL     1       3.309  25.305 -19.927  1.00  0.00     0.202 C 
ENDBRANCH  20  35
TORSDOF 6
ENDMDL
MODEL 4
REMARK VINA RESULT: -8.463602024      2.467      8.785
REMARK  6 active torsions:
REMARK  status: ('A' for Active; 'I' for Inactive)
REMARK    1  A    between atoms: C2_2  and  C3_3 
REMARK    2  A    between atoms: C3_3  and  C4_4 
REMARK    3  A    between atoms: C4_4  and  O1_5 
REMARK    4  A    between atoms: O1_5  and  C5_6 
REMARK    5  A    between atoms: C11_17  and  O4_18 
REMARK    6  A    between atoms: C19_27  and  O5_28 
ROOT
HETATM    1  C5  UNL     1       0.428  23.481 -20.690  1.00  0.00     0.160 A 
HETATM    2  N1  UNL     1      -0.494  23.538 -21.688  1.00  0.00    -0.316 N 
ATOM      3  H1  UNL     1      -0.232  23.896 -22.606  1.00  0.00     0.170 HD
HETATM    4  C6  UNL     1      -1.733  23.128 -21.464  1.00  0.00     0.157 A 
HETATM    5  C7  UNL     1      -2.062  22.646 -20.203  1.00  0.00     0.050 A 
HETATM    6  C8  UNL     1      -1.162  22.570 -19.164  1.00  0.00     0.111 A 
HETATM    7  O2  UNL     1      -1.592  22.098 -18.027  1.00  0.00    -0.272 OA
HETATM    8  C9  UNL     1      -0.725  22.035 -17.055  1.00  0.00     0.315 A 
HETATM    9  O3  UNL     1      -1.138  21.575 -15.937  1.00  0.00    -0.258 OA
HETATM   10  C10 UNL     1       0.580  22.429 -17.166  1.00  0.00     0.155 A 
HETATM   11  N2  UNL     1       1.507  22.350 -16.091  1.00  0.00    -0.093 NA
HETATM   12  C11 UNL     1       1.051  22.942 -18.400  1.00  0.00     0.113 A 
HETATM   13  C12 UNL     1       0.122  23.002 -19.417  1.00  0.00     0.085 A 
HETATM   14  C13 UNL     1      -3.348  22.117 -19.677  1.00  0.00     0.015 C 
HETATM   15  C14 UNL     1      -4.345  21.523 -20.325  1.00  0.00    -0.015 C 
HETATM   16  C15 UNL     1      -4.549  21.173 -21.752  1.00  0.00    -0.008 C 
HETATM   17  C16 UNL     1      -3.361  20.320 -22.251  1.00  0.00     0.021 C 
HETATM   18  C17 UNL     1      -5.719  20.210 -21.776  1.00  0.00     0.024 C 
HETATM   19  C18 UNL     1      -5.482  19.170 -20.716  1.00  0.00     0.014 C 
HETATM   20  C19 UNL     1      -7.036  20.850 -21.609  1.00  0.00     0.132 C 
HETATM   21  C21 UNL     1      -7.347  21.859 -22.689  1.00  0.00     0.111 C 
HETATM   22  C22 UNL     1      -6.163  22.716 -22.878  1.00  0.00     0.137 C 
HETATM   23  O6  UNL     1      -6.428  23.888 -23.193  1.00  0.00    -0.297 OA
HETATM   24  C23 UNL     1      -4.754  22.250 -22.715  1.00  0.00     0.097 C 
HETATM   25  C24 UNL     1      -3.909  23.455 -22.731  1.00  0.00     0.139 C 
HETATM   26  C25 UNL     1      -4.422  24.526 -21.794  1.00  0.00     0.041 C 
HETATM   27  O7  UNL     1      -2.508  23.275 -22.612  1.00  0.00    -0.329 OA
ENDROOT
BRANCH   1  28
HETATM   28  O1  UNL     1       1.681  23.916 -20.983  1.00  0.00    -0.335 OA
BRANCH  28  29
HETATM   29  C4  UNL     1       2.132  25.171 -21.356  1.00  0.00     0.177 C 
BRANCH  29  30
HETATM   30  C3  UNL     1       1.483  26.318 -20.624  1.00  0.00     0.026 C 
BRANCH  30  31
HETATM   31  C2  UNL     1       2.509  26.953 -19.695  1.00  0.00    -0.002 C 
HETATM   32  C1  UNL     1       3.061  28.229 -20.258  1.00  0.00     0.005 C 
ENDBRANCH  30  31
ENDBRANCH  29  30
ENDBRANCH  28  29
ENDBRANCH   1  28
BRANCH  12  33
HETATM   33  O4  UNL     1       2.339  23.331 -18.512  1.00  0.00    -0.358 OA
ATOM     34  H4  UNL     1       2.618  24.150 -18.120  1.00  0.00     0.217 HD
ENDBRANCH  12  33
BRANCH  20  35
HETATM   35  O5  UNL     1      -8.035  19.908 -21.584  1.00  0.00    -0.390 OA
HETATM   36  C20 UNL     1      -9.118  20.215 -20.803  1.00  0.00     0.202 C 
ENDBRANCH  20  35
TORSDOF 6
ENDMDL
MODEL 5
REMARK VINA RESULT: -8.399990420      2.448      5.189
REMARK  6 active torsions:
REMARK  status: ('A' for Active; 'I' for Inactive)
REMARK    1  A    between atoms: C2_2  and  C3_3 
REMARK    2  A    between atoms: C3_3  and  C4_4 
REMARK    3  A    between atoms: C4_4  and  O1_5 
REMARK    4  A    between atoms: O1_5  and  C5_6 
REMARK    5  A    between atoms: C11_17  and  O4_18 
REMARK    6  A    between atoms: C19_27  and  O5_28 
ROOT
HETATM    1  C5  UNL     1      -5.199  24.005 -23.627  1.00  0.00     0.160 A 
HETATM    2  N1  UNL     1      -3.906  24.366 -23.412  1.00  0.00    -0.316 N 
ATOM      3  H1  UNL     1      -3.539  25.223 -23.825  1.00  0.00     0.170 HD
HETATM    4  C6  UNL     1      -3.124  23.601 -22.667  1.00  0.00     0.157 A 
HETATM    5  C7  UNL     1      -3.650  22.438 -22.117  1.00  0.00     0.050 A 
HETATM    6  C8  UNL     1      -4.952  22.034 -22.307  1.00  0.00     0.111 A 
HETATM    7  O2  UNL     1      -5.327  20.922 -21.738  1.00  0.00    -0.272 OA
HETATM    8  C9  UNL     1      -6.564  20.556 -21.931  1.00  0.00     0.315 A 
HETATM    9  O3  UNL     1      -6.941  19.468 -21.378  1.00  0.00    -0.258 OA
HETATM   10  C10 UNL     1      -7.464  21.263 -22.680  1.00  0.00     0.155 A 
HETATM   11  N2  UNL     1      -8.809  20.843 -22.875  1.00  0.00    -0.093 NA
HETATM   12  C11 UNL     1      -7.060  22.472 -23.300  1.00  0.00     0.113 A 
HETATM   13  C12 UNL     1      -5.750  22.844 -23.087  1.00  0.00     0.085 A 
HETATM   14  C13 UNL     1      -3.020  21.411 -21.246  1.00  0.00     0.015 C 
HETATM   15  C14 UNL     1      -2.012  21.534 -20.388  1.00  0.00    -0.015 C 
HETATM   16  C15 UNL     1      -1.169  22.687 -19.987  1.00  0.00    -0.008 C 
HETATM   17  C16 UNL     1      -2.070  23.846 -19.506  1.00  0.00     0.021 C 
HETATM   18  C17 UNL     1      -0.445  22.249 -18.730  1.00  0.00     0.024 C 
HETATM   19  C18 UNL     1      -1.457  21.631 -17.807  1.00  0.00     0.014 C 
HETATM   20  C19 UNL     1       0.687  21.336 -18.968  1.00  0.00     0.132 C 
HETATM   21  C21 UNL     1       1.763  21.939 -19.841  1.00  0.00     0.111 C 
HETATM   22  C22 UNL     1       1.116  22.580 -20.999  1.00  0.00     0.137 C 
HETATM   23  O6  UNL     1       1.784  22.535 -22.044  1.00  0.00    -0.297 OA
HETATM   24  C23 UNL     1      -0.225  23.236 -20.955  1.00  0.00     0.097 C 
HETATM   25  C24 UNL     1      -0.605  23.504 -22.352  1.00  0.00     0.139 C 
HETATM   26  C25 UNL     1      -0.431  22.290 -23.237  1.00  0.00     0.041 C 
HETATM   27  O7  UNL     1      -1.847  24.151 -22.580  1.00  0.00    -0.329 OA
ENDROOT
BRANCH   1  28
HETATM   28  O1  UNL     1      -5.950  24.833 -24.399  1.00  0.00    -0.335 OA
BRANCH  28  29
HETATM   29  C4  UNL     1      -5.586  25.648 -25.458  1.00  0.00     0.177 C 
BRANCH  29  30
HETATM   30  C3  UNL     1      -5.905  25.090 -26.822  1.00  0.00     0.026 C 
BRANCH  30  31
HETATM   31  C2  UNL     1      -4.707  25.309 -27.736  1.00  0.00    -0.002 C 
HETATM   32  C1  UNL     1      -4.835  24.546 -29.021  1.00  0.00     0.005 C 
ENDBRANCH  30  31
ENDBRANCH  29  30
ENDBRANCH  28  29
ENDBRANCH   1  28
BRANCH  12  33
HETATM   33  O4  UNL     1      -7.947  23.170 -24.040  1.00  0.00    -0.358 OA
ATOM     34  H4  UNL     1      -8.313  23.976 -23.696  1.00  0.00     0.217 HD
ENDBRANCH  12  33
BRANCH  20  35
HETATM   35  O5  UNL     1       1.252  20.941 -17.780  1.00  0.00    -0.390 OA
HETATM   36  C20 UNL     1       1.687  19.643 -17.734  1.00  0.00     0.202 C 
ENDBRANCH  20  35
TORSDOF 6
ENDMDL
