MODEL 1
REMARK VINA RESULT: -8.580594985      0.000      0.000
REMARK  3 active torsions:
REMARK  status: ('A' for Active; 'I' for Inactive)
REMARK    1  A    between atoms: C5_7  and  C6_8 
REMARK    2  A    between atoms: C6_8  and  O3_9 
REMARK    3  A    between atoms: C6_8  and  C7_11 
ROOT
HETATM    1  C1  UNL     1      -4.582   7.101  12.393  1.00  0.00     0.082 C 
HETATM    2  C2  UNL     1      -3.289   6.346  12.443  1.00  0.00     0.201 C 
HETATM    3  O1  UNL     1      -3.170   5.915  11.185  1.00  0.00    -0.197 OA
HETATM    4  O2  UNL     1      -4.018   4.920  11.037  1.00  0.00    -0.190 OA
HETATM    5  C3  UNL     1      -3.611   3.651  11.410  1.00  0.00     0.247 A 
HETATM    6  C4  UNL     1      -4.422   3.045  12.494  1.00  0.00     0.059 C 
HETATM    7  C5  UNL     1      -4.331   3.319  13.935  1.00  0.00     0.006 C 
HETATM    8  C11 UNL     1      -3.947   4.340  14.830  1.00  0.00     0.059 C 
HETATM    9  C12 UNL     1      -4.317   5.790  14.934  1.00  0.00     0.066 C 
HETATM   10  C13 UNL     1      -3.275   6.826  14.724  1.00  0.00     0.017 C 
HETATM   11  C14 UNL     1      -2.476   7.010  13.414  1.00  0.00     0.063 C 
HETATM   12  C15 UNL     1      -1.268   6.012  13.418  1.00  0.00     0.073 C 
HETATM   13  C16 UNL     1      -0.836   5.582  12.034  1.00  0.00    -0.018 C 
HETATM   14  C17 UNL     1      -1.163   4.418  11.294  1.00  0.00     0.007 C 
HETATM   15  C18 UNL     1      -2.167   3.352  11.311  1.00  0.00     0.217 A 
HETATM   16  O5  UNL     1      -3.062   3.011  10.349  1.00  0.00    -0.332 OA
HETATM   17  C19 UNL     1      -2.101   4.918  13.862  1.00  0.00     0.277 C 
HETATM   18  O6  UNL     1      -2.524   4.558  15.065  1.00  0.00    -0.323 OA
HETATM   19  O7  UNL     1      -3.111   5.275  13.104  1.00  0.00    -0.321 OA
ENDROOT
BRANCH   7  20
HETATM   20  C6  UNL     1      -5.623   2.671  14.440  1.00  0.00     0.188 C 
BRANCH  20  21
HETATM   21  O3  UNL     1      -6.626   3.668  14.560  1.00  0.00    -0.386 OA
ATOM     22  H3  UNL     1      -7.066   3.768  13.724  1.00  0.00     0.210 HD
ENDBRANCH  20  21
BRANCH  20  23
HETATM   23  C7  UNL     1      -5.572   1.997  15.724  1.00  0.00    -0.001 A 
HETATM   24  C8  UNL     1      -6.385   2.368  16.802  1.00  0.00     0.036 A 
HETATM   25  C9  UNL     1      -6.027   1.538  17.830  1.00  0.00     0.142 A 
HETATM   26  O4  UNL     1      -5.080   0.727  17.424  1.00  0.00    -0.334 OA
HETATM   27  C10 UNL     1      -4.775   0.958  16.184  1.00  0.00     0.151 A 
ENDBRANCH  20  23
ENDBRANCH   7  20
TORSDOF 3
ENDMDL
MODEL 2
REMARK VINA RESULT: -8.191065599      1.438      2.096
REMARK  3 active torsions:
REMARK  status: ('A' for Active; 'I' for Inactive)
REMARK    1  A    between atoms: C5_7  and  C6_8 
REMARK    2  A    between atoms: C6_8  and  O3_9 
REMARK    3  A    between atoms: C6_8  and  C7_11 
ROOT
HETATM    1  C1  UNL     1      -5.776   5.940  13.517  1.00  0.00     0.082 C 
HETATM    2  C2  UNL     1      -4.622   5.338  12.773  1.00  0.00     0.201 C 
HETATM    3  O1  UNL     1      -5.243   4.604  11.847  1.00  0.00    -0.197 OA
HETATM    4  O2  UNL     1      -5.714   3.535  12.454  1.00  0.00    -0.190 OA
HETATM    5  C3  UNL     1      -4.873   2.449  12.616  1.00  0.00     0.247 A 
HETATM    6  C4  UNL     1      -4.616   2.083  14.030  1.00  0.00     0.059 C 
HETATM    7  C5  UNL     1      -3.687   2.732  14.966  1.00  0.00     0.006 C 
HETATM    8  C11 UNL     1      -3.078   3.982  15.207  1.00  0.00     0.059 C 
HETATM    9  C12 UNL     1      -3.629   5.371  15.339  1.00  0.00     0.066 C 
HETATM   10  C13 UNL     1      -3.258   6.401  14.335  1.00  0.00     0.017 C 
HETATM   11  C14 UNL     1      -3.567   6.301  12.824  1.00  0.00     0.063 C 
HETATM   12  C15 UNL     1      -2.448   5.447  12.138  1.00  0.00     0.073 C 
HETATM   13  C16 UNL     1      -2.922   4.707  10.908  1.00  0.00    -0.018 C 
HETATM   14  C17 UNL     1      -3.356   3.366  10.757  1.00  0.00     0.007 C 
HETATM   15  C18 UNL     1      -3.816   2.259  11.599  1.00  0.00     0.217 A 
HETATM   16  O5  UNL     1      -5.004   1.602  11.567  1.00  0.00    -0.332 OA
HETATM   17  C19 UNL     1      -2.502   4.441  13.174  1.00  0.00     0.277 C 
HETATM   18  O6  UNL     1      -1.947   4.375  14.375  1.00  0.00    -0.323 OA
HETATM   19  O7  UNL     1      -3.809   4.498  13.271  1.00  0.00    -0.321 OA
ENDROOT
BRANCH   7  20
HETATM   20  C6  UNL     1      -4.143   2.132  16.298  1.00  0.00     0.188 C 
BRANCH  20  21
HETATM   21  O3  UNL     1      -3.712   0.782  16.370  1.00  0.00    -0.386 OA
ATOM     22  H3  UNL     1      -2.892   0.743  16.847  1.00  0.00     0.210 HD
ENDBRANCH  20  21
BRANCH  20  23
HETATM   23  C7  UNL     1      -5.569   2.113  16.567  1.00  0.00    -0.001 A 
HETATM   24  C8  UNL     1      -6.245   0.955  16.969  1.00  0.00     0.036 A 
HETATM   25  C9  UNL     1      -7.559   1.322  17.086  1.00  0.00     0.142 A 
HETATM   26  O4  UNL     1      -7.683   2.592  16.785  1.00  0.00    -0.334 OA
HETATM   27  C10 UNL     1      -6.534   3.106  16.471  1.00  0.00     0.151 A 
ENDBRANCH  20  23
ENDBRANCH   7  20
TORSDOF 3
ENDMDL
MODEL 3
REMARK VINA RESULT: -8.078986607      1.431      3.383
REMARK  3 active torsions:
REMARK  status: ('A' for Active; 'I' for Inactive)
REMARK    1  A    between atoms: C5_7  and  C6_8 
REMARK    2  A    between atoms: C6_8  and  O3_9 
REMARK    3  A    between atoms: C6_8  and  C7_11 
ROOT
HETATM    1  C1  UNL     1      -1.411   3.075  12.184  1.00  0.00     0.082 C 
HETATM    2  C2  UNL     1      -2.459   4.131  12.002  1.00  0.00     0.201 C 
HETATM    3  O1  UNL     1      -1.798   5.240  12.343  1.00  0.00    -0.197 OA
HETATM    4  O2  UNL     1      -1.691   5.237  13.655  1.00  0.00    -0.190 OA
HETATM    5  C3  UNL     1      -2.740   5.747  14.398  1.00  0.00     0.247 A 
HETATM    6  C4  UNL     1      -3.375   4.765  15.310  1.00  0.00     0.059 C 
HETATM    7  C5  UNL     1      -4.349   3.722  14.958  1.00  0.00     0.006 C 
HETATM    8  C11 UNL     1      -4.745   2.924  13.864  1.00  0.00     0.059 C 
HETATM    9  C12 UNL     1      -3.982   2.034  12.928  1.00  0.00     0.066 C 
HETATM   10  C13 UNL     1      -3.911   2.383  11.486  1.00  0.00     0.017 C 
HETATM   11  C14 UNL     1      -3.294   3.686  10.931  1.00  0.00     0.063 C 
HETATM   12  C15 UNL     1      -4.371   4.820  10.996  1.00  0.00     0.073 C 
HETATM   13  C16 UNL     1      -3.782   6.204  11.154  1.00  0.00    -0.018 C 
HETATM   14  C17 UNL     1      -3.592   6.990  12.318  1.00  0.00     0.007 C 
HETATM   15  C18 UNL     1      -3.555   6.810  13.771  1.00  0.00     0.217 A 
HETATM   16  O5  UNL     1      -2.540   7.067  14.635  1.00  0.00    -0.332 OA
HETATM   17  C19 UNL     1      -4.747   4.462  12.345  1.00  0.00     0.277 C 
HETATM   18  O6  UNL     1      -5.562   3.532  12.820  1.00  0.00    -0.323 OA
HETATM   19  O7  UNL     1      -3.510   4.225  12.711  1.00  0.00    -0.321 OA
ENDROOT
BRANCH   7  20
HETATM   20  C6  UNL     1      -4.330   2.862  16.225  1.00  0.00     0.188 C 
BRANCH  20  21
HETATM   21  O3  UNL     1      -3.193   2.015  16.193  1.00  0.00    -0.386 OA
ATOM     22  H3  UNL     1      -3.329   1.337  15.541  1.00  0.00     0.210 HD
ENDBRANCH  20  21
BRANCH  20  23
HETATM   23  C7  UNL     1      -5.471   1.996  16.458  1.00  0.00    -0.001 A 
HETATM   24  C8  UNL     1      -6.736   2.490  16.799  1.00  0.00     0.036 A 
HETATM   25  C9  UNL     1      -7.525   1.385  16.970  1.00  0.00     0.142 A 
HETATM   26  O4  UNL     1      -6.813   0.306  16.753  1.00  0.00    -0.334 OA
HETATM   27  C10 UNL     1      -5.590   0.613  16.448  1.00  0.00     0.151 A 
ENDBRANCH  20  23
ENDBRANCH   7  20
TORSDOF 3
ENDMDL
MODEL 4
REMARK VINA RESULT: -8.038828596      2.393      5.486
REMARK  3 active torsions:
REMARK  status: ('A' for Active; 'I' for Inactive)
REMARK    1  A    between atoms: C5_7  and  C6_8 
REMARK    2  A    between atoms: C6_8  and  O3_9 
REMARK    3  A    between atoms: C6_8  and  C7_11 
ROOT
HETATM    1  C1  UNL     1      -1.645   4.839  13.464  1.00  0.00     0.082 C 
HETATM    2  C2  UNL     1      -2.915   4.051  13.574  1.00  0.00     0.201 C 
HETATM    3  O1  UNL     1      -2.665   3.009  12.779  1.00  0.00    -0.197 OA
HETATM    4  O2  UNL     1      -2.761   3.439  11.538  1.00  0.00    -0.190 OA
HETATM    5  C3  UNL     1      -4.012   3.466  10.950  1.00  0.00     0.247 A 
HETATM    6  C4  UNL     1      -4.465   4.819  10.543  1.00  0.00     0.059 C 
HETATM    7  C5  UNL     1      -5.028   5.868  11.404  1.00  0.00     0.006 C 
HETATM    8  C11 UNL     1      -5.005   6.308  12.744  1.00  0.00     0.059 C 
HETATM    9  C12 UNL     1      -3.884   6.624  13.689  1.00  0.00     0.066 C 
HETATM   10  C13 UNL     1      -3.701   5.794  14.907  1.00  0.00     0.017 C 
HETATM   11  C14 UNL     1      -3.412   4.276  14.895  1.00  0.00     0.063 C 
HETATM   12  C15 UNL     1      -4.770   3.508  14.760  1.00  0.00     0.073 C 
HETATM   13  C16 UNL     1      -4.640   2.168  14.071  1.00  0.00    -0.018 C 
HETATM   14  C17 UNL     1      -4.865   1.810  12.718  1.00  0.00     0.007 C 
HETATM   15  C18 UNL     1      -4.997   2.466  11.415  1.00  0.00     0.217 A 
HETATM   16  O5  UNL     1      -4.243   2.301  10.299  1.00  0.00    -0.332 OA
HETATM   17  C19 UNL     1      -5.225   4.384  13.705  1.00  0.00     0.277 C 
HETATM   18  O6  UNL     1      -5.796   5.578  13.729  1.00  0.00    -0.323 OA
HETATM   19  O7  UNL     1      -4.042   4.447  13.140  1.00  0.00    -0.321 OA
ENDROOT
BRANCH   7  20
HETATM   20  C6  UNL     1      -4.952   7.084  10.476  1.00  0.00     0.188 C 
BRANCH  20  21
HETATM   21  O3  UNL     1      -5.286   8.250  11.211  1.00  0.00    -0.386 OA
ATOM     22  H3  UNL     1      -4.528   8.821  11.250  1.00  0.00     0.210 HD
ENDBRANCH  20  21
BRANCH  20  23
HETATM   23  C7  UNL     1      -5.813   7.084   9.308  1.00  0.00    -0.001 A 
HETATM   24  C8  UNL     1      -7.208   7.013   9.400  1.00  0.00     0.036 A 
HETATM   25  C9  UNL     1      -7.659   7.001   8.108  1.00  0.00     0.142 A 
HETATM   26  O4  UNL     1      -6.635   7.062   7.291  1.00  0.00    -0.334 OA
HETATM   27  C10 UNL     1      -5.520   7.112   7.951  1.00  0.00     0.151 A 
ENDBRANCH  20  23
ENDBRANCH   7  20
TORSDOF 3
ENDMDL
MODEL 5
REMARK VINA RESULT: -7.795343133      1.330      1.574
REMARK  3 active torsions:
REMARK  status: ('A' for Active; 'I' for Inactive)
REMARK    1  A    between atoms: C5_7  and  C6_8 
REMARK    2  A    between atoms: C6_8  and  O3_9 
REMARK    3  A    between atoms: C6_8  and  C7_11 
ROOT
HETATM    1  C1  UNL     1      -5.825   6.400  13.031  1.00  0.00     0.082 C 
HETATM    2  C2  UNL     1      -4.487   6.122  12.416  1.00  0.00     0.201 C 
HETATM    3  O1  UNL     1      -4.824   5.704  11.194  1.00  0.00    -0.197 OA
HETATM    4  O2  UNL     1      -5.284   4.478  11.319  1.00  0.00    -0.190 OA
HETATM    5  C3  UNL     1      -4.376   3.435  11.322  1.00  0.00     0.247 A 
HETATM    6  C4  UNL     1      -4.367   2.638  12.573  1.00  0.00     0.059 C 
HETATM    7  C5  UNL     1      -3.722   2.985  13.847  1.00  0.00     0.006 C 
HETATM    8  C11 UNL     1      -3.316   4.112  14.593  1.00  0.00     0.059 C 
HETATM    9  C12 UNL     1      -4.034   5.358  15.020  1.00  0.00     0.066 C 
HETATM   10  C13 UNL     1      -3.588   6.673  14.494  1.00  0.00     0.017 C 
HETATM   11  C14 UNL     1      -3.577   7.059  12.998  1.00  0.00     0.063 C 
HETATM   12  C15 UNL     1      -2.255   6.523  12.351  1.00  0.00     0.073 C 
HETATM   13  C16 UNL     1      -2.389   6.205  10.879  1.00  0.00    -0.018 C 
HETATM   14  C17 UNL     1      -2.631   4.969  10.228  1.00  0.00     0.007 C 
HETATM   15  C18 UNL     1      -3.124   3.630  10.561  1.00  0.00     0.217 A 
HETATM   16  O5  UNL     1      -4.200   2.971  10.061  1.00  0.00    -0.332 OA
HETATM   17  C19 UNL     1      -2.402   5.233  12.986  1.00  0.00     0.277 C 
HETATM   18  O6  UNL     1      -2.093   4.802  14.200  1.00  0.00    -0.323 OA
HETATM   19  O7  UNL     1      -3.700   5.200  12.799  1.00  0.00    -0.321 OA
ENDROOT
BRANCH   7  20
HETATM   20  C6  UNL     1      -4.364   1.965  14.791  1.00  0.00     0.188 C 
BRANCH  20  21
HETATM   21  O3  UNL     1      -4.944   0.923  14.021  1.00  0.00    -0.386 OA
ATOM     22  H3  UNL     1      -5.803   0.720  14.371  1.00  0.00     0.210 HD
ENDBRANCH  20  21
BRANCH  20  23
HETATM   23  C7  UNL     1      -5.411   2.442  15.674  1.00  0.00    -0.001 A 
HETATM   24  C8  UNL     1      -5.440   2.139  17.041  1.00  0.00     0.036 A 
HETATM   25  C9  UNL     1      -6.580   2.727  17.520  1.00  0.00     0.142 A 
HETATM   26  O4  UNL     1      -7.198   3.339  16.540  1.00  0.00    -0.334 OA
HETATM   27  C10 UNL     1      -6.548   3.200  15.426  1.00  0.00     0.151 A 
ENDBRANCH  20  23
ENDBRANCH   7  20
TORSDOF 3
ENDMDL
