MODEL 1
REMARK VINA RESULT: -4.669527796      0.000      0.000
REMARK  5 active torsions:
REMARK  status: ('A' for Active; 'I' for Inactive)
REMARK    1  A    between atoms: N1_1  and  C1_5 
REMARK    2  A    between atoms: C1_5  and  C2_6 
REMARK    3  A    between atoms: C2_6  and  C3_7 
REMARK    4  A    between atoms: C3_7  and  N2_8 
REMARK    5  A    between atoms: N2_8  and  C4_10 
ROOT
HETATM    1  N2  UNL     1      -1.813 -20.838 -36.317  1.00  0.00    -0.225 N 
ATOM      2  H2  UNL     1      -2.813 -20.955 -36.475  1.00  0.00     0.177 HD
ENDROOT
BRANCH   1   3
HETATM    3  C3  UNL     1      -1.371 -19.719 -35.522  1.00  0.00     0.139 C 
BRANCH   3   4
HETATM    4  C2  UNL     1      -2.354 -19.327 -34.465  1.00  0.00     0.047 C 
BRANCH   4   5
HETATM    5  C1  UNL     1      -3.230 -18.193 -34.942  1.00  0.00     0.231 C 
BRANCH   5   6
HETATM    6  N1  UNL     1      -4.460 -18.559 -35.512  1.00  0.00    -0.079 N 
ATOM      7  H13 UNL     1      -4.403 -19.511 -35.874  1.00  0.00     0.274 HD
ATOM      8  H12 UNL     1      -5.157 -18.682 -34.777  1.00  0.00     0.274 HD
ATOM      9  H11 UNL     1      -4.825 -17.937 -36.233  1.00  0.00     0.274 HD
ENDBRANCH   5   6
ENDBRANCH   4   5
ENDBRANCH   3   4
ENDBRANCH   1   3
BRANCH   1  10
HETATM   10  C4  UNL     1      -0.927 -21.777 -36.884  1.00  0.00     0.685 C 
HETATM   11  N3  UNL     1       0.308 -21.885 -36.522  1.00  0.00    -0.224 N 
HETATM   12  C5  UNL     1       1.238 -22.836 -37.084  1.00  0.00     0.155 C 
ATOM     13  H3  UNL     1       0.648 -21.260 -35.792  1.00  0.00     0.177 HD
HETATM   14  C6  UNL     1       0.652 -23.508 -38.299  1.00  0.00     0.155 C 
HETATM   15  N4  UNL     1      -0.752 -23.845 -38.099  1.00  0.00    -0.125 NA
HETATM   16  N5  UNL     1      -1.411 -22.636 -37.904  1.00  0.00    -0.137 N 
ATOM     17  H5  UNL     1      -2.216 -22.375 -38.475  1.00  0.00     0.201 HD
ENDBRANCH   1  10
TORSDOF 5
ENDMDL
MODEL 2
REMARK VINA RESULT: -4.592192956      1.248      1.910
REMARK  5 active torsions:
REMARK  status: ('A' for Active; 'I' for Inactive)
REMARK    1  A    between atoms: N1_1  and  C1_5 
REMARK    2  A    between atoms: C1_5  and  C2_6 
REMARK    3  A    between atoms: C2_6  and  C3_7 
REMARK    4  A    between atoms: C3_7  and  N2_8 
REMARK    5  A    between atoms: N2_8  and  C4_10 
ROOT
HETATM    1  N2  UNL     1      -2.523 -20.144 -35.907  1.00  0.00    -0.225 N 
ATOM      2  H2  UNL     1      -3.431 -20.072 -36.366  1.00  0.00     0.177 HD
ENDROOT
BRANCH   1   3
HETATM    3  C3  UNL     1      -2.259 -19.297 -34.771  1.00  0.00     0.139 C 
BRANCH   3   4
HETATM    4  C2  UNL     1      -3.430 -18.449 -34.388  1.00  0.00     0.047 C 
BRANCH   4   5
HETATM    5  C1  UNL     1      -3.409 -17.136 -35.136  1.00  0.00     0.231 C 
BRANCH   5   6
HETATM    6  N1  UNL     1      -4.515 -16.876 -35.959  1.00  0.00    -0.079 N 
ATOM      7  H13 UNL     1      -4.212 -16.380 -36.798  1.00  0.00     0.274 HD
ATOM      8  H12 UNL     1      -4.852 -17.747 -36.371  1.00  0.00     0.274 HD
ATOM      9  H11 UNL     1      -5.292 -16.376 -35.525  1.00  0.00     0.274 HD
ENDBRANCH   5   6
ENDBRANCH   4   5
ENDBRANCH   3   4
ENDBRANCH   1   3
BRANCH   1  10
HETATM   10  C4  UNL     1      -1.585 -21.067 -36.414  1.00  0.00     0.685 C 
HETATM   11  N3  UNL     1      -1.858 -21.894 -37.367  1.00  0.00    -0.224 N 
HETATM   12  C5  UNL     1      -0.919 -22.849 -37.907  1.00  0.00     0.155 C 
ATOM     13  H3  UNL     1      -2.797 -21.872 -37.765  1.00  0.00     0.177 HD
HETATM   14  C6  UNL     1       0.325 -22.917 -37.060  1.00  0.00     0.155 C 
HETATM   15  N4  UNL     1       0.753 -21.591 -36.628  1.00  0.00    -0.125 NA
HETATM   16  N5  UNL     1      -0.285 -21.092 -35.848  1.00  0.00    -0.137 N 
ATOM     17  H5  UNL     1      -0.116 -20.755 -34.899  1.00  0.00     0.201 HD
ENDBRANCH   1  10
TORSDOF 5
ENDMDL
MODEL 3
REMARK VINA RESULT: -4.587890705      0.646      1.474
REMARK  5 active torsions:
REMARK  status: ('A' for Active; 'I' for Inactive)
REMARK    1  A    between atoms: N1_1  and  C1_5 
REMARK    2  A    between atoms: C1_5  and  C2_6 
REMARK    3  A    between atoms: C2_6  and  C3_7 
REMARK    4  A    between atoms: C3_7  and  N2_8 
REMARK    5  A    between atoms: N2_8  and  C4_10 
ROOT
HETATM    1  N2  UNL     1      -1.883 -20.801 -36.385  1.00  0.00    -0.225 N 
ATOM      2  H2  UNL     1      -2.873 -20.817 -36.630  1.00  0.00     0.177 HD
ENDROOT
BRANCH   1   3
HETATM    3  C3  UNL     1      -1.397 -19.719 -35.566  1.00  0.00     0.139 C 
BRANCH   3   4
HETATM    4  C2  UNL     1      -2.348 -19.337 -34.476  1.00  0.00     0.047 C 
BRANCH   4   5
HETATM    5  C1  UNL     1      -3.249 -18.210 -34.922  1.00  0.00     0.231 C 
BRANCH   5   6
HETATM    6  N1  UNL     1      -4.455 -18.587 -35.532  1.00  0.00    -0.079 N 
ATOM      7  H13 UNL     1      -4.371 -18.503 -36.545  1.00  0.00     0.274 HD
ATOM      8  H12 UNL     1      -4.588 -19.595 -35.441  1.00  0.00     0.274 HD
ATOM      9  H11 UNL     1      -5.293 -18.099 -35.214  1.00  0.00     0.274 HD
ENDBRANCH   5   6
ENDBRANCH   4   5
ENDBRANCH   3   4
ENDBRANCH   1   3
BRANCH   1  10
HETATM   10  C4  UNL     1      -1.055 -21.837 -36.863  1.00  0.00     0.685 C 
HETATM   11  N3  UNL     1      -1.421 -22.659 -37.789  1.00  0.00    -0.224 N 
HETATM   12  C5  UNL     1      -0.597 -23.729 -38.299  1.00  0.00     0.155 C 
ATOM     13  H3  UNL     1      -2.353 -22.545 -38.187  1.00  0.00     0.177 HD
HETATM   14  C6  UNL     1       0.636 -23.908 -37.451  1.00  0.00     0.155 C 
HETATM   15  N4  UNL     1       1.209 -22.624 -37.062  1.00  0.00    -0.125 NA
HETATM   16  N5  UNL     1       0.237 -21.988 -36.297  1.00  0.00    -0.137 N 
ATOM     17  H5  UNL     1       0.446 -21.642 -35.360  1.00  0.00     0.201 HD
ENDBRANCH   1  10
TORSDOF 5
ENDMDL
MODEL 4
REMARK VINA RESULT: -4.559958835      1.367      5.523
REMARK  5 active torsions:
REMARK  status: ('A' for Active; 'I' for Inactive)
REMARK    1  A    between atoms: N1_1  and  C1_5 
REMARK    2  A    between atoms: C1_5  and  C2_6 
REMARK    3  A    between atoms: C2_6  and  C3_7 
REMARK    4  A    between atoms: C3_7  and  N2_8 
REMARK    5  A    between atoms: N2_8  and  C4_10 
ROOT
HETATM    1  N2  UNL     1      -1.815 -22.045 -37.463  1.00  0.00    -0.225 N 
ATOM      2  H2  UNL     1      -2.547 -22.373 -38.093  1.00  0.00     0.177 HD
ENDROOT
BRANCH   1   3
HETATM    3  C3  UNL     1      -0.516 -22.665 -37.538  1.00  0.00     0.139 C 
BRANCH   3   4
HETATM    4  C2  UNL     1      -0.507 -23.907 -38.371  1.00  0.00     0.047 C 
BRANCH   4   5
HETATM    5  C1  UNL     1       0.851 -24.125 -38.994  1.00  0.00     0.231 C 
BRANCH   5   6
HETATM    6  N1  UNL     1       0.878 -24.902 -40.163  1.00  0.00    -0.079 N 
ATOM      7  H13 UNL     1       0.289 -24.472 -40.876  1.00  0.00     0.274 HD
ATOM      8  H12 UNL     1       1.793 -24.824 -40.607  1.00  0.00     0.274 HD
ATOM      9  H11 UNL     1       0.629 -25.885 -40.055  1.00  0.00     0.274 HD
ENDBRANCH   5   6
ENDBRANCH   4   5
ENDBRANCH   3   4
ENDBRANCH   1   3
BRANCH   1  10
HETATM   10  C4  UNL     1      -2.121 -21.005 -36.560  1.00  0.00     0.685 C 
HETATM   11  N3  UNL     1      -1.218 -20.258 -36.017  1.00  0.00    -0.224 N 
HETATM   12  C5  UNL     1      -1.501 -19.188 -35.090  1.00  0.00     0.155 C 
ATOM     13  H3  UNL     1      -0.244 -20.435 -36.259  1.00  0.00     0.177 HD
HETATM   14  C6  UNL     1      -2.945 -19.216 -34.660  1.00  0.00     0.155 C 
HETATM   15  N4  UNL     1      -3.832 -19.505 -35.781  1.00  0.00    -0.125 NA
HETATM   16  N5  UNL     1      -3.480 -20.775 -36.227  1.00  0.00    -0.137 N 
ATOM     17  H5  UNL     1      -4.177 -21.515 -36.313  1.00  0.00     0.201 HD
ENDBRANCH   1  10
TORSDOF 5
ENDMDL
MODEL 5
REMARK VINA RESULT: -4.542187140      1.436      5.229
REMARK  5 active torsions:
REMARK  status: ('A' for Active; 'I' for Inactive)
REMARK    1  A    between atoms: N1_1  and  C1_5 
REMARK    2  A    between atoms: C1_5  and  C2_6 
REMARK    3  A    between atoms: C2_6  and  C3_7 
REMARK    4  A    between atoms: C3_7  and  N2_8 
REMARK    5  A    between atoms: N2_8  and  C4_10 
ROOT
HETATM    1  N2  UNL     1      -1.896 -22.011 -37.454  1.00  0.00    -0.225 N 
ATOM      2  H2  UNL     1      -2.648 -22.349 -38.053  1.00  0.00     0.177 HD
ENDROOT
BRANCH   1   3
HETATM    3  C3  UNL     1      -0.594 -22.617 -37.576  1.00  0.00     0.139 C 
BRANCH   3   4
HETATM    4  C2  UNL     1      -0.648 -24.022 -38.087  1.00  0.00     0.047 C 
BRANCH   4   5
HETATM    5  C1  UNL     1       0.068 -24.963 -37.147  1.00  0.00     0.231 C 
BRANCH   5   6
HETATM    6  N1  UNL     1       0.791 -24.363 -36.104  1.00  0.00    -0.079 N 
ATOM      7  H13 UNL     1       0.156 -24.098 -35.351  1.00  0.00     0.274 HD
ATOM      8  H12 UNL     1       1.359 -25.065 -35.629  1.00  0.00     0.274 HD
ATOM      9  H11 UNL     1       1.373 -23.565 -36.361  1.00  0.00     0.274 HD
ENDBRANCH   5   6
ENDBRANCH   4   5
ENDBRANCH   3   4
ENDBRANCH   1   3
BRANCH   1  10
HETATM   10  C4  UNL     1      -2.178 -20.972 -36.542  1.00  0.00     0.685 C 
HETATM   11  N3  UNL     1      -1.259 -20.249 -35.994  1.00  0.00    -0.224 N 
HETATM   12  C5  UNL     1      -1.517 -19.180 -35.059  1.00  0.00     0.155 C 
ATOM     13  H3  UNL     1      -0.289 -20.446 -36.238  1.00  0.00     0.177 HD
HETATM   14  C6  UNL     1      -2.961 -19.179 -34.629  1.00  0.00     0.155 C 
HETATM   15  N4  UNL     1      -3.855 -19.440 -35.752  1.00  0.00    -0.125 NA
HETATM   16  N5  UNL     1      -3.532 -20.714 -36.208  1.00  0.00    -0.137 N 
ATOM     17  H5  UNL     1      -4.246 -21.438 -36.298  1.00  0.00     0.201 HD
ENDBRANCH   1  10
TORSDOF 5
ENDMDL
