MODEL 1
REMARK VINA RESULT: -5.128508650      0.000      0.000
REMARK  6 active torsions:
REMARK  status: ('A' for Active; 'I' for Inactive)
REMARK    1  A    between atoms: N1_1  and  C1_5 
REMARK    2  A    between atoms: C1_5  and  C2_6 
REMARK    3  A    between atoms: C2_6  and  N2_7 
REMARK    4  A    between atoms: C2_6  and  C3_11 
REMARK    5  A    between atoms: C3_11  and  C4_12 
REMARK    6  A    between atoms: C4_12  and  C5_13 
ROOT
HETATM    1  C2  UNL     1      -1.121 -23.428 -22.585  1.00  0.00     0.208 C 
ENDROOT
BRANCH   1   2
HETATM    2  C1  UNL     1      -0.178 -24.511 -22.122  1.00  0.00     0.262 C 
BRANCH   2   3
HETATM    3  N1  UNL     1       0.672 -24.042 -21.042  1.00  0.00    -0.077 N 
ATOM      4  H13 UNL     1       1.161 -24.813 -20.587  1.00  0.00     0.274 HD
ATOM      5  H12 UNL     1       1.481 -23.531 -21.396  1.00  0.00     0.274 HD
ATOM      6  H11 UNL     1       0.142 -23.486 -20.370  1.00  0.00     0.274 HD
ENDBRANCH   2   3
ENDBRANCH   1   2
BRANCH   1   7
HETATM    7  N2  UNL     1      -1.237 -23.460 -24.043  1.00  0.00    -0.073 N 
ATOM      8  H23 UNL     1      -0.559 -24.092 -24.468  1.00  0.00     0.274 HD
ATOM      9  H22 UNL     1      -2.089 -23.931 -24.349  1.00  0.00     0.274 HD
ATOM     10  H21 UNL     1      -1.167 -22.514 -24.418  1.00  0.00     0.274 HD
ENDBRANCH   1   7
BRANCH   1  11
HETATM   11  C3  UNL     1      -0.660 -22.051 -22.213  1.00  0.00     0.037 C 
BRANCH  11  12
HETATM   12  C4  UNL     1       0.276 -21.497 -23.229  1.00  0.00     0.044 C 
BRANCH  12  13
HETATM   13  C5  UNL     1       1.406 -20.734 -22.567  1.00  0.00     0.220 C 
HETATM   14  N3  UNL     1       2.389 -21.652 -22.026  1.00  0.00    -0.094 NA
HETATM   15  N4  UNL     1       3.617 -21.025 -22.363  1.00  0.00     0.035 NA
HETATM   16  O1  UNL     1       3.407 -20.496 -23.568  1.00  0.00    -0.152 OA
HETATM   17  N5  UNL     1       2.176 -19.952 -23.483  1.00  0.00    -0.053 NA
ENDBRANCH  12  13
ENDBRANCH  11  12
ENDBRANCH   1  11
TORSDOF 6
ENDMDL
MODEL 2
REMARK VINA RESULT: -4.961913043      0.919      1.010
REMARK  6 active torsions:
REMARK  status: ('A' for Active; 'I' for Inactive)
REMARK    1  A    between atoms: N1_1  and  C1_5 
REMARK    2  A    between atoms: C1_5  and  C2_6 
REMARK    3  A    between atoms: C2_6  and  N2_7 
REMARK    4  A    between atoms: C2_6  and  C3_11 
REMARK    5  A    between atoms: C3_11  and  C4_12 
REMARK    6  A    between atoms: C4_12  and  C5_13 
ROOT
HETATM    1  C2  UNL     1      -1.087 -23.738 -22.273  1.00  0.00     0.208 C 
ENDROOT
BRANCH   1   2
HETATM    2  C1  UNL     1      -0.002 -24.568 -21.632  1.00  0.00     0.262 C 
BRANCH   2   3
HETATM    3  N1  UNL     1       0.986 -23.727 -20.980  1.00  0.00    -0.077 N 
ATOM      4  H13 UNL     1       0.549 -23.054 -20.350  1.00  0.00     0.274 HD
ATOM      5  H12 UNL     1       1.532 -24.251 -20.295  1.00  0.00     0.274 HD
ATOM      6  H11 UNL     1       1.586 -23.265 -21.663  1.00  0.00     0.274 HD
ENDBRANCH   2   3
ENDBRANCH   1   2
BRANCH   1   7
HETATM    7  N2  UNL     1      -1.175 -24.053 -23.699  1.00  0.00    -0.073 N 
ATOM      8  H23 UNL     1      -1.936 -23.550 -24.156  1.00  0.00     0.274 HD
ATOM      9  H22 UNL     1      -0.398 -23.656 -24.228  1.00  0.00     0.274 HD
ATOM     10  H21 UNL     1      -1.251 -25.062 -23.828  1.00  0.00     0.274 HD
ENDBRANCH   1   7
BRANCH   1  11
HETATM   11  C3  UNL     1      -0.839 -22.264 -22.165  1.00  0.00     0.037 C 
BRANCH  11  12
HETATM   12  C4  UNL     1      -0.376 -21.692 -23.459  1.00  0.00     0.044 C 
BRANCH  12  13
HETATM   13  C5  UNL     1       0.520 -20.491 -23.232  1.00  0.00     0.220 C 
HETATM   14  N3  UNL     1       1.743 -20.890 -22.565  1.00  0.00    -0.094 NA
HETATM   15  N4  UNL     1       2.729 -20.130 -23.247  1.00  0.00     0.035 NA
HETATM   16  O1  UNL     1       2.328 -20.116 -24.518  1.00  0.00    -0.152 OA
HETATM   17  N5  UNL     1       0.998 -19.904 -24.445  1.00  0.00    -0.053 NA
ENDBRANCH  12  13
ENDBRANCH  11  12
ENDBRANCH   1  11
TORSDOF 6
ENDMDL
MODEL 3
REMARK VINA RESULT: -4.919419605      1.899      2.111
REMARK  6 active torsions:
REMARK  status: ('A' for Active; 'I' for Inactive)
REMARK    1  A    between atoms: N1_1  and  C1_5 
REMARK    2  A    between atoms: C1_5  and  C2_6 
REMARK    3  A    between atoms: C2_6  and  N2_7 
REMARK    4  A    between atoms: C2_6  and  C3_11 
REMARK    5  A    between atoms: C3_11  and  C4_12 
REMARK    6  A    between atoms: C4_12  and  C5_13 
ROOT
HETATM    1  C2  UNL     1      -1.085 -23.793 -22.292  1.00  0.00     0.208 C 
ENDROOT
BRANCH   1   2
HETATM    2  C1  UNL     1      -0.037 -24.667 -21.647  1.00  0.00     0.262 C 
BRANCH   2   3
HETATM    3  N1  UNL     1       0.966 -23.869 -20.966  1.00  0.00    -0.077 N 
ATOM      4  H13 UNL     1       1.875 -23.936 -21.425  1.00  0.00     0.274 HD
ATOM      5  H12 UNL     1       0.801 -22.870 -21.093  1.00  0.00     0.274 HD
ATOM      6  H11 UNL     1       1.027 -24.116 -19.978  1.00  0.00     0.274 HD
ENDBRANCH   2   3
ENDBRANCH   1   2
BRANCH   1   7
HETATM    7  N2  UNL     1      -1.185 -24.108 -23.717  1.00  0.00    -0.073 N 
ATOM      8  H23 UNL     1      -0.429 -23.688 -24.257  1.00  0.00     0.274 HD
ATOM      9  H22 UNL     1      -0.977 -25.088 -23.909  1.00  0.00     0.274 HD
ATOM     10  H21 UNL     1      -2.103 -23.836 -24.069  1.00  0.00     0.274 HD
ENDBRANCH   1   7
BRANCH   1  11
HETATM   11  C3  UNL     1      -0.773 -22.331 -22.188  1.00  0.00     0.037 C 
BRANCH  11  12
HETATM   12  C4  UNL     1      -0.446 -21.747 -23.518  1.00  0.00     0.044 C 
BRANCH  12  13
HETATM   13  C5  UNL     1       0.507 -20.577 -23.377  1.00  0.00     0.220 C 
HETATM   14  N3  UNL     1       1.287 -20.409 -24.587  1.00  0.00    -0.094 NA
HETATM   15  N4  UNL     1       1.303 -19.000 -24.753  1.00  0.00     0.035 NA
HETATM   16  O1  UNL     1       0.091 -18.599 -24.367  1.00  0.00    -0.152 OA
HETATM   17  N5  UNL     1      -0.157 -19.317 -23.253  1.00  0.00    -0.053 NA
ENDBRANCH  12  13
ENDBRANCH  11  12
ENDBRANCH   1  11
TORSDOF 6
ENDMDL
MODEL 4
REMARK VINA RESULT: -4.816553726      1.372      2.005
REMARK  6 active torsions:
REMARK  status: ('A' for Active; 'I' for Inactive)
REMARK    1  A    between atoms: N1_1  and  C1_5 
REMARK    2  A    between atoms: C1_5  and  C2_6 
REMARK    3  A    between atoms: C2_6  and  N2_7 
REMARK    4  A    between atoms: C2_6  and  C3_11 
REMARK    5  A    between atoms: C3_11  and  C4_12 
REMARK    6  A    between atoms: C4_12  and  C5_13 
ROOT
HETATM    1  C2  UNL     1      -0.542 -24.180 -22.084  1.00  0.00     0.208 C 
ENDROOT
BRANCH   1   2
HETATM    2  C1  UNL     1      -1.343 -24.027 -23.354  1.00  0.00     0.262 C 
BRANCH   2   3
HETATM    3  N1  UNL     1      -0.967 -22.821 -24.071  1.00  0.00    -0.077 N 
ATOM      4  H13 UNL     1      -0.590 -23.035 -24.994  1.00  0.00     0.274 HD
ATOM      5  H12 UNL     1      -1.787 -22.285 -24.357  1.00  0.00     0.274 HD
ATOM      6  H11 UNL     1      -0.319 -22.254 -23.524  1.00  0.00     0.274 HD
ENDBRANCH   2   3
ENDBRANCH   1   2
BRANCH   1   7
HETATM    7  N2  UNL     1      -1.344 -24.863 -21.070  1.00  0.00    -0.073 N 
ATOM      8  H23 UNL     1      -0.861 -24.921 -20.174  1.00  0.00     0.274 HD
ATOM      9  H22 UNL     1      -2.143 -24.303 -20.771  1.00  0.00     0.274 HD
ATOM     10  H21 UNL     1      -1.628 -25.782 -21.412  1.00  0.00     0.274 HD
ENDBRANCH   1   7
BRANCH   1  11
HETATM   11  C3  UNL     1      -0.120 -22.867 -21.497  1.00  0.00     0.037 C 
BRANCH  11  12
HETATM   12  C4  UNL     1       1.361 -22.769 -21.387  1.00  0.00     0.044 C 
BRANCH  12  13
HETATM   13  C5  UNL     1       1.833 -21.356 -21.666  1.00  0.00     0.220 C 
HETATM   14  N3  UNL     1       3.183 -21.368 -22.195  1.00  0.00    -0.094 NA
HETATM   15  N4  UNL     1       3.122 -20.388 -23.220  1.00  0.00     0.035 NA
HETATM   16  O1  UNL     1       1.914 -20.538 -23.761  1.00  0.00    -0.152 OA
HETATM   17  N5  UNL     1       1.094 -20.706 -22.703  1.00  0.00    -0.053 NA
ENDBRANCH  12  13
ENDBRANCH  11  12
ENDBRANCH   1  11
TORSDOF 6
ENDMDL
MODEL 5
REMARK VINA RESULT: -4.813038683      3.576      5.858
REMARK  6 active torsions:
REMARK  status: ('A' for Active; 'I' for Inactive)
REMARK    1  A    between atoms: N1_1  and  C1_5 
REMARK    2  A    between atoms: C1_5  and  C2_6 
REMARK    3  A    between atoms: C2_6  and  N2_7 
REMARK    4  A    between atoms: C2_6  and  C3_11 
REMARK    5  A    between atoms: C3_11  and  C4_12 
REMARK    6  A    between atoms: C4_12  and  C5_13 
ROOT
HETATM    1  C2  UNL     1       3.368 -18.075 -23.768  1.00  0.00     0.208 C 
ENDROOT
BRANCH   1   2
HETATM    2  C1  UNL     1       3.693 -16.602 -23.763  1.00  0.00     0.262 C 
BRANCH   2   3
HETATM    3  N1  UNL     1       4.634 -16.274 -22.707  1.00  0.00    -0.077 N 
ATOM      4  H13 UNL     1       5.131 -15.405 -22.903  1.00  0.00     0.274 HD
ATOM      5  H12 UNL     1       4.154 -15.991 -21.852  1.00  0.00     0.274 HD
ATOM      6  H11 UNL     1       5.280 -17.045 -22.536  1.00  0.00     0.274 HD
ENDBRANCH   2   3
ENDBRANCH   1   2
BRANCH   1   7
HETATM    7  N2  UNL     1       4.575 -18.851 -23.481  1.00  0.00    -0.073 N 
ATOM      8  H23 UNL     1       5.176 -18.942 -24.299  1.00  0.00     0.274 HD
ATOM      9  H22 UNL     1       5.222 -18.344 -22.877  1.00  0.00     0.274 HD
ATOM     10  H21 UNL     1       4.319 -19.759 -23.091  1.00  0.00     0.274 HD
ENDBRANCH   1   7
BRANCH   1  11
HETATM   11  C3  UNL     1       2.844 -18.555 -25.088  1.00  0.00     0.037 C 
BRANCH  11  12
HETATM   12  C4  UNL     1       1.729 -19.525 -24.911  1.00  0.00     0.044 C 
BRANCH  12  13
HETATM   13  C5  UNL     1       0.940 -19.221 -23.653  1.00  0.00     0.220 C 
HETATM   14  N3  UNL     1      -0.359 -18.673 -23.989  1.00  0.00    -0.094 NA
HETATM   15  N4  UNL     1      -1.218 -19.324 -23.066  1.00  0.00     0.035 NA
HETATM   16  O1  UNL     1      -0.732 -20.561 -22.964  1.00  0.00    -0.152 OA
HETATM   17  N5  UNL     1       0.604 -20.389 -22.899  1.00  0.00    -0.053 NA
ENDBRANCH  12  13
ENDBRANCH  11  12
ENDBRANCH   1  11
TORSDOF 6
ENDMDL
