MODEL 1
REMARK VINA RESULT: -5.829279334      0.000      0.000
REMARK  4 active torsions:
REMARK  status: ('A' for Active; 'I' for Inactive)
REMARK    1  A    between atoms: C5_6  and  S1_7 
REMARK    2  A    between atoms: S1_7  and  N2_10 
REMARK    3  A    between atoms: N2_10  and  S2_12 
REMARK    4  A    between atoms: S2_12  and  N3_13 
ROOT
HETATM    1  N1  UNL     1     -10.051  36.815  -5.750  1.00  0.00    -0.191 NA
HETATM    2  C1  UNL     1      -9.459  36.203  -4.966  1.00  0.00     0.099 C 
HETATM    3  C2  UNL     1      -8.741  35.447  -3.980  1.00  0.00     0.044 A 
HETATM    4  C3  UNL     1      -9.004  34.118  -3.720  1.00  0.00     0.024 A 
HETATM    5  C4  UNL     1      -8.288  33.432  -2.763  1.00  0.00     0.027 A 
HETATM    6  C5  UNL     1      -7.268  34.029  -2.009  1.00  0.00     0.080 A 
HETATM    7  C6  UNL     1      -7.020  35.356  -2.281  1.00  0.00     0.027 A 
HETATM    8  C7  UNL     1      -7.749  36.052  -3.255  1.00  0.00     0.024 A 
ENDROOT
BRANCH   6   9
HETATM    9  S1  UNL     1      -6.425  33.090  -0.817  1.00  0.00     0.272 S 
HETATM   10  O1  UNL     1      -5.204  32.407  -1.420  1.00  0.00    -0.200 OA
HETATM   11  O2  UNL     1      -5.864  33.986   0.278  1.00  0.00    -0.200 OA
BRANCH   9  12
HETATM   12  N2  UNL     1      -7.365  31.870  -0.085  1.00  0.00    -0.190 N 
ATOM     13  H2  UNL     1      -7.431  30.907  -0.415  1.00  0.00     0.193 HD
BRANCH  12  14
HETATM   14  S2  UNL     1      -8.186  32.497   1.288  1.00  0.00     0.326 S 
HETATM   15  O3  UNL     1      -9.550  31.885   1.449  1.00  0.00    -0.182 OA
HETATM   16  O4  UNL     1      -7.443  32.250   2.563  1.00  0.00    -0.182 OA
BRANCH  14  17
HETATM   17  N3  UNL     1      -8.353  34.220   1.116  1.00  0.00    -0.311 N 
ATOM     18  H32 UNL     1      -8.608  34.694   0.249  1.00  0.00     0.170 HD
ATOM     19  H31 UNL     1      -8.158  34.667   2.011  1.00  0.00     0.170 HD
ENDBRANCH  14  17
ENDBRANCH  12  14
ENDBRANCH   9  12
ENDBRANCH   6   9
TORSDOF 4
ENDMDL
MODEL 2
REMARK VINA RESULT: -5.693779581      0.993      1.570
REMARK  4 active torsions:
REMARK  status: ('A' for Active; 'I' for Inactive)
REMARK    1  A    between atoms: C5_6  and  S1_7 
REMARK    2  A    between atoms: S1_7  and  N2_10 
REMARK    3  A    between atoms: N2_10  and  S2_12 
REMARK    4  A    between atoms: S2_12  and  N3_13 
ROOT
HETATM    1  N1  UNL     1      -9.841  36.840  -5.969  1.00  0.00    -0.191 NA
HETATM    2  C1  UNL     1      -9.323  36.274  -5.102  1.00  0.00     0.099 C 
HETATM    3  C2  UNL     1      -8.664  35.570  -4.040  1.00  0.00     0.044 A 
HETATM    4  C3  UNL     1      -7.725  36.162  -3.221  1.00  0.00     0.024 A 
HETATM    5  C4  UNL     1      -7.117  35.445  -2.213  1.00  0.00     0.027 A 
HETATM    6  C5  UNL     1      -7.408  34.097  -1.963  1.00  0.00     0.080 A 
HETATM    7  C6  UNL     1      -8.347  33.522  -2.790  1.00  0.00     0.027 A 
HETATM    8  C7  UNL     1      -8.964  34.253  -3.815  1.00  0.00     0.024 A 
ENDROOT
BRANCH   6   9
HETATM    9  S1  UNL     1      -6.586  33.270  -0.676  1.00  0.00     0.272 S 
HETATM   10  O1  UNL     1      -5.151  32.938  -1.066  1.00  0.00    -0.200 OA
HETATM   11  O2  UNL     1      -6.455  34.168   0.546  1.00  0.00    -0.200 OA
BRANCH   9  12
HETATM   12  N2  UNL     1      -7.320  31.808  -0.194  1.00  0.00    -0.190 N 
ATOM     13  H2  UNL     1      -7.130  30.895  -0.606  1.00  0.00     0.193 HD
BRANCH  12  14
HETATM   14  S2  UNL     1      -8.429  32.096   1.087  1.00  0.00     0.326 S 
HETATM   15  O3  UNL     1      -9.272  33.314   0.831  1.00  0.00    -0.182 OA
HETATM   16  O4  UNL     1      -9.368  30.952   1.302  1.00  0.00    -0.182 OA
BRANCH  14  17
HETATM   17  N3  UNL     1      -7.544  32.320   2.569  1.00  0.00    -0.311 N 
ATOM     18  H32 UNL     1      -6.629  31.914   2.765  1.00  0.00     0.170 HD
ATOM     19  H31 UNL     1      -8.086  32.915   3.196  1.00  0.00     0.170 HD
ENDBRANCH  14  17
ENDBRANCH  12  14
ENDBRANCH   9  12
ENDBRANCH   6   9
TORSDOF 4
ENDMDL
MODEL 3
REMARK VINA RESULT: -5.361638206      3.320      3.829
REMARK  4 active torsions:
REMARK  status: ('A' for Active; 'I' for Inactive)
REMARK    1  A    between atoms: C5_6  and  S1_7 
REMARK    2  A    between atoms: S1_7  and  N2_10 
REMARK    3  A    between atoms: N2_10  and  S2_12 
REMARK    4  A    between atoms: S2_12  and  N3_13 
ROOT
HETATM    1  N1  UNL     1      -3.185  31.689  -7.128  1.00  0.00    -0.191 NA
HETATM    2  C1  UNL     1      -3.759  31.950  -6.156  1.00  0.00     0.099 C 
HETATM    3  C2  UNL     1      -4.466  32.295  -4.957  1.00  0.00     0.044 A 
HETATM    4  C3  UNL     1      -5.778  32.717  -4.959  1.00  0.00     0.024 A 
HETATM    5  C4  UNL     1      -6.417  33.039  -3.780  1.00  0.00     0.027 A 
HETATM    6  C5  UNL     1      -5.786  32.957  -2.532  1.00  0.00     0.080 A 
HETATM    7  C6  UNL     1      -4.476  32.534  -2.548  1.00  0.00     0.027 A 
HETATM    8  C7  UNL     1      -3.828  32.208  -3.748  1.00  0.00     0.024 A 
ENDROOT
BRANCH   6   9
HETATM    9  S1  UNL     1      -6.667  33.391  -1.099  1.00  0.00     0.272 S 
HETATM   10  O1  UNL     1      -5.737  33.513   0.101  1.00  0.00    -0.200 OA
HETATM   11  O2  UNL     1      -7.289  34.772  -1.246  1.00  0.00    -0.200 OA
BRANCH   9  12
HETATM   12  N2  UNL     1      -7.895  32.290  -0.665  1.00  0.00    -0.190 N 
ATOM     13  H2  UNL     1      -8.284  31.576  -1.282  1.00  0.00     0.193 HD
BRANCH  12  14
HETATM   14  S2  UNL     1      -8.384  32.557   0.960  1.00  0.00     0.326 S 
HETATM   15  O3  UNL     1      -9.834  32.219   1.168  1.00  0.00    -0.182 OA
HETATM   16  O4  UNL     1      -7.600  31.739   1.937  1.00  0.00    -0.182 OA
BRANCH  14  17
HETATM   17  N3  UNL     1      -8.127  34.229   1.367  1.00  0.00    -0.311 N 
ATOM     18  H32 UNL     1      -7.960  34.972   0.687  1.00  0.00     0.170 HD
ATOM     19  H31 UNL     1      -8.171  34.339   2.380  1.00  0.00     0.170 HD
ENDBRANCH  14  17
ENDBRANCH  12  14
ENDBRANCH   9  12
ENDBRANCH   6   9
TORSDOF 4
ENDMDL
MODEL 4
REMARK VINA RESULT: -5.348763583      2.607      3.529
REMARK  4 active torsions:
REMARK  status: ('A' for Active; 'I' for Inactive)
REMARK    1  A    between atoms: C5_6  and  S1_7 
REMARK    2  A    between atoms: S1_7  and  N2_10 
REMARK    3  A    between atoms: N2_10  and  S2_12 
REMARK    4  A    between atoms: S2_12  and  N3_13 
ROOT
HETATM    1  N1  UNL     1      -5.586  32.969  -6.128  1.00  0.00    -0.191 NA
HETATM    2  C1  UNL     1      -5.985  32.974  -5.041  1.00  0.00     0.099 C 
HETATM    3  C2  UNL     1      -6.482  33.003  -3.696  1.00  0.00     0.044 A 
HETATM    4  C3  UNL     1      -7.821  33.139  -3.396  1.00  0.00     0.024 A 
HETATM    5  C4  UNL     1      -8.252  33.163  -2.087  1.00  0.00     0.027 A 
HETATM    6  C5  UNL     1      -7.374  33.051  -1.000  1.00  0.00     0.080 A 
HETATM    7  C6  UNL     1      -6.041  32.917  -1.317  1.00  0.00     0.027 A 
HETATM    8  C7  UNL     1      -5.604  32.894  -2.649  1.00  0.00     0.024 A 
ENDROOT
BRANCH   6   9
HETATM    9  S1  UNL     1      -8.005  33.100   0.617  1.00  0.00     0.272 S 
HETATM   10  O1  UNL     1      -9.485  32.741   0.639  1.00  0.00    -0.200 OA
HETATM   11  O2  UNL     1      -7.340  32.043   1.487  1.00  0.00    -0.200 OA
BRANCH   9  12
HETATM   12  N2  UNL     1      -7.848  34.611   1.390  1.00  0.00    -0.190 N 
ATOM     13  H2  UNL     1      -8.489  35.396   1.274  1.00  0.00     0.193 HD
BRANCH  12  14
HETATM   14  S2  UNL     1      -6.454  34.622   2.395  1.00  0.00     0.326 S 
HETATM   15  O3  UNL     1      -5.233  34.146   1.658  1.00  0.00    -0.182 OA
HETATM   16  O4  UNL     1      -6.141  35.984   2.928  1.00  0.00    -0.182 OA
BRANCH  14  17
HETATM   17  N3  UNL     1      -6.729  33.584   3.765  1.00  0.00    -0.311 N 
ATOM     18  H32 UNL     1      -6.099  32.840   4.064  1.00  0.00     0.170 HD
ATOM     19  H31 UNL     1      -7.611  33.841   4.208  1.00  0.00     0.170 HD
ENDBRANCH  14  17
ENDBRANCH  12  14
ENDBRANCH   9  12
ENDBRANCH   6   9
TORSDOF 4
ENDMDL
MODEL 5
REMARK VINA RESULT: -5.291270883      2.658      3.262
REMARK  4 active torsions:
REMARK  status: ('A' for Active; 'I' for Inactive)
REMARK    1  A    between atoms: C5_6  and  S1_7 
REMARK    2  A    between atoms: S1_7  and  N2_10 
REMARK    3  A    between atoms: N2_10  and  S2_12 
REMARK    4  A    between atoms: S2_12  and  N3_13 
ROOT
HETATM    1  N1  UNL     1      -5.244  31.646  -6.489  1.00  0.00    -0.191 NA
HETATM    2  C1  UNL     1      -5.464  32.077  -5.437  1.00  0.00     0.099 C 
HETATM    3  C2  UNL     1      -5.732  32.632  -4.142  1.00  0.00     0.044 A 
HETATM    4  C3  UNL     1      -6.946  33.194  -3.808  1.00  0.00     0.024 A 
HETATM    5  C4  UNL     1      -7.159  33.716  -2.549  1.00  0.00     0.027 A 
HETATM    6  C5  UNL     1      -6.175  33.707  -1.552  1.00  0.00     0.080 A 
HETATM    7  C6  UNL     1      -4.969  33.143  -1.903  1.00  0.00     0.027 A 
HETATM    8  C7  UNL     1      -4.755  32.614  -3.183  1.00  0.00     0.024 A 
ENDROOT
BRANCH   6   9
HETATM    9  S1  UNL     1      -6.528  34.396   0.003  1.00  0.00     0.272 S 
HETATM   10  O1  UNL     1      -5.587  33.853   1.070  1.00  0.00    -0.200 OA
HETATM   11  O2  UNL     1      -6.280  35.897  -0.003  1.00  0.00    -0.200 OA
BRANCH   9  12
HETATM   12  N2  UNL     1      -8.118  34.115   0.554  1.00  0.00    -0.190 N 
ATOM     13  H2  UNL     1      -8.891  34.774   0.464  1.00  0.00     0.193 HD
BRANCH  12  14
HETATM   14  S2  UNL     1      -8.228  32.563   1.284  1.00  0.00     0.326 S 
HETATM   15  O3  UNL     1      -9.648  32.074   1.338  1.00  0.00    -0.182 OA
HETATM   16  O4  UNL     1      -7.436  31.527   0.551  1.00  0.00    -0.182 OA
BRANCH  14  17
HETATM   17  N3  UNL     1      -7.594  32.647   2.902  1.00  0.00    -0.311 N 
ATOM     18  H32 UNL     1      -6.920  33.341   3.225  1.00  0.00     0.170 HD
ATOM     19  H31 UNL     1      -8.002  31.898   3.461  1.00  0.00     0.170 HD
ENDBRANCH  14  17
ENDBRANCH  12  14
ENDBRANCH   9  12
ENDBRANCH   6   9
TORSDOF 4
ENDMDL
