MODEL 1
REMARK VINA RESULT: -6.206030857      0.000      0.000
REMARK  3 active torsions:
REMARK  status: ('A' for Active; 'I' for Inactive)
REMARK    1  A    between atoms: C2_2  and  C3_3 
REMARK    2  A    between atoms: C6_6  and  C7_7 
REMARK    3  A    between atoms: C7_7  and  N1_8 
ROOT
HETATM    1  N1  UNL     1      -4.491  32.274  -4.932  1.00  0.00    -0.247 N 
HETATM    2  C8  UNL     1      -3.384  31.687  -4.457  1.00  0.00     0.333 C 
HETATM    3  O1  UNL     1      -2.621  32.411  -3.775  1.00  0.00    -0.246 OA
HETATM    4  N2  UNL     1      -2.936  30.413  -4.592  1.00  0.00    -0.271 N 
ATOM      5  H2  UNL     1      -2.163  30.135  -3.988  1.00  0.00     0.174 HD
HETATM    6  C9  UNL     1      -3.399  29.489  -5.430  1.00  0.00     0.317 C 
HETATM    7  O2  UNL     1      -2.745  28.419  -5.512  1.00  0.00    -0.262 OA
HETATM    8  C10 UNL     1      -4.522  29.555  -6.234  1.00  0.00     0.317 C 
HETATM    9  O3  UNL     1      -4.815  28.428  -6.747  1.00  0.00    -0.262 OA
HETATM   10  N3  UNL     1      -5.299  30.603  -6.527  1.00  0.00    -0.271 N 
ATOM     11  H3  UNL     1      -6.045  30.453  -7.206  1.00  0.00     0.174 HD
HETATM   12  C11 UNL     1      -5.184  31.846  -6.000  1.00  0.00     0.333 C 
HETATM   13  O4  UNL     1      -5.834  32.719  -6.625  1.00  0.00    -0.246 OA
ENDROOT
BRANCH   1  14
HETATM   14  C7  UNL     1      -4.965  33.428  -4.264  1.00  0.00     0.177 C 
BRANCH  14  15
HETATM   15  C6  UNL     1      -5.867  33.167  -3.114  1.00  0.00    -0.040 A 
HETATM   16  C5  UNL     1      -7.226  33.283  -3.277  1.00  0.00     0.009 A 
HETATM   17  C4  UNL     1      -8.122  33.049  -2.230  1.00  0.00     0.012 A 
HETATM   18  C3  UNL     1      -7.674  32.690  -0.979  1.00  0.00    -0.037 A 
HETATM   19  C13 UNL     1      -6.289  32.574  -0.824  1.00  0.00     0.012 A 
HETATM   20  C12 UNL     1      -5.419  32.809  -1.867  1.00  0.00     0.009 A 
BRANCH  18  21
HETATM   21  C2  UNL     1      -8.557  32.432   0.152  1.00  0.00     0.001 C 
HETATM   22  C1  UNL     1      -8.347  31.488   1.022  1.00  0.00     0.012 C 
ENDBRANCH  18  21
ENDBRANCH  14  15
ENDBRANCH   1  14
TORSDOF 3
ENDMDL
MODEL 2
REMARK VINA RESULT: -6.188895024      0.039      1.051
REMARK  3 active torsions:
REMARK  status: ('A' for Active; 'I' for Inactive)
REMARK    1  A    between atoms: C2_2  and  C3_3 
REMARK    2  A    between atoms: C6_6  and  C7_7 
REMARK    3  A    between atoms: C7_7  and  N1_8 
ROOT
HETATM    1  N1  UNL     1      -4.490  32.276  -4.958  1.00  0.00    -0.247 N 
HETATM    2  C8  UNL     1      -3.385  31.690  -4.477  1.00  0.00     0.333 C 
HETATM    3  O1  UNL     1      -2.620  32.418  -3.800  1.00  0.00    -0.246 OA
HETATM    4  N2  UNL     1      -2.941  30.413  -4.600  1.00  0.00    -0.271 N 
ATOM      5  H2  UNL     1      -2.169  30.138  -3.993  1.00  0.00     0.174 HD
HETATM    6  C9  UNL     1      -3.406  29.484  -5.431  1.00  0.00     0.317 C 
HETATM    7  O2  UNL     1      -2.755  28.412  -5.504  1.00  0.00    -0.262 OA
HETATM    8  C10 UNL     1      -4.528  29.547  -6.236  1.00  0.00     0.317 C 
HETATM    9  O3  UNL     1      -4.824  28.416  -6.740  1.00  0.00    -0.262 OA
HETATM   10  N3  UNL     1      -5.302  30.595  -6.539  1.00  0.00    -0.271 N 
ATOM     11  H3  UNL     1      -6.048  30.442  -7.218  1.00  0.00     0.174 HD
HETATM   12  C11 UNL     1      -5.184  31.842  -6.022  1.00  0.00     0.333 C 
HETATM   13  O4  UNL     1      -5.830  32.712  -6.655  1.00  0.00    -0.246 OA
ENDROOT
BRANCH   1  14
HETATM   14  C7  UNL     1      -4.960  33.437  -4.300  1.00  0.00     0.177 C 
BRANCH  14  15
HETATM   15  C6  UNL     1      -5.902  33.191  -3.178  1.00  0.00    -0.040 A 
HETATM   16  C5  UNL     1      -5.410  32.847  -1.942  1.00  0.00     0.009 A 
HETATM   17  C4  UNL     1      -6.249  32.604  -0.851  1.00  0.00     0.012 A 
HETATM   18  C3  UNL     1      -7.617  32.700  -0.971  1.00  0.00    -0.037 A 
HETATM   19  C13 UNL     1      -8.106  33.051  -2.233  1.00  0.00     0.012 A 
HETATM   20  C12 UNL     1      -7.265  33.288  -3.299  1.00  0.00     0.009 A 
BRANCH  18  21
HETATM   21  C2  UNL     1      -8.544  32.461   0.128  1.00  0.00     0.001 C 
HETATM   22  C1  UNL     1      -8.377  31.522   1.012  1.00  0.00     0.012 C 
ENDBRANCH  18  21
ENDBRANCH  14  15
ENDBRANCH   1  14
TORSDOF 3
ENDMDL
MODEL 3
REMARK VINA RESULT: -6.113768750      4.817      6.751
REMARK  3 active torsions:
REMARK  status: ('A' for Active; 'I' for Inactive)
REMARK    1  A    between atoms: C2_2  and  C3_3 
REMARK    2  A    between atoms: C6_6  and  C7_7 
REMARK    3  A    between atoms: C7_7  and  N1_8 
ROOT
HETATM    1  N1  UNL     1      -6.558  34.224  -0.666  1.00  0.00    -0.247 N 
HETATM    2  C8  UNL     1      -6.968  34.753   0.495  1.00  0.00     0.333 C 
HETATM    3  O1  UNL     1      -6.502  35.880   0.786  1.00  0.00    -0.246 OA
HETATM    4  N2  UNL     1      -7.821  34.267   1.432  1.00  0.00    -0.271 N 
ATOM      5  H2  UNL     1      -8.136  34.923   2.147  1.00  0.00     0.174 HD
HETATM    6  C9  UNL     1      -8.290  33.025   1.515  1.00  0.00     0.317 C 
HETATM    7  O2  UNL     1      -8.945  32.734   2.548  1.00  0.00    -0.262 OA
HETATM    8  C10 UNL     1      -8.148  31.998   0.601  1.00  0.00     0.317 C 
HETATM    9  O3  UNL     1      -8.899  31.006   0.868  1.00  0.00    -0.262 OA
HETATM   10  N3  UNL     1      -7.359  31.919  -0.476  1.00  0.00    -0.271 N 
ATOM     11  H3  UNL     1      -7.351  31.034  -0.983  1.00  0.00     0.174 HD
HETATM   12  C11 UNL     1      -6.570  32.912  -0.953  1.00  0.00     0.333 C 
HETATM   13  O4  UNL     1      -5.723  32.521  -1.793  1.00  0.00    -0.246 OA
ENDROOT
BRANCH   1  14
HETATM   14  C7  UNL     1      -6.077  35.107  -1.661  1.00  0.00     0.177 C 
BRANCH  14  15
HETATM   15  C6  UNL     1      -7.105  35.625  -2.599  1.00  0.00    -0.040 A 
HETATM   16  C5  UNL     1      -7.096  36.952  -2.953  1.00  0.00     0.009 A 
HETATM   17  C4  UNL     1      -8.038  37.493  -3.831  1.00  0.00     0.012 A 
HETATM   18  C3  UNL     1      -9.026  36.709  -4.384  1.00  0.00    -0.037 A 
HETATM   19  C13 UNL     1      -9.026  35.360  -4.018  1.00  0.00     0.012 A 
HETATM   20  C12 UNL     1      -8.089  34.842  -3.149  1.00  0.00     0.009 A 
BRANCH  18  21
HETATM   21  C2  UNL     1     -10.036  37.212  -5.306  1.00  0.00     0.001 C 
HETATM   22  C1  UNL     1     -10.684  38.324  -5.119  1.00  0.00     0.012 C 
ENDBRANCH  18  21
ENDBRANCH  14  15
ENDBRANCH   1  14
TORSDOF 3
ENDMDL
MODEL 4
REMARK VINA RESULT: -6.018606822      4.322      6.501
REMARK  3 active torsions:
REMARK  status: ('A' for Active; 'I' for Inactive)
REMARK    1  A    between atoms: C2_2  and  C3_3 
REMARK    2  A    between atoms: C6_6  and  C7_7 
REMARK    3  A    between atoms: C7_7  and  N1_8 
ROOT
HETATM    1  N1  UNL     1      -6.996  33.310  -1.734  1.00  0.00    -0.247 N 
HETATM    2  C8  UNL     1      -5.707  33.669  -1.803  1.00  0.00     0.333 C 
HETATM    3  O1  UNL     1      -5.102  33.363  -2.859  1.00  0.00    -0.246 OA
HETATM    4  N2  UNL     1      -4.925  34.321  -0.906  1.00  0.00    -0.271 N 
ATOM      5  H2  UNL     1      -4.024  34.656  -1.245  1.00  0.00     0.174 HD
HETATM    6  C9  UNL     1      -5.211  34.568   0.370  1.00  0.00     0.317 C 
HETATM    7  O2  UNL     1      -4.288  35.046   1.075  1.00  0.00    -0.262 OA
HETATM    8  C10 UNL     1      -6.409  34.362   1.029  1.00  0.00     0.317 C 
HETATM    9  O3  UNL     1      -6.426  34.906   2.180  1.00  0.00    -0.262 OA
HETATM   10  N3  UNL     1      -7.498  33.697   0.630  1.00  0.00    -0.271 N 
ATOM     11  H3  UNL     1      -8.257  33.600   1.304  1.00  0.00     0.174 HD
HETATM   12  C11 UNL     1      -7.681  33.139  -0.591  1.00  0.00     0.333 C 
HETATM   13  O4  UNL     1      -8.647  32.338  -0.639  1.00  0.00    -0.246 OA
ENDROOT
BRANCH   1  14
HETATM   14  C7  UNL     1      -7.687  33.093  -2.950  1.00  0.00     0.177 C 
BRANCH  14  15
HETATM   15  C6  UNL     1      -8.415  34.273  -3.482  1.00  0.00    -0.040 A 
HETATM   16  C5  UNL     1      -9.714  34.134  -3.909  1.00  0.00     0.009 A 
HETATM   17  C4  UNL     1     -10.446  35.210  -4.418  1.00  0.00     0.012 A 
HETATM   18  C3  UNL     1      -9.891  36.466  -4.514  1.00  0.00    -0.037 A 
HETATM   19  C13 UNL     1      -8.570  36.596  -4.077  1.00  0.00     0.012 A 
HETATM   20  C12 UNL     1      -7.860  35.525  -3.577  1.00  0.00     0.009 A 
BRANCH  18  21
HETATM   21  C2  UNL     1     -10.603  37.626  -5.035  1.00  0.00     0.001 C 
HETATM   22  C1  UNL     1     -10.323  38.849  -4.693  1.00  0.00     0.012 C 
ENDBRANCH  18  21
ENDBRANCH  14  15
ENDBRANCH   1  14
TORSDOF 3
ENDMDL
MODEL 5
REMARK VINA RESULT: -5.955971264      0.883      1.059
REMARK  3 active torsions:
REMARK  status: ('A' for Active; 'I' for Inactive)
REMARK    1  A    between atoms: C2_2  and  C3_3 
REMARK    2  A    between atoms: C6_6  and  C7_7 
REMARK    3  A    between atoms: C7_7  and  N1_8 
ROOT
HETATM    1  N1  UNL     1      -4.261  32.529  -4.834  1.00  0.00    -0.247 N 
HETATM    2  C8  UNL     1      -3.000  32.566  -4.381  1.00  0.00     0.333 C 
HETATM    3  O1  UNL     1      -2.567  33.692  -4.037  1.00  0.00    -0.246 OA
HETATM    4  N2  UNL     1      -2.090  31.571  -4.228  1.00  0.00    -0.271 N 
ATOM      5  H2  UNL     1      -1.254  31.796  -3.688  1.00  0.00     0.174 HD
HETATM    6  C9  UNL     1      -2.173  30.334  -4.709  1.00  0.00     0.317 C 
HETATM    7  O2  UNL     1      -1.152  29.610  -4.591  1.00  0.00    -0.262 OA
HETATM    8  C10 UNL     1      -3.251  29.733  -5.332  1.00  0.00     0.317 C 
HETATM    9  O3  UNL     1      -3.090  28.478  -5.473  1.00  0.00    -0.262 OA
HETATM   10  N3  UNL     1      -4.386  30.277  -5.783  1.00  0.00    -0.271 N 
ATOM     11  H3  UNL     1      -5.030  29.664  -6.283  1.00  0.00     0.174 HD
HETATM   12  C11 UNL     1      -4.757  31.572  -5.635  1.00  0.00     0.333 C 
HETATM   13  O4  UNL     1      -5.714  31.909  -6.374  1.00  0.00    -0.246 OA
ENDROOT
BRANCH   1  14
HETATM   14  C7  UNL     1      -5.133  33.573  -4.443  1.00  0.00     0.177 C 
BRANCH  14  15
HETATM   15  C6  UNL     1      -5.976  33.280  -3.256  1.00  0.00    -0.040 A 
HETATM   16  C5  UNL     1      -7.344  33.358  -3.359  1.00  0.00     0.009 A 
HETATM   17  C4  UNL     1      -8.186  33.093  -2.275  1.00  0.00     0.012 A 
HETATM   18  C3  UNL     1      -7.674  32.741  -1.048  1.00  0.00    -0.037 A 
HETATM   19  C13 UNL     1      -6.281  32.665  -0.954  1.00  0.00     0.012 A 
HETATM   20  C12 UNL     1      -5.464  32.929  -2.033  1.00  0.00     0.009 A 
BRANCH  18  21
HETATM   21  C2  UNL     1      -8.498  32.452   0.119  1.00  0.00     0.001 C 
HETATM   22  C1  UNL     1      -8.226  31.508   0.971  1.00  0.00     0.012 C 
ENDBRANCH  18  21
ENDBRANCH  14  15
ENDBRANCH   1  14
TORSDOF 3
ENDMDL
