MODEL 1
REMARK VINA RESULT: -6.268954361      0.000      0.000
REMARK  11 active torsions:
REMARK  status: ('A' for Active; 'I' for Inactive)
REMARK    1  A    between atoms: C4_6  and  C5_7 
REMARK    2  A    between atoms: C5_7  and  C6_8 
REMARK    3  A    between atoms: C6_8  and  N2_9 
REMARK    4  A    between atoms: N2_9  and  C7_11 
REMARK    5  A    between atoms: C9_17  and  N5_18 
REMARK    6  A    between atoms: N5_18  and  C10_20 
REMARK    7  A    between atoms: C14_25  and  C15_26 
REMARK    8  A    between atoms: C15_26  and  O1_27 
REMARK    9  A    between atoms: C18_31  and  C19_32 
REMARK   10  A    between atoms: C19_32  and  C20_33 
REMARK   11  A    between atoms: C24_41  and  C25_42 
ROOT
HETATM    1  C7  UNL     1      -9.713  11.789  49.612  1.00  0.00     0.117 A 
HETATM    2  N3  UNL     1     -10.991  11.737  50.012  1.00  0.00    -0.338 N 
ATOM      3  H3  UNL     1     -11.345  10.937  50.538  1.00  0.00     0.168 HD
HETATM    4  C8  UNL     1     -11.795  12.774  49.699  1.00  0.00     0.183 A 
HETATM    5  N4  UNL     1     -11.353  13.832  49.010  1.00  0.00    -0.338 N 
ATOM      6  H4  UNL     1     -12.000  14.591  48.797  1.00  0.00     0.168 HD
HETATM    7  C9  UNL     1     -10.069  13.923  48.589  1.00  0.00     0.121 A 
HETATM    8  C24 UNL     1      -9.241  12.884  48.896  1.00  0.00     0.062 A 
ENDROOT
BRANCH   7   9
HETATM    9  N5  UNL     1      -9.640  15.070  47.847  1.00  0.00    -0.337 N 
ATOM     10  H5  UNL     1      -8.696  15.440  47.958  1.00  0.00     0.167 HD
BRANCH   9  11
HETATM   11  C10 UNL     1     -10.566  15.682  46.950  1.00  0.00     0.112 A 
HETATM   12  C11 UNL     1     -11.194  16.852  47.315  1.00  0.00     0.146 A 
HETATM   13  F1  UNL     1     -10.901  17.386  48.543  1.00  0.00    -0.204 F 
HETATM   14  C12 UNL     1     -12.088  17.454  46.456  1.00  0.00     0.045 A 
HETATM   15  C13 UNL     1     -12.350  16.880  45.234  1.00  0.00     0.016 A 
HETATM   16  C14 UNL     1     -11.741  15.689  44.811  1.00  0.00     0.017 A 
HETATM   17  C23 UNL     1     -10.865  15.137  45.700  1.00  0.00     0.155 A 
HETATM   18  F3  UNL     1     -10.240  13.995  45.343  1.00  0.00    -0.203 F 
BRANCH  16  19
HETATM   19  C15 UNL     1     -12.090  15.140  43.509  1.00  0.00     0.090 C 
HETATM   20  C16 UNL     1     -12.875  13.856  43.772  1.00  0.00     0.043 C 
HETATM   21  C17 UNL     1     -13.267  13.175  42.482  1.00  0.00     0.011 C 
HETATM   22  C18 UNL     1     -11.969  12.864  41.786  1.00  0.00     0.030 C 
HETATM   23  C21 UNL     1     -11.472  14.208  41.294  1.00  0.00     0.177 C 
HETATM   24  F2  UNL     1     -12.509  14.898  40.684  1.00  0.00    -0.249 F 
HETATM   25  C22 UNL     1     -11.001  14.994  42.526  1.00  0.00     0.080 C 
BRANCH  19  26
HETATM   26  O1  UNL     1     -13.062  15.997  42.922  1.00  0.00    -0.385 OA
ATOM     27  H1  UNL     1     -13.746  15.450  42.553  1.00  0.00     0.211 HD
ENDBRANCH  19  26
BRANCH  22  28
HETATM   28  C19 UNL     1     -12.011  11.817  40.748  1.00  0.00     0.120 C 
BRANCH  28  29
HETATM   29  C20 UNL     1     -10.670  11.452  40.274  1.00  0.00     0.172 C 
HETATM   30  O2  UNL     1      -9.818  10.968  41.047  1.00  0.00    -0.648 OA
HETATM   31  O3  UNL     1     -10.283  11.632  38.934  1.00  0.00    -0.648 OA
ENDBRANCH  28  29
ENDBRANCH  22  28
ENDBRANCH  16  19
ENDBRANCH   9  11
ENDBRANCH   7   9
BRANCH   8  32
HETATM   32  C25 UNL     1      -7.855  12.978  48.443  1.00  0.00    -0.015 A 
HETATM   33  C26 UNL     1      -7.330  12.039  47.583  1.00  0.00     0.016 A 
HETATM   34  C27 UNL     1      -6.020  12.090  47.128  1.00  0.00     0.046 A 
HETATM   35  C28 UNL     1      -5.219  13.130  47.560  1.00  0.00     0.154 A 
HETATM   36  F4  UNL     1      -3.935  13.256  47.167  1.00  0.00    -0.203 F 
HETATM   37  C29 UNL     1      -5.743  14.068  48.419  1.00  0.00     0.155 A 
HETATM   38  F5  UNL     1      -4.997  15.121  48.881  1.00  0.00    -0.203 F 
HETATM   39  C30 UNL     1      -7.045  14.007  48.864  1.00  0.00     0.058 A 
ENDBRANCH   8  32
BRANCH   1  40
HETATM   40  N2  UNL     1      -8.882  10.846  49.868  1.00  0.00    -0.375 N 
ATOM     41  H2  UNL     1      -8.579  10.282  49.074  1.00  0.00     0.161 HD
BRANCH  40  42
HETATM   42  C6  UNL     1      -8.335  10.497  51.136  1.00  0.00     0.128 C 
BRANCH  42  43
HETATM   43  C5  UNL     1      -7.302  11.477  51.634  1.00  0.00     0.096 C 
BRANCH  43  44
HETATM   44  C4  UNL     1      -5.982  11.067  51.104  1.00  0.00     0.082 A 
HETATM   45  N1  UNL     1      -5.803   9.779  50.690  1.00  0.00    -0.355 N 
HETATM   46  C3  UNL     1      -4.637   9.336  50.199  1.00  0.00     0.097 A 
ATOM     47  H1  UNL     1      -6.585   9.128  50.758  1.00  0.00     0.166 HD
HETATM   48  C2  UNL     1      -3.578  10.224  50.110  1.00  0.00    -0.031 A 
HETATM   49  C1  UNL     1      -2.256   9.794  49.572  1.00  0.00     0.051 C 
HETATM   50  C31 UNL     1      -3.730  11.516  50.517  1.00  0.00     0.097 A 
HETATM   51  N6  UNL     1      -4.932  11.883  50.999  1.00  0.00    -0.355 N 
ATOM     52  H6  UNL     1      -5.048  12.850  51.303  1.00  0.00     0.166 HD
ENDBRANCH  43  44
ENDBRANCH  42  43
ENDBRANCH  40  42
ENDBRANCH   1  40
TORSDOF 11
ENDMDL
MODEL 2
REMARK VINA RESULT: -6.238474344      4.269      9.443
REMARK  11 active torsions:
REMARK  status: ('A' for Active; 'I' for Inactive)
REMARK    1  A    between atoms: C4_6  and  C5_7 
REMARK    2  A    between atoms: C5_7  and  C6_8 
REMARK    3  A    between atoms: C6_8  and  N2_9 
REMARK    4  A    between atoms: N2_9  and  C7_11 
REMARK    5  A    between atoms: C9_17  and  N5_18 
REMARK    6  A    between atoms: N5_18  and  C10_20 
REMARK    7  A    between atoms: C14_25  and  C15_26 
REMARK    8  A    between atoms: C15_26  and  O1_27 
REMARK    9  A    between atoms: C18_31  and  C19_32 
REMARK   10  A    between atoms: C19_32  and  C20_33 
REMARK   11  A    between atoms: C24_41  and  C25_42 
ROOT
HETATM    1  C7  UNL     1     -10.745  13.986  46.173  1.00  0.00     0.117 A 
HETATM    2  N3  UNL     1     -11.635  13.585  45.255  1.00  0.00    -0.338 N 
ATOM      3  H3  UNL     1     -12.053  14.249  44.602  1.00  0.00     0.168 HD
HETATM    4  C8  UNL     1     -11.961  12.276  45.220  1.00  0.00     0.183 A 
HETATM    5  N4  UNL     1     -11.427  11.389  46.066  1.00  0.00    -0.338 N 
ATOM      6  H4  UNL     1     -11.707  10.410  46.001  1.00  0.00     0.168 HD
HETATM    7  C9  UNL     1     -10.524  11.755  47.007  1.00  0.00     0.121 A 
HETATM    8  C24 UNL     1     -10.182  13.073  47.058  1.00  0.00     0.062 A 
ENDROOT
BRANCH   7   9
HETATM    9  N5  UNL     1      -9.983  10.773  47.898  1.00  0.00    -0.337 N 
ATOM     10  H5  UNL     1     -10.487  10.499  48.742  1.00  0.00     0.167 HD
BRANCH   9  11
HETATM   11  C10 UNL     1      -8.723  10.186  47.575  1.00  0.00     0.112 A 
HETATM   12  C11 UNL     1      -8.560   9.544  46.367  1.00  0.00     0.146 A 
HETATM   13  F1  UNL     1      -9.633   9.493  45.515  1.00  0.00    -0.204 F 
HETATM   14  C12 UNL     1      -7.347   8.976  46.044  1.00  0.00     0.045 A 
HETATM   15  C13 UNL     1      -6.300   9.053  46.932  1.00  0.00     0.016 A 
HETATM   16  C14 UNL     1      -6.410   9.693  48.176  1.00  0.00     0.017 A 
HETATM   17  C23 UNL     1      -7.631  10.238  48.445  1.00  0.00     0.155 A 
HETATM   18  F3  UNL     1      -7.792  10.877  49.623  1.00  0.00    -0.203 F 
BRANCH  16  19
HETATM   19  C15 UNL     1      -5.257   9.713  49.065  1.00  0.00     0.090 C 
HETATM   20  C16 UNL     1      -5.657   8.932  50.316  1.00  0.00     0.043 C 
HETATM   21  C17 UNL     1      -4.540   8.911  51.333  1.00  0.00     0.011 C 
HETATM   22  C18 UNL     1      -4.285  10.355  51.673  1.00  0.00     0.030 C 
HETATM   23  C21 UNL     1      -3.587  10.914  50.451  1.00  0.00     0.177 C 
HETATM   24  F2  UNL     1      -2.584  10.046  50.044  1.00  0.00    -0.249 F 
HETATM   25  C22 UNL     1      -4.639  11.024  49.339  1.00  0.00     0.080 C 
BRANCH  19  26
HETATM   26  O1  UNL     1      -4.247   8.896  48.485  1.00  0.00    -0.385 OA
ATOM     27  H1  UNL     1      -4.258   9.043  47.546  1.00  0.00     0.211 HD
ENDBRANCH  19  26
BRANCH  22  28
HETATM   28  C19 UNL     1      -3.585  10.620  52.945  1.00  0.00     0.120 C 
BRANCH  28  29
HETATM   29  C20 UNL     1      -3.518  12.055  53.252  1.00  0.00     0.172 C 
HETATM   30  O2  UNL     1      -4.553  12.731  53.418  1.00  0.00    -0.648 OA
HETATM   31  O3  UNL     1      -2.290  12.730  53.373  1.00  0.00    -0.648 OA
ENDBRANCH  28  29
ENDBRANCH  22  28
ENDBRANCH  16  19
ENDBRANCH   9  11
ENDBRANCH   7   9
BRANCH   8  32
HETATM   32  C25 UNL     1      -9.208  13.472  48.071  1.00  0.00    -0.015 A 
HETATM   33  C26 UNL     1      -9.594  13.677  49.377  1.00  0.00     0.016 A 
HETATM   34  C27 UNL     1      -8.703  14.055  50.372  1.00  0.00     0.046 A 
HETATM   35  C28 UNL     1      -7.376  14.230  50.027  1.00  0.00     0.154 A 
HETATM   36  F4  UNL     1      -6.444  14.596  50.930  1.00  0.00    -0.203 F 
HETATM   37  C29 UNL     1      -6.990  14.025  48.722  1.00  0.00     0.155 A 
HETATM   38  F5  UNL     1      -5.688  14.184  48.322  1.00  0.00    -0.203 F 
HETATM   39  C30 UNL     1      -7.883  13.650  47.745  1.00  0.00     0.058 A 
ENDBRANCH   8  32
BRANCH   1  40
HETATM   40  N2  UNL     1     -10.379  15.212  46.274  1.00  0.00    -0.375 N 
ATOM     41  H2  UNL     1      -9.374  15.386  46.267  1.00  0.00     0.161 HD
BRANCH  40  42
HETATM   42  C6  UNL     1     -11.218  16.357  46.393  1.00  0.00     0.128 C 
BRANCH  42  43
HETATM   43  C5  UNL     1     -10.740  17.345  47.427  1.00  0.00     0.096 C 
BRANCH  43  44
HETATM   44  C4  UNL     1     -10.469  18.631  46.746  1.00  0.00     0.082 A 
HETATM   45  N1  UNL     1     -11.337  19.074  45.790  1.00  0.00    -0.355 N 
HETATM   46  C3  UNL     1     -11.157  20.228  45.133  1.00  0.00     0.097 A 
ATOM     47  H1  UNL     1     -12.152  18.505  45.567  1.00  0.00     0.166 HD
HETATM   48  C2  UNL     1     -10.047  20.997  45.439  1.00  0.00    -0.031 A 
HETATM   49  C1  UNL     1      -9.790  22.290  44.745  1.00  0.00     0.051 C 
HETATM   50  C31 UNL     1      -9.164  20.578  46.390  1.00  0.00     0.097 A 
HETATM   51  N6  UNL     1      -9.415  19.408  47.005  1.00  0.00    -0.355 N 
ATOM     52  H6  UNL     1      -8.756  19.094  47.717  1.00  0.00     0.166 HD
ENDBRANCH  43  44
ENDBRANCH  42  43
ENDBRANCH  40  42
ENDBRANCH   1  40
TORSDOF 11
ENDMDL
MODEL 3
REMARK VINA RESULT: -6.205962742      3.743      8.883
REMARK  11 active torsions:
REMARK  status: ('A' for Active; 'I' for Inactive)
REMARK    1  A    between atoms: C4_6  and  C5_7 
REMARK    2  A    between atoms: C5_7  and  C6_8 
REMARK    3  A    between atoms: C6_8  and  N2_9 
REMARK    4  A    between atoms: N2_9  and  C7_11 
REMARK    5  A    between atoms: C9_17  and  N5_18 
REMARK    6  A    between atoms: N5_18  and  C10_20 
REMARK    7  A    between atoms: C14_25  and  C15_26 
REMARK    8  A    between atoms: C15_26  and  O1_27 
REMARK    9  A    between atoms: C18_31  and  C19_32 
REMARK   10  A    between atoms: C19_32  and  C20_33 
REMARK   11  A    between atoms: C24_41  and  C25_42 
ROOT
HETATM    1  C7  UNL     1     -12.207  15.888  45.088  1.00  0.00     0.117 A 
HETATM    2  N3  UNL     1     -11.916  17.180  45.295  1.00  0.00    -0.338 N 
ATOM      3  H3  UNL     1     -12.024  17.869  44.551  1.00  0.00     0.168 HD
HETATM    4  C8  UNL     1     -11.476  17.542  46.519  1.00  0.00     0.183 A 
HETATM    5  N4  UNL     1     -11.326  16.655  47.509  1.00  0.00    -0.338 N 
ATOM      6  H4  UNL     1     -10.989  16.977  48.416  1.00  0.00     0.168 HD
HETATM    7  C9  UNL     1     -11.610  15.341  47.340  1.00  0.00     0.121 A 
HETATM    8  C24 UNL     1     -12.056  14.958  46.110  1.00  0.00     0.062 A 
ENDROOT
BRANCH   7   9
HETATM    9  N5  UNL     1     -11.428  14.426  48.425  1.00  0.00    -0.337 N 
ATOM     10  H5  UNL     1     -12.169  13.777  48.692  1.00  0.00     0.167 HD
BRANCH   9  11
HETATM   11  C10 UNL     1     -10.184  14.444  49.126  1.00  0.00     0.112 A 
HETATM   12  C11 UNL     1     -10.105  15.058  50.356  1.00  0.00     0.146 A 
HETATM   13  F1  UNL     1     -11.240  15.636  50.862  1.00  0.00    -0.204 F 
HETATM   14  C12 UNL     1      -8.911  15.079  51.043  1.00  0.00     0.045 A 
HETATM   15  C13 UNL     1      -7.799  14.485  50.493  1.00  0.00     0.016 A 
HETATM   16  C14 UNL     1      -7.821  13.847  49.244  1.00  0.00     0.017 A 
HETATM   17  C23 UNL     1      -9.029  13.856  48.608  1.00  0.00     0.155 A 
HETATM   18  F3  UNL     1      -9.113  13.247  47.406  1.00  0.00    -0.203 F 
BRANCH  16  19
HETATM   19  C15 UNL     1      -6.593  13.260  48.728  1.00  0.00     0.090 C 
HETATM   20  C16 UNL     1      -6.451  11.891  49.391  1.00  0.00     0.043 C 
HETATM   21  C17 UNL     1      -5.185  11.194  48.951  1.00  0.00     0.011 C 
HETATM   22  C18 UNL     1      -4.063  12.103  49.376  1.00  0.00     0.030 C 
HETATM   23  C21 UNL     1      -4.133  13.268  48.410  1.00  0.00     0.177 C 
HETATM   24  F2  UNL     1      -4.272  12.795  47.113  1.00  0.00    -0.249 F 
HETATM   25  C22 UNL     1      -5.375  14.089  48.782  1.00  0.00     0.080 C 
BRANCH  19  26
HETATM   26  O1  UNL     1      -6.809  12.935  47.360  1.00  0.00    -0.385 OA
ATOM     27  H1  UNL     1      -5.994  13.084  46.894  1.00  0.00     0.211 HD
ENDBRANCH  19  26
BRANCH  22  28
HETATM   28  C19 UNL     1      -2.726  11.491  49.491  1.00  0.00     0.120 C 
BRANCH  28  29
HETATM   29  C20 UNL     1      -2.794  10.087  49.918  1.00  0.00     0.172 C 
HETATM   30  O2  UNL     1      -2.792   9.777  51.126  1.00  0.00    -0.648 OA
HETATM   31  O3  UNL     1      -2.861   9.033  48.990  1.00  0.00    -0.648 OA
ENDBRANCH  28  29
ENDBRANCH  22  28
ENDBRANCH  16  19
ENDBRANCH   9  11
ENDBRANCH   7   9
BRANCH   8  32
HETATM   32  C25 UNL     1     -12.364  13.542  45.924  1.00  0.00    -0.015 A 
HETATM   33  C26 UNL     1     -13.592  13.034  46.285  1.00  0.00     0.016 A 
HETATM   34  C27 UNL     1     -13.927  11.697  46.125  1.00  0.00     0.046 A 
HETATM   35  C28 UNL     1     -12.983  10.848  45.580  1.00  0.00     0.154 A 
HETATM   36  F4  UNL     1     -13.224   9.536  45.390  1.00  0.00    -0.203 F 
HETATM   37  C29 UNL     1     -11.755  11.355  45.219  1.00  0.00     0.155 A 
HETATM   38  F5  UNL     1     -10.779  10.561  44.673  1.00  0.00    -0.203 F 
HETATM   39  C30 UNL     1     -11.435  12.684  45.382  1.00  0.00     0.058 A 
ENDBRANCH   8  32
BRANCH   1  40
HETATM   40  N2  UNL     1     -12.631  15.461  43.956  1.00  0.00    -0.375 N 
ATOM     41  H2  UNL     1     -13.515  14.953  43.967  1.00  0.00     0.161 HD
BRANCH  40  42
HETATM   42  C6  UNL     1     -12.008  15.617  42.685  1.00  0.00     0.128 C 
BRANCH  42  43
HETATM   43  C5  UNL     1     -10.699  14.878  42.563  1.00  0.00     0.096 C 
BRANCH  43  44
HETATM   44  C4  UNL     1     -10.828  13.887  41.471  1.00  0.00     0.082 A 
HETATM   45  N1  UNL     1     -10.408  12.605  41.682  1.00  0.00    -0.355 N 
HETATM   46  C3  UNL     1     -10.495  11.655  40.742  1.00  0.00     0.097 A 
ATOM     47  H1  UNL     1     -10.013  12.362  42.590  1.00  0.00     0.166 HD
HETATM   48  C2  UNL     1     -11.032  11.991  39.510  1.00  0.00    -0.031 A 
HETATM   49  C1  UNL     1     -11.156  10.980  38.423  1.00  0.00     0.051 C 
HETATM   50  C31 UNL     1     -11.459  13.263  39.272  1.00  0.00     0.097 A 
HETATM   51  N6  UNL     1     -11.338  14.161  40.269  1.00  0.00    -0.355 N 
ATOM     52  H6  UNL     1     -11.658  15.113  40.093  1.00  0.00     0.166 HD
ENDBRANCH  43  44
ENDBRANCH  42  43
ENDBRANCH  40  42
ENDBRANCH   1  40
TORSDOF 11
ENDMDL
MODEL 4
REMARK VINA RESULT: -6.192743263      2.587      4.065
REMARK  11 active torsions:
REMARK  status: ('A' for Active; 'I' for Inactive)
REMARK    1  A    between atoms: C4_6  and  C5_7 
REMARK    2  A    between atoms: C5_7  and  C6_8 
REMARK    3  A    between atoms: C6_8  and  N2_9 
REMARK    4  A    between atoms: N2_9  and  C7_11 
REMARK    5  A    between atoms: C9_17  and  N5_18 
REMARK    6  A    between atoms: N5_18  and  C10_20 
REMARK    7  A    between atoms: C14_25  and  C15_26 
REMARK    8  A    between atoms: C15_26  and  O1_27 
REMARK    9  A    between atoms: C18_31  and  C19_32 
REMARK   10  A    between atoms: C19_32  and  C20_33 
REMARK   11  A    between atoms: C24_41  and  C25_42 
ROOT
HETATM    1  C7  UNL     1      -8.123  13.881  47.785  1.00  0.00     0.117 A 
HETATM    2  N3  UNL     1      -8.719  15.074  47.653  1.00  0.00    -0.338 N 
ATOM      3  H3  UNL     1      -8.192  15.941  47.767  1.00  0.00     0.168 HD
HETATM    4  C8  UNL     1     -10.037  15.095  47.363  1.00  0.00     0.183 A 
HETATM    5  N4  UNL     1     -10.747  13.972  47.209  1.00  0.00    -0.338 N 
ATOM      6  H4  UNL     1     -11.741  14.039  46.992  1.00  0.00     0.168 HD
HETATM    7  C9  UNL     1     -10.181  12.747  47.334  1.00  0.00     0.121 A 
HETATM    8  C24 UNL     1      -8.851  12.707  47.627  1.00  0.00     0.062 A 
ENDROOT
BRANCH   7   9
HETATM    9  N5  UNL     1     -10.981  11.572  47.169  1.00  0.00    -0.337 N 
ATOM     10  H5  UNL     1     -11.505  11.182  47.953  1.00  0.00     0.167 HD
BRANCH   9  11
HETATM   11  C10 UNL     1     -11.027  10.959  45.881  1.00  0.00     0.112 A 
HETATM   12  C11 UNL     1     -10.708   9.625  45.751  1.00  0.00     0.146 A 
HETATM   13  F1  UNL     1     -10.352   8.934  46.880  1.00  0.00    -0.204 F 
HETATM   14  C12 UNL     1     -10.752   9.021  44.513  1.00  0.00     0.045 A 
HETATM   15  C13 UNL     1     -11.115   9.757  43.409  1.00  0.00     0.016 A 
HETATM   16  C14 UNL     1     -11.449  11.117  43.483  1.00  0.00     0.017 A 
HETATM   17  C23 UNL     1     -11.389  11.664  44.732  1.00  0.00     0.155 A 
HETATM   18  F3  UNL     1     -11.711  12.968  44.866  1.00  0.00    -0.203 F 
BRANCH  16  19
HETATM   19  C15 UNL     1     -11.804  11.825  42.262  1.00  0.00     0.090 C 
HETATM   20  C16 UNL     1     -12.067  10.759  41.199  1.00  0.00     0.043 C 
HETATM   21  C17 UNL     1     -12.417  11.382  39.868  1.00  0.00     0.011 C 
HETATM   22  C18 UNL     1     -11.222  12.216  39.492  1.00  0.00     0.030 C 
HETATM   23  C21 UNL     1     -11.284  13.409  40.424  1.00  0.00     0.177 C 
HETATM   24  F2  UNL     1     -12.576  13.913  40.456  1.00  0.00    -0.249 F 
HETATM   25  C22 UNL     1     -10.904  12.909  41.824  1.00  0.00     0.080 C 
BRANCH  19  26
HETATM   26  O1  UNL     1     -13.087  12.409  42.456  1.00  0.00    -0.385 OA
ATOM     27  H1  UNL     1     -13.413  12.682  41.606  1.00  0.00     0.211 HD
ENDBRANCH  19  26
BRANCH  22  28
HETATM   28  C19 UNL     1     -11.085  12.568  38.066  1.00  0.00     0.120 C 
BRANCH  28  29
HETATM   29  C20 UNL     1     -10.615  11.434  37.258  1.00  0.00     0.172 C 
HETATM   30  O2  UNL     1     -11.417  10.677  36.675  1.00  0.00    -0.648 OA
HETATM   31  O3  UNL     1      -9.246  11.150  37.106  1.00  0.00    -0.648 OA
ENDBRANCH  28  29
ENDBRANCH  22  28
ENDBRANCH  16  19
ENDBRANCH   9  11
ENDBRANCH   7   9
BRANCH   8  32
HETATM   32  C25 UNL     1      -8.237  11.388  47.763  1.00  0.00    -0.015 A 
HETATM   33  C26 UNL     1      -8.429  10.635  48.900  1.00  0.00     0.016 A 
HETATM   34  C27 UNL     1      -7.866   9.378  49.071  1.00  0.00     0.046 A 
HETATM   35  C28 UNL     1      -7.083   8.870  48.052  1.00  0.00     0.154 A 
HETATM   36  F4  UNL     1      -6.498   7.658  48.134  1.00  0.00    -0.203 F 
HETATM   37  C29 UNL     1      -6.890   9.622  46.915  1.00  0.00     0.155 A 
HETATM   38  F5  UNL     1      -6.124   9.170  45.872  1.00  0.00    -0.203 F 
HETATM   39  C30 UNL     1      -7.455  10.867  46.758  1.00  0.00     0.058 A 
ENDBRANCH   8  32
BRANCH   1  40
HETATM   40  N2  UNL     1      -6.875  13.773  48.060  1.00  0.00    -0.375 N 
ATOM     41  H2  UNL     1      -6.292  13.333  47.348  1.00  0.00     0.161 HD
BRANCH  40  42
HETATM   42  C6  UNL     1      -6.210  14.197  49.246  1.00  0.00     0.128 C 
BRANCH  42  43
HETATM   43  C5  UNL     1      -6.280  13.190  50.366  1.00  0.00     0.096 C 
BRANCH  43  44
HETATM   44  C4  UNL     1      -5.174  12.222  50.186  1.00  0.00     0.082 A 
HETATM   45  N1  UNL     1      -4.040  12.620  49.539  1.00  0.00    -0.355 N 
HETATM   46  C3  UNL     1      -2.998  11.801  49.340  1.00  0.00     0.097 A 
ATOM     47  H1  UNL     1      -3.983  13.578  49.193  1.00  0.00     0.166 HD
HETATM   48  C2  UNL     1      -3.081  10.501  49.811  1.00  0.00    -0.031 A 
HETATM   49  C1  UNL     1      -1.958   9.540  49.623  1.00  0.00     0.051 C 
HETATM   50  C31 UNL     1      -4.202  10.077  50.461  1.00  0.00     0.097 A 
HETATM   51  N6  UNL     1      -5.205  10.961  50.621  1.00  0.00    -0.355 N 
ATOM     52  H6  UNL     1      -6.044  10.646  51.107  1.00  0.00     0.166 HD
ENDBRANCH  43  44
ENDBRANCH  42  43
ENDBRANCH  40  42
ENDBRANCH   1  40
TORSDOF 11
ENDMDL
MODEL 5
REMARK VINA RESULT: -6.151263978      4.193      9.868
REMARK  11 active torsions:
REMARK  status: ('A' for Active; 'I' for Inactive)
REMARK    1  A    between atoms: C4_6  and  C5_7 
REMARK    2  A    between atoms: C5_7  and  C6_8 
REMARK    3  A    between atoms: C6_8  and  N2_9 
REMARK    4  A    between atoms: N2_9  and  C7_11 
REMARK    5  A    between atoms: C9_17  and  N5_18 
REMARK    6  A    between atoms: N5_18  and  C10_20 
REMARK    7  A    between atoms: C14_25  and  C15_26 
REMARK    8  A    between atoms: C15_26  and  O1_27 
REMARK    9  A    between atoms: C18_31  and  C19_32 
REMARK   10  A    between atoms: C19_32  and  C20_33 
REMARK   11  A    between atoms: C24_41  and  C25_42 
ROOT
HETATM    1  C7  UNL     1     -11.871  15.014  43.372  1.00  0.00     0.117 A 
HETATM    2  N3  UNL     1     -11.705  16.092  44.150  1.00  0.00    -0.338 N 
ATOM      3  H3  UNL     1     -11.638  17.026  43.747  1.00  0.00     0.168 HD
HETATM    4  C8  UNL     1     -11.630  15.903  45.484  1.00  0.00     0.183 A 
HETATM    5  N4  UNL     1     -11.715  14.687  46.035  1.00  0.00    -0.338 N 
ATOM      6  H4  UNL     1     -11.651  14.596  47.049  1.00  0.00     0.168 HD
HETATM    7  C9  UNL     1     -11.883  13.573  45.282  1.00  0.00     0.121 A 
HETATM    8  C24 UNL     1     -11.961  13.744  43.932  1.00  0.00     0.062 A 
ENDROOT
BRANCH   7   9
HETATM    9  N5  UNL     1     -11.960  12.290  45.913  1.00  0.00    -0.337 N 
ATOM     10  H5  UNL     1     -12.861  11.894  46.181  1.00  0.00     0.167 HD
BRANCH   9  11
HETATM   11  C10 UNL     1     -10.746  11.581  46.157  1.00  0.00     0.112 A 
HETATM   12  C11 UNL     1     -10.577  10.320  45.628  1.00  0.00     0.146 A 
HETATM   13  F1  UNL     1     -11.598   9.793  44.881  1.00  0.00    -0.204 F 
HETATM   14  C12 UNL     1      -9.408   9.626  45.854  1.00  0.00     0.045 A 
HETATM   15  C13 UNL     1      -8.413  10.198  46.612  1.00  0.00     0.016 A 
HETATM   16  C14 UNL     1      -8.531  11.477  47.175  1.00  0.00     0.017 A 
HETATM   17  C23 UNL     1      -9.708  12.119  46.919  1.00  0.00     0.155 A 
HETATM   18  F3  UNL     1      -9.874  13.358  47.428  1.00  0.00    -0.203 F 
BRANCH  16  19
HETATM   19  C15 UNL     1      -7.436  11.999  47.979  1.00  0.00     0.090 C 
HETATM   20  C16 UNL     1      -6.159  11.797  47.163  1.00  0.00     0.043 C 
HETATM   21  C17 UNL     1      -4.941  12.277  47.917  1.00  0.00     0.011 C 
HETATM   22  C18 UNL     1      -4.899  11.450  49.174  1.00  0.00     0.030 C 
HETATM   23  C21 UNL     1      -6.029  11.994  50.023  1.00  0.00     0.177 C 
HETATM   24  F2  UNL     1      -5.987  13.380  50.030  1.00  0.00    -0.249 F 
HETATM   25  C22 UNL     1      -7.343  11.534  49.376  1.00  0.00     0.080 C 
BRANCH  19  26
HETATM   26  O1  UNL     1      -7.567  13.414  48.026  1.00  0.00    -0.385 OA
ATOM     27  H1  UNL     1      -6.811  13.761  48.485  1.00  0.00     0.211 HD
ENDBRANCH  19  26
BRANCH  22  28
HETATM   28  C19 UNL     1      -3.600  11.373  49.869  1.00  0.00     0.120 C 
BRANCH  28  29
HETATM   29  C20 UNL     1      -3.092   9.997  49.945  1.00  0.00     0.172 C 
HETATM   30  O2  UNL     1      -2.326   9.639  50.861  1.00  0.00    -0.648 OA
HETATM   31  O3  UNL     1      -3.442   9.025  48.991  1.00  0.00    -0.648 OA
ENDBRANCH  28  29
ENDBRANCH  22  28
ENDBRANCH  16  19
ENDBRANCH   9  11
ENDBRANCH   7   9
BRANCH   8  32
HETATM   32  C25 UNL     1     -12.142  12.545  43.117  1.00  0.00    -0.015 A 
HETATM   33  C26 UNL     1     -13.374  11.937  43.023  1.00  0.00     0.016 A 
HETATM   34  C27 UNL     1     -13.591  10.798  42.260  1.00  0.00     0.046 A 
HETATM   35  C28 UNL     1     -12.521  10.261  41.570  1.00  0.00     0.154 A 
HETATM   36  F4  UNL     1     -12.643   9.157  40.806  1.00  0.00    -0.203 F 
HETATM   37  C29 UNL     1     -11.290  10.868  41.663  1.00  0.00     0.155 A 
HETATM   38  F5  UNL     1     -10.192  10.381  41.002  1.00  0.00    -0.203 F 
HETATM   39  C30 UNL     1     -11.087  11.998  42.423  1.00  0.00     0.058 A 
ENDBRANCH   8  32
BRANCH   1  40
HETATM   40  N2  UNL     1     -11.952  15.105  42.095  1.00  0.00    -0.375 N 
ATOM     41  H2  UNL     1     -12.884  15.003  41.693  1.00  0.00     0.161 HD
BRANCH  40  42
HETATM   42  C6  UNL     1     -10.889  15.333  41.175  1.00  0.00     0.128 C 
BRANCH  42  43
HETATM   43  C5  UNL     1     -11.356  15.528  39.754  1.00  0.00     0.096 C 
BRANCH  43  44
HETATM   44  C4  UNL     1     -11.701  14.201  39.195  1.00  0.00     0.082 A 
HETATM   45  N1  UNL     1     -12.969  13.721  39.352  1.00  0.00    -0.355 N 
HETATM   46  C3  UNL     1     -13.353  12.530  38.872  1.00  0.00     0.097 A 
ATOM     47  H1  UNL     1     -13.650  14.291  39.853  1.00  0.00     0.166 HD
HETATM   48  C2  UNL     1     -12.424  11.760  38.193  1.00  0.00    -0.031 A 
HETATM   49  C1  UNL     1     -12.788  10.428  37.635  1.00  0.00     0.051 C 
HETATM   50  C31 UNL     1     -11.150  12.215  38.022  1.00  0.00     0.097 A 
HETATM   51  N6  UNL     1     -10.842  13.422  38.533  1.00  0.00    -0.355 N 
ATOM     52  H6  UNL     1      -9.890  13.764  38.406  1.00  0.00     0.166 HD
ENDBRANCH  43  44
ENDBRANCH  42  43
ENDBRANCH  40  42
ENDBRANCH   1  40
TORSDOF 11
ENDMDL
