MODEL 1
REMARK VINA RESULT: -4.981043988      0.000      0.000
REMARK  13 active torsions:
REMARK  status: ('A' for Active; 'I' for Inactive)
REMARK    1  A    between atoms: O1_1  and  C1_3 
REMARK    2  A    between atoms: C2_4  and  O2_5 
REMARK    3  A    between atoms: C3_7  and  O3_8 
REMARK    4  A    between atoms: C4_10  and  C5_11 
REMARK    5  A    between atoms: C4_10  and  N1_20 
REMARK    6  A    between atoms: C5_11  and  O4_12 
REMARK    7  A    between atoms: O4_12  and  C6_13 
REMARK    8  A    between atoms: C6_13  and  C7_14 
REMARK    9  A    between atoms: N1_20  and  C13_22 
REMARK   10  A    between atoms: C18_28  and  C19_29 
REMARK   11  A    between atoms: C25_36  and  C26_37 
REMARK   12  A    between atoms: C26_37  and  C27_38 
REMARK   13  A    between atoms: C26_37  and  C31_44 
ROOT
HETATM    1  C1  UNL     1      -4.130  11.015  49.572  1.00  0.00     0.179 C 
HETATM    2  C2  UNL     1      -3.748   9.923  50.500  1.00  0.00     0.183 C 
HETATM    3  C3  UNL     1      -4.346   9.939  51.847  1.00  0.00     0.207 C 
HETATM    4  C4  UNL     1      -4.815  11.300  52.340  1.00  0.00     0.185 C 
HETATM    5  O5  UNL     1      -5.387  12.048  51.374  1.00  0.00    -0.347 OA
HETATM    6  C25 UNL     1      -4.742  12.213  50.179  1.00  0.00     0.175 C 
ENDROOT
BRANCH   4   7
HETATM    7  C5  UNL     1      -3.622  11.934  53.051  1.00  0.00     0.231 C 
BRANCH   7   8
HETATM    8  O4  UNL     1      -3.605  11.601  54.384  1.00  0.00    -0.382 OA
BRANCH   8   9
HETATM    9  C6  UNL     1      -2.404  11.246  54.915  1.00  0.00     0.206 C 
BRANCH   9  10
HETATM   10  C7  UNL     1      -1.830  12.443  55.618  1.00  0.00    -0.035 A 
HETATM   11  C8  UNL     1      -1.375  13.540  54.915  1.00  0.00     0.009 A 
HETATM   12  C9  UNL     1      -0.845  14.634  55.597  1.00  0.00     0.001 A 
HETATM   13  C10 UNL     1      -0.791  14.582  56.984  1.00  0.00     0.000 A 
HETATM   14  C11 UNL     1      -1.245  13.485  57.674  1.00  0.00     0.001 A 
HETATM   15  C12 UNL     1      -1.760  12.427  57.002  1.00  0.00     0.009 A 
ENDBRANCH   9  10
ENDBRANCH   8   9
ENDBRANCH   7   8
ENDBRANCH   4   7
BRANCH   4  16
HETATM   16  N1  UNL     1      -5.807  11.040  53.373  1.00  0.00    -0.354 N 
ATOM     17  H1  UNL     1      -5.528  10.412  54.126  1.00  0.00     0.163 HD
BRANCH  16  18
HETATM   18  C13 UNL     1      -7.107  11.563  53.442  1.00  0.00     0.041 A 
HETATM   19  C14 UNL     1      -8.131  11.003  52.735  1.00  0.00     0.033 A 
HETATM   20  C15 UNL     1      -9.446  11.462  52.816  1.00  0.00     0.044 A 
HETATM   21  C16 UNL     1      -9.747  12.524  53.635  1.00  0.00     0.117 A 
HETATM   22  F1  UNL     1     -11.038  12.971  53.714  1.00  0.00    -0.206 F 
HETATM   23  C17 UNL     1      -8.734  13.096  54.347  1.00  0.00     0.056 A 
HETATM   24  C18 UNL     1      -7.408  12.638  54.270  1.00  0.00     0.004 A 
BRANCH  24  25
HETATM   25  C19 UNL     1      -6.438  13.376  55.048  1.00  0.00    -0.024 A 
HETATM   26  C20 UNL     1      -6.147  13.020  56.335  1.00  0.00     0.012 A 
HETATM   27  C21 UNL     1      -5.211  13.719  57.105  1.00  0.00     0.001 A 
HETATM   28  C22 UNL     1      -4.556  14.797  56.571  1.00  0.00     0.000 A 
HETATM   29  C23 UNL     1      -4.838  15.165  55.279  1.00  0.00     0.001 A 
HETATM   30  C24 UNL     1      -5.767  14.459  54.535  1.00  0.00     0.012 A 
ENDBRANCH  24  25
ENDBRANCH  16  18
ENDBRANCH   4  16
BRANCH   3  31
HETATM   31  O3  UNL     1      -5.440   9.044  51.933  1.00  0.00    -0.388 OA
ATOM     32  H3  UNL     1      -6.069   9.330  52.584  1.00  0.00     0.210 HD
ENDBRANCH   3  31
BRANCH   2  33
HETATM   33  O2  UNL     1      -2.340   9.800  50.599  1.00  0.00    -0.390 OA
ATOM     34  H2  UNL     1      -2.045   9.913  51.495  1.00  0.00     0.210 HD
ENDBRANCH   2  33
BRANCH   6  35
HETATM   35  C26 UNL     1      -5.770  12.921  49.289  1.00  0.00     0.182 C 
BRANCH  35  36
HETATM   36  C27 UNL     1      -6.671  13.790  50.053  1.00  0.00     0.070 A 
HETATM   37  C28 UNL     1      -8.025  13.642  50.142  1.00  0.00     0.037 A 
HETATM   38  C29 UNL     1      -8.487  14.656  50.951  1.00  0.00     0.052 A 
HETATM   39  C30 UNL     1      -7.365  15.364  51.306  1.00  0.00     0.145 A 
HETATM   40 CL1  UNL     1      -7.430  16.786  52.354  1.00  0.00    -0.057 Cl
HETATM   41  O6  UNL     1      -6.306  14.830  50.761  1.00  0.00    -0.302 OA
ENDBRANCH  35  36
BRANCH  35  42
HETATM   42  C31 UNL     1      -5.224  13.511  48.044  1.00  0.00     0.399 C 
HETATM   43  F2  UNL     1      -6.137  14.515  47.654  1.00  0.00    -0.170 F 
HETATM   44  F3  UNL     1      -5.223  12.613  46.982  1.00  0.00    -0.170 F 
HETATM   45  F4  UNL     1      -4.027  14.175  48.150  1.00  0.00    -0.170 F 
ENDBRANCH  35  42
ENDBRANCH   6  35
BRANCH   1  46
HETATM   46  O1  UNL     1      -2.937  11.404  48.895  1.00  0.00    -0.390 OA
ATOM     47  H1  UNL     1      -2.808  12.326  49.087  1.00  0.00     0.210 HD
ENDBRANCH   1  46
TORSDOF 13
ENDMDL
MODEL 2
REMARK VINA RESULT: -4.975210536      3.917      6.150
REMARK  13 active torsions:
REMARK  status: ('A' for Active; 'I' for Inactive)
REMARK    1  A    between atoms: O1_1  and  C1_3 
REMARK    2  A    between atoms: C2_4  and  O2_5 
REMARK    3  A    between atoms: C3_7  and  O3_8 
REMARK    4  A    between atoms: C4_10  and  C5_11 
REMARK    5  A    between atoms: C4_10  and  N1_20 
REMARK    6  A    between atoms: C5_11  and  O4_12 
REMARK    7  A    between atoms: O4_12  and  C6_13 
REMARK    8  A    between atoms: C6_13  and  C7_14 
REMARK    9  A    between atoms: N1_20  and  C13_22 
REMARK   10  A    between atoms: C18_28  and  C19_29 
REMARK   11  A    between atoms: C25_36  and  C26_37 
REMARK   12  A    between atoms: C26_37  and  C27_38 
REMARK   13  A    between atoms: C26_37  and  C31_44 
ROOT
HETATM    1  C1  UNL     1      -3.903  11.781  49.245  1.00  0.00     0.179 C 
HETATM    2  C2  UNL     1      -3.309  10.474  49.620  1.00  0.00     0.183 C 
HETATM    3  C3  UNL     1      -4.182   9.289  49.546  1.00  0.00     0.207 C 
HETATM    4  C4  UNL     1      -5.674   9.566  49.651  1.00  0.00     0.185 C 
HETATM    5  O5  UNL     1      -6.055  10.685  49.002  1.00  0.00    -0.347 OA
HETATM    6  C25 UNL     1      -5.376  11.853  49.217  1.00  0.00     0.175 C 
ENDROOT
BRANCH   4   7
HETATM    7  C5  UNL     1      -6.018   9.512  51.138  1.00  0.00     0.231 C 
BRANCH   7   8
HETATM    8  O4  UNL     1      -7.116  10.290  51.420  1.00  0.00    -0.382 OA
BRANCH   8   9
HETATM    9  C6  UNL     1      -7.175  10.845  52.660  1.00  0.00     0.206 C 
BRANCH   9  10
HETATM   10  C7  UNL     1      -7.699  12.246  52.523  1.00  0.00    -0.035 A 
HETATM   11  C8  UNL     1      -9.052  12.516  52.566  1.00  0.00     0.009 A 
HETATM   12  C9  UNL     1      -9.506  13.826  52.432  1.00  0.00     0.001 A 
HETATM   13  C10 UNL     1      -8.567  14.834  52.258  1.00  0.00     0.000 A 
HETATM   14  C11 UNL     1      -7.223  14.556  52.215  1.00  0.00     0.001 A 
HETATM   15  C12 UNL     1      -6.791  13.278  52.347  1.00  0.00     0.009 A 
ENDBRANCH   9  10
ENDBRANCH   8   9
ENDBRANCH   7   8
ENDBRANCH   4   7
BRANCH   4  16
HETATM   16  N1  UNL     1      -6.345   8.427  49.041  1.00  0.00    -0.354 N 
ATOM     17  H1  UNL     1      -6.113   7.507  49.416  1.00  0.00     0.163 HD
BRANCH  16  18
HETATM   18  C13 UNL     1      -7.277   8.460  47.994  1.00  0.00     0.041 A 
HETATM   19  C14 UNL     1      -6.873   8.480  46.690  1.00  0.00     0.033 A 
HETATM   20  C15 UNL     1      -7.768   8.463  45.621  1.00  0.00     0.044 A 
HETATM   21  C16 UNL     1      -9.120   8.426  45.865  1.00  0.00     0.117 A 
HETATM   22  F1  UNL     1      -9.996   8.407  44.813  1.00  0.00    -0.206 F 
HETATM   23  C17 UNL     1      -9.540   8.407  47.163  1.00  0.00     0.056 A 
HETATM   24  C18 UNL     1      -8.644   8.425  48.244  1.00  0.00     0.004 A 
BRANCH  24  25
HETATM   25  C19 UNL     1      -9.242   8.449  49.561  1.00  0.00    -0.024 A 
HETATM   26  C20 UNL     1     -10.017   9.499  49.965  1.00  0.00     0.012 A 
HETATM   27  C21 UNL     1     -10.607   9.540  51.233  1.00  0.00     0.001 A 
HETATM   28  C22 UNL     1     -10.411   8.508  52.112  1.00  0.00     0.000 A 
HETATM   29  C23 UNL     1      -9.634   7.447  51.719  1.00  0.00     0.001 A 
HETATM   30  C24 UNL     1      -9.061   7.425  50.459  1.00  0.00     0.012 A 
ENDBRANCH  24  25
ENDBRANCH  16  18
ENDBRANCH   4  16
BRANCH   3  31
HETATM   31  O3  UNL     1      -3.958   8.559  48.353  1.00  0.00    -0.388 OA
ATOM     32  H3  UNL     1      -4.521   7.796  48.304  1.00  0.00     0.210 HD
ENDBRANCH   3  31
BRANCH   2  33
HETATM   33  O2  UNL     1      -2.686  10.536  50.891  1.00  0.00    -0.390 OA
ATOM     34  H2  UNL     1      -3.233  10.146  51.563  1.00  0.00     0.210 HD
ENDBRANCH   2  33
BRANCH   6  35
HETATM   35  C26 UNL     1      -5.945  12.820  48.172  1.00  0.00     0.182 C 
BRANCH  35  36
HETATM   36  C27 UNL     1      -7.397  12.689  48.018  1.00  0.00     0.070 A 
HETATM   37  C28 UNL     1      -8.330  13.117  48.918  1.00  0.00     0.037 A 
HETATM   38  C29 UNL     1      -9.565  12.805  48.395  1.00  0.00     0.052 A 
HETATM   39  C30 UNL     1      -9.297  12.199  47.193  1.00  0.00     0.145 A 
HETATM   40 CL1  UNL     1     -10.572  11.605  46.122  1.00  0.00    -0.057 Cl
HETATM   41  O6  UNL     1      -8.008  12.144  46.995  1.00  0.00    -0.302 OA
ENDBRANCH  35  36
BRANCH  35  42
HETATM   42  C31 UNL     1      -5.439  14.210  48.259  1.00  0.00     0.399 C 
HETATM   43  F2  UNL     1      -6.266  14.981  47.414  1.00  0.00    -0.170 F 
HETATM   44  F3  UNL     1      -4.165  14.351  47.720  1.00  0.00    -0.170 F 
HETATM   45  F4  UNL     1      -5.545  14.828  49.480  1.00  0.00    -0.170 F 
ENDBRANCH  35  42
ENDBRANCH   6  35
BRANCH   1  46
HETATM   46  O1  UNL     1      -3.416  12.730  50.192  1.00  0.00    -0.390 OA
ATOM     47  H1  UNL     1      -3.231  13.524  49.704  1.00  0.00     0.210 HD
ENDBRANCH   1  46
TORSDOF 13
ENDMDL
MODEL 3
REMARK VINA RESULT: -4.883221866      3.484      5.573
REMARK  13 active torsions:
REMARK  status: ('A' for Active; 'I' for Inactive)
REMARK    1  A    between atoms: O1_1  and  C1_3 
REMARK    2  A    between atoms: C2_4  and  O2_5 
REMARK    3  A    between atoms: C3_7  and  O3_8 
REMARK    4  A    between atoms: C4_10  and  C5_11 
REMARK    5  A    between atoms: C4_10  and  N1_20 
REMARK    6  A    between atoms: C5_11  and  O4_12 
REMARK    7  A    between atoms: O4_12  and  C6_13 
REMARK    8  A    between atoms: C6_13  and  C7_14 
REMARK    9  A    between atoms: N1_20  and  C13_22 
REMARK   10  A    between atoms: C18_28  and  C19_29 
REMARK   11  A    between atoms: C25_36  and  C26_37 
REMARK   12  A    between atoms: C26_37  and  C27_38 
REMARK   13  A    between atoms: C26_37  and  C31_44 
ROOT
HETATM    1  C1  UNL     1      -4.192  11.786  49.340  1.00  0.00     0.179 C 
HETATM    2  C2  UNL     1      -3.501  10.476  49.413  1.00  0.00     0.183 C 
HETATM    3  C3  UNL     1      -4.330   9.288  49.689  1.00  0.00     0.207 C 
HETATM    4  C4  UNL     1      -5.642   9.558  50.409  1.00  0.00     0.185 C 
HETATM    5  O5  UNL     1      -6.254  10.686  49.996  1.00  0.00    -0.347 OA
HETATM    6  C25 UNL     1      -5.543  11.853  49.929  1.00  0.00     0.175 C 
ENDROOT
BRANCH   4   7
HETATM    7  C5  UNL     1      -5.337   9.478  51.903  1.00  0.00     0.231 C 
BRANCH   7   8
HETATM    8  O4  UNL     1      -5.935  10.511  52.586  1.00  0.00    -0.382 OA
BRANCH   8   9
HETATM    9  C6  UNL     1      -6.538  10.201  53.765  1.00  0.00     0.206 C 
BRANCH   9  10
HETATM   10  C7  UNL     1      -7.997  10.538  53.648  1.00  0.00    -0.035 A 
HETATM   11  C8  UNL     1      -8.466  11.376  52.657  1.00  0.00     0.009 A 
HETATM   12  C9  UNL     1      -9.826  11.671  52.578  1.00  0.00     0.001 A 
HETATM   13  C10 UNL     1     -10.678  11.102  53.515  1.00  0.00     0.000 A 
HETATM   14  C11 UNL     1     -10.203  10.269  54.498  1.00  0.00     0.001 A 
HETATM   15  C12 UNL     1      -8.878   9.988  54.566  1.00  0.00     0.009 A 
ENDBRANCH   9  10
ENDBRANCH   8   9
ENDBRANCH   7   8
ENDBRANCH   4   7
BRANCH   4  16
HETATM   16  N1  UNL     1      -6.509   8.426  50.115  1.00  0.00    -0.354 N 
ATOM     17  H1  UNL     1      -6.168   7.758  49.424  1.00  0.00     0.163 HD
BRANCH  16  18
HETATM   18  C13 UNL     1      -7.764   8.157  50.682  1.00  0.00     0.041 A 
HETATM   19  C14 UNL     1      -7.885   7.356  51.779  1.00  0.00     0.033 A 
HETATM   20  C15 UNL     1      -9.107   7.105  52.402  1.00  0.00     0.044 A 
HETATM   21  C16 UNL     1     -10.254   7.679  51.907  1.00  0.00     0.117 A 
HETATM   22  F1  UNL     1     -11.452   7.433  52.521  1.00  0.00    -0.206 F 
HETATM   23  C17 UNL     1     -10.150   8.482  50.809  1.00  0.00     0.056 A 
HETATM   24  C18 UNL     1      -8.921   8.738  50.177  1.00  0.00     0.004 A 
BRANCH  24  25
HETATM   25  C19 UNL     1      -8.979   9.572  48.998  1.00  0.00    -0.024 A 
HETATM   26  C20 UNL     1      -8.444   9.155  47.811  1.00  0.00     0.012 A 
HETATM   27  C21 UNL     1      -8.491   9.946  46.658  1.00  0.00     0.001 A 
HETATM   28  C22 UNL     1      -9.085  11.180  46.698  1.00  0.00     0.000 A 
HETATM   29  C23 UNL     1      -9.626  11.610  47.884  1.00  0.00     0.001 A 
HETATM   30  C24 UNL     1      -9.570  10.812  49.013  1.00  0.00     0.012 A 
ENDBRANCH  24  25
ENDBRANCH  16  18
ENDBRANCH   4  16
BRANCH   3  31
HETATM   31  O3  UNL     1      -4.624   8.579  48.499  1.00  0.00    -0.388 OA
ATOM     32  H3  UNL     1      -5.485   8.182  48.538  1.00  0.00     0.210 HD
ENDBRANCH   3  31
BRANCH   2  33
HETATM   33  O2  UNL     1      -2.406  10.519  50.311  1.00  0.00    -0.390 OA
ATOM     34  H2  UNL     1      -2.509   9.888  51.014  1.00  0.00     0.210 HD
ENDBRANCH   2  33
BRANCH   6  35
HETATM   35  C26 UNL     1      -6.492  12.835  49.231  1.00  0.00     0.182 C 
BRANCH  35  36
HETATM   36  C27 UNL     1      -7.035  13.839  50.151  1.00  0.00     0.070 A 
HETATM   37  C28 UNL     1      -8.354  14.173  50.268  1.00  0.00     0.037 A 
HETATM   38  C29 UNL     1      -8.437  15.148  51.236  1.00  0.00     0.052 A 
HETATM   39  C30 UNL     1      -7.143  15.345  51.650  1.00  0.00     0.145 A 
HETATM   40 CL1  UNL     1      -6.713  16.518  52.902  1.00  0.00    -0.057 Cl
HETATM   41  O6  UNL     1      -6.335  14.559  50.992  1.00  0.00    -0.302 OA
ENDBRANCH  35  36
BRANCH  35  42
HETATM   42  C31 UNL     1      -6.011  13.358  47.931  1.00  0.00     0.399 C 
HETATM   43  F2  UNL     1      -7.084  14.094  47.385  1.00  0.00    -0.170 F 
HETATM   44  F3  UNL     1      -5.774  12.351  47.002  1.00  0.00    -0.170 F 
HETATM   45  F4  UNL     1      -4.979  14.263  47.975  1.00  0.00    -0.170 F 
ENDBRANCH  35  42
ENDBRANCH   6  35
BRANCH   1  46
HETATM   46  O1  UNL     1      -3.352  12.721  50.015  1.00  0.00    -0.390 OA
ATOM     47  H1  UNL     1      -3.033  13.321  49.351  1.00  0.00     0.210 HD
ENDBRANCH   1  46
TORSDOF 13
ENDMDL
MODEL 4
REMARK VINA RESULT: -4.773527100      2.430      4.550
REMARK  13 active torsions:
REMARK  status: ('A' for Active; 'I' for Inactive)
REMARK    1  A    between atoms: O1_1  and  C1_3 
REMARK    2  A    between atoms: C2_4  and  O2_5 
REMARK    3  A    between atoms: C3_7  and  O3_8 
REMARK    4  A    between atoms: C4_10  and  C5_11 
REMARK    5  A    between atoms: C4_10  and  N1_20 
REMARK    6  A    between atoms: C5_11  and  O4_12 
REMARK    7  A    between atoms: O4_12  and  C6_13 
REMARK    8  A    between atoms: C6_13  and  C7_14 
REMARK    9  A    between atoms: N1_20  and  C13_22 
REMARK   10  A    between atoms: C18_28  and  C19_29 
REMARK   11  A    between atoms: C25_36  and  C26_37 
REMARK   12  A    between atoms: C26_37  and  C27_38 
REMARK   13  A    between atoms: C26_37  and  C31_44 
ROOT
HETATM    1  C1  UNL     1      -4.857  13.086  48.753  1.00  0.00     0.179 C 
HETATM    2  C2  UNL     1      -3.770  12.082  48.649  1.00  0.00     0.183 C 
HETATM    3  C3  UNL     1      -3.883  10.874  49.486  1.00  0.00     0.207 C 
HETATM    4  C4  UNL     1      -4.740  11.019  50.734  1.00  0.00     0.185 C 
HETATM    5  O5  UNL     1      -5.844  11.769  50.537  1.00  0.00    -0.347 OA
HETATM    6  C25 UNL     1      -5.729  12.994  49.940  1.00  0.00     0.175 C 
ENDROOT
BRANCH   4   7
HETATM    7  C5  UNL     1      -3.807  11.493  51.846  1.00  0.00     0.231 C 
BRANCH   7   8
HETATM    8  O4  UNL     1      -4.397  12.476  52.602  1.00  0.00    -0.382 OA
BRANCH   8   9
HETATM    9  C6  UNL     1      -4.292  12.359  53.954  1.00  0.00     0.206 C 
BRANCH   9  10
HETATM   10  C7  UNL     1      -5.678  12.333  54.532  1.00  0.00    -0.035 A 
HETATM   11  C8  UNL     1      -5.910  11.913  55.826  1.00  0.00     0.009 A 
HETATM   12  C9  UNL     1      -7.209  11.897  56.332  1.00  0.00     0.001 A 
HETATM   13  C10 UNL     1      -8.243  12.313  55.503  1.00  0.00     0.000 A 
HETATM   14  C11 UNL     1      -8.002  12.729  54.217  1.00  0.00     0.001 A 
HETATM   15  C12 UNL     1      -6.735  12.741  53.734  1.00  0.00     0.009 A 
ENDBRANCH   9  10
ENDBRANCH   8   9
ENDBRANCH   7   8
ENDBRANCH   4   7
BRANCH   4  16
HETATM   16  N1  UNL     1      -5.155   9.673  51.103  1.00  0.00    -0.354 N 
ATOM     17  H1  UNL     1      -4.905   8.925  50.456  1.00  0.00     0.163 HD
BRANCH  16  18
HETATM   18  C13 UNL     1      -5.862   9.296  52.254  1.00  0.00     0.041 A 
HETATM   19  C14 UNL     1      -5.209   8.881  53.379  1.00  0.00     0.033 A 
HETATM   20  C15 UNL     1      -5.872   8.547  54.559  1.00  0.00     0.044 A 
HETATM   21  C16 UNL     1      -7.243   8.630  54.617  1.00  0.00     0.117 A 
HETATM   22  F1  UNL     1      -7.891   8.304  55.776  1.00  0.00    -0.206 F 
HETATM   23  C17 UNL     1      -7.911   9.043  53.500  1.00  0.00     0.056 A 
HETATM   24  C18 UNL     1      -7.248   9.380  52.309  1.00  0.00     0.004 A 
BRANCH  24  25
HETATM   25  C19 UNL     1      -8.095   9.755  51.198  1.00  0.00    -0.024 A 
HETATM   26  C20 UNL     1      -9.036  10.737  51.328  1.00  0.00     0.012 A 
HETATM   27  C21 UNL     1      -9.864  11.116  50.266  1.00  0.00     0.001 A 
HETATM   28  C22 UNL     1      -9.746  10.493  49.051  1.00  0.00     0.000 A 
HETATM   29  C23 UNL     1      -8.805   9.505  48.907  1.00  0.00     0.001 A 
HETATM   30  C24 UNL     1      -7.995   9.147  49.970  1.00  0.00     0.012 A 
ENDBRANCH  24  25
ENDBRANCH  16  18
ENDBRANCH   4  16
BRANCH   3  31
HETATM   31  O3  UNL     1      -4.379   9.777  48.741  1.00  0.00    -0.388 OA
ATOM     32  H3  UNL     1      -5.323   9.823  48.647  1.00  0.00     0.210 HD
ENDBRANCH   3  31
BRANCH   2  33
HETATM   33  O2  UNL     1      -2.498  12.678  48.830  1.00  0.00    -0.390 OA
ATOM     34  H2  UNL     1      -2.346  13.369  48.196  1.00  0.00     0.210 HD
ENDBRANCH   2  33
BRANCH   6  35
HETATM   35  C26 UNL     1      -7.177  13.437  49.700  1.00  0.00     0.182 C 
BRANCH  35  36
HETATM   36  C27 UNL     1      -7.595  14.506  50.612  1.00  0.00     0.070 A 
HETATM   37  C28 UNL     1      -8.851  14.660  51.127  1.00  0.00     0.037 A 
HETATM   38  C29 UNL     1      -8.820  15.777  51.931  1.00  0.00     0.052 A 
HETATM   39  C30 UNL     1      -7.528  16.234  51.852  1.00  0.00     0.145 A 
HETATM   40 CL1  UNL     1      -6.972  17.670  52.721  1.00  0.00    -0.057 Cl
HETATM   41  O6  UNL     1      -6.826  15.464  51.065  1.00  0.00    -0.302 OA
ENDBRANCH  35  36
BRANCH  35  42
HETATM   42  C31 UNL     1      -7.548  13.633  48.279  1.00  0.00     0.399 C 
HETATM   43  F2  UNL     1      -8.952  13.772  48.257  1.00  0.00    -0.170 F 
HETATM   44  F3  UNL     1      -7.299  12.508  47.500  1.00  0.00    -0.170 F 
HETATM   45  F4  UNL     1      -7.092  14.779  47.676  1.00  0.00    -0.170 F 
ENDBRANCH  35  42
ENDBRANCH   6  35
BRANCH   1  46
HETATM   46  O1  UNL     1      -4.224  14.365  48.747  1.00  0.00    -0.390 OA
ATOM     47  H1  UNL     1      -4.922  15.008  48.693  1.00  0.00     0.210 HD
ENDBRANCH   1  46
TORSDOF 13
ENDMDL
MODEL 5
REMARK VINA RESULT: -4.720352323      1.293      3.335
REMARK  13 active torsions:
REMARK  status: ('A' for Active; 'I' for Inactive)
REMARK    1  A    between atoms: O1_1  and  C1_3 
REMARK    2  A    between atoms: C2_4  and  O2_5 
REMARK    3  A    between atoms: C3_7  and  O3_8 
REMARK    4  A    between atoms: C4_10  and  C5_11 
REMARK    5  A    between atoms: C4_10  and  N1_20 
REMARK    6  A    between atoms: C5_11  and  O4_12 
REMARK    7  A    between atoms: O4_12  and  C6_13 
REMARK    8  A    between atoms: C6_13  and  C7_14 
REMARK    9  A    between atoms: N1_20  and  C13_22 
REMARK   10  A    between atoms: C18_28  and  C19_29 
REMARK   11  A    between atoms: C25_36  and  C26_37 
REMARK   12  A    between atoms: C26_37  and  C27_38 
REMARK   13  A    between atoms: C26_37  and  C31_44 
ROOT
HETATM    1  C1  UNL     1      -3.930  10.887  49.555  1.00  0.00     0.179 C 
HETATM    2  C2  UNL     1      -3.500   9.827  50.500  1.00  0.00     0.183 C 
HETATM    3  C3  UNL     1      -4.088   9.846  51.851  1.00  0.00     0.207 C 
HETATM    4  C4  UNL     1      -4.602  11.198  52.323  1.00  0.00     0.185 C 
HETATM    5  O5  UNL     1      -5.209  11.907  51.349  1.00  0.00    -0.347 OA
HETATM    6  C25 UNL     1      -4.581  12.073  50.146  1.00  0.00     0.175 C 
ENDROOT
BRANCH   4   7
HETATM    7  C5  UNL     1      -3.428  11.889  53.012  1.00  0.00     0.231 C 
BRANCH   7   8
HETATM    8  O4  UNL     1      -2.868  11.077  53.969  1.00  0.00    -0.382 OA
BRANCH   8   9
HETATM    9  C6  UNL     1      -2.270  11.692  55.025  1.00  0.00     0.206 C 
BRANCH   9  10
HETATM   10  C7  UNL     1      -3.324  11.997  56.050  1.00  0.00    -0.035 A 
HETATM   11  C8  UNL     1      -4.119  11.002  56.583  1.00  0.00     0.009 A 
HETATM   12  C9  UNL     1      -5.091  11.318  57.530  1.00  0.00     0.001 A 
HETATM   13  C10 UNL     1      -5.230  12.646  57.913  1.00  0.00     0.000 A 
HETATM   14  C11 UNL     1      -4.434  13.630  57.377  1.00  0.00     0.001 A 
HETATM   15  C12 UNL     1      -3.492  13.311  56.456  1.00  0.00     0.009 A 
ENDBRANCH   9  10
ENDBRANCH   8   9
ENDBRANCH   7   8
ENDBRANCH   4   7
BRANCH   4  16
HETATM   16  N1  UNL     1      -5.576  10.921  53.369  1.00  0.00    -0.354 N 
ATOM     17  H1  UNL     1      -5.426  10.077  53.921  1.00  0.00     0.163 HD
BRANCH  16  18
HETATM   18  C13 UNL     1      -6.699  11.694  53.699  1.00  0.00     0.041 A 
HETATM   19  C14 UNL     1      -6.574  12.855  54.407  1.00  0.00     0.033 A 
HETATM   20  C15 UNL     1      -7.659  13.676  54.711  1.00  0.00     0.044 A 
HETATM   21  C16 UNL     1      -8.920  13.323  54.291  1.00  0.00     0.117 A 
HETATM   22  F1  UNL     1      -9.982  14.132  54.588  1.00  0.00    -0.206 F 
HETATM   23  C17 UNL     1      -9.061  12.165  53.583  1.00  0.00     0.056 A 
HETATM   24  C18 UNL     1      -7.972  11.333  53.274  1.00  0.00     0.004 A 
BRANCH  24  25
HETATM   25  C19 UNL     1      -8.288  10.117  52.558  1.00  0.00    -0.024 A 
HETATM   26  C20 UNL     1      -8.338  10.094  51.193  1.00  0.00     0.012 A 
HETATM   27  C21 UNL     1      -8.639   8.928  50.481  1.00  0.00     0.001 A 
HETATM   28  C22 UNL     1      -8.899   7.763  51.155  1.00  0.00     0.000 A 
HETATM   29  C23 UNL     1      -8.853   7.773  52.526  1.00  0.00     0.001 A 
HETATM   30  C24 UNL     1      -8.551   8.937  53.211  1.00  0.00     0.012 A 
ENDBRANCH  24  25
ENDBRANCH  16  18
ENDBRANCH   4  16
BRANCH   3  31
HETATM   31  O3  UNL     1      -5.148   8.914  51.964  1.00  0.00    -0.388 OA
ATOM     32  H3  UNL     1      -5.417   8.593  51.112  1.00  0.00     0.210 HD
ENDBRANCH   3  31
BRANCH   2  33
HETATM   33  O2  UNL     1      -2.088   9.757  50.589  1.00  0.00    -0.390 OA
ATOM     34  H2  UNL     1      -1.811   9.024  51.126  1.00  0.00     0.210 HD
ENDBRANCH   2  33
BRANCH   6  35
HETATM   35  C26 UNL     1      -5.641  12.727  49.251  1.00  0.00     0.182 C 
BRANCH  35  36
HETATM   36  C27 UNL     1      -6.563  13.580  50.007  1.00  0.00     0.070 A 
HETATM   37  C28 UNL     1      -7.923  13.451  50.029  1.00  0.00     0.037 A 
HETATM   38  C29 UNL     1      -8.407  14.441  50.854  1.00  0.00     0.052 A 
HETATM   39  C30 UNL     1      -7.292  15.116  51.286  1.00  0.00     0.145 A 
HETATM   40 CL1  UNL     1      -7.385  16.499  52.384  1.00  0.00    -0.057 Cl
HETATM   41  O6  UNL     1      -6.217  14.587  50.770  1.00  0.00    -0.302 OA
ENDBRANCH  35  36
BRANCH  35  42
HETATM   42  C31 UNL     1      -5.128  13.307  47.989  1.00  0.00     0.399 C 
HETATM   43  F2  UNL     1      -6.011  14.356  47.654  1.00  0.00    -0.170 F 
HETATM   44  F3  UNL     1      -5.217  12.425  46.918  1.00  0.00    -0.170 F 
HETATM   45  F4  UNL     1      -3.899  13.916  48.046  1.00  0.00    -0.170 F 
ENDBRANCH  35  42
ENDBRANCH   6  35
BRANCH   1  46
HETATM   46  O1  UNL     1      -2.757  11.307  48.861  1.00  0.00    -0.390 OA
ATOM     47  H1  UNL     1      -2.374  12.004  49.380  1.00  0.00     0.210 HD
ENDBRANCH   1  46
TORSDOF 13
ENDMDL
