MODEL 1
REMARK VINA RESULT: -6.099009945      0.000      0.000
REMARK  11 active torsions:
REMARK  status: ('A' for Active; 'I' for Inactive)
REMARK    1  A    between atoms: C2_2  and  C4_4 
REMARK    2  A    between atoms: C7_7  and  C8_8 
REMARK    3  A    between atoms: C8_8  and  N1_9 
REMARK    4  A    between atoms: N1_9  and  S1_11 
REMARK    5  A    between atoms: S1_11  and  C9_14 
REMARK    6  A    between atoms: C14_19  and  C15_20 
REMARK    7  A    between atoms: C18_23  and  N2_24 
REMARK       I    between atoms: N2_24  and  C19_26 
REMARK    8  A    between atoms: C19_26  and  C20_28 
REMARK    9  A    between atoms: C21_29  and  O4_30 
REMARK   10  A    between atoms: N3_33  and  C23_34 
REMARK   11  A    between atoms: C25_39  and  C26_40 
ROOT
HETATM    1  C15 UNL     1     -11.425  16.145  47.887  1.00  0.00    -0.021 A 
HETATM    2  C16 UNL     1     -10.481  15.996  46.906  1.00  0.00     0.014 A 
HETATM    3  C17 UNL     1      -9.359  15.146  47.060  1.00  0.00     0.034 A 
HETATM    4  C18 UNL     1      -9.192  14.442  48.209  1.00  0.00     0.074 A 
HETATM    5  C27 UNL     1     -10.182  14.621  49.191  1.00  0.00     0.143 A 
HETATM    6  F5  UNL     1     -10.025  13.915  50.352  1.00  0.00    -0.204 F 
HETATM    7  C28 UNL     1     -11.262  15.438  49.045  1.00  0.00     0.057 A 
ENDROOT
BRANCH   1   8
HETATM    8  C14 UNL     1     -12.530  17.053  47.651  1.00  0.00    -0.003 A 
HETATM    9  C9  UNL     1     -12.403  18.401  47.826  1.00  0.00     0.090 A 
HETATM   10  C10 UNL     1     -13.480  19.271  47.561  1.00  0.00     0.026 A 
HETATM   11  C11 UNL     1     -14.656  18.726  47.122  1.00  0.00     0.002 A 
HETATM   12  C12 UNL     1     -14.836  17.372  46.930  1.00  0.00     0.001 A 
HETATM   13  C13 UNL     1     -13.761  16.557  47.200  1.00  0.00     0.014 A 
BRANCH   9  14
HETATM   14  S1  UNL     1     -10.897  19.054  48.428  1.00  0.00     0.259 S 
HETATM   15  O1  UNL     1      -9.776  19.027  47.455  1.00  0.00    -0.201 OA
HETATM   16  O2  UNL     1     -11.153  20.547  48.701  1.00  0.00    -0.201 OA
BRANCH  14  17
HETATM   17  N1  UNL     1     -10.495  18.381  49.968  1.00  0.00    -0.313 N 
ATOM     18  H1  UNL     1     -10.720  17.430  50.259  1.00  0.00     0.172 HD
BRANCH  17  19
HETATM   19  C8  UNL     1      -9.796  19.348  50.794  1.00  0.00     0.165 C 
BRANCH  19  20
HETATM   20  C7  UNL     1      -9.308  18.746  52.079  1.00  0.00     0.204 C 
HETATM   21  C6  UNL     1      -8.724  19.793  52.985  1.00  0.00     0.037 C 
HETATM   22  C5  UNL     1      -7.568  19.194  53.714  1.00  0.00     0.035 C 
HETATM   23  C4  UNL     1      -7.562  17.765  53.190  1.00  0.00     0.189 C 
HETATM   24  N4  UNL     1      -8.253  17.794  51.935  1.00  0.00    -0.065 N 
ATOM     25  H42 UNL     1      -7.643  17.984  51.141  1.00  0.00     0.278 HD
ATOM     26  H41 UNL     1      -8.575  16.876  51.629  1.00  0.00     0.278 HD
BRANCH  23  27
HETATM   27  C2  UNL     1      -6.120  17.342  53.080  1.00  0.00     0.008 C 
HETATM   28  C1  UNL     1      -5.575  17.219  54.497  1.00  0.00     0.011 C 
HETATM   29  C3  UNL     1      -5.259  18.359  52.382  1.00  0.00     0.011 C 
ENDBRANCH  23  27
ENDBRANCH  19  20
ENDBRANCH  17  19
ENDBRANCH  14  17
ENDBRANCH   9  14
ENDBRANCH   1   8
BRANCH   4  30
HETATM   30  N2  UNL     1      -8.091  13.587  48.474  1.00  0.00    -0.320 N 
HETATM   31  C19 UNL     1      -6.999  13.823  49.306  1.00  0.00     0.260 C 
HETATM   32  O3  UNL     1      -6.976  14.927  49.885  1.00  0.00    -0.267 OA
ATOM     33  H2  UNL     1      -8.100  12.687  47.995  1.00  0.00     0.169 HD
BRANCH  31  34
HETATM   34  C20 UNL     1      -5.907  12.912  49.554  1.00  0.00     0.084 A 
HETATM   35  C21 UNL     1      -6.024  11.831  50.439  1.00  0.00     0.098 A 
HETATM   36  C22 UNL     1      -4.936  10.993  50.632  1.00  0.00     0.137 A 
HETATM   37  N3  UNL     1      -3.760  11.132  50.030  1.00  0.00    -0.264 N 
HETATM   38  C24 UNL     1      -3.617  12.140  49.191  1.00  0.00     0.264 A 
HETATM   39  O5  UNL     1      -2.534  12.323  48.595  1.00  0.00    -0.267 OA
HETATM   40  C25 UNL     1      -4.671  13.044  48.933  1.00  0.00     0.092 A 
BRANCH  35  41
HETATM   41  O4  UNL     1      -7.188  11.570  51.130  1.00  0.00    -0.358 OA
ATOM     42  H4  UNL     1      -7.943  11.168  50.716  1.00  0.00     0.217 HD
ENDBRANCH  35  41
BRANCH  37  43
HETATM   43  C23 UNL     1      -2.659  10.189  50.301  1.00  0.00     0.467 C 
HETATM   44  F1  UNL     1      -2.682   9.259  49.285  1.00  0.00    -0.190 F 
HETATM   45  F2  UNL     1      -2.875   9.574  51.532  1.00  0.00    -0.190 F 
ENDBRANCH  37  43
BRANCH  40  46
HETATM   46  C26 UNL     1      -4.360  14.100  47.969  1.00  0.00     0.393 C 
HETATM   47  F3  UNL     1      -5.533  14.215  47.159  1.00  0.00    -0.209 F 
HETATM   48  F4  UNL     1      -4.362  15.363  48.646  1.00  0.00    -0.209 F 
ENDBRANCH  40  46
ENDBRANCH  31  34
ENDBRANCH   4  30
TORSDOF 11
ENDMDL
MODEL 2
REMARK VINA RESULT: -6.038027336      4.321      7.224
REMARK  11 active torsions:
REMARK  status: ('A' for Active; 'I' for Inactive)
REMARK    1  A    between atoms: C2_2  and  C4_4 
REMARK    2  A    between atoms: C7_7  and  C8_8 
REMARK    3  A    between atoms: C8_8  and  N1_9 
REMARK    4  A    between atoms: N1_9  and  S1_11 
REMARK    5  A    between atoms: S1_11  and  C9_14 
REMARK    6  A    between atoms: C14_19  and  C15_20 
REMARK    7  A    between atoms: C18_23  and  N2_24 
REMARK       I    between atoms: N2_24  and  C19_26 
REMARK    8  A    between atoms: C19_26  and  C20_28 
REMARK    9  A    between atoms: C21_29  and  O4_30 
REMARK   10  A    between atoms: N3_33  and  C23_34 
REMARK   11  A    between atoms: C25_39  and  C26_40 
ROOT
HETATM    1  C15 UNL     1     -11.600  15.020  47.171  1.00  0.00    -0.021 A 
HETATM    2  C16 UNL     1     -11.651  13.769  47.726  1.00  0.00     0.014 A 
HETATM    3  C17 UNL     1     -10.482  13.027  48.026  1.00  0.00     0.034 A 
HETATM    4  C18 UNL     1      -9.258  13.553  47.765  1.00  0.00     0.074 A 
HETATM    5  C27 UNL     1      -9.248  14.839  47.197  1.00  0.00     0.143 A 
HETATM    6  F5  UNL     1      -8.019  15.379  46.932  1.00  0.00    -0.204 F 
HETATM    7  C28 UNL     1     -10.370  15.554  46.908  1.00  0.00     0.057 A 
ENDROOT
BRANCH   1   8
HETATM    8  C14 UNL     1     -12.848  15.697  46.878  1.00  0.00    -0.003 A 
HETATM    9  C9  UNL     1     -13.460  15.583  45.664  1.00  0.00     0.090 A 
HETATM   10  C10 UNL     1     -14.690  16.224  45.410  1.00  0.00     0.026 A 
HETATM   11  C11 UNL     1     -15.252  16.964  46.415  1.00  0.00     0.002 A 
HETATM   12  C12 UNL     1     -14.673  17.112  47.658  1.00  0.00     0.001 A 
HETATM   13  C13 UNL     1     -13.474  16.469  47.867  1.00  0.00     0.014 A 
BRANCH   9  14
HETATM   14  S1  UNL     1     -12.690  14.663  44.393  1.00  0.00     0.259 S 
HETATM   15  O1  UNL     1     -12.165  13.340  44.814  1.00  0.00    -0.201 OA
HETATM   16  O2  UNL     1     -13.789  14.347  43.363  1.00  0.00    -0.201 OA
BRANCH  14  17
HETATM   17  N1  UNL     1     -11.539  15.626  43.535  1.00  0.00    -0.313 N 
ATOM     18  H1  UNL     1     -10.635  15.915  43.910  1.00  0.00     0.172 HD
BRANCH  17  19
HETATM   19  C8  UNL     1     -12.026  15.969  42.212  1.00  0.00     0.165 C 
BRANCH  19  20
HETATM   20  C7  UNL     1     -11.280  15.245  41.129  1.00  0.00     0.204 C 
HETATM   21  C6  UNL     1     -11.466  15.916  39.798  1.00  0.00     0.037 C 
HETATM   22  C5  UNL     1     -11.524  14.862  38.743  1.00  0.00     0.035 C 
HETATM   23  C4  UNL     1     -11.332  13.587  39.551  1.00  0.00     0.189 C 
HETATM   24  N4  UNL     1     -11.709  13.903  40.896  1.00  0.00    -0.065 N 
ATOM     25  H42 UNL     1     -12.701  13.757  41.084  1.00  0.00     0.278 HD
ATOM     26  H41 UNL     1     -11.352  13.239  41.583  1.00  0.00     0.278 HD
BRANCH  23  27
HETATM   27  C2  UNL     1     -12.192  12.527  38.912  1.00  0.00     0.008 C 
HETATM   28  C1  UNL     1     -11.329  11.802  37.886  1.00  0.00     0.011 C 
HETATM   29  C3  UNL     1     -13.362  13.094  38.157  1.00  0.00     0.011 C 
ENDBRANCH  23  27
ENDBRANCH  19  20
ENDBRANCH  17  19
ENDBRANCH  14  17
ENDBRANCH   9  14
ENDBRANCH   1   8
BRANCH   4  30
HETATM   30  N2  UNL     1      -8.030  12.883  48.000  1.00  0.00    -0.320 N 
HETATM   31  C19 UNL     1      -7.268  12.864  49.167  1.00  0.00     0.260 C 
HETATM   32  O3  UNL     1      -7.712  13.528  50.124  1.00  0.00    -0.267 OA
ATOM     33  H2  UNL     1      -7.657  12.347  47.217  1.00  0.00     0.169 HD
BRANCH  31  34
HETATM   34  C20 UNL     1      -6.028  12.151  49.361  1.00  0.00     0.084 A 
HETATM   35  C21 UNL     1      -5.979  10.895  49.981  1.00  0.00     0.098 A 
HETATM   36  C22 UNL     1      -4.753  10.264  50.136  1.00  0.00     0.137 A 
HETATM   37  N3  UNL     1      -3.590  10.765  49.734  1.00  0.00    -0.264 N 
HETATM   38  C24 UNL     1      -3.602  11.946  49.148  1.00  0.00     0.264 A 
HETATM   39  O5  UNL     1      -2.540  12.469  48.748  1.00  0.00    -0.267 OA
HETATM   40  C25 UNL     1      -4.804  12.662  48.947  1.00  0.00     0.092 A 
BRANCH  35  41
HETATM   41  O4  UNL     1      -7.111  10.260  50.445  1.00  0.00    -0.358 OA
ATOM     42  H4  UNL     1      -7.287  10.153  51.373  1.00  0.00     0.217 HD
ENDBRANCH  35  41
BRANCH  37  43
HETATM   43  C23 UNL     1      -2.336  10.019  49.945  1.00  0.00     0.467 C 
HETATM   44  F1  UNL     1      -2.313   9.018  48.999  1.00  0.00    -0.190 F 
HETATM   45  F2  UNL     1      -2.335   9.478  51.229  1.00  0.00    -0.190 F 
ENDBRANCH  37  43
BRANCH  40  46
HETATM   46  C26 UNL     1      -4.653  13.950  48.271  1.00  0.00     0.393 C 
HETATM   47  F3  UNL     1      -5.452  13.842  47.091  1.00  0.00    -0.209 F 
HETATM   48  F4  UNL     1      -5.373  14.948  49.006  1.00  0.00    -0.209 F 
ENDBRANCH  40  46
ENDBRANCH  31  34
ENDBRANCH   4  30
TORSDOF 11
ENDMDL
MODEL 3
REMARK VINA RESULT: -5.933798652      4.584      7.473
REMARK  11 active torsions:
REMARK  status: ('A' for Active; 'I' for Inactive)
REMARK    1  A    between atoms: C2_2  and  C4_4 
REMARK    2  A    between atoms: C7_7  and  C8_8 
REMARK    3  A    between atoms: C8_8  and  N1_9 
REMARK    4  A    between atoms: N1_9  and  S1_11 
REMARK    5  A    between atoms: S1_11  and  C9_14 
REMARK    6  A    between atoms: C14_19  and  C15_20 
REMARK    7  A    between atoms: C18_23  and  N2_24 
REMARK       I    between atoms: N2_24  and  C19_26 
REMARK    8  A    between atoms: C19_26  and  C20_28 
REMARK    9  A    between atoms: C21_29  and  O4_30 
REMARK   10  A    between atoms: N3_33  and  C23_34 
REMARK   11  A    between atoms: C25_39  and  C26_40 
ROOT
HETATM    1  C15 UNL     1     -11.861  15.071  46.718  1.00  0.00    -0.021 A 
HETATM    2  C16 UNL     1     -11.935  13.993  47.560  1.00  0.00     0.014 A 
HETATM    3  C17 UNL     1     -10.783  13.412  48.145  1.00  0.00     0.034 A 
HETATM    4  C18 UNL     1      -9.553  13.923  47.880  1.00  0.00     0.074 A 
HETATM    5  C27 UNL     1      -9.521  15.029  47.013  1.00  0.00     0.143 A 
HETATM    6  F5  UNL     1      -8.287  15.555  46.740  1.00  0.00    -0.204 F 
HETATM    7  C28 UNL     1     -10.626  15.590  46.449  1.00  0.00     0.057 A 
ENDROOT
BRANCH   1   8
HETATM    8  C14 UNL     1     -13.090  15.587  46.148  1.00  0.00    -0.003 A 
HETATM    9  C9  UNL     1     -13.514  15.222  44.903  1.00  0.00     0.090 A 
HETATM   10  C10 UNL     1     -14.729  15.711  44.380  1.00  0.00     0.026 A 
HETATM   11  C11 UNL     1     -15.470  16.561  45.155  1.00  0.00     0.002 A 
HETATM   12  C12 UNL     1     -15.085  16.961  46.417  1.00  0.00     0.001 A 
HETATM   13  C13 UNL     1     -13.894  16.461  46.893  1.00  0.00     0.014 A 
BRANCH   9  14
HETATM   14  S1  UNL     1     -12.519  14.168  43.928  1.00  0.00     0.259 S 
HETATM   15  O1  UNL     1     -12.077  12.925  44.609  1.00  0.00    -0.201 OA
HETATM   16  O2  UNL     1     -13.406  13.691  42.764  1.00  0.00    -0.201 OA
BRANCH  14  17
HETATM   17  N1  UNL     1     -11.231  15.042  43.177  1.00  0.00    -0.313 N 
ATOM     18  H1  UNL     1     -10.273  15.072  43.526  1.00  0.00     0.172 HD
BRANCH  17  19
HETATM   19  C8  UNL     1     -11.691  15.729  41.984  1.00  0.00     0.165 C 
BRANCH  19  20
HETATM   20  C7  UNL     1     -11.072  15.172  40.736  1.00  0.00     0.204 C 
HETATM   21  C6  UNL     1     -11.310  16.075  39.559  1.00  0.00     0.037 C 
HETATM   22  C5  UNL     1     -11.509  15.227  38.347  1.00  0.00     0.035 C 
HETATM   23  C4  UNL     1     -11.342  13.822  38.906  1.00  0.00     0.189 C 
HETATM   24  N4  UNL     1     -11.601  13.914  40.312  1.00  0.00    -0.065 N 
ATOM     25  H42 UNL     1     -12.584  13.788  40.552  1.00  0.00     0.278 HD
ATOM     26  H41 UNL     1     -11.238  13.123  40.843  1.00  0.00     0.278 HD
BRANCH  23  27
HETATM   27  C2  UNL     1     -12.311  12.936  38.167  1.00  0.00     0.008 C 
HETATM   28  C1  UNL     1     -13.591  12.877  38.992  1.00  0.00     0.011 C 
HETATM   29  C3  UNL     1     -11.828  11.518  38.033  1.00  0.00     0.011 C 
ENDBRANCH  23  27
ENDBRANCH  19  20
ENDBRANCH  17  19
ENDBRANCH  14  17
ENDBRANCH   9  14
ENDBRANCH   1   8
BRANCH   4  30
HETATM   30  N2  UNL     1      -8.339  13.399  48.391  1.00  0.00    -0.320 N 
HETATM   31  C19 UNL     1      -7.618  12.296  47.935  1.00  0.00     0.260 C 
HETATM   32  O3  UNL     1      -8.103  11.684  46.964  1.00  0.00    -0.267 OA
ATOM     33  H2  UNL     1      -7.943  13.889  49.192  1.00  0.00     0.169 HD
BRANCH  31  34
HETATM   34  C20 UNL     1      -6.374  11.809  48.483  1.00  0.00     0.084 A 
HETATM   35  C21 UNL     1      -6.271  10.553  49.096  1.00  0.00     0.098 A 
HETATM   36  C22 UNL     1      -5.045  10.146  49.602  1.00  0.00     0.137 A 
HETATM   37  N3  UNL     1      -3.931  10.866  49.553  1.00  0.00    -0.264 N 
HETATM   38  C24 UNL     1      -3.995  12.054  48.982  1.00  0.00     0.264 A 
HETATM   39  O5  UNL     1      -2.979  12.778  48.905  1.00  0.00    -0.267 OA
HETATM   40  C25 UNL     1      -5.201  12.551  48.439  1.00  0.00     0.092 A 
BRANCH  35  41
HETATM   41  O4  UNL     1      -7.349   9.702  49.216  1.00  0.00    -0.358 OA
ATOM     42  H4  UNL     1      -7.967   9.565  48.507  1.00  0.00     0.217 HD
ENDBRANCH  35  41
BRANCH  37  43
HETATM   43  C23 UNL     1      -2.673  10.348  50.121  1.00  0.00     0.467 C 
HETATM   44  F1  UNL     1      -2.172   9.449  49.206  1.00  0.00    -0.190 F 
HETATM   45  F2  UNL     1      -2.944   9.714  51.331  1.00  0.00    -0.190 F 
ENDBRANCH  37  43
BRANCH  40  46
HETATM   46  C26 UNL     1      -5.105  13.878  47.829  1.00  0.00     0.393 C 
HETATM   47  F3  UNL     1      -4.961  14.778  48.930  1.00  0.00    -0.209 F 
HETATM   48  F4  UNL     1      -3.828  14.006  47.193  1.00  0.00    -0.209 F 
ENDBRANCH  40  46
ENDBRANCH  31  34
ENDBRANCH   4  30
TORSDOF 11
ENDMDL
MODEL 4
REMARK VINA RESULT: -5.924415507      3.931      6.799
REMARK  11 active torsions:
REMARK  status: ('A' for Active; 'I' for Inactive)
REMARK    1  A    between atoms: C2_2  and  C4_4 
REMARK    2  A    between atoms: C7_7  and  C8_8 
REMARK    3  A    between atoms: C8_8  and  N1_9 
REMARK    4  A    between atoms: N1_9  and  S1_11 
REMARK    5  A    between atoms: S1_11  and  C9_14 
REMARK    6  A    between atoms: C14_19  and  C15_20 
REMARK    7  A    between atoms: C18_23  and  N2_24 
REMARK       I    between atoms: N2_24  and  C19_26 
REMARK    8  A    between atoms: C19_26  and  C20_28 
REMARK    9  A    between atoms: C21_29  and  O4_30 
REMARK   10  A    between atoms: N3_33  and  C23_34 
REMARK   11  A    between atoms: C25_39  and  C26_40 
ROOT
HETATM    1  C15 UNL     1     -11.785  15.752  47.390  1.00  0.00    -0.021 A 
HETATM    2  C16 UNL     1     -10.599  16.103  46.803  1.00  0.00     0.014 A 
HETATM    3  C17 UNL     1      -9.412  15.353  46.990  1.00  0.00     0.034 A 
HETATM    4  C18 UNL     1      -9.425  14.242  47.771  1.00  0.00     0.074 A 
HETATM    5  C27 UNL     1     -10.662  13.915  48.355  1.00  0.00     0.143 A 
HETATM    6  F5  UNL     1     -10.688  12.796  49.142  1.00  0.00    -0.204 F 
HETATM    7  C28 UNL     1     -11.804  14.635  48.176  1.00  0.00     0.057 A 
ENDROOT
BRANCH   1   8
HETATM    8  C14 UNL     1     -12.945  16.591  47.160  1.00  0.00    -0.003 A 
HETATM    9  C9  UNL     1     -13.749  16.422  46.071  1.00  0.00     0.090 A 
HETATM   10  C10 UNL     1     -14.892  17.228  45.883  1.00  0.00     0.026 A 
HETATM   11  C11 UNL     1     -15.170  18.182  46.823  1.00  0.00     0.002 A 
HETATM   12  C12 UNL     1     -14.389  18.392  47.940  1.00  0.00     0.001 A 
HETATM   13  C13 UNL     1     -13.284  17.585  48.088  1.00  0.00     0.014 A 
BRANCH   9  14
HETATM   14  S1  UNL     1     -13.336  15.221  44.871  1.00  0.00     0.259 S 
HETATM   15  O1  UNL     1     -13.110  13.856  45.410  1.00  0.00    -0.201 OA
HETATM   16  O2  UNL     1     -14.564  15.088  43.953  1.00  0.00    -0.201 OA
BRANCH  14  17
HETATM   17  N1  UNL     1     -12.066  15.778  43.840  1.00  0.00    -0.313 N 
ATOM     18  H1  UNL     1     -11.932  16.751  43.564  1.00  0.00     0.172 HD
BRANCH  17  19
HETATM   19  C8  UNL     1     -11.216  14.681  43.418  1.00  0.00     0.165 C 
BRANCH  19  20
HETATM   20  C7  UNL     1     -11.801  13.925  42.260  1.00  0.00     0.204 C 
HETATM   21  C6  UNL     1     -10.813  12.944  41.694  1.00  0.00     0.037 C 
HETATM   22  C5  UNL     1     -10.998  12.890  40.215  1.00  0.00     0.035 C 
HETATM   23  C4  UNL     1     -12.148  13.862  39.997  1.00  0.00     0.189 C 
HETATM   24  N4  UNL     1     -12.161  14.730  41.137  1.00  0.00    -0.065 N 
ATOM     25  H42 UNL     1     -11.572  15.555  41.024  1.00  0.00     0.278 HD
ATOM     26  H41 UNL     1     -13.046  15.223  41.259  1.00  0.00     0.278 HD
BRANCH  23  27
HETATM   27  C2  UNL     1     -11.884  14.572  38.695  1.00  0.00     0.008 C 
HETATM   28  C1  UNL     1     -11.092  15.833  39.019  1.00  0.00     0.011 C 
HETATM   29  C3  UNL     1     -13.142  15.027  38.008  1.00  0.00     0.011 C 
ENDBRANCH  23  27
ENDBRANCH  19  20
ENDBRANCH  17  19
ENDBRANCH  14  17
ENDBRANCH   9  14
ENDBRANCH   1   8
BRANCH   4  30
HETATM   30  N2  UNL     1      -8.288  13.440  48.045  1.00  0.00    -0.320 N 
HETATM   31  C19 UNL     1      -7.314  13.632  49.022  1.00  0.00     0.260 C 
HETATM   32  O3  UNL     1      -7.447  14.641  49.742  1.00  0.00    -0.267 OA
ATOM     33  H2  UNL     1      -8.168  12.619  47.452  1.00  0.00     0.169 HD
BRANCH  31  34
HETATM   34  C20 UNL     1      -6.179  12.775  49.271  1.00  0.00     0.084 A 
HETATM   35  C21 UNL     1      -6.291  11.579  49.993  1.00  0.00     0.098 A 
HETATM   36  C22 UNL     1      -5.161  10.802  50.196  1.00  0.00     0.137 A 
HETATM   37  N3  UNL     1      -3.947  11.104  49.750  1.00  0.00    -0.264 N 
HETATM   38  C24 UNL     1      -3.807  12.224  49.067  1.00  0.00     0.264 A 
HETATM   39  O5  UNL     1      -2.689  12.563  48.622  1.00  0.00    -0.267 OA
HETATM   40  C25 UNL     1      -4.903  13.078  48.812  1.00  0.00     0.092 A 
BRANCH  35  41
HETATM   41  O4  UNL     1      -7.493  11.145  50.512  1.00  0.00    -0.358 OA
ATOM     42  H4  UNL     1      -7.549  10.408  51.111  1.00  0.00     0.217 HD
ENDBRANCH  35  41
BRANCH  37  43
HETATM   43  C23 UNL     1      -2.803  10.214  50.018  1.00  0.00     0.467 C 
HETATM   44  F1  UNL     1      -2.930   9.145  49.160  1.00  0.00    -0.190 F 
HETATM   45  F2  UNL     1      -2.856   9.785  51.343  1.00  0.00    -0.190 F 
ENDBRANCH  37  43
BRANCH  40  46
HETATM   46  C26 UNL     1      -4.588  14.274  48.030  1.00  0.00     0.393 C 
HETATM   47  F3  UNL     1      -5.734  14.485  47.203  1.00  0.00    -0.209 F 
HETATM   48  F4  UNL     1      -4.648  15.420  48.889  1.00  0.00    -0.209 F 
ENDBRANCH  40  46
ENDBRANCH  31  34
ENDBRANCH   4  30
TORSDOF 11
ENDMDL
MODEL 5
REMARK VINA RESULT: -5.854596931      1.095      1.429
REMARK  11 active torsions:
REMARK  status: ('A' for Active; 'I' for Inactive)
REMARK    1  A    between atoms: C2_2  and  C4_4 
REMARK    2  A    between atoms: C7_7  and  C8_8 
REMARK    3  A    between atoms: C8_8  and  N1_9 
REMARK    4  A    between atoms: N1_9  and  S1_11 
REMARK    5  A    between atoms: S1_11  and  C9_14 
REMARK    6  A    between atoms: C14_19  and  C15_20 
REMARK    7  A    between atoms: C18_23  and  N2_24 
REMARK       I    between atoms: N2_24  and  C19_26 
REMARK    8  A    between atoms: C19_26  and  C20_28 
REMARK    9  A    between atoms: C21_29  and  O4_30 
REMARK   10  A    between atoms: N3_33  and  C23_34 
REMARK   11  A    between atoms: C25_39  and  C26_40 
ROOT
HETATM    1  C15 UNL     1     -11.432  16.309  48.752  1.00  0.00    -0.021 A 
HETATM    2  C16 UNL     1     -10.972  16.028  50.011  1.00  0.00     0.014 A 
HETATM    3  C17 UNL     1      -9.871  15.165  50.237  1.00  0.00     0.034 A 
HETATM    4  C18 UNL     1      -9.233  14.587  49.187  1.00  0.00     0.074 A 
HETATM    5  C27 UNL     1      -9.735  14.902  47.913  1.00  0.00     0.143 A 
HETATM    6  F5  UNL     1      -9.099  14.326  46.847  1.00  0.00    -0.204 F 
HETATM    7  C28 UNL     1     -10.793  15.730  47.692  1.00  0.00     0.057 A 
ENDROOT
BRANCH   1   8
HETATM    8  C14 UNL     1     -12.578  17.187  48.615  1.00  0.00    -0.003 A 
HETATM    9  C9  UNL     1     -12.448  18.481  48.203  1.00  0.00     0.090 A 
HETATM   10  C10 UNL     1     -13.579  19.308  48.045  1.00  0.00     0.026 A 
HETATM   11  C11 UNL     1     -14.810  18.777  48.317  1.00  0.00     0.002 A 
HETATM   12  C12 UNL     1     -14.995  17.477  48.738  1.00  0.00     0.001 A 
HETATM   13  C13 UNL     1     -13.867  16.701  48.878  1.00  0.00     0.014 A 
BRANCH   9  14
HETATM   14  S1  UNL     1     -10.855  19.135  47.905  1.00  0.00     0.259 S 
HETATM   15  O1  UNL     1     -10.142  18.533  46.750  1.00  0.00    -0.201 OA
HETATM   16  O2  UNL     1     -11.059  20.611  47.523  1.00  0.00    -0.201 OA
BRANCH  14  17
HETATM   17  N1  UNL     1      -9.915  19.175  49.355  1.00  0.00    -0.313 N 
ATOM     18  H1  UNL     1      -9.091  18.599  49.526  1.00  0.00     0.172 HD
BRANCH  17  19
HETATM   19  C8  UNL     1     -10.452  20.138  50.299  1.00  0.00     0.165 C 
BRANCH  19  20
HETATM   20  C7  UNL     1     -10.341  19.661  51.718  1.00  0.00     0.204 C 
HETATM   21  C6  UNL     1      -9.803  20.739  52.615  1.00  0.00     0.037 C 
HETATM   22  C5  UNL     1      -8.931  20.103  53.646  1.00  0.00     0.035 C 
HETATM   23  C4  UNL     1      -9.037  18.628  53.291  1.00  0.00     0.189 C 
HETATM   24  N4  UNL     1      -9.439  18.571  51.918  1.00  0.00    -0.065 N 
ATOM     25  H42 UNL     1      -8.655  18.571  51.266  1.00  0.00     0.278 HD
ATOM     26  H41 UNL     1      -9.828  17.669  51.647  1.00  0.00     0.278 HD
BRANCH  23  27
HETATM   27  C2  UNL     1      -7.686  18.013  53.555  1.00  0.00     0.008 C 
HETATM   28  C1  UNL     1      -6.679  18.737  52.669  1.00  0.00     0.011 C 
HETATM   29  C3  UNL     1      -7.617  16.560  53.176  1.00  0.00     0.011 C 
ENDBRANCH  23  27
ENDBRANCH  19  20
ENDBRANCH  17  19
ENDBRANCH  14  17
ENDBRANCH   9  14
ENDBRANCH   1   8
BRANCH   4  30
HETATM   30  N2  UNL     1      -8.142  13.688  49.307  1.00  0.00    -0.320 N 
HETATM   31  C19 UNL     1      -6.868  13.943  49.810  1.00  0.00     0.260 C 
HETATM   32  O3  UNL     1      -6.650  15.109  50.194  1.00  0.00    -0.267 OA
ATOM     33  H2  UNL     1      -8.311  12.736  48.985  1.00  0.00     0.169 HD
BRANCH  31  34
HETATM   34  C20 UNL     1      -5.793  12.986  49.925  1.00  0.00     0.084 A 
HETATM   35  C21 UNL     1      -5.789  11.983  50.904  1.00  0.00     0.098 A 
HETATM   36  C22 UNL     1      -4.725  11.095  50.960  1.00  0.00     0.137 A 
HETATM   37  N3  UNL     1      -3.681  11.117  50.139  1.00  0.00    -0.264 N 
HETATM   38  C24 UNL     1      -3.654  12.049  49.207  1.00  0.00     0.264 A 
HETATM   39  O5  UNL     1      -2.698  12.120  48.405  1.00  0.00    -0.267 OA
HETATM   40  C25 UNL     1      -4.694  12.995  49.075  1.00  0.00     0.092 A 
BRANCH  35  41
HETATM   41  O4  UNL     1      -6.811  11.846  51.820  1.00  0.00    -0.358 OA
ATOM     42  H4  UNL     1      -6.686  12.014  52.747  1.00  0.00     0.217 HD
ENDBRANCH  35  41
BRANCH  37  43
HETATM   43  C23 UNL     1      -2.594  10.130  50.278  1.00  0.00     0.467 C 
HETATM   44  F1  UNL     1      -2.781   9.199  49.280  1.00  0.00    -0.190 F 
HETATM   45  F2  UNL     1      -2.680   9.526  51.530  1.00  0.00    -0.190 F 
ENDBRANCH  37  43
BRANCH  40  46
HETATM   46  C26 UNL     1      -4.524  13.956  47.985  1.00  0.00     0.393 C 
HETATM   47  F3  UNL     1      -5.806  14.029  47.356  1.00  0.00    -0.209 F 
HETATM   48  F4  UNL     1      -4.409  15.273  48.539  1.00  0.00    -0.209 F 
ENDBRANCH  40  46
ENDBRANCH  31  34
ENDBRANCH   4  30
TORSDOF 11
ENDMDL
