MODEL 1
REMARK VINA RESULT: -5.920932889      0.000      0.000
REMARK  10 active torsions:
REMARK  status: ('A' for Active; 'I' for Inactive)
REMARK    1  A    between atoms: C4_6  and  C5_7 
REMARK    2  A    between atoms: C7_11  and  C8_12 
REMARK    3  A    between atoms: C13_17  and  C14_18 
REMARK    4  A    between atoms: C18_24  and  N3_25 
REMARK    5  A    between atoms: N3_25  and  S1_27 
REMARK    6  A    between atoms: S1_27  and  C19_30 
REMARK    7  A    between atoms: C20_31  and  N4_32 
REMARK    8  A    between atoms: N4_32  and  N5_34 
REMARK    9  A    between atoms: C26_45  and  O3_46 
REMARK   10  A    between atoms: O3_46  and  C27_47 
ROOT
HETATM    1  C14 UNL     1      -6.206  13.664  49.769  1.00  0.00     0.056 A 
HETATM    2  C15 UNL     1      -5.853  14.065  48.495  1.00  0.00     0.133 A 
HETATM    3  F1  UNL     1      -6.652  14.872  47.724  1.00  0.00    -0.205 F 
HETATM    4  C16 UNL     1      -4.653  13.636  47.969  1.00  0.00     0.088 A 
HETATM    5  C17 UNL     1      -3.821  12.808  48.727  1.00  0.00     0.149 A 
HETATM    6  F2  UNL     1      -2.634  12.393  48.201  1.00  0.00    -0.203 F 
HETATM    7  C18 UNL     1      -4.195  12.419  49.996  1.00  0.00     0.120 A 
HETATM    8  C25 UNL     1      -5.395  12.847  50.526  1.00  0.00     0.161 A 
HETATM    9  F3  UNL     1      -5.725  12.443  51.783  1.00  0.00    -0.203 F 
ENDROOT
BRANCH   1  10
HETATM   10  C13 UNL     1      -7.467  14.124  50.320  1.00  0.00     0.010 A 
HETATM   11  C5  UNL     1      -8.612  13.450  49.950  1.00  0.00     0.073 A 
HETATM   12  N2  UNL     1      -9.779  13.893  50.491  1.00  0.00    -0.363 N 
HETATM   13  C6  UNL     1      -9.807  14.929  51.336  1.00  0.00     0.096 A 
ATOM     14  H2  UNL     1     -10.652  13.424  50.248  1.00  0.00     0.165 HD
HETATM   15  C7  UNL     1      -8.664  15.636  51.731  1.00  0.00    -0.038 A 
HETATM   16  C12 UNL     1      -7.478  15.196  51.190  1.00  0.00     0.023 A 
BRANCH  11  17
HETATM   17  C4  UNL     1      -8.626  12.324  49.020  1.00  0.00     0.093 A 
HETATM   18  N1  UNL     1      -8.237  11.094  49.274  1.00  0.00    -0.361 N 
HETATM   19  C3  UNL     1      -8.264  10.094  48.390  1.00  0.00     0.095 A 
ATOM     20  H1  UNL     1      -7.890  10.889  50.211  1.00  0.00     0.165 HD
HETATM   21  C2  UNL     1      -8.723  10.317  47.115  1.00  0.00    -0.044 A 
HETATM   22  C1  UNL     1      -8.763   9.215  46.098  1.00  0.00     0.049 C 
HETATM   23  C28 UNL     1      -9.146  11.599  46.791  1.00  0.00     0.047 A 
HETATM   24  C26 UNL     1      -9.103  12.596  47.724  1.00  0.00     0.104 A 
BRANCH  24  25
HETATM   25  O3  UNL     1      -9.519  13.869  47.414  1.00  0.00    -0.288 OA
BRANCH  25  26
HETATM   26  C27 UNL     1     -10.659  14.196  46.694  1.00  0.00     0.505 C 
HETATM   27  F4  UNL     1     -10.287  14.902  45.550  1.00  0.00    -0.184 F 
HETATM   28  F5  UNL     1     -11.454  15.081  47.429  1.00  0.00    -0.184 F 
ENDBRANCH  25  26
ENDBRANCH  24  25
ENDBRANCH  11  17
BRANCH  15  29
HETATM   29  C8  UNL     1      -8.821  16.747  52.661  1.00  0.00     0.020 C 
HETATM   30  C9  UNL     1      -9.948  17.689  52.187  1.00  0.00     0.009 C 
HETATM   31  C10 UNL     1      -8.873  18.669  51.787  1.00  0.00     0.001 C 
HETATM   32  C11 UNL     1      -7.899  17.897  52.625  1.00  0.00     0.009 C 
ENDBRANCH  15  29
ENDBRANCH   1  10
BRANCH   7  33
HETATM   33  N3  UNL     1      -3.346  11.578  50.766  1.00  0.00    -0.274 N 
ATOM     34  H3  UNL     1      -2.756  11.990  51.489  1.00  0.00     0.179 HD
BRANCH  33  35
HETATM   35  S1  UNL     1      -3.294   9.872  50.499  1.00  0.00     0.267 S 
HETATM   36  O1  UNL     1      -3.055   9.577  49.038  1.00  0.00    -0.200 OA
HETATM   37  O2  UNL     1      -2.161   9.303  51.292  1.00  0.00    -0.200 OA
BRANCH  35  38
HETATM   38  C19 UNL     1      -4.804   9.085  50.940  1.00  0.00     0.132 A 
HETATM   39  C20 UNL     1      -5.650   8.364  50.136  1.00  0.00     0.144 A 
HETATM   40  N6  UNL     1      -6.679   7.962  50.894  1.00  0.00    -0.344 N 
HETATM   41  C21 UNL     1      -6.522   8.400  52.150  1.00  0.00     0.014 A 
ATOM     42  H6  UNL     1      -7.467   7.405  50.563  1.00  0.00     0.167 HD
HETATM   43  C22 UNL     1      -7.439   8.176  53.309  1.00  0.00     0.068 C 
HETATM   44  C23 UNL     1      -5.347   9.110  52.198  1.00  0.00    -0.013 A 
HETATM   45  C24 UNL     1      -4.807   9.770  53.430  1.00  0.00     0.052 C 
BRANCH  39  46
HETATM   46  N4  UNL     1      -5.457   8.093  48.762  1.00  0.00    -0.291 N 
ATOM     47  H4  UNL     1      -4.715   8.564  48.246  1.00  0.00     0.188 HD
BRANCH  46  48
HETATM   48  N5  UNL     1      -6.290   7.176  48.118  1.00  0.00    -0.344 N 
ATOM     49  H52 UNL     1      -7.139   6.860  48.586  1.00  0.00     0.176 HD
ATOM     50  H51 UNL     1      -6.039   6.835  47.190  1.00  0.00     0.176 HD
ENDBRANCH  46  48
ENDBRANCH  39  46
ENDBRANCH  35  38
ENDBRANCH  33  35
ENDBRANCH   7  33
TORSDOF 10
ENDMDL
MODEL 2
REMARK VINA RESULT: -5.817338472      2.120      3.005
REMARK  10 active torsions:
REMARK  status: ('A' for Active; 'I' for Inactive)
REMARK    1  A    between atoms: C4_6  and  C5_7 
REMARK    2  A    between atoms: C7_11  and  C8_12 
REMARK    3  A    between atoms: C13_17  and  C14_18 
REMARK    4  A    between atoms: C18_24  and  N3_25 
REMARK    5  A    between atoms: N3_25  and  S1_27 
REMARK    6  A    between atoms: S1_27  and  C19_30 
REMARK    7  A    between atoms: C20_31  and  N4_32 
REMARK    8  A    between atoms: N4_32  and  N5_34 
REMARK    9  A    between atoms: C26_45  and  O3_46 
REMARK   10  A    between atoms: O3_46  and  C27_47 
ROOT
HETATM    1  C14 UNL     1      -7.384  13.225  49.352  1.00  0.00     0.056 A 
HETATM    2  C15 UNL     1      -6.817  13.522  48.127  1.00  0.00     0.133 A 
HETATM    3  F1  UNL     1      -6.813  14.789  47.600  1.00  0.00    -0.205 F 
HETATM    4  C16 UNL     1      -6.235  12.507  47.399  1.00  0.00     0.088 A 
HETATM    5  C17 UNL     1      -6.229  11.205  47.906  1.00  0.00     0.149 A 
HETATM    6  F2  UNL     1      -5.646  10.209  47.180  1.00  0.00    -0.203 F 
HETATM    7  C18 UNL     1      -6.802  10.933  49.130  1.00  0.00     0.120 A 
HETATM    8  C25 UNL     1      -7.386  11.946  49.863  1.00  0.00     0.161 A 
HETATM    9  F3  UNL     1      -7.938  11.635  51.066  1.00  0.00    -0.203 F 
ENDROOT
BRANCH   1  10
HETATM   10  C13 UNL     1      -7.990  14.299  50.118  1.00  0.00     0.010 A 
HETATM   11  C5  UNL     1      -9.280  14.667  49.795  1.00  0.00     0.073 A 
HETATM   12  N2  UNL     1      -9.829  15.667  50.537  1.00  0.00    -0.363 N 
HETATM   13  C6  UNL     1      -9.147  16.258  51.524  1.00  0.00     0.096 A 
ATOM     14  H2  UNL     1     -10.781  15.972  50.337  1.00  0.00     0.165 HD
HETATM   15  C7  UNL     1      -7.837  15.909  51.876  1.00  0.00    -0.038 A 
HETATM   16  C12 UNL     1      -7.272  14.899  51.132  1.00  0.00     0.023 A 
BRANCH  11  17
HETATM   17  C4  UNL     1     -10.052  14.058  48.716  1.00  0.00     0.093 A 
HETATM   18  N1  UNL     1     -10.523  12.831  48.687  1.00  0.00    -0.361 N 
HETATM   19  C3  UNL     1     -11.223  12.313  47.676  1.00  0.00     0.095 A 
ATOM     20  H1  UNL     1     -10.342  12.233  49.494  1.00  0.00     0.165 HD
HETATM   21  C2  UNL     1     -11.496  13.076  46.567  1.00  0.00    -0.044 A 
HETATM   22  C1  UNL     1     -12.277  12.522  45.412  1.00  0.00     0.049 C 
HETATM   23  C28 UNL     1     -11.021  14.381  46.543  1.00  0.00     0.047 A 
HETATM   24  C26 UNL     1     -10.308  14.875  47.598  1.00  0.00     0.104 A 
BRANCH  24  25
HETATM   25  O3  UNL     1      -9.832  16.164  47.586  1.00  0.00    -0.288 OA
BRANCH  25  26
HETATM   26  C27 UNL     1     -10.589  17.304  47.355  1.00  0.00     0.505 C 
HETATM   27  F4  UNL     1      -9.778  18.277  46.772  1.00  0.00    -0.184 F 
HETATM   28  F5  UNL     1     -11.008  17.856  48.570  1.00  0.00    -0.184 F 
ENDBRANCH  25  26
ENDBRANCH  24  25
ENDBRANCH  11  17
BRANCH  15  29
HETATM   29  C8  UNL     1      -7.199  16.624  52.974  1.00  0.00     0.020 C 
HETATM   30  C9  UNL     1      -8.028  17.867  53.360  1.00  0.00     0.009 C 
HETATM   31  C10 UNL     1      -6.962  18.704  52.696  1.00  0.00     0.001 C 
HETATM   32  C11 UNL     1      -6.050  17.515  52.728  1.00  0.00     0.009 C 
ENDBRANCH  15  29
ENDBRANCH   1  10
BRANCH   7  33
HETATM   33  N3  UNL     1      -6.793   9.608  49.644  1.00  0.00    -0.274 N 
ATOM     34  H3  UNL     1      -7.627   9.028  49.548  1.00  0.00     0.179 HD
BRANCH  33  35
HETATM   35  S1  UNL     1      -5.397   8.961  50.431  1.00  0.00     0.267 S 
HETATM   36  O1  UNL     1      -5.801   7.900  51.425  1.00  0.00    -0.200 OA
HETATM   37  O2  UNL     1      -4.517   8.336  49.396  1.00  0.00    -0.200 OA
BRANCH  35  38
HETATM   38  C19 UNL     1      -4.510  10.190  51.324  1.00  0.00     0.132 A 
HETATM   39  C20 UNL     1      -3.330  10.801  50.979  1.00  0.00     0.144 A 
HETATM   40  N6  UNL     1      -3.022  11.661  51.959  1.00  0.00    -0.344 N 
HETATM   41  C21 UNL     1      -3.961  11.622  52.915  1.00  0.00     0.014 A 
ATOM     42  H6  UNL     1      -2.195  12.258  51.975  1.00  0.00     0.167 HD
HETATM   43  C22 UNL     1      -4.000  12.420  54.178  1.00  0.00     0.068 C 
HETATM   44  C23 UNL     1      -4.905  10.701  52.532  1.00  0.00    -0.013 A 
HETATM   45  C24 UNL     1      -6.125  10.358  53.332  1.00  0.00     0.052 C 
BRANCH  39  46
HETATM   46  N4  UNL     1      -2.588  10.564  49.800  1.00  0.00    -0.291 N 
ATOM     47  H4  UNL     1      -2.748  11.134  48.969  1.00  0.00     0.188 HD
BRANCH  46  48
HETATM   48  N5  UNL     1      -1.634   9.545  49.781  1.00  0.00    -0.344 N 
ATOM     49  H52 UNL     1      -1.639   8.843  50.521  1.00  0.00     0.176 HD
ATOM     50  H51 UNL     1      -0.945   9.516  49.030  1.00  0.00     0.176 HD
ENDBRANCH  46  48
ENDBRANCH  39  46
ENDBRANCH  35  38
ENDBRANCH  33  35
ENDBRANCH   7  33
TORSDOF 10
ENDMDL
MODEL 3
REMARK VINA RESULT: -5.779461808      2.319      5.105
REMARK  10 active torsions:
REMARK  status: ('A' for Active; 'I' for Inactive)
REMARK    1  A    between atoms: C4_6  and  C5_7 
REMARK    2  A    between atoms: C7_11  and  C8_12 
REMARK    3  A    between atoms: C13_17  and  C14_18 
REMARK    4  A    between atoms: C18_24  and  N3_25 
REMARK    5  A    between atoms: N3_25  and  S1_27 
REMARK    6  A    between atoms: S1_27  and  C19_30 
REMARK    7  A    between atoms: C20_31  and  N4_32 
REMARK    8  A    between atoms: N4_32  and  N5_34 
REMARK    9  A    between atoms: C26_45  and  O3_46 
REMARK   10  A    between atoms: O3_46  and  C27_47 
ROOT
HETATM    1  C14 UNL     1      -6.761  12.817  48.403  1.00  0.00     0.056 A 
HETATM    2  C15 UNL     1      -6.046  13.898  47.923  1.00  0.00     0.133 A 
HETATM    3  F1  UNL     1      -6.649  14.993  47.358  1.00  0.00    -0.205 F 
HETATM    4  C16 UNL     1      -4.670  13.877  48.006  1.00  0.00     0.088 A 
HETATM    5  C17 UNL     1      -4.026  12.772  48.570  1.00  0.00     0.149 A 
HETATM    6  F2  UNL     1      -2.666  12.764  48.653  1.00  0.00    -0.203 F 
HETATM    7  C18 UNL     1      -4.761  11.705  49.042  1.00  0.00     0.120 A 
HETATM    8  C25 UNL     1      -6.138  11.721  48.961  1.00  0.00     0.161 A 
HETATM    9  F3  UNL     1      -6.826  10.650  49.440  1.00  0.00    -0.203 F 
ENDROOT
BRANCH   1  10
HETATM   10  C13 UNL     1      -8.210  12.847  48.319  1.00  0.00     0.010 A 
HETATM   11  C5  UNL     1      -8.900  13.435  49.359  1.00  0.00     0.073 A 
HETATM   12  N2  UNL     1     -10.255  13.462  49.249  1.00  0.00    -0.363 N 
HETATM   13  C6  UNL     1     -10.879  12.943  48.186  1.00  0.00     0.096 A 
ATOM     14  H2  UNL     1     -10.808  13.887  49.993  1.00  0.00     0.165 HD
HETATM   15  C7  UNL     1     -10.209  12.339  47.115  1.00  0.00    -0.038 A 
HETATM   16  C12 UNL     1      -8.837  12.306  47.215  1.00  0.00     0.023 A 
BRANCH  11  17
HETATM   17  C4  UNL     1      -8.257  13.999  50.543  1.00  0.00     0.093 A 
HETATM   18  N1  UNL     1      -7.753  15.208  50.659  1.00  0.00    -0.361 N 
HETATM   19  C3  UNL     1      -7.171  15.681  51.762  1.00  0.00     0.095 A 
ATOM     20  H1  UNL     1      -7.811  15.826  49.850  1.00  0.00     0.165 HD
HETATM   21  C2  UNL     1      -7.068  14.890  52.880  1.00  0.00    -0.044 A 
HETATM   22  C1  UNL     1      -6.416  15.392  54.134  1.00  0.00     0.049 C 
HETATM   23  C28 UNL     1      -7.584  13.602  52.813  1.00  0.00     0.047 A 
HETATM   24  C26 UNL     1      -8.173  13.153  51.665  1.00  0.00     0.104 A 
BRANCH  24  25
HETATM   25  O3  UNL     1      -8.686  11.880  51.588  1.00  0.00    -0.288 OA
BRANCH  25  26
HETATM   26  C27 UNL     1      -9.707  11.370  52.375  1.00  0.00     0.505 C 
HETATM   27  F4  UNL     1     -10.027  10.087  51.930  1.00  0.00    -0.184 F 
HETATM   28  F5  UNL     1     -10.873  12.121  52.196  1.00  0.00    -0.184 F 
ENDBRANCH  25  26
ENDBRANCH  24  25
ENDBRANCH  11  17
BRANCH  15  29
HETATM   29  C8  UNL     1     -10.999  11.812  46.009  1.00  0.00     0.020 C 
HETATM   30  C9  UNL     1     -12.339  11.249  46.527  1.00  0.00     0.009 C 
HETATM   31  C10 UNL     1     -11.778   9.868  46.287  1.00  0.00     0.001 C 
HETATM   32  C11 UNL     1     -10.706  10.484  45.438  1.00  0.00     0.009 C 
ENDBRANCH  15  29
ENDBRANCH   1  10
BRANCH   7  33
HETATM   33  N3  UNL     1      -4.104  10.583  49.616  1.00  0.00    -0.274 N 
ATOM     34  H3  UNL     1      -3.916   9.763  49.039  1.00  0.00     0.179 HD
BRANCH  33  35
HETATM   35  S1  UNL     1      -3.617  10.582  51.275  1.00  0.00     0.267 S 
HETATM   36  O1  UNL     1      -2.542   9.549  51.504  1.00  0.00    -0.200 OA
HETATM   37  O2  UNL     1      -3.062  11.931  51.606  1.00  0.00    -0.200 OA
BRANCH  35  38
HETATM   38  C19 UNL     1      -4.947  10.187  52.356  1.00  0.00     0.132 A 
HETATM   39  C20 UNL     1      -5.348  10.856  53.485  1.00  0.00     0.144 A 
HETATM   40  N6  UNL     1      -6.394  10.193  53.995  1.00  0.00    -0.344 N 
HETATM   41  C21 UNL     1      -6.676   9.127  53.234  1.00  0.00     0.014 A 
ATOM     42  H6  UNL     1      -6.902  10.460  54.839  1.00  0.00     0.167 HD
HETATM   43  C22 UNL     1      -7.763   8.123  53.448  1.00  0.00     0.068 C 
HETATM   44  C23 UNL     1      -5.775   9.106  52.198  1.00  0.00    -0.013 A 
HETATM   45  C24 UNL     1      -5.749   8.067  51.119  1.00  0.00     0.052 C 
BRANCH  39  46
HETATM   46  N4  UNL     1      -4.761  12.033  54.003  1.00  0.00    -0.291 N 
ATOM     47  H4  UNL     1      -5.226  12.934  53.883  1.00  0.00     0.188 HD
BRANCH  46  48
HETATM   48  N5  UNL     1      -3.543  11.955  54.680  1.00  0.00    -0.344 N 
ATOM     49  H52 UNL     1      -2.819  11.328  54.331  1.00  0.00     0.176 HD
ATOM     50  H51 UNL     1      -3.393  12.524  55.512  1.00  0.00     0.176 HD
ENDBRANCH  46  48
ENDBRANCH  39  46
ENDBRANCH  35  38
ENDBRANCH  33  35
ENDBRANCH   7  33
TORSDOF 10
ENDMDL
MODEL 4
REMARK VINA RESULT: -5.731031741      2.452      4.961
REMARK  10 active torsions:
REMARK  status: ('A' for Active; 'I' for Inactive)
REMARK    1  A    between atoms: C4_6  and  C5_7 
REMARK    2  A    between atoms: C7_11  and  C8_12 
REMARK    3  A    between atoms: C13_17  and  C14_18 
REMARK    4  A    between atoms: C18_24  and  N3_25 
REMARK    5  A    between atoms: N3_25  and  S1_27 
REMARK    6  A    between atoms: S1_27  and  C19_30 
REMARK    7  A    between atoms: C20_31  and  N4_32 
REMARK    8  A    between atoms: N4_32  and  N5_34 
REMARK    9  A    between atoms: C26_45  and  O3_46 
REMARK   10  A    between atoms: O3_46  and  C27_47 
ROOT
HETATM    1  C14 UNL     1      -7.134  13.147  48.640  1.00  0.00     0.056 A 
HETATM    2  C15 UNL     1      -6.125  13.926  48.107  1.00  0.00     0.133 A 
HETATM    3  F1  UNL     1      -6.371  15.072  47.394  1.00  0.00    -0.205 F 
HETATM    4  C16 UNL     1      -4.815  13.537  48.291  1.00  0.00     0.088 A 
HETATM    5  C17 UNL     1      -4.532  12.370  49.006  1.00  0.00     0.149 A 
HETATM    6  F2  UNL     1      -3.234  11.997  49.188  1.00  0.00    -0.203 F 
HETATM    7  C18 UNL     1      -5.556  11.608  49.528  1.00  0.00     0.120 A 
HETATM    8  C25 UNL     1      -6.869  11.994  49.347  1.00  0.00     0.161 A 
HETATM    9  F3  UNL     1      -7.849  11.216  49.880  1.00  0.00    -0.203 F 
ENDROOT
BRANCH   1  10
HETATM   10  C13 UNL     1      -8.511  13.565  48.449  1.00  0.00     0.010 A 
HETATM   11  C5  UNL     1      -9.114  14.269  49.471  1.00  0.00     0.073 A 
HETATM   12  N2  UNL     1     -10.400  14.660  49.261  1.00  0.00    -0.363 N 
HETATM   13  C6  UNL     1     -11.040  14.372  48.123  1.00  0.00     0.096 A 
ATOM     14  H2  UNL     1     -10.888  15.184  49.988  1.00  0.00     0.165 HD
HETATM   15  C7  UNL     1     -10.457  13.660  47.067  1.00  0.00    -0.038 A 
HETATM   16  C12 UNL     1      -9.156  13.259  47.268  1.00  0.00     0.023 A 
BRANCH  11  17
HETATM   17  C4  UNL     1      -8.456  14.589  50.734  1.00  0.00     0.093 A 
HETATM   18  N1  UNL     1      -7.550  15.522  50.930  1.00  0.00    -0.361 N 
HETATM   19  C3  UNL     1      -6.971  15.779  52.105  1.00  0.00     0.095 A 
ATOM     20  H1  UNL     1      -7.270  16.088  50.129  1.00  0.00     0.165 HD
HETATM   21  C2  UNL     1      -7.313  15.046  53.215  1.00  0.00    -0.044 A 
HETATM   22  C1  UNL     1      -6.678  15.309  54.548  1.00  0.00     0.049 C 
HETATM   23  C28 UNL     1      -8.265  14.046  53.065  1.00  0.00     0.047 A 
HETATM   24  C26 UNL     1      -8.836  13.813  51.846  1.00  0.00     0.104 A 
BRANCH  24  25
HETATM   25  O3  UNL     1      -9.779  12.827  51.686  1.00  0.00    -0.288 OA
BRANCH  25  26
HETATM   26  C27 UNL     1      -9.918  11.703  52.487  1.00  0.00     0.505 C 
HETATM   27  F4  UNL     1     -10.036  10.576  51.672  1.00  0.00    -0.184 F 
HETATM   28  F5  UNL     1     -11.120  11.767  53.200  1.00  0.00    -0.184 F 
ENDBRANCH  25  26
ENDBRANCH  24  25
ENDBRANCH  11  17
BRANCH  15  29
HETATM   29  C8  UNL     1     -11.255  13.411  45.873  1.00  0.00     0.020 C 
HETATM   30  C9  UNL     1     -12.723  13.127  46.257  1.00  0.00     0.009 C 
HETATM   31  C10 UNL     1     -12.462  11.678  45.925  1.00  0.00     0.001 C 
HETATM   32  C11 UNL     1     -11.218  12.098  45.201  1.00  0.00     0.009 C 
ENDBRANCH  15  29
ENDBRANCH   1  10
BRANCH   7  33
HETATM   33  N3  UNL     1      -5.266  10.423  50.257  1.00  0.00    -0.274 N 
ATOM     34  H3  UNL     1      -5.078  10.485  51.258  1.00  0.00     0.179 HD
BRANCH  33  35
HETATM   35  S1  UNL     1      -5.226   8.880  49.480  1.00  0.00     0.267 S 
HETATM   36  O1  UNL     1      -4.165   8.862  48.408  1.00  0.00    -0.200 OA
HETATM   37  O2  UNL     1      -4.889   7.843  50.504  1.00  0.00    -0.200 OA
BRANCH  35  38
HETATM   38  C19 UNL     1      -6.753   8.492  48.698  1.00  0.00     0.132 A 
HETATM   39  C20 UNL     1      -7.069   8.583  47.366  1.00  0.00     0.144 A 
HETATM   40  N6  UNL     1      -8.344   8.194  47.228  1.00  0.00    -0.344 N 
HETATM   41  C21 UNL     1      -8.852   7.859  48.422  1.00  0.00     0.014 A 
ATOM     42  H6  UNL     1      -8.853   8.159  46.345  1.00  0.00     0.167 HD
HETATM   43  C22 UNL     1     -10.236   7.374  48.713  1.00  0.00     0.068 C 
HETATM   44  C23 UNL     1      -7.865   8.040  49.360  1.00  0.00    -0.013 A 
HETATM   45  C24 UNL     1      -8.031   7.777  50.825  1.00  0.00     0.052 C 
BRANCH  39  46
HETATM   46  N4  UNL     1      -6.200   9.005  46.334  1.00  0.00    -0.291 N 
ATOM     47  H4  UNL     1      -5.353   9.526  46.559  1.00  0.00     0.188 HD
BRANCH  46  48
HETATM   48  N5  UNL     1      -6.509   8.702  45.007  1.00  0.00    -0.344 N 
ATOM     49  H52 UNL     1      -6.907   7.791  44.784  1.00  0.00     0.176 HD
ATOM     50  H51 UNL     1      -6.332   9.395  44.280  1.00  0.00     0.176 HD
ENDBRANCH  46  48
ENDBRANCH  39  46
ENDBRANCH  35  38
ENDBRANCH  33  35
ENDBRANCH   7  33
TORSDOF 10
ENDMDL
MODEL 5
REMARK VINA RESULT: -5.695400646      2.490      4.188
REMARK  10 active torsions:
REMARK  status: ('A' for Active; 'I' for Inactive)
REMARK    1  A    between atoms: C4_6  and  C5_7 
REMARK    2  A    between atoms: C7_11  and  C8_12 
REMARK    3  A    between atoms: C13_17  and  C14_18 
REMARK    4  A    between atoms: C18_24  and  N3_25 
REMARK    5  A    between atoms: N3_25  and  S1_27 
REMARK    6  A    between atoms: S1_27  and  C19_30 
REMARK    7  A    between atoms: C20_31  and  N4_32 
REMARK    8  A    between atoms: N4_32  and  N5_34 
REMARK    9  A    between atoms: C26_45  and  O3_46 
REMARK   10  A    between atoms: O3_46  and  C27_47 
ROOT
HETATM    1  C14 UNL     1      -8.049  12.078  51.274  1.00  0.00     0.056 A 
HETATM    2  C15 UNL     1      -9.226  11.458  51.645  1.00  0.00     0.133 A 
HETATM    3  F1  UNL     1     -10.128  12.033  52.504  1.00  0.00    -0.205 F 
HETATM    4  C16 UNL     1      -9.508  10.207  51.139  1.00  0.00     0.088 A 
HETATM    5  C17 UNL     1      -8.606   9.591  50.267  1.00  0.00     0.149 A 
HETATM    6  F2  UNL     1      -8.896   8.357  49.769  1.00  0.00    -0.203 F 
HETATM    7  C18 UNL     1      -7.436  10.230  49.912  1.00  0.00     0.120 A 
HETATM    8  C25 UNL     1      -7.150  11.482  50.416  1.00  0.00     0.161 A 
HETATM    9  F3  UNL     1      -5.987  12.079  50.039  1.00  0.00    -0.203 F 
ENDROOT
BRANCH   1  10
HETATM   10  C13 UNL     1      -7.760  13.398  51.804  1.00  0.00     0.010 A 
HETATM   11  C5  UNL     1      -8.229  14.488  51.100  1.00  0.00     0.073 A 
HETATM   12  N2  UNL     1      -7.956  15.713  51.625  1.00  0.00    -0.363 N 
HETATM   13  C6  UNL     1      -7.268  15.846  52.764  1.00  0.00     0.096 A 
ATOM     14  H2  UNL     1      -8.283  16.548  51.140  1.00  0.00     0.165 HD
HETATM   15  C7  UNL     1      -6.778  14.762  53.502  1.00  0.00    -0.038 A 
HETATM   16  C12 UNL     1      -7.048  13.517  52.980  1.00  0.00     0.023 A 
BRANCH  11  17
HETATM   17  C4  UNL     1      -8.970  14.386  49.846  1.00  0.00     0.093 A 
HETATM   18  N1  UNL     1     -10.268  14.221  49.715  1.00  0.00    -0.361 N 
HETATM   19  C3  UNL     1     -10.905  14.130  48.545  1.00  0.00     0.095 A 
ATOM     20  H1  UNL     1     -10.827  14.159  50.566  1.00  0.00     0.165 HD
HETATM   21  C2  UNL     1     -10.199  14.208  47.370  1.00  0.00    -0.044 A 
HETATM   22  C1  UNL     1     -10.885  14.106  46.040  1.00  0.00     0.049 C 
HETATM   23  C28 UNL     1      -8.823  14.381  47.449  1.00  0.00     0.047 A 
HETATM   24  C26 UNL     1      -8.207  14.471  48.665  1.00  0.00     0.104 A 
BRANCH  24  25
HETATM   25  O3  UNL     1      -6.847  14.642  48.755  1.00  0.00    -0.288 OA
BRANCH  25  26
HETATM   26  C27 UNL     1      -5.944  14.518  47.709  1.00  0.00     0.505 C 
HETATM   27  F4  UNL     1      -5.818  13.170  47.374  1.00  0.00    -0.184 F 
HETATM   28  F5  UNL     1      -4.668  14.913  48.126  1.00  0.00    -0.184 F 
ENDBRANCH  25  26
ENDBRANCH  24  25
ENDBRANCH  11  17
BRANCH  15  29
HETATM   29  C8  UNL     1      -6.044  15.033  54.732  1.00  0.00     0.020 C 
HETATM   30  C9  UNL     1      -6.063  13.795  55.653  1.00  0.00     0.009 C 
HETATM   31  C10 UNL     1      -7.047  14.538  56.523  1.00  0.00     0.001 C 
HETATM   32  C11 UNL     1      -6.662  15.807  55.824  1.00  0.00     0.009 C 
ENDBRANCH  15  29
ENDBRANCH   1  10
BRANCH   7  33
HETATM   33  N3  UNL     1      -6.521   9.603  49.024  1.00  0.00    -0.274 N 
ATOM     34  H3  UNL     1      -6.640   9.720  48.018  1.00  0.00     0.179 HD
BRANCH  33  35
HETATM   35  S1  UNL     1      -5.210   8.646  49.617  1.00  0.00     0.267 S 
HETATM   36  O1  UNL     1      -5.690   7.259  49.966  1.00  0.00    -0.200 OA
HETATM   37  O2  UNL     1      -4.177   8.537  48.540  1.00  0.00    -0.200 OA
BRANCH  35  38
HETATM   38  C19 UNL     1      -4.499   9.326  51.076  1.00  0.00     0.132 A 
HETATM   39  C20 UNL     1      -3.349  10.064  51.193  1.00  0.00     0.144 A 
HETATM   40  N6  UNL     1      -3.191  10.359  52.490  1.00  0.00    -0.344 N 
HETATM   41  C21 UNL     1      -4.197   9.837  53.204  1.00  0.00     0.014 A 
ATOM     42  H6  UNL     1      -2.418  10.902  52.877  1.00  0.00     0.167 HD
HETATM   43  C22 UNL     1      -4.402   9.931  54.682  1.00  0.00     0.068 C 
HETATM   44  C23 UNL     1      -5.030   9.182  52.331  1.00  0.00    -0.013 A 
HETATM   45  C24 UNL     1      -6.279   8.458  52.734  1.00  0.00     0.052 C 
BRANCH  39  46
HETATM   46  N4  UNL     1      -2.497  10.445  50.131  1.00  0.00    -0.291 N 
ATOM     47  H4  UNL     1      -2.587  11.368  49.706  1.00  0.00     0.188 HD
BRANCH  46  48
HETATM   48  N5  UNL     1      -1.530   9.550  49.669  1.00  0.00    -0.344 N 
ATOM     49  H52 UNL     1      -1.746   8.554  49.644  1.00  0.00     0.176 HD
ATOM     50  H51 UNL     1      -0.624   9.903  49.364  1.00  0.00     0.176 HD
ENDBRANCH  46  48
ENDBRANCH  39  46
ENDBRANCH  35  38
ENDBRANCH  33  35
ENDBRANCH   7  33
TORSDOF 10
ENDMDL
