MODEL 1
REMARK VINA RESULT: -7.852129439      0.000      0.000
REMARK  3 active torsions:
REMARK  status: ('A' for Active; 'I' for Inactive)
REMARK       I    between atoms: N1_2  and  C2_4 
REMARK       I    between atoms: C2_4  and  N2_6 
REMARK    1  A    between atoms: N2_6  and  C3_8 
REMARK    2  A    between atoms: N3_11  and  C6_12 
REMARK    3  A    between atoms: C8_18  and  C9_19 
ROOT
HETATM    1  C6  UNL     1     -14.042  37.212   8.713  1.00  0.00     0.145 A 
HETATM    2  N4  UNL     1     -14.297  38.542   8.682  1.00  0.00    -0.336 N 
ATOM      3  H4  UNL     1     -15.257  38.877   8.756  1.00  0.00     0.168 HD
HETATM    4  C7  UNL     1     -13.293  39.415   8.554  1.00  0.00     0.182 A 
HETATM    5  N5  UNL     1     -12.016  38.998   8.454  1.00  0.00    -0.351 N 
ATOM      6  H5  UNL     1     -11.274  39.691   8.358  1.00  0.00     0.166 HD
HETATM    7  C8  UNL     1     -11.690  37.684   8.477  1.00  0.00     0.082 A 
HETATM    8  C19 UNL     1     -12.751  36.801   8.611  1.00  0.00     0.185 A 
HETATM    9  F1  UNL     1     -12.482  35.471   8.638  1.00  0.00    -0.200 F 
ENDROOT
BRANCH   1  10
HETATM   10  N3  UNL     1     -15.163  36.374   8.856  1.00  0.00    -0.365 N 
HETATM   11  C5  UNL     1     -16.067  36.200   7.752  1.00  0.00     0.126 C 
HETATM   12  C4  UNL     1     -17.166  35.217   8.048  1.00  0.00     0.045 C 
HETATM   13  C3  UNL     1     -16.782  34.055   8.894  1.00  0.00     0.089 C 
HETATM   14  C21 UNL     1     -15.579  34.227   9.753  1.00  0.00     0.045 C 
HETATM   15  C20 UNL     1     -15.394  35.692  10.105  1.00  0.00     0.126 C 
BRANCH  13  16
HETATM   16  N2  UNL     1     -16.667  32.820   8.129  1.00  0.00    -0.338 N 
HETATM   17  C2  UNL     1     -15.538  32.490   7.332  1.00  0.00     0.316 C 
HETATM   18  N1  UNL     1     -15.509  31.268   6.623  1.00  0.00    -0.347 N 
HETATM   19  O1  UNL     1     -14.542  33.251   7.227  1.00  0.00    -0.247 OA
HETATM   20  C1  UNL     1     -14.364  30.927   5.811  1.00  0.00     0.151 C 
ATOM     21  H1  UNL     1     -16.298  30.625   6.684  1.00  0.00     0.163 HD
ATOM     22  H2  UNL     1     -17.440  32.155   8.169  1.00  0.00     0.164 HD
ENDBRANCH  13  16
ENDBRANCH   1  10
BRANCH   7  23
HETATM   23  C9  UNL     1     -10.285  37.201   8.369  1.00  0.00     0.174 C 
HETATM   24  C10 UNL     1      -9.369  38.297   8.794  1.00  0.00     0.043 C 
HETATM   25  C11 UNL     1      -8.106  37.825   9.456  1.00  0.00    -0.005 C 
HETATM   26  C12 UNL     1      -7.527  38.988  10.229  1.00  0.00     0.014 C 
HETATM   27  C17 UNL     1      -8.307  36.710  10.431  1.00  0.00     0.014 C 
HETATM   28  C13 UNL     1      -7.511  38.608  11.674  1.00  0.00    -0.047 C 
HETATM   29  C14 UNL     1      -6.051  38.579  12.118  1.00  0.00     0.015 C 
HETATM   30  C15 UNL     1      -8.272  39.582  12.545  1.00  0.00     0.015 C 
HETATM   31  C16 UNL     1      -8.159  37.260  11.813  1.00  0.00     0.015 C 
HETATM   32  C18 UNL     1      -9.673  36.094  10.301  1.00  0.00     0.173 C 
HETATM   33  O2  UNL     1     -10.086  35.993   8.978  1.00  0.00    -0.379 OA
ENDBRANCH   7  23
TORSDOF 3
ENDMDL
MODEL 2
REMARK VINA RESULT: -7.771884923      2.305      3.463
REMARK  3 active torsions:
REMARK  status: ('A' for Active; 'I' for Inactive)
REMARK       I    between atoms: N1_2  and  C2_4 
REMARK       I    between atoms: C2_4  and  N2_6 
REMARK    1  A    between atoms: N2_6  and  C3_8 
REMARK    2  A    between atoms: N3_11  and  C6_12 
REMARK    3  A    between atoms: C8_18  and  C9_19 
ROOT
HETATM    1  C6  UNL     1     -12.408  36.211   8.946  1.00  0.00     0.145 A 
HETATM    2  N4  UNL     1     -12.176  37.199   8.049  1.00  0.00    -0.336 N 
ATOM      3  H4  UNL     1     -12.929  37.521   7.441  1.00  0.00     0.168 HD
HETATM    4  C7  UNL     1     -10.962  37.753   7.959  1.00  0.00     0.182 A 
HETATM    5  N5  UNL     1      -9.951  37.345   8.750  1.00  0.00    -0.351 N 
ATOM      6  H5  UNL     1      -9.038  37.789   8.655  1.00  0.00     0.166 HD
HETATM    7  C8  UNL     1     -10.113  36.362   9.667  1.00  0.00     0.082 A 
HETATM    8  C19 UNL     1     -11.381  35.806   9.738  1.00  0.00     0.185 A 
HETATM    9  F1  UNL     1     -11.600  34.815  10.639  1.00  0.00    -0.200 F 
ENDROOT
BRANCH   1  10
HETATM   10  N3  UNL     1     -13.717  35.696   8.969  1.00  0.00    -0.365 N 
HETATM   11  C5  UNL     1     -14.644  36.153   9.967  1.00  0.00     0.126 C 
HETATM   12  C4  UNL     1     -16.016  35.558   9.805  1.00  0.00     0.045 C 
HETATM   13  C3  UNL     1     -16.466  35.349   8.402  1.00  0.00     0.089 C 
HETATM   14  C21 UNL     1     -15.399  35.251   7.369  1.00  0.00     0.045 C 
HETATM   15  C20 UNL     1     -14.120  34.718   7.989  1.00  0.00     0.126 C 
BRANCH  13  16
HETATM   16  N2  UNL     1     -17.466  36.322   7.983  1.00  0.00    -0.338 N 
HETATM   17  C2  UNL     1     -17.146  37.609   7.473  1.00  0.00     0.316 C 
HETATM   18  N1  UNL     1     -18.181  38.492   7.089  1.00  0.00    -0.347 N 
HETATM   19  O1  UNL     1     -15.960  38.007   7.343  1.00  0.00    -0.247 OA
HETATM   20  C1  UNL     1     -17.861  39.802   6.569  1.00  0.00     0.151 C 
ATOM     21  H1  UNL     1     -19.155  38.204   7.179  1.00  0.00     0.163 HD
ATOM     22  H2  UNL     1     -18.450  36.066   8.061  1.00  0.00     0.164 HD
ENDBRANCH  13  16
ENDBRANCH   1  10
BRANCH   7  23
HETATM   23  C9  UNL     1      -9.008  35.896  10.551  1.00  0.00     0.174 C 
HETATM   24  C10 UNL     1      -7.895  36.885  10.486  1.00  0.00     0.043 C 
HETATM   25  C11 UNL     1      -7.112  37.019  11.760  1.00  0.00    -0.005 C 
HETATM   26  C12 UNL     1      -6.364  38.332  11.708  1.00  0.00     0.014 C 
HETATM   27  C17 UNL     1      -7.953  37.045  12.995  1.00  0.00     0.014 C 
HETATM   28  C13 UNL     1      -6.861  39.181  12.832  1.00  0.00    -0.047 C 
HETATM   29  C14 UNL     1      -5.682  39.427  13.769  1.00  0.00     0.015 C 
HETATM   30  C15 UNL     1      -7.406  40.512  12.364  1.00  0.00     0.015 C 
HETATM   31  C16 UNL     1      -7.973  38.444  13.522  1.00  0.00     0.015 C 
HETATM   32  C18 UNL     1      -9.368  36.614  12.717  1.00  0.00     0.173 C 
HETATM   33  O2  UNL     1      -9.433  35.565  11.808  1.00  0.00    -0.379 OA
ENDBRANCH   7  23
TORSDOF 3
ENDMDL
MODEL 3
REMARK VINA RESULT: -7.760307790      1.884      2.383
REMARK  3 active torsions:
REMARK  status: ('A' for Active; 'I' for Inactive)
REMARK       I    between atoms: N1_2  and  C2_4 
REMARK       I    between atoms: C2_4  and  N2_6 
REMARK    1  A    between atoms: N2_6  and  C3_8 
REMARK    2  A    between atoms: N3_11  and  C6_12 
REMARK    3  A    between atoms: C8_18  and  C9_19 
ROOT
HETATM    1  C6  UNL     1     -12.218  36.510   8.741  1.00  0.00     0.145 A 
HETATM    2  N4  UNL     1     -11.870  37.484   7.867  1.00  0.00    -0.336 N 
ATOM      3  H4  UNL     1     -12.562  37.855   7.217  1.00  0.00     0.168 HD
HETATM    4  C7  UNL     1     -10.619  37.959   7.855  1.00  0.00     0.182 A 
HETATM    5  N5  UNL     1      -9.686  37.485   8.703  1.00  0.00    -0.351 N 
ATOM      6  H5  UNL     1      -8.743  37.870   8.667  1.00  0.00     0.166 HD
HETATM    7  C8  UNL     1      -9.966  36.511   9.601  1.00  0.00     0.082 A 
HETATM    8  C19 UNL     1     -11.269  36.037   9.592  1.00  0.00     0.185 A 
HETATM    9  F1  UNL     1     -11.605  35.059  10.470  1.00  0.00    -0.200 F 
ENDROOT
BRANCH   1  10
HETATM   10  N3  UNL     1     -13.556  36.079   8.682  1.00  0.00    -0.365 N 
HETATM   11  C5  UNL     1     -14.000  35.288   7.568  1.00  0.00     0.126 C 
HETATM   12  C4  UNL     1     -15.434  34.851   7.697  1.00  0.00     0.045 C 
HETATM   13  C3  UNL     1     -15.888  34.528   9.076  1.00  0.00     0.089 C 
HETATM   14  C21 UNL     1     -15.107  35.130  10.191  1.00  0.00     0.045 C 
HETATM   15  C20 UNL     1     -14.470  36.431   9.740  1.00  0.00     0.126 C 
BRANCH  13  16
HETATM   16  N2  UNL     1     -16.033  33.095   9.296  1.00  0.00    -0.338 N 
HETATM   17  C2  UNL     1     -16.979  32.286   8.610  1.00  0.00     0.316 C 
HETATM   18  N1  UNL     1     -17.052  30.901   8.885  1.00  0.00    -0.347 N 
HETATM   19  O1  UNL     1     -17.770  32.754   7.753  1.00  0.00    -0.247 OA
HETATM   20  C1  UNL     1     -18.011  30.073   8.191  1.00  0.00     0.151 C 
ATOM     21  H1  UNL     1     -16.426  30.485   9.574  1.00  0.00     0.163 HD
ATOM     22  H2  UNL     1     -15.422  32.648   9.980  1.00  0.00     0.164 HD
ENDBRANCH  13  16
ENDBRANCH   1  10
BRANCH   7  23
HETATM   23  C9  UNL     1      -8.949  35.973  10.548  1.00  0.00     0.174 C 
HETATM   24  C10 UNL     1      -7.768  36.882  10.547  1.00  0.00     0.043 C 
HETATM   25  C11 UNL     1      -7.052  36.965  11.865  1.00  0.00    -0.005 C 
HETATM   26  C12 UNL     1      -6.214  38.223  11.857  1.00  0.00     0.014 C 
HETATM   27  C17 UNL     1      -7.960  37.053  13.049  1.00  0.00     0.014 C 
HETATM   28  C13 UNL     1      -6.715  39.108  12.951  1.00  0.00    -0.047 C 
HETATM   29  C14 UNL     1      -5.577  39.275  13.955  1.00  0.00     0.015 C 
HETATM   30  C15 UNL     1      -7.138  40.472  12.454  1.00  0.00     0.015 C 
HETATM   31  C16 UNL     1      -7.913  38.452  13.575  1.00  0.00     0.015 C 
HETATM   32  C18 UNL     1      -9.382  36.720  12.689  1.00  0.00     0.173 C 
HETATM   33  O2  UNL     1      -9.467  35.676  11.777  1.00  0.00    -0.379 OA
ENDBRANCH   7  23
TORSDOF 3
ENDMDL
MODEL 4
REMARK VINA RESULT: -7.755090471      1.091      1.091
REMARK  3 active torsions:
REMARK  status: ('A' for Active; 'I' for Inactive)
REMARK       I    between atoms: N1_2  and  C2_4 
REMARK       I    between atoms: C2_4  and  N2_6 
REMARK    1  A    between atoms: N2_6  and  C3_8 
REMARK    2  A    between atoms: N3_11  and  C6_12 
REMARK    3  A    between atoms: C8_18  and  C9_19 
ROOT
HETATM    1  C6  UNL     1     -14.098  37.281   8.661  1.00  0.00     0.145 A 
HETATM    2  N4  UNL     1     -14.372  38.606   8.714  1.00  0.00    -0.336 N 
ATOM      3  H4  UNL     1     -15.336  38.922   8.818  1.00  0.00     0.168 HD
HETATM    4  C7  UNL     1     -13.381  39.499   8.630  1.00  0.00     0.182 A 
HETATM    5  N5  UNL     1     -12.100  39.108   8.492  1.00  0.00    -0.351 N 
ATOM      6  H5  UNL     1     -11.369  39.816   8.431  1.00  0.00     0.166 HD
HETATM    7  C8  UNL     1     -11.756  37.799   8.432  1.00  0.00     0.082 A 
HETATM    8  C19 UNL     1     -12.803  36.895   8.521  1.00  0.00     0.185 A 
HETATM    9  F1  UNL     1     -12.516  35.570   8.464  1.00  0.00    -0.200 F 
ENDROOT
BRANCH   1  10
HETATM   10  N3  UNL     1     -15.207  36.419   8.763  1.00  0.00    -0.365 N 
HETATM   11  C5  UNL     1     -16.180  36.383   7.707  1.00  0.00     0.126 C 
HETATM   12  C4  UNL     1     -17.256  35.358   7.940  1.00  0.00     0.045 C 
HETATM   13  C3  UNL     1     -16.815  34.098   8.599  1.00  0.00     0.089 C 
HETATM   14  C21 UNL     1     -15.559  34.169   9.394  1.00  0.00     0.045 C 
HETATM   15  C20 UNL     1     -15.354  35.576   9.924  1.00  0.00     0.126 C 
BRANCH  13  16
HETATM   16  N2  UNL     1     -16.748  32.976   7.672  1.00  0.00    -0.338 N 
HETATM   17  C2  UNL     1     -16.935  31.622   8.062  1.00  0.00     0.316 C 
HETATM   18  N1  UNL     1     -16.854  30.593   7.096  1.00  0.00    -0.347 N 
HETATM   19  O1  UNL     1     -17.175  31.290   9.251  1.00  0.00    -0.247 OA
HETATM   20  C1  UNL     1     -17.043  29.215   7.486  1.00  0.00     0.151 C 
ATOM     21  H1  UNL     1     -16.661  30.825   6.122  1.00  0.00     0.163 HD
ATOM     22  H2  UNL     1     -16.556  33.173   6.690  1.00  0.00     0.164 HD
ENDBRANCH  13  16
ENDBRANCH   1  10
BRANCH   7  23
HETATM   23  C9  UNL     1     -10.345  37.344   8.279  1.00  0.00     0.174 C 
HETATM   24  C10 UNL     1      -9.441  38.424   8.766  1.00  0.00     0.043 C 
HETATM   25  C11 UNL     1      -8.165  37.928   9.385  1.00  0.00    -0.005 C 
HETATM   26  C12 UNL     1      -7.594  39.047  10.226  1.00  0.00     0.014 C 
HETATM   27  C17 UNL     1      -8.341  36.750  10.288  1.00  0.00     0.014 C 
HETATM   28  C13 UNL     1      -7.558  38.575  11.643  1.00  0.00    -0.047 C 
HETATM   29  C14 UNL     1      -6.094  38.539  12.071  1.00  0.00     0.015 C 
HETATM   30  C15 UNL     1      -8.324  39.481  12.582  1.00  0.00     0.015 C 
HETATM   31  C16 UNL     1      -8.186  37.213  11.701  1.00  0.00     0.015 C 
HETATM   32  C18 UNL     1      -9.700  36.124  10.131  1.00  0.00     0.173 C 
HETATM   33  O2  UNL     1     -10.124  36.103   8.808  1.00  0.00    -0.379 OA
ENDBRANCH   7  23
TORSDOF 3
ENDMDL
MODEL 5
REMARK VINA RESULT: -7.652619678      2.552      9.159
REMARK  3 active torsions:
REMARK  status: ('A' for Active; 'I' for Inactive)
REMARK       I    between atoms: N1_2  and  C2_4 
REMARK       I    between atoms: C2_4  and  N2_6 
REMARK    1  A    between atoms: N2_6  and  C3_8 
REMARK    2  A    between atoms: N3_11  and  C6_12 
REMARK    3  A    between atoms: C8_18  and  C9_19 
ROOT
HETATM    1  C6  UNL     1     -11.964  36.226   8.942  1.00  0.00     0.145 A 
HETATM    2  N4  UNL     1     -12.513  36.105  10.174  1.00  0.00    -0.336 N 
ATOM      3  H4  UNL     1     -12.019  36.468  10.989  1.00  0.00     0.168 HD
HETATM    4  C7  UNL     1     -13.702  35.511  10.323  1.00  0.00     0.182 A 
HETATM    5  N5  UNL     1     -14.374  35.023   9.263  1.00  0.00    -0.351 N 
ATOM      6  H5  UNL     1     -15.279  34.576   9.412  1.00  0.00     0.166 HD
HETATM    7  C8  UNL     1     -13.883  35.110   8.004  1.00  0.00     0.082 A 
HETATM    8  C19 UNL     1     -12.649  35.731   7.879  1.00  0.00     0.185 A 
HETATM    9  F1  UNL     1     -12.109  35.843   6.639  1.00  0.00    -0.200 F 
ENDROOT
BRANCH   1  10
HETATM   10  N3  UNL     1     -10.714  36.870   8.886  1.00  0.00    -0.365 N 
HETATM   11  C5  UNL     1     -10.644  38.258   8.520  1.00  0.00     0.126 C 
HETATM   12  C4  UNL     1      -9.245  38.808   8.581  1.00  0.00     0.045 C 
HETATM   13  C3  UNL     1      -8.391  38.276   9.677  1.00  0.00     0.089 C 
HETATM   14  C21 UNL     1      -8.783  36.958  10.245  1.00  0.00     0.045 C 
HETATM   15  C20 UNL     1      -9.514  36.135   9.201  1.00  0.00     0.126 C 
BRANCH  13  16
HETATM   16  N2  UNL     1      -8.200  39.239  10.755  1.00  0.00    -0.338 N 
HETATM   17  C2  UNL     1      -7.036  39.288  11.568  1.00  0.00     0.316 C 
HETATM   18  N1  UNL     1      -6.932  40.256  12.593  1.00  0.00    -0.347 N 
HETATM   19  O1  UNL     1      -6.073  38.493  11.415  1.00  0.00    -0.247 OA
HETATM   20  C1  UNL     1      -5.751  40.311  13.423  1.00  0.00     0.151 C 
ATOM     21  H1  UNL     1      -7.693  40.917  12.746  1.00  0.00     0.163 HD
ATOM     22  H2  UNL     1      -8.942  39.914  10.935  1.00  0.00     0.164 HD
ENDBRANCH  13  16
ENDBRANCH   1  10
BRANCH   7  23
HETATM   23  C9  UNL     1     -14.611  34.577   6.818  1.00  0.00     0.174 C 
HETATM   24  C10 UNL     1     -14.684  33.093   6.930  1.00  0.00     0.043 C 
HETATM   25  C11 UNL     1     -15.923  32.489   6.333  1.00  0.00    -0.005 C 
HETATM   26  C12 UNL     1     -16.088  31.104   6.914  1.00  0.00     0.014 C 
HETATM   27  C17 UNL     1     -17.177  33.242   6.637  1.00  0.00     0.014 C 
HETATM   28  C13 UNL     1     -17.375  31.081   7.672  1.00  0.00    -0.047 C 
HETATM   29  C14 UNL     1     -18.287  30.067   6.986  1.00  0.00     0.015 C 
HETATM   30  C15 UNL     1     -17.196  30.681   9.120  1.00  0.00     0.015 C 
HETATM   31  C16 UNL     1     -17.962  32.462   7.644  1.00  0.00     0.015 C 
HETATM   32  C18 UNL     1     -16.887  34.606   7.203  1.00  0.00     0.173 C 
HETATM   33  O2  UNL     1     -15.799  35.213   6.589  1.00  0.00    -0.379 OA
ENDBRANCH   7  23
TORSDOF 3
ENDMDL
