MODEL 1
REMARK VINA RESULT: -6.618560285      0.000      0.000
REMARK  3 active torsions:
REMARK  status: ('A' for Active; 'I' for Inactive)
REMARK    1  A    between atoms: C3_3  and  N1_4 
REMARK    2  A    between atoms: N1_4  and  C4_6 
REMARK    3  A    between atoms: C5_9  and  N3_10 
ROOT
HETATM    1  C1  UNL     1       1.865   3.833  49.320  1.00  0.00     0.014 C 
HETATM    2  C2  UNL     1       2.929   3.622  48.806  1.00  0.00    -0.098 C 
HETATM    3  C3  UNL     1       4.228   3.368  48.177  1.00  0.00     0.215 C 
ENDROOT
BRANCH   3   4
HETATM    4  N1  UNL     1       4.245   2.186  47.379  1.00  0.00    -0.363 N 
ATOM      5  H1  UNL     1       4.855   1.433  47.696  1.00  0.00     0.162 HD
BRANCH   4   6
HETATM    6  C4  UNL     1       3.586   1.971  46.319  1.00  0.00     0.148 A 
HETATM    7  N2  UNL     1       3.612   2.754  45.225  1.00  0.00    -0.175 N 
HETATM    8  C5  UNL     1       2.893   2.483  44.125  1.00  0.00     0.679 A 
ATOM      9  H2  UNL     1       4.202   3.586  45.232  1.00  0.00     0.186 HD
HETATM   10  N4  UNL     1       2.087   1.398  44.036  1.00  0.00    -0.174 N 
HETATM   11  C6  UNL     1       2.031   0.581  45.119  1.00  0.00     0.153 A 
ATOM     12  H4  UNL     1       1.546   1.203  43.193  1.00  0.00     0.186 HD
HETATM   13  N5  UNL     1       1.351  -0.532  45.337  1.00  0.00    -0.330 N 
HETATM   14  C10 UNL     1       2.773   0.860  46.258  1.00  0.00     0.125 A 
HETATM   15  C7  UNL     1       1.654  -0.943  46.571  1.00  0.00     0.081 A 
ATOM     16  H5  UNL     1       0.714  -0.990  44.685  1.00  0.00     0.168 HD
HETATM   17  C8  UNL     1       1.118  -2.156  47.238  1.00  0.00     0.089 C 
HETATM   18  N6  UNL     1       2.535  -0.093  47.162  1.00  0.00    -0.335 N 
HETATM   19  C9  UNL     1       3.096  -0.205  48.494  1.00  0.00     0.158 C 
BRANCH   8  20
HETATM   20  N3  UNL     1       2.941   3.257  43.086  1.00  0.00    -0.234 N 
ATOM     21  H32 UNL     1       3.443   2.900  42.272  1.00  0.00     0.174 HD
ATOM     22  H31 UNL     1       2.498   4.175  43.093  1.00  0.00     0.174 HD
ENDBRANCH   8  20
ENDBRANCH   4   6
ENDBRANCH   3   4
TORSDOF 3
ENDMDL
MODEL 2
REMARK VINA RESULT: -6.398575398      1.316      1.991
REMARK  3 active torsions:
REMARK  status: ('A' for Active; 'I' for Inactive)
REMARK    1  A    between atoms: C3_3  and  N1_4 
REMARK    2  A    between atoms: N1_4  and  C4_6 
REMARK    3  A    between atoms: C5_9  and  N3_10 
ROOT
HETATM    1  C1  UNL     1       6.568   0.570  46.623  1.00  0.00     0.014 C 
HETATM    2  C2  UNL     1       5.815   1.282  47.229  1.00  0.00    -0.098 C 
HETATM    3  C3  UNL     1       4.897   2.149  47.973  1.00  0.00     0.215 C 
ENDROOT
BRANCH   3   4
HETATM    4  N1  UNL     1       3.547   2.057  47.523  1.00  0.00    -0.363 N 
ATOM      5  H1  UNL     1       2.825   2.085  48.243  1.00  0.00     0.162 HD
BRANCH   4   6
HETATM    6  C4  UNL     1       3.146   1.944  46.326  1.00  0.00     0.148 A 
HETATM    7  N2  UNL     1       3.349   2.857  45.358  1.00  0.00    -0.175 N 
HETATM    8  C5  UNL     1       2.904   2.690  44.104  1.00  0.00     0.679 A 
ATOM      9  H2  UNL     1       3.861   3.708  45.588  1.00  0.00     0.186 HD
HETATM   10  N4  UNL     1       2.217   1.588  43.719  1.00  0.00    -0.174 N 
HETATM   11  C6  UNL     1       1.991   0.641  44.666  1.00  0.00     0.153 A 
ATOM     12  H4  UNL     1       1.885   1.474  42.761  1.00  0.00     0.186 HD
HETATM   13  N5  UNL     1       1.363  -0.521  44.604  1.00  0.00    -0.330 N 
HETATM   14  C10 UNL     1       2.450   0.811  45.965  1.00  0.00     0.125 A 
HETATM   15  C7  UNL     1       1.424  -1.067  45.821  1.00  0.00     0.081 A 
ATOM     16  H5  UNL     1       0.916  -0.925  43.780  1.00  0.00     0.168 HD
HETATM   17  C8  UNL     1       0.849  -2.377  46.214  1.00  0.00     0.089 C 
HETATM   18  N6  UNL     1       2.094  -0.257  46.682  1.00  0.00    -0.335 N 
HETATM   19  C9  UNL     1       2.363  -0.505  48.085  1.00  0.00     0.158 C 
BRANCH   8  20
HETATM   20  N3  UNL     1       3.116   3.589  43.193  1.00  0.00    -0.234 N 
ATOM     21  H32 UNL     1       3.262   4.545  43.520  1.00  0.00     0.174 HD
ATOM     22  H31 UNL     1       3.133   3.342  42.204  1.00  0.00     0.174 HD
ENDBRANCH   8  20
ENDBRANCH   4   6
ENDBRANCH   3   4
TORSDOF 3
ENDMDL
MODEL 3
REMARK VINA RESULT: -6.392717835      1.299      4.044
REMARK  3 active torsions:
REMARK  status: ('A' for Active; 'I' for Inactive)
REMARK    1  A    between atoms: C3_3  and  N1_4 
REMARK    2  A    between atoms: N1_4  and  C4_6 
REMARK    3  A    between atoms: C5_9  and  N3_10 
ROOT
HETATM    1  C1  UNL     1       1.417  -2.657  47.830  1.00  0.00     0.014 C 
HETATM    2  C2  UNL     1       1.224  -2.023  46.829  1.00  0.00    -0.098 C 
HETATM    3  C3  UNL     1       0.992  -1.251  45.606  1.00  0.00     0.215 C 
ENDROOT
BRANCH   3   4
HETATM    4  N1  UNL     1       0.783   0.139  45.849  1.00  0.00    -0.363 N 
ATOM      5  H1  UNL     1      -0.034   0.384  46.409  1.00  0.00     0.162 HD
BRANCH   4   6
HETATM    6  C4  UNL     1       1.500   1.102  45.445  1.00  0.00     0.148 A 
HETATM    7  N2  UNL     1       1.805   1.346  44.157  1.00  0.00    -0.175 N 
HETATM    8  C5  UNL     1       2.571   2.381  43.779  1.00  0.00     0.679 A 
ATOM      9  H2  UNL     1       1.439   0.719  43.440  1.00  0.00     0.186 HD
HETATM   10  N4  UNL     1       3.093   3.258  44.669  1.00  0.00    -0.174 N 
HETATM   11  C6  UNL     1       2.809   3.048  45.981  1.00  0.00     0.153 A 
ATOM     12  H4  UNL     1       3.673   4.042  44.368  1.00  0.00     0.186 HD
HETATM   13  N5  UNL     1       3.165   3.714  47.067  1.00  0.00    -0.330 N 
HETATM   14  C10 UNL     1       2.018   1.978  46.374  1.00  0.00     0.125 A 
HETATM   15  C7  UNL     1       2.616   3.087  48.110  1.00  0.00     0.081 A 
ATOM     16  H5  UNL     1       3.749   4.549  47.101  1.00  0.00     0.168 HD
HETATM   17  C8  UNL     1       2.751   3.487  49.532  1.00  0.00     0.089 C 
HETATM   18  N6  UNL     1       1.900   2.005  47.703  1.00  0.00    -0.335 N 
HETATM   19  C9  UNL     1       1.164   1.080  48.542  1.00  0.00     0.158 C 
BRANCH   8  20
HETATM   20  N3  UNL     1       2.846   2.589  42.529  1.00  0.00    -0.234 N 
ATOM     21  H32 UNL     1       3.124   1.775  41.980  1.00  0.00     0.174 HD
ATOM     22  H31 UNL     1       2.784   3.523  42.125  1.00  0.00     0.174 HD
ENDBRANCH   8  20
ENDBRANCH   4   6
ENDBRANCH   3   4
TORSDOF 3
ENDMDL
MODEL 4
REMARK VINA RESULT: -6.347906528      1.784      4.771
REMARK  3 active torsions:
REMARK  status: ('A' for Active; 'I' for Inactive)
REMARK    1  A    between atoms: C3_3  and  N1_4 
REMARK    2  A    between atoms: N1_4  and  C4_6 
REMARK    3  A    between atoms: C5_9  and  N3_10 
ROOT
HETATM    1  C1  UNL     1       1.491  -2.560  46.903  1.00  0.00     0.014 C 
HETATM    2  C2  UNL     1       1.126  -1.684  47.638  1.00  0.00    -0.098 C 
HETATM    3  C3  UNL     1       0.677  -0.618  48.537  1.00  0.00     0.215 C 
ENDROOT
BRANCH   3   4
HETATM    4  N1  UNL     1       0.590   0.655  47.901  1.00  0.00    -0.363 N 
ATOM      5  H1  UNL     1      -0.234   0.818  47.321  1.00  0.00     0.162 HD
BRANCH   4   6
HETATM    6  C4  UNL     1       1.423   1.606  47.976  1.00  0.00     0.148 A 
HETATM    7  N2  UNL     1       1.846   2.168  49.124  1.00  0.00    -0.175 N 
HETATM    8  C5  UNL     1       2.733   3.174  49.151  1.00  0.00     0.679 A 
ATOM      9  H2  UNL     1       1.478   1.814  50.007  1.00  0.00     0.186 HD
HETATM   10  N4  UNL     1       3.268   3.699  48.023  1.00  0.00    -0.174 N 
HETATM   11  C6  UNL     1       2.868   3.160  46.843  1.00  0.00     0.153 A 
ATOM     12  H4  UNL     1       3.942   4.464  48.059  1.00  0.00     0.186 HD
HETATM   13  N5  UNL     1       3.200   3.449  45.595  1.00  0.00    -0.330 N 
HETATM   14  C10 UNL     1       1.951   2.120  46.811  1.00  0.00     0.125 A 
HETATM   15  C7  UNL     1       2.518   2.619  44.804  1.00  0.00     0.081 A 
ATOM     16  H5  UNL     1       3.855   4.171  45.295  1.00  0.00     0.168 HD
HETATM   17  C8  UNL     1       2.581   2.584  43.322  1.00  0.00     0.089 C 
HETATM   18  N6  UNL     1       1.735   1.784  45.538  1.00  0.00    -0.335 N 
HETATM   19  C9  UNL     1       0.853   0.748  45.036  1.00  0.00     0.158 C 
BRANCH   8  20
HETATM   20  N3  UNL     1       3.121   3.694  50.275  1.00  0.00    -0.234 N 
ATOM     21  H32 UNL     1       3.462   3.045  50.985  1.00  0.00     0.174 HD
ATOM     22  H31 UNL     1       3.081   4.701  50.430  1.00  0.00     0.174 HD
ENDBRANCH   8  20
ENDBRANCH   4   6
ENDBRANCH   3   4
TORSDOF 3
ENDMDL
MODEL 5
REMARK VINA RESULT: -6.027308083      2.327      4.593
REMARK  3 active torsions:
REMARK  status: ('A' for Active; 'I' for Inactive)
REMARK    1  A    between atoms: C3_3  and  N1_4 
REMARK    2  A    between atoms: N1_4  and  C4_6 
REMARK    3  A    between atoms: C5_9  and  N3_10 
ROOT
HETATM    1  C1  UNL     1       0.754   1.963  44.457  1.00  0.00     0.014 C 
HETATM    2  C2  UNL     1       0.419   1.624  45.559  1.00  0.00    -0.098 C 
HETATM    3  C3  UNL     1       0.005   1.214  46.903  1.00  0.00     0.215 C 
ENDROOT
BRANCH   3   4
HETATM    4  N1  UNL     1       1.103   1.007  47.791  1.00  0.00    -0.363 N 
ATOM      5  H1  UNL     1       1.245   0.053  48.123  1.00  0.00     0.162 HD
BRANCH   4   6
HETATM    6  C4  UNL     1       1.920   1.880  48.211  1.00  0.00     0.148 A 
HETATM    7  N2  UNL     1       1.591   2.934  48.980  1.00  0.00    -0.175 N 
HETATM    8  C5  UNL     1       2.494   3.832  49.399  1.00  0.00     0.679 A 
ATOM      9  H2  UNL     1       0.615   3.054  49.254  1.00  0.00     0.186 HD
HETATM   10  N4  UNL     1       3.808   3.742  49.079  1.00  0.00    -0.174 N 
HETATM   11  C6  UNL     1       4.183   2.692  48.304  1.00  0.00     0.153 A 
ATOM     12  H4  UNL     1       4.485   4.432  49.406  1.00  0.00     0.186 HD
HETATM   13  N5  UNL     1       5.365   2.337  47.831  1.00  0.00    -0.330 N 
HETATM   14  C10 UNL     1       3.249   1.762  47.868  1.00  0.00     0.125 A 
HETATM   15  C7  UNL     1       5.185   1.220  47.121  1.00  0.00     0.081 A 
ATOM     16  H5  UNL     1       6.249   2.824  47.980  1.00  0.00     0.168 HD
HETATM   17  C8  UNL     1       6.245   0.466  46.407  1.00  0.00     0.089 C 
HETATM   18  N6  UNL     1       3.879   0.845  47.131  1.00  0.00    -0.335 N 
HETATM   19  C9  UNL     1       3.297  -0.310  46.475  1.00  0.00     0.158 C 
BRANCH   8  20
HETATM   20  N3  UNL     1       2.145   4.837  50.141  1.00  0.00    -0.234 N 
ATOM     21  H32 UNL     1       1.933   4.632  51.118  1.00  0.00     0.174 HD
ATOM     22  H31 UNL     1       2.086   5.779  49.756  1.00  0.00     0.174 HD
ENDBRANCH   8  20
ENDBRANCH   4   6
ENDBRANCH   3   4
TORSDOF 3
ENDMDL
