MODEL 1
REMARK VINA RESULT: -5.384475829      0.000      0.000
REMARK  2 active torsions:
REMARK  status: ('A' for Active; 'I' for Inactive)
REMARK    1  A    between atoms: C2_2  and  C3_7 
REMARK    2  A    between atoms: N1_3  and  O1_5 
ROOT
HETATM    1  C3  UNL     1      23.377  -1.185 -21.711  1.00  0.00     0.188 C 
HETATM    2  C4  UNL     1      23.079  -1.581 -23.091  1.00  0.00     0.104 C 
HETATM    3  N2  UNL     1      22.831  -1.898 -24.180  1.00  0.00    -0.194 NA
HETATM    4  C5  UNL     1      24.692  -1.871 -21.364  1.00  0.00     0.062 C 
HETATM    5  C6  UNL     1      25.646  -1.017 -22.200  1.00  0.00     0.031 C 
HETATM    6  C7  UNL     1      24.978   0.334 -22.076  1.00  0.00     0.170 C 
HETATM    7  O2  UNL     1      23.713   0.130 -21.579  1.00  0.00    -0.360 OA
ENDROOT
BRANCH   1   8
HETATM    8  C2  UNL     1      22.380  -1.674 -20.768  1.00  0.00     0.054 C 
HETATM    9  C1  UNL     1      22.779  -2.448 -19.556  1.00  0.00     0.070 C 
HETATM   10  N1  UNL     1      21.130  -1.467 -20.939  1.00  0.00    -0.274 N 
ATOM     11  H1  UNL     1      20.452  -1.821 -20.265  1.00  0.00     0.193 HD
BRANCH  10  12
HETATM   12  O1  UNL     1      20.712  -0.763 -22.035  1.00  0.00    -0.290 OA
ATOM     13  H1  UNL     1      21.194   0.010 -22.304  1.00  0.00     0.244 HD
ENDBRANCH  10  12
ENDBRANCH   1   8
TORSDOF 2
ENDMDL
MODEL 2
REMARK VINA RESULT: -5.358271623      1.838      3.531
REMARK  2 active torsions:
REMARK  status: ('A' for Active; 'I' for Inactive)
REMARK    1  A    between atoms: C2_2  and  C3_7 
REMARK    2  A    between atoms: N1_3  and  O1_5 
ROOT
HETATM    1  C3  UNL     1      23.171  -0.685 -22.550  1.00  0.00     0.188 C 
HETATM    2  C4  UNL     1      22.550  -1.195 -21.323  1.00  0.00     0.104 C 
HETATM    3  N2  UNL     1      22.070  -1.598 -20.346  1.00  0.00    -0.194 NA
HETATM    4  C5  UNL     1      22.798  -1.680 -23.641  1.00  0.00     0.062 C 
HETATM    5  C6  UNL     1      21.320  -1.323 -23.807  1.00  0.00     0.031 C 
HETATM    6  C7  UNL     1      21.374   0.170 -23.572  1.00  0.00     0.170 C 
HETATM    7  O2  UNL     1      22.598   0.461 -23.018  1.00  0.00    -0.360 OA
ENDROOT
BRANCH   1   8
HETATM    8  C2  UNL     1      24.625  -0.669 -22.467  1.00  0.00     0.054 C 
HETATM    9  C1  UNL     1      25.386  -1.878 -22.035  1.00  0.00     0.070 C 
HETATM   10  N1  UNL     1      25.306   0.373 -22.756  1.00  0.00    -0.274 N 
ATOM     11  H1  UNL     1      26.324   0.359 -22.688  1.00  0.00     0.193 HD
BRANCH  10  12
HETATM   12  O1  UNL     1      24.656   1.508 -23.157  1.00  0.00    -0.290 OA
ATOM     13  H1  UNL     1      25.055   2.064 -23.816  1.00  0.00     0.244 HD
ENDBRANCH  10  12
ENDBRANCH   1   8
TORSDOF 2
ENDMDL
MODEL 3
REMARK VINA RESULT: -5.254245115      1.178      1.229
REMARK  2 active torsions:
REMARK  status: ('A' for Active; 'I' for Inactive)
REMARK    1  A    between atoms: C2_2  and  C3_7 
REMARK    2  A    between atoms: N1_3  and  O1_5 
ROOT
HETATM    1  C3  UNL     1      22.975  -1.076 -22.510  1.00  0.00     0.188 C 
HETATM    2  C4  UNL     1      23.022  -1.881 -23.735  1.00  0.00     0.104 C 
HETATM    3  N2  UNL     1      23.046  -2.519 -24.705  1.00  0.00    -0.194 NA
HETATM    4  C5  UNL     1      23.937  -1.751 -21.540  1.00  0.00     0.062 C 
HETATM    5  C6  UNL     1      25.263  -1.349 -22.188  1.00  0.00     0.031 C 
HETATM    6  C7  UNL     1      24.910   0.031 -22.695  1.00  0.00     0.170 C 
HETATM    7  O2  UNL     1      23.542   0.157 -22.643  1.00  0.00    -0.360 OA
ENDROOT
BRANCH   1   8
HETATM    8  C2  UNL     1      21.658  -1.096 -21.886  1.00  0.00     0.054 C 
HETATM    9  C1  UNL     1      21.478  -1.569 -20.482  1.00  0.00     0.070 C 
HETATM   10  N1  UNL     1      20.610  -0.715 -22.510  1.00  0.00    -0.274 N 
ATOM     11  H1  UNL     1      19.700  -0.740 -22.051  1.00  0.00     0.193 HD
BRANCH  10  12
HETATM   12  O1  UNL     1      20.722  -0.272 -23.799  1.00  0.00    -0.290 OA
ATOM     13  H1  UNL     1      20.044  -0.493 -24.427  1.00  0.00     0.244 HD
ENDBRANCH  10  12
ENDBRANCH   1   8
TORSDOF 2
ENDMDL
MODEL 4
REMARK VINA RESULT: -5.189978774      1.796      2.508
REMARK  2 active torsions:
REMARK  status: ('A' for Active; 'I' for Inactive)
REMARK    1  A    between atoms: C2_2  and  C3_7 
REMARK    2  A    between atoms: N1_3  and  O1_5 
ROOT
HETATM    1  C3  UNL     1      23.269  -0.608 -22.138  1.00  0.00     0.188 C 
HETATM    2  C4  UNL     1      24.027   0.573 -22.566  1.00  0.00     0.104 C 
HETATM    3  N2  UNL     1      24.614   1.514 -22.907  1.00  0.00    -0.194 NA
HETATM    4  C5  UNL     1      23.894  -1.784 -22.878  1.00  0.00     0.062 C 
HETATM    5  C6  UNL     1      25.208  -1.895 -22.103  1.00  0.00     0.031 C 
HETATM    6  C7  UNL     1      24.736  -1.520 -20.716  1.00  0.00     0.170 C 
HETATM    7  O2  UNL     1      23.488  -0.957 -20.838  1.00  0.00    -0.360 OA
ENDROOT
BRANCH   1   8
HETATM    8  C2  UNL     1      21.872  -0.545 -22.543  1.00  0.00     0.054 C 
HETATM    9  C1  UNL     1      21.450   0.245 -23.737  1.00  0.00     0.070 C 
HETATM   10  N1  UNL     1      20.953  -1.155 -21.897  1.00  0.00    -0.274 N 
ATOM     11  H1  UNL     1      19.982  -1.093 -22.200  1.00  0.00     0.193 HD
BRANCH  10  12
HETATM   12  O1  UNL     1      21.287  -1.892 -20.794  1.00  0.00    -0.290 OA
ATOM     13  H1  UNL     1      22.178  -2.210 -20.699  1.00  0.00     0.244 HD
ENDBRANCH  10  12
ENDBRANCH   1   8
TORSDOF 2
ENDMDL
MODEL 5
REMARK VINA RESULT: -4.882123095      1.793      3.058
REMARK  2 active torsions:
REMARK  status: ('A' for Active; 'I' for Inactive)
REMARK    1  A    between atoms: C2_2  and  C3_7 
REMARK    2  A    between atoms: N1_3  and  O1_5 
ROOT
HETATM    1  C3  UNL     1      23.251  -1.161 -22.443  1.00  0.00     0.188 C 
HETATM    2  C4  UNL     1      22.594  -1.436 -21.161  1.00  0.00     0.104 C 
HETATM    3  N2  UNL     1      22.062  -1.658 -20.153  1.00  0.00    -0.194 NA
HETATM    4  C5  UNL     1      23.877   0.220 -22.293  1.00  0.00     0.062 C 
HETATM    5  C6  UNL     1      25.036  -0.133 -21.360  1.00  0.00     0.031 C 
HETATM    6  C7  UNL     1      25.385  -1.512 -21.872  1.00  0.00     0.170 C 
HETATM    7  O2  UNL     1      24.350  -1.935 -22.672  1.00  0.00    -0.360 OA
ENDROOT
BRANCH   1   8
HETATM    8  C2  UNL     1      22.301  -1.080 -23.545  1.00  0.00     0.054 C 
HETATM    9  C1  UNL     1      21.257  -0.014 -23.586  1.00  0.00     0.070 C 
HETATM   10  N1  UNL     1      22.319  -1.913 -24.514  1.00  0.00    -0.274 N 
ATOM     11  H1  UNL     1      21.642  -1.836 -25.272  1.00  0.00     0.193 HD
BRANCH  10  12
HETATM   12  O1  UNL     1      23.256  -2.910 -24.523  1.00  0.00    -0.290 OA
ATOM     13  H1  UNL     1      24.045  -2.801 -25.040  1.00  0.00     0.244 HD
ENDBRANCH  10  12
ENDBRANCH   1   8
TORSDOF 2
ENDMDL
