MODEL 1
REMARK VINA RESULT: -8.178565743      0.000      0.000
REMARK  5 active torsions:
REMARK  status: ('A' for Active; 'I' for Inactive)
REMARK    1  A    between atoms: C3_3  and  C4_4 
REMARK    2  A    between atoms: C6_6  and  C7_7 
REMARK    3  A    between atoms: N1_8  and  O1_10 
REMARK    4  A    between atoms: C9_15  and  N2_16 
REMARK    5  A    between atoms: N2_16  and  N3_18 
ROOT
HETATM    1  C1  UNL     1      63.640  25.123  23.576  1.00  0.00     0.012 C 
HETATM    2  C2  UNL     1      63.854  24.142  22.884  1.00  0.00    -0.113 C 
HETATM    3  C3  UNL     1      64.077  22.977  22.046  1.00  0.00     0.136 C 
ENDROOT
BRANCH   3   4
HETATM    4  C4  UNL     1      64.798  21.928  22.786  1.00  0.00     0.007 A 
HETATM    5  C5  UNL     1      64.131  21.306  23.849  1.00  0.00     0.031 A 
HETATM    6  C6  UNL     1      64.789  20.326  24.539  1.00  0.00     0.058 A 
HETATM    7  C8  UNL     1      66.087  19.965  24.186  1.00  0.00     0.301 A 
HETATM    8  O2  UNL     1      66.703  19.053  24.823  1.00  0.00    -0.259 OA
HETATM    9  O3  UNL     1      66.648  20.578  23.193  1.00  0.00    -0.256 OA
HETATM   10  C9  UNL     1      66.077  21.528  22.487  1.00  0.00     0.173 A 
BRANCH   6  11
HETATM   11  C7  UNL     1      64.142  19.648  25.643  1.00  0.00     0.131 C 
HETATM   12  N1  UNL     1      62.917  19.471  25.852  1.00  0.00    -0.280 N 
ATOM     13  H1  UNL     1      62.744  18.956  26.715  1.00  0.00     0.193 HD
BRANCH  12  14
HETATM   14  O1  UNL     1      61.795  19.789  25.227  1.00  0.00    -0.290 OA
ATOM     15  H1  UNL     1      60.868  19.652  25.384  1.00  0.00     0.244 HD
ENDBRANCH  12  14
ENDBRANCH   6  11
BRANCH  10  16
HETATM   16  N2  UNL     1      66.747  22.162  21.410  1.00  0.00    -0.279 N 
ATOM     17  H2  UNL     1      66.322  22.189  20.483  1.00  0.00     0.189 HD
BRANCH  16  18
HETATM   18  N3  UNL     1      67.976  22.740  21.628  1.00  0.00    -0.307 N 
HETATM   19  C10 UNL     1      68.273  23.960  21.783  1.00  0.00     0.004 C 
HETATM   20  C11 UNL     1      67.284  25.043  21.754  1.00  0.00     0.054 C 
HETATM   21  C16 UNL     1      69.751  24.159  22.003  1.00  0.00     0.054 C 
HETATM   22  C12 UNL     1      67.726  26.172  20.830  1.00  0.00     0.006 C 
HETATM   23  C13 UNL     1      68.584  27.106  21.614  1.00  0.00     0.000 C 
HETATM   24  C14 UNL     1      69.985  26.605  21.845  1.00  0.00     0.000 C 
HETATM   25  C15 UNL     1      70.026  25.421  22.782  1.00  0.00     0.006 C 
ATOM     26  H3  UNL     1      68.762  22.091  21.671  1.00  0.00     0.186 HD
ENDBRANCH  16  18
ENDBRANCH  10  16
ENDBRANCH   3   4
TORSDOF 5
ENDMDL
MODEL 2
REMARK VINA RESULT: -7.805975895      2.987      4.143
REMARK  5 active torsions:
REMARK  status: ('A' for Active; 'I' for Inactive)
REMARK    1  A    between atoms: C3_3  and  C4_4 
REMARK    2  A    between atoms: C6_6  and  C7_7 
REMARK    3  A    between atoms: N1_8  and  O1_10 
REMARK    4  A    between atoms: C9_15  and  N2_16 
REMARK    5  A    between atoms: N2_16  and  N3_18 
ROOT
HETATM    1  C1  UNL     1      59.044  24.643  26.601  1.00  0.00     0.012 C 
HETATM    2  C2  UNL     1      59.670  24.103  25.704  1.00  0.00    -0.113 C 
HETATM    3  C3  UNL     1      60.391  23.471  24.614  1.00  0.00     0.136 C 
ENDROOT
BRANCH   3   4
HETATM    4  C4  UNL     1      60.994  22.200  25.050  1.00  0.00     0.007 A 
HETATM    5  C5  UNL     1      60.458  21.581  26.187  1.00  0.00     0.031 A 
HETATM    6  C6  UNL     1      61.006  20.398  26.597  1.00  0.00     0.058 A 
HETATM    7  C8  UNL     1      62.069  19.833  25.896  1.00  0.00     0.301 A 
HETATM    8  O2  UNL     1      62.582  18.731  26.272  1.00  0.00    -0.259 OA
HETATM    9  O3  UNL     1      62.519  20.454  24.854  1.00  0.00    -0.256 OA
HETATM   10  C9  UNL     1      62.042  21.593  24.403  1.00  0.00     0.173 A 
BRANCH   6  11
HETATM   11  C7  UNL     1      60.485  19.715  27.762  1.00  0.00     0.131 C 
HETATM   12  N1  UNL     1      60.199  18.501  27.905  1.00  0.00    -0.280 N 
ATOM     13  H1  UNL     1      59.848  18.295  28.839  1.00  0.00     0.193 HD
BRANCH  12  14
HETATM   14  O1  UNL     1      60.243  17.423  27.139  1.00  0.00    -0.290 OA
ATOM     15  H1  UNL     1      60.929  16.910  26.728  1.00  0.00     0.244 HD
ENDBRANCH  12  14
ENDBRANCH   6  11
BRANCH  10  16
HETATM   16  N2  UNL     1      62.581  22.225  23.254  1.00  0.00    -0.279 N 
ATOM     17  H2  UNL     1      62.020  22.888  22.720  1.00  0.00     0.189 HD
BRANCH  16  18
HETATM   18  N3  UNL     1      63.869  21.933  22.866  1.00  0.00    -0.307 N 
HETATM   19  C10 UNL     1      64.860  22.707  22.730  1.00  0.00     0.004 C 
HETATM   20  C11 UNL     1      64.799  24.151  22.980  1.00  0.00     0.054 C 
HETATM   21  C16 UNL     1      66.098  21.968  22.287  1.00  0.00     0.054 C 
HETATM   22  C12 UNL     1      65.403  24.939  21.822  1.00  0.00     0.006 C 
HETATM   23  C13 UNL     1      66.870  25.058  22.055  1.00  0.00     0.000 C 
HETATM   24  C14 UNL     1      67.644  23.804  21.741  1.00  0.00     0.000 C 
HETATM   25  C15 UNL     1      67.352  22.688  22.716  1.00  0.00     0.006 C 
ATOM     26  H3  UNL     1      64.050  20.950  22.658  1.00  0.00     0.186 HD
ENDBRANCH  16  18
ENDBRANCH  10  16
ENDBRANCH   3   4
TORSDOF 5
ENDMDL
MODEL 3
REMARK VINA RESULT: -7.768949056      2.567      3.159
REMARK  5 active torsions:
REMARK  status: ('A' for Active; 'I' for Inactive)
REMARK    1  A    between atoms: C3_3  and  C4_4 
REMARK    2  A    between atoms: C6_6  and  C7_7 
REMARK    3  A    between atoms: N1_8  and  O1_10 
REMARK    4  A    between atoms: C9_15  and  N2_16 
REMARK    5  A    between atoms: N2_16  and  N3_18 
ROOT
HETATM    1  C1  UNL     1      59.818  23.630  26.397  1.00  0.00     0.012 C 
HETATM    2  C2  UNL     1      60.341  23.124  25.418  1.00  0.00    -0.113 C 
HETATM    3  C3  UNL     1      60.934  22.524  24.236  1.00  0.00     0.136 C 
ENDROOT
BRANCH   3   4
HETATM    4  C4  UNL     1      61.875  21.454  24.605  1.00  0.00     0.007 A 
HETATM    5  C5  UNL     1      61.407  20.438  25.449  1.00  0.00     0.031 A 
HETATM    6  C6  UNL     1      62.270  19.436  25.794  1.00  0.00     0.058 A 
HETATM    7  C8  UNL     1      63.578  19.436  25.313  1.00  0.00     0.301 A 
HETATM    8  O2  UNL     1      64.385  18.505  25.629  1.00  0.00    -0.259 OA
HETATM    9  O3  UNL     1      63.949  20.403  24.537  1.00  0.00    -0.256 OA
HETATM   10  C9  UNL     1      63.174  21.398  24.165  1.00  0.00     0.173 A 
BRANCH   6  11
HETATM   11  C7  UNL     1      61.834  18.360  26.658  1.00  0.00     0.131 C 
HETATM   12  N1  UNL     1      61.829  17.123  26.439  1.00  0.00    -0.280 N 
ATOM     13  H1  UNL     1      61.465  16.594  27.231  1.00  0.00     0.193 HD
BRANCH  12  14
HETATM   14  O1  UNL     1      62.179  16.340  25.433  1.00  0.00    -0.290 OA
ATOM     15  H1  UNL     1      62.995  16.113  25.001  1.00  0.00     0.244 HD
ENDBRANCH  12  14
ENDBRANCH   6  11
BRANCH  10  16
HETATM   16  N2  UNL     1      63.642  22.429  23.313  1.00  0.00    -0.279 N 
ATOM     17  H2  UNL     1      63.020  23.186  23.031  1.00  0.00     0.189 HD
BRANCH  16  18
HETATM   18  N3  UNL     1      64.945  22.398  22.869  1.00  0.00    -0.307 N 
HETATM   19  C10 UNL     1      65.707  23.356  22.554  1.00  0.00     0.004 C 
HETATM   20  C11 UNL     1      65.302  24.765  22.611  1.00  0.00     0.054 C 
HETATM   21  C16 UNL     1      67.069  22.876  22.121  1.00  0.00     0.054 C 
HETATM   22  C12 UNL     1      65.643  25.492  21.314  1.00  0.00     0.006 C 
HETATM   23  C13 UNL     1      67.044  25.990  21.414  1.00  0.00     0.000 C 
HETATM   24  C14 UNL     1      68.090  24.925  21.214  1.00  0.00     0.000 C 
HETATM   25  C15 UNL     1      68.123  23.930  22.350  1.00  0.00     0.006 C 
ATOM     26  H3  UNL     1      65.354  21.467  22.783  1.00  0.00     0.186 HD
ENDBRANCH  16  18
ENDBRANCH  10  16
ENDBRANCH   3   4
TORSDOF 5
ENDMDL
MODEL 4
REMARK VINA RESULT: -7.751584000      3.034      6.872
REMARK  5 active torsions:
REMARK  status: ('A' for Active; 'I' for Inactive)
REMARK    1  A    between atoms: C3_3  and  C4_4 
REMARK    2  A    between atoms: C6_6  and  C7_7 
REMARK    3  A    between atoms: N1_8  and  O1_10 
REMARK    4  A    between atoms: C9_15  and  N2_16 
REMARK    5  A    between atoms: N2_16  and  N3_18 
ROOT
HETATM    1  C1  UNL     1      64.014  25.446  23.074  1.00  0.00     0.012 C 
HETATM    2  C2  UNL     1      64.738  25.068  22.168  1.00  0.00    -0.113 C 
HETATM    3  C3  UNL     1      65.579  24.589  21.085  1.00  0.00     0.136 C 
ENDROOT
BRANCH   3   4
HETATM    4  C4  UNL     1      66.999  24.861  21.364  1.00  0.00     0.007 A 
HETATM    5  C5  UNL     1      67.413  26.199  21.393  1.00  0.00     0.031 A 
HETATM    6  C6  UNL     1      68.728  26.463  21.656  1.00  0.00     0.058 A 
HETATM    7  C8  UNL     1      69.623  25.421  21.889  1.00  0.00     0.301 A 
HETATM    8  O2  UNL     1      70.848  25.661  22.137  1.00  0.00    -0.259 OA
HETATM    9  O3  UNL     1      69.178  24.207  21.849  1.00  0.00    -0.256 OA
HETATM   10  C9  UNL     1      67.930  23.879  21.601  1.00  0.00     0.173 A 
BRANCH   6  11
HETATM   11  C7  UNL     1      69.205  27.829  21.703  1.00  0.00     0.131 C 
HETATM   12  N1  UNL     1      70.129  28.366  21.044  1.00  0.00    -0.280 N 
ATOM     13  H1  UNL     1      70.250  29.350  21.282  1.00  0.00     0.193 HD
BRANCH  12  14
HETATM   14  O1  UNL     1      70.985  27.967  20.117  1.00  0.00    -0.290 OA
ATOM     15  H1  UNL     1      71.897  28.137  19.917  1.00  0.00     0.244 HD
ENDBRANCH  12  14
ENDBRANCH   6  11
BRANCH  10  16
HETATM   16  N2  UNL     1      67.505  22.527  21.570  1.00  0.00    -0.279 N 
ATOM     17  H2  UNL     1      67.253  22.087  20.685  1.00  0.00     0.189 HD
BRANCH  16  18
HETATM   18  N3  UNL     1      67.436  21.815  22.746  1.00  0.00    -0.307 N 
HETATM   19  C10 UNL     1      66.437  21.263  23.291  1.00  0.00     0.004 C 
HETATM   20  C11 UNL     1      65.086  21.291  22.722  1.00  0.00     0.054 C 
HETATM   21  C16 UNL     1      66.806  20.578  24.583  1.00  0.00     0.054 C 
HETATM   22  C12 UNL     1      64.054  21.712  23.763  1.00  0.00     0.006 C 
HETATM   23  C13 UNL     1      63.614  20.494  24.501  1.00  0.00     0.000 C 
HETATM   24  C14 UNL     1      64.605  20.007  25.526  1.00  0.00     0.000 C 
HETATM   25  C15 UNL     1      65.857  19.448  24.896  1.00  0.00     0.006 C 
ATOM     26  H3  UNL     1      68.318  21.720  23.250  1.00  0.00     0.186 HD
ENDBRANCH  16  18
ENDBRANCH  10  16
ENDBRANCH   3   4
TORSDOF 5
ENDMDL
MODEL 5
REMARK VINA RESULT: -7.745125599      4.223      6.265
REMARK  5 active torsions:
REMARK  status: ('A' for Active; 'I' for Inactive)
REMARK    1  A    between atoms: C3_3  and  C4_4 
REMARK    2  A    between atoms: C6_6  and  C7_7 
REMARK    3  A    between atoms: N1_8  and  O1_10 
REMARK    4  A    between atoms: C9_15  and  N2_16 
REMARK    5  A    between atoms: N2_16  and  N3_18 
ROOT
HETATM    1  C1  UNL     1      60.529  20.057  27.596  1.00  0.00     0.012 C 
HETATM    2  C2  UNL     1      60.921  20.508  26.532  1.00  0.00    -0.113 C 
HETATM    3  C3  UNL     1      61.419  21.031  25.272  1.00  0.00     0.136 C 
ENDROOT
BRANCH   3   4
HETATM    4  C4  UNL     1      60.853  22.362  24.997  1.00  0.00     0.007 A 
HETATM    5  C5  UNL     1      60.117  22.981  26.016  1.00  0.00     0.031 A 
HETATM    6  C6  UNL     1      59.592  24.220  25.772  1.00  0.00     0.058 A 
HETATM    7  C8  UNL     1      59.791  24.840  24.540  1.00  0.00     0.301 A 
HETATM    8  O2  UNL     1      59.306  25.994  24.310  1.00  0.00    -0.259 OA
HETATM    9  O3  UNL     1      60.480  24.216  23.641  1.00  0.00    -0.256 OA
HETATM   10  C9  UNL     1      61.013  23.025  23.805  1.00  0.00     0.173 A 
BRANCH   6  11
HETATM   11  C7  UNL     1      58.828  24.904  26.794  1.00  0.00     0.131 C 
HETATM   12  N1  UNL     1      57.644  25.320  26.750  1.00  0.00    -0.280 N 
ATOM     13  H1  UNL     1      57.361  25.768  27.620  1.00  0.00     0.193 HD
BRANCH  12  14
HETATM   14  O1  UNL     1      56.674  25.317  25.850  1.00  0.00    -0.290 OA
ATOM     15  H1  UNL     1      56.101  25.972  25.469  1.00  0.00     0.244 HD
ENDBRANCH  12  14
ENDBRANCH   6  11
BRANCH  10  16
HETATM   16  N2  UNL     1      61.758  22.394  22.777  1.00  0.00    -0.279 N 
ATOM     17  H2  UNL     1      61.412  21.540  22.341  1.00  0.00     0.189 HD
BRANCH  16  18
HETATM   18  N3  UNL     1      62.954  22.944  22.376  1.00  0.00    -0.307 N 
HETATM   19  C10 UNL     1      64.134  22.542  22.589  1.00  0.00     0.004 C 
HETATM   20  C11 UNL     1      64.450  21.333  23.357  1.00  0.00     0.054 C 
HETATM   21  C16 UNL     1      65.162  23.448  21.960  1.00  0.00     0.054 C 
HETATM   22  C12 UNL     1      65.510  21.611  24.416  1.00  0.00     0.006 C 
HETATM   23  C13 UNL     1      66.852  21.446  23.787  1.00  0.00     0.000 C 
HETATM   24  C14 UNL     1      67.267  22.604  22.917  1.00  0.00     0.000 C 
HETATM   25  C15 UNL     1      66.439  22.704  21.658  1.00  0.00     0.006 C 
ATOM     26  H3  UNL     1      62.877  23.802  21.827  1.00  0.00     0.186 HD
ENDBRANCH  16  18
ENDBRANCH  10  16
ENDBRANCH   3   4
TORSDOF 5
ENDMDL
