MODEL 1
REMARK VINA RESULT: -5.411753036      0.000      0.000
REMARK  9 active torsions:
REMARK  status: ('A' for Active; 'I' for Inactive)
REMARK    1  A    between atoms: C2_2  and  C3_3 
REMARK    2  A    between atoms: C3_3  and  N1_4 
REMARK       I    between atoms: N1_4  and  C4_6 
REMARK    3  A    between atoms: C4_6  and  C5_8 
REMARK    4  A    between atoms: C5_8  and  N2_9 
REMARK    5  A    between atoms: N2_9  and  C6_11 
REMARK    6  A    between atoms: C12_18  and  N4_19 
REMARK    7  A    between atoms: N4_19  and  C13_21 
REMARK    8  A    between atoms: C13_21  and  C14_22 
REMARK    9  A    between atoms: C14_22  and  N5_23 
ROOT
HETATM    1  C6  UNL     1      19.744  -5.315  10.733  1.00  0.00     0.055 A 
HETATM    2  C7  UNL     1      20.140  -6.602  11.008  1.00  0.00     0.033 A 
HETATM    3  C8  UNL     1      20.399  -6.988  12.295  1.00  0.00     0.025 A 
HETATM    4  C9  UNL     1      20.278  -6.122  13.358  1.00  0.00     0.046 A 
HETATM    5  C10 UNL     1      20.545  -6.511  14.714  1.00  0.00     0.099 C 
HETATM    6  N3  UNL     1      20.783  -6.825  15.812  1.00  0.00    -0.191 NA
HETATM    7  C11 UNL     1      19.874  -4.826  13.042  1.00  0.00     0.054 A 
HETATM    8  C12 UNL     1      19.606  -4.405  11.759  1.00  0.00     0.056 A 
ENDROOT
BRANCH   8   9
HETATM    9  N4  UNL     1      19.174  -3.072  11.537  1.00  0.00    -0.386 N 
ATOM     10  H4  UNL     1      18.195  -2.868  11.742  1.00  0.00     0.159 HD
BRANCH   9  11
HETATM   11  C13 UNL     1      19.967  -1.990  11.056  1.00  0.00     0.147 C 
BRANCH  11  12
HETATM   12  C14 UNL     1      20.705  -1.303  12.183  1.00  0.00     0.249 C 
BRANCH  12  13
HETATM   13  N5  UNL     1      21.506  -0.202  11.630  1.00  0.00    -0.078 N 
ATOM     14  H53 UNL     1      22.303  -0.535  11.089  1.00  0.00     0.274 HD
ATOM     15  H52 UNL     1      21.021   0.293  10.881  1.00  0.00     0.274 HD
ATOM     16  H51 UNL     1      21.784   0.420  12.389  1.00  0.00     0.274 HD
ENDBRANCH  12  13
ENDBRANCH  11  12
ENDBRANCH   9  11
ENDBRANCH   8   9
BRANCH   1  17
HETATM   17  N2  UNL     1      19.494  -4.971   9.376  1.00  0.00    -0.379 N 
ATOM     18  H2  UNL     1      18.544  -4.987   9.005  1.00  0.00     0.160 HD
BRANCH  17  19
HETATM   19  C5  UNL     1      20.600  -4.601   8.536  1.00  0.00     0.222 C 
BRANCH  19  20
HETATM   20  C4  UNL     1      20.579  -5.323   7.244  1.00  0.00     0.235 C 
HETATM   21  N1  UNL     1      19.804  -6.509   7.144  1.00  0.00    -0.356 N 
ATOM     22  H1  UNL     1      19.287  -6.807   7.971  1.00  0.00     0.162 HD
HETATM   23  O1  UNL     1      21.251  -4.849   6.297  1.00  0.00    -0.272 OA
BRANCH  21  24
HETATM   24  C3  UNL     1      19.696  -7.312   5.976  1.00  0.00     0.149 C 
BRANCH  24  25
HETATM   25  C2  UNL     1      18.336  -7.827   5.712  1.00  0.00    -0.018 C 
HETATM   26  C1  UNL     1      17.507  -7.305   4.832  1.00  0.00     0.008 C 
ENDBRANCH  24  25
ENDBRANCH  21  24
ENDBRANCH  19  20
ENDBRANCH  17  19
ENDBRANCH   1  17
TORSDOF 9
ENDMDL
MODEL 2
REMARK VINA RESULT: -5.340750537      2.360      4.343
REMARK  9 active torsions:
REMARK  status: ('A' for Active; 'I' for Inactive)
REMARK    1  A    between atoms: C2_2  and  C3_3 
REMARK    2  A    between atoms: C3_3  and  N1_4 
REMARK       I    between atoms: N1_4  and  C4_6 
REMARK    3  A    between atoms: C4_6  and  C5_8 
REMARK    4  A    between atoms: C5_8  and  N2_9 
REMARK    5  A    between atoms: N2_9  and  C6_11 
REMARK    6  A    between atoms: C12_18  and  N4_19 
REMARK    7  A    between atoms: N4_19  and  C13_21 
REMARK    8  A    between atoms: C13_21  and  C14_22 
REMARK    9  A    between atoms: C14_22  and  N5_23 
ROOT
HETATM    1  C6  UNL     1      19.825  -5.572  10.802  1.00  0.00     0.055 A 
HETATM    2  C7  UNL     1      19.817  -5.154  12.111  1.00  0.00     0.033 A 
HETATM    3  C8  UNL     1      19.858  -3.821  12.414  1.00  0.00     0.025 A 
HETATM    4  C9  UNL     1      19.909  -2.849  11.440  1.00  0.00     0.046 A 
HETATM    5  C10 UNL     1      19.952  -1.446  11.740  1.00  0.00     0.099 C 
HETATM    6  N3  UNL     1      20.008  -0.308  11.989  1.00  0.00    -0.191 NA
HETATM    7  C11 UNL     1      19.915  -3.309  10.124  1.00  0.00     0.054 A 
HETATM    8  C12 UNL     1      19.874  -4.642   9.786  1.00  0.00     0.056 A 
ENDROOT
BRANCH   8   9
HETATM    9  N4  UNL     1      19.856  -5.016   8.417  1.00  0.00    -0.386 N 
ATOM     10  H4  UNL     1      19.052  -5.559   8.100  1.00  0.00     0.159 HD
BRANCH   9  11
HETATM   11  C13 UNL     1      20.847  -4.710   7.439  1.00  0.00     0.147 C 
BRANCH  11  12
HETATM   12  C14 UNL     1      21.571  -5.955   6.978  1.00  0.00     0.249 C 
BRANCH  12  13
HETATM   13  N5  UNL     1      22.923  -5.588   6.536  1.00  0.00    -0.078 N 
ATOM     14  H53 UNL     1      22.917  -5.068   5.659  1.00  0.00     0.274 HD
ATOM     15  H52 UNL     1      23.342  -4.868   7.126  1.00  0.00     0.274 HD
ATOM     16  H51 UNL     1      23.496  -6.430   6.484  1.00  0.00     0.274 HD
ENDBRANCH  12  13
ENDBRANCH  11  12
ENDBRANCH   9  11
ENDBRANCH   8   9
BRANCH   1  17
HETATM   17  N2  UNL     1      19.785  -6.970  10.550  1.00  0.00    -0.379 N 
ATOM     18  H2  UNL     1      20.611  -7.457  10.201  1.00  0.00     0.160 HD
BRANCH  17  19
HETATM   19  C5  UNL     1      18.565  -7.688  10.794  1.00  0.00     0.222 C 
BRANCH  19  20
HETATM   20  C4  UNL     1      17.615  -7.566   9.664  1.00  0.00     0.235 C 
HETATM   21  N1  UNL     1      18.081  -7.854   8.355  1.00  0.00    -0.356 N 
ATOM     22  H1  UNL     1      19.054  -8.143   8.252  1.00  0.00     0.162 HD
HETATM   23  O1  UNL     1      16.440  -7.211   9.923  1.00  0.00    -0.272 OA
BRANCH  21  24
HETATM   24  C3  UNL     1      17.291  -7.772   7.176  1.00  0.00     0.149 C 
BRANCH  24  25
HETATM   25  C2  UNL     1      18.044  -7.392   5.962  1.00  0.00    -0.018 C 
HETATM   26  C1  UNL     1      17.526  -7.365   4.751  1.00  0.00     0.008 C 
ENDBRANCH  24  25
ENDBRANCH  21  24
ENDBRANCH  19  20
ENDBRANCH  17  19
ENDBRANCH   1  17
TORSDOF 9
ENDMDL
MODEL 3
REMARK VINA RESULT: -5.303833620      1.704      3.645
REMARK  9 active torsions:
REMARK  status: ('A' for Active; 'I' for Inactive)
REMARK    1  A    between atoms: C2_2  and  C3_3 
REMARK    2  A    between atoms: C3_3  and  N1_4 
REMARK       I    between atoms: N1_4  and  C4_6 
REMARK    3  A    between atoms: C4_6  and  C5_8 
REMARK    4  A    between atoms: C5_8  and  N2_9 
REMARK    5  A    between atoms: N2_9  and  C6_11 
REMARK    6  A    between atoms: C12_18  and  N4_19 
REMARK    7  A    between atoms: N4_19  and  C13_21 
REMARK    8  A    between atoms: C13_21  and  C14_22 
REMARK    9  A    between atoms: C14_22  and  N5_23 
ROOT
HETATM    1  C6  UNL     1      19.677  -5.429  10.837  1.00  0.00     0.055 A 
HETATM    2  C7  UNL     1      19.804  -4.489  11.832  1.00  0.00     0.033 A 
HETATM    3  C8  UNL     1      20.057  -4.872  13.121  1.00  0.00     0.025 A 
HETATM    4  C9  UNL     1      20.195  -6.194  13.478  1.00  0.00     0.046 A 
HETATM    5  C10 UNL     1      20.462  -6.614  14.825  1.00  0.00     0.099 C 
HETATM    6  N3  UNL     1      20.659  -6.951  15.924  1.00  0.00    -0.191 NA
HETATM    7  C11 UNL     1      20.061  -7.120  12.444  1.00  0.00     0.054 A 
HETATM    8  C12 UNL     1      19.806  -6.767  11.138  1.00  0.00     0.056 A 
ENDROOT
BRANCH   8   9
HETATM    9  N4  UNL     1      19.712  -7.779  10.147  1.00  0.00    -0.386 N 
ATOM     10  H4  UNL     1      20.505  -7.872   9.511  1.00  0.00     0.159 HD
BRANCH   9  11
HETATM   11  C13 UNL     1      18.624  -8.678   9.950  1.00  0.00     0.147 C 
BRANCH  11  12
HETATM   12  C14 UNL     1      17.372  -7.944   9.525  1.00  0.00     0.249 C 
BRANCH  12  13
HETATM   13  N5  UNL     1      16.432  -8.905   8.929  1.00  0.00    -0.078 N 
ATOM     14  H53 UNL     1      16.907  -9.626   8.387  1.00  0.00     0.274 HD
ATOM     15  H52 UNL     1      16.002  -9.511   9.628  1.00  0.00     0.274 HD
ATOM     16  H51 UNL     1      15.741  -8.396   8.379  1.00  0.00     0.274 HD
ENDBRANCH  12  13
ENDBRANCH  11  12
ENDBRANCH   9  11
ENDBRANCH   8   9
BRANCH   1  17
HETATM   17  N2  UNL     1      19.409  -4.970   9.519  1.00  0.00    -0.379 N 
ATOM     18  H2  UNL     1      18.454  -4.953   9.161  1.00  0.00     0.160 HD
BRANCH  17  19
HETATM   19  C5  UNL     1      20.503  -4.531   8.698  1.00  0.00     0.222 C 
BRANCH  19  20
HETATM   20  C4  UNL     1      20.522  -5.219   7.386  1.00  0.00     0.235 C 
HETATM   21  N1  UNL     1      19.700  -6.364   7.211  1.00  0.00    -0.356 N 
ATOM     22  H1  UNL     1      19.124  -6.658   8.000  1.00  0.00     0.162 HD
HETATM   23  O1  UNL     1      21.266  -4.754   6.491  1.00  0.00    -0.272 OA
BRANCH  21  24
HETATM   24  C3  UNL     1      19.620  -7.131   6.017  1.00  0.00     0.149 C 
BRANCH  24  25
HETATM   25  C2  UNL     1      18.291  -7.725   5.760  1.00  0.00    -0.018 C 
HETATM   26  C1  UNL     1      17.495  -7.356   4.778  1.00  0.00     0.008 C 
ENDBRANCH  24  25
ENDBRANCH  21  24
ENDBRANCH  19  20
ENDBRANCH  17  19
ENDBRANCH   1  17
TORSDOF 9
ENDMDL
MODEL 4
REMARK VINA RESULT: -5.294805781      2.871      4.437
REMARK  9 active torsions:
REMARK  status: ('A' for Active; 'I' for Inactive)
REMARK    1  A    between atoms: C2_2  and  C3_3 
REMARK    2  A    between atoms: C3_3  and  N1_4 
REMARK       I    between atoms: N1_4  and  C4_6 
REMARK    3  A    between atoms: C4_6  and  C5_8 
REMARK    4  A    between atoms: C5_8  and  N2_9 
REMARK    5  A    between atoms: N2_9  and  C6_11 
REMARK    6  A    between atoms: C12_18  and  N4_19 
REMARK    7  A    between atoms: N4_19  and  C13_21 
REMARK    8  A    between atoms: C13_21  and  C14_22 
REMARK    9  A    between atoms: C14_22  and  N5_23 
ROOT
HETATM    1  C6  UNL     1      19.088  -5.944  10.642  1.00  0.00     0.055 A 
HETATM    2  C7  UNL     1      17.954  -5.807  11.405  1.00  0.00     0.033 A 
HETATM    3  C8  UNL     1      17.228  -4.648  11.367  1.00  0.00     0.025 A 
HETATM    4  C9  UNL     1      17.592  -3.581  10.577  1.00  0.00     0.046 A 
HETATM    5  C10 UNL     1      16.842  -2.358  10.525  1.00  0.00     0.099 C 
HETATM    6  N3  UNL     1      16.241  -1.359  10.501  1.00  0.00    -0.191 NA
HETATM    7  C11 UNL     1      18.747  -3.755   9.817  1.00  0.00     0.054 A 
HETATM    8  C12 UNL     1      19.500  -4.908   9.832  1.00  0.00     0.056 A 
ENDROOT
BRANCH   8   9
HETATM    9  N4  UNL     1      20.647  -5.004   9.003  1.00  0.00    -0.386 N 
ATOM     10  H4  UNL     1      21.540  -5.156   9.472  1.00  0.00     0.159 HD
BRANCH   9  11
HETATM   11  C13 UNL     1      20.678  -4.911   7.581  1.00  0.00     0.147 C 
BRANCH  11  12
HETATM   12  C14 UNL     1      22.060  -5.202   7.039  1.00  0.00     0.249 C 
BRANCH  12  13
HETATM   13  N5  UNL     1      22.079  -6.562   6.482  1.00  0.00    -0.078 N 
ATOM     14  H53 UNL     1      21.895  -7.274   7.189  1.00  0.00     0.274 HD
ATOM     15  H52 UNL     1      21.276  -6.747   5.880  1.00  0.00     0.274 HD
ATOM     16  H51 UNL     1      22.967  -6.713   6.003  1.00  0.00     0.274 HD
ENDBRANCH  12  13
ENDBRANCH  11  12
ENDBRANCH   9  11
ENDBRANCH   8   9
BRANCH   1  17
HETATM   17  N2  UNL     1      19.803  -7.170  10.727  1.00  0.00    -0.379 N 
ATOM     18  H2  UNL     1      20.670  -7.228  11.261  1.00  0.00     0.160 HD
BRANCH  17  19
HETATM   19  C5  UNL     1      19.286  -8.327  10.050  1.00  0.00     0.222 C 
BRANCH  19  20
HETATM   20  C4  UNL     1      19.670  -8.349   8.620  1.00  0.00     0.235 C 
HETATM   21  N1  UNL     1      18.693  -7.996   7.651  1.00  0.00    -0.356 N 
ATOM     22  H1  UNL     1      17.766  -7.735   7.988  1.00  0.00     0.162 HD
HETATM   23  O1  UNL     1      20.846  -8.680   8.334  1.00  0.00    -0.272 OA
BRANCH  21  24
HETATM   24  C3  UNL     1      18.911  -7.981   6.247  1.00  0.00     0.149 C 
BRANCH  24  25
HETATM   25  C2  UNL     1      18.090  -6.996   5.512  1.00  0.00    -0.018 C 
HETATM   26  C1  UNL     1      17.202  -7.316   4.593  1.00  0.00     0.008 C 
ENDBRANCH  24  25
ENDBRANCH  21  24
ENDBRANCH  19  20
ENDBRANCH  17  19
ENDBRANCH   1  17
TORSDOF 9
ENDMDL
MODEL 5
REMARK VINA RESULT: -5.273173247      2.198      3.021
REMARK  9 active torsions:
REMARK  status: ('A' for Active; 'I' for Inactive)
REMARK    1  A    between atoms: C2_2  and  C3_3 
REMARK    2  A    between atoms: C3_3  and  N1_4 
REMARK       I    between atoms: N1_4  and  C4_6 
REMARK    3  A    between atoms: C4_6  and  C5_8 
REMARK    4  A    between atoms: C5_8  and  N2_9 
REMARK    5  A    between atoms: N2_9  and  C6_11 
REMARK    6  A    between atoms: C12_18  and  N4_19 
REMARK    7  A    between atoms: N4_19  and  C13_21 
REMARK    8  A    between atoms: C13_21  and  C14_22 
REMARK    9  A    between atoms: C14_22  and  N5_23 
ROOT
HETATM    1  C6  UNL     1      19.467  -7.293  11.094  1.00  0.00     0.055 A 
HETATM    2  C7  UNL     1      19.509  -7.773  12.382  1.00  0.00     0.033 A 
HETATM    3  C8  UNL     1      19.742  -6.926  13.430  1.00  0.00     0.025 A 
HETATM    4  C9  UNL     1      19.943  -5.576  13.252  1.00  0.00     0.046 A 
HETATM    5  C10 UNL     1      20.188  -4.673  14.341  1.00  0.00     0.099 C 
HETATM    6  N3  UNL     1      20.407  -3.947  15.227  1.00  0.00    -0.191 NA
HETATM    7  C11 UNL     1      19.893  -5.124  11.934  1.00  0.00     0.054 A 
HETATM    8  C12 UNL     1      19.661  -5.949  10.857  1.00  0.00     0.056 A 
ENDROOT
BRANCH   8   9
HETATM    9  N4  UNL     1      19.601  -5.394   9.552  1.00  0.00    -0.386 N 
ATOM     10  H4  UNL     1      18.785  -5.635   8.989  1.00  0.00     0.159 HD
BRANCH   9  11
HETATM   11  C13 UNL     1      20.565  -4.535   8.948  1.00  0.00     0.147 C 
BRANCH  11  12
HETATM   12  C14 UNL     1      20.657  -4.772   7.457  1.00  0.00     0.249 C 
BRANCH  12  13
HETATM   13  N5  UNL     1      22.046  -5.106   7.110  1.00  0.00    -0.078 N 
ATOM     14  H53 UNL     1      22.561  -4.302   6.752  1.00  0.00     0.274 HD
ATOM     15  H52 UNL     1      22.619  -5.286   7.935  1.00  0.00     0.274 HD
ATOM     16  H51 UNL     1      22.047  -5.890   6.458  1.00  0.00     0.274 HD
ENDBRANCH  12  13
ENDBRANCH  11  12
ENDBRANCH   9  11
ENDBRANCH   8   9
BRANCH   1  17
HETATM   17  N2  UNL     1      19.226  -8.221  10.046  1.00  0.00    -0.379 N 
ATOM     18  H2  UNL     1      18.274  -8.502   9.812  1.00  0.00     0.160 HD
BRANCH  17  19
HETATM   19  C5  UNL     1      20.344  -8.758   9.319  1.00  0.00     0.222 C 
BRANCH  19  20
HETATM   20  C4  UNL     1      20.342  -8.328   7.902  1.00  0.00     0.235 C 
HETATM   21  N1  UNL     1      19.093  -8.104   7.265  1.00  0.00    -0.356 N 
ATOM     22  H1  UNL     1      18.248  -8.244   7.819  1.00  0.00     0.162 HD
HETATM   23  O1  UNL     1      21.450  -8.181   7.333  1.00  0.00    -0.272 OA
BRANCH  21  24
HETATM   24  C3  UNL     1      18.933  -7.699   5.912  1.00  0.00     0.149 C 
BRANCH  24  25
HETATM   25  C2  UNL     1      17.542  -7.762   5.415  1.00  0.00    -0.018 C 
HETATM   26  C1  UNL     1      17.114  -7.138   4.338  1.00  0.00     0.008 C 
ENDBRANCH  24  25
ENDBRANCH  21  24
ENDBRANCH  19  20
ENDBRANCH  17  19
ENDBRANCH   1  17
TORSDOF 9
ENDMDL
