MODEL 1
REMARK VINA RESULT: -7.474707677      0.000      0.000
REMARK  16 active torsions:
REMARK  status: ('A' for Active; 'I' for Inactive)
REMARK    1  A    between atoms: C2_2  and  C3_3 
REMARK    2  A    between atoms: C3_3  and  N1_6 
REMARK    3  A    between atoms: N1_6  and  C6_8 
REMARK    4  A    between atoms: C7_11  and  N3_12 
REMARK    5  A    between atoms: C9_20  and  N6_21 
REMARK    6  A    between atoms: N6_21  and  C10_23 
REMARK    7  A    between atoms: C10_23  and  C11_24 
REMARK    8  A    between atoms: C11_24  and  N7_25 
REMARK    9  A    between atoms: N7_25  and  S1_27 
REMARK   10  A    between atoms: C13_31  and  N8_32 
REMARK   11  A    between atoms: N8_32  and  C14_34 
REMARK   12  A    between atoms: C14_34  and  C15_35 
REMARK   13  A    between atoms: C15_35  and  O3_36 
REMARK   14  A    between atoms: O3_36  and  C16_37 
REMARK   15  A    between atoms: C16_37  and  C17_38 
REMARK   16  A    between atoms: C17_38  and  O4_39 
ROOT
HETATM    1  C6  UNL     1       5.410 -16.256 -22.757  1.00  0.00     0.148 A 
HETATM    2  N2  UNL     1       4.127 -16.628 -22.764  1.00  0.00    -0.175 N 
ATOM      3  H2  UNL     1       3.817 -17.267 -22.032  1.00  0.00     0.186 HD
HETATM    4  C7  UNL     1       3.213 -16.220 -23.667  1.00  0.00     0.679 A 
HETATM    5  N4  UNL     1       3.615 -15.378 -24.636  1.00  0.00    -0.174 N 
ATOM      6  H4  UNL     1       2.943 -15.055 -25.333  1.00  0.00     0.186 HD
HETATM    7  C8  UNL     1       4.897 -14.952 -24.699  1.00  0.00     0.153 A 
HETATM    8  N5  UNL     1       5.248 -14.111 -25.686  1.00  0.00    -0.323 N 
ATOM      9  H5  UNL     1       4.558 -13.800 -26.370  1.00  0.00     0.169 HD
HETATM   10  C9  UNL     1       6.523 -13.684 -25.757  1.00  0.00     0.151 A 
HETATM   11  C13 UNL     1       7.493 -14.092 -24.832  1.00  0.00     0.150 A 
HETATM   12  N9  UNL     1       7.074 -14.943 -23.857  1.00  0.00    -0.333 N 
ATOM     13  H9  UNL     1       7.752 -15.261 -23.164  1.00  0.00     0.168 HD
HETATM   14  C19 UNL     1       5.816 -15.382 -23.766  1.00  0.00     0.123 A 
ENDROOT
BRANCH  10  15
HETATM   15  N6  UNL     1       6.878 -12.918 -26.641  1.00  0.00    -0.351 N 
ATOM     16  H6  UNL     1       7.663 -13.380 -27.100  1.00  0.00     0.166 HD
BRANCH  15  17
HETATM   17  C10 UNL     1       6.714 -11.730 -27.305  1.00  0.00     0.083 C 
BRANCH  17  18
HETATM   18  C11 UNL     1       5.551 -11.549 -28.246  1.00  0.00     0.176 C 
BRANCH  18  19
HETATM   19  N7  UNL     1       5.704 -12.445 -29.415  1.00  0.00    -0.315 N 
ATOM     20  H7  UNL     1       6.363 -12.324 -30.184  1.00  0.00     0.172 HD
BRANCH  19  21
HETATM   21  S1  UNL     1       4.567 -13.732 -29.237  1.00  0.00     0.223 S 
HETATM   22  C12 UNL     1       3.813 -14.193 -30.754  1.00  0.00     0.185 C 
HETATM   23  O1  UNL     1       3.477 -13.237 -28.304  1.00  0.00    -0.206 OA
HETATM   24  O2  UNL     1       5.210 -14.949 -28.635  1.00  0.00    -0.206 OA
ENDBRANCH  19  21
ENDBRANCH  18  19
ENDBRANCH  17  18
ENDBRANCH  15  17
ENDBRANCH  10  15
BRANCH  11  25
HETATM   25  N8  UNL     1       8.684 -13.740 -24.833  1.00  0.00    -0.351 N 
ATOM     26  H8  UNL     1       9.089 -13.831 -25.765  1.00  0.00     0.166 HD
BRANCH  25  27
HETATM   27  C14 UNL     1       9.625 -13.257 -23.923  1.00  0.00     0.088 C 
BRANCH  27  28
HETATM   28  C15 UNL     1      10.598 -14.356 -23.532  1.00  0.00     0.212 C 
BRANCH  28  29
HETATM   29  O3  UNL     1       9.979 -15.425 -22.945  1.00  0.00    -0.384 OA
BRANCH  29  30
HETATM   30  C16 UNL     1      10.306 -16.652 -23.516  1.00  0.00     0.194 C 
BRANCH  30  31
HETATM   31  C17 UNL     1       9.818 -17.817 -22.726  1.00  0.00     0.193 C 
BRANCH  31  32
HETATM   32  O4  UNL     1       8.669 -18.326 -23.262  1.00  0.00    -0.394 OA
HETATM   33  C18 UNL     1       8.155 -19.366 -22.539  1.00  0.00     0.201 C 
ENDBRANCH  31  32
ENDBRANCH  30  31
ENDBRANCH  29  30
ENDBRANCH  28  29
ENDBRANCH  27  28
ENDBRANCH  25  27
ENDBRANCH  11  25
BRANCH   4  34
HETATM   34  N3  UNL     1       1.978 -16.627 -23.608  1.00  0.00    -0.234 N 
ATOM     35  H32 UNL     1       1.631 -17.123 -22.787  1.00  0.00     0.174 HD
ATOM     36  H31 UNL     1       1.329 -16.461 -24.377  1.00  0.00     0.174 HD
ENDBRANCH   4  34
BRANCH   1  37
HETATM   37  N1  UNL     1       6.285 -16.621 -21.926  1.00  0.00    -0.365 N 
ATOM     38  H1  UNL     1       7.084 -17.105 -22.335  1.00  0.00     0.162 HD
BRANCH  37  39
HETATM   39  C3  UNL     1       6.344 -16.470 -20.517  1.00  0.00     0.024 C 
HETATM   40  C4  UNL     1       5.823 -17.631 -19.720  1.00  0.00     0.038 C 
HETATM   41  C5  UNL     1       7.841 -16.368 -20.169  1.00  0.00     0.038 C 
BRANCH  39  42
HETATM   42  C2  UNL     1       5.767 -15.135 -20.028  1.00  0.00     0.026 C 
HETATM   43  C1  UNL     1       5.204 -15.408 -18.633  1.00  0.00     0.007 C 
ENDBRANCH  39  42
ENDBRANCH  37  39
ENDBRANCH   1  37
TORSDOF 16
ENDMDL
MODEL 2
REMARK VINA RESULT: -7.404784455      3.343      7.235
REMARK  16 active torsions:
REMARK  status: ('A' for Active; 'I' for Inactive)
REMARK    1  A    between atoms: C2_2  and  C3_3 
REMARK    2  A    between atoms: C3_3  and  N1_6 
REMARK    3  A    between atoms: N1_6  and  C6_8 
REMARK    4  A    between atoms: C7_11  and  N3_12 
REMARK    5  A    between atoms: C9_20  and  N6_21 
REMARK    6  A    between atoms: N6_21  and  C10_23 
REMARK    7  A    between atoms: C10_23  and  C11_24 
REMARK    8  A    between atoms: C11_24  and  N7_25 
REMARK    9  A    between atoms: N7_25  and  S1_27 
REMARK   10  A    between atoms: C13_31  and  N8_32 
REMARK   11  A    between atoms: N8_32  and  C14_34 
REMARK   12  A    between atoms: C14_34  and  C15_35 
REMARK   13  A    between atoms: C15_35  and  O3_36 
REMARK   14  A    between atoms: O3_36  and  C16_37 
REMARK   15  A    between atoms: C16_37  and  C17_38 
REMARK   16  A    between atoms: C17_38  and  O4_39 
ROOT
HETATM    1  C6  UNL     1       3.659 -12.022 -28.281  1.00  0.00     0.148 A 
HETATM    2  N2  UNL     1       3.799 -12.527 -29.509  1.00  0.00    -0.175 N 
ATOM      3  H2  UNL     1       3.379 -12.012 -30.283  1.00  0.00     0.186 HD
HETATM    4  C7  UNL     1       4.456 -13.668 -29.802  1.00  0.00     0.679 A 
HETATM    5  N4  UNL     1       5.013 -14.353 -28.787  1.00  0.00    -0.174 N 
ATOM      6  H4  UNL     1       5.515 -15.220 -28.981  1.00  0.00     0.186 HD
HETATM    7  C8  UNL     1       4.918 -13.909 -27.513  1.00  0.00     0.153 A 
HETATM    8  N5  UNL     1       5.492 -14.630 -26.536  1.00  0.00    -0.323 N 
ATOM      9  H5  UNL     1       5.990 -15.493 -26.754  1.00  0.00     0.169 HD
HETATM   10  C9  UNL     1       5.400 -14.196 -25.264  1.00  0.00     0.151 A 
HETATM   11  C13 UNL     1       4.723 -13.014 -24.933  1.00  0.00     0.150 A 
HETATM   12  N9  UNL     1       4.165 -12.330 -25.967  1.00  0.00    -0.333 N 
ATOM     13  H9  UNL     1       3.665 -11.464 -25.764  1.00  0.00     0.168 HD
HETATM   14  C19 UNL     1       4.241 -12.741 -27.236  1.00  0.00     0.123 A 
ENDROOT
BRANCH  10  15
HETATM   15  N6  UNL     1       5.910 -14.826 -24.350  1.00  0.00    -0.351 N 
ATOM     16  H6  UNL     1       6.775 -14.333 -24.130  1.00  0.00     0.166 HD
BRANCH  15  17
HETATM   17  C10 UNL     1       5.863 -15.886 -23.481  1.00  0.00     0.083 C 
BRANCH  17  18
HETATM   18  C11 UNL     1       4.595 -16.179 -22.721  1.00  0.00     0.176 C 
BRANCH  18  19
HETATM   19  N7  UNL     1       3.585 -16.763 -23.632  1.00  0.00    -0.315 N 
ATOM     20  H7  UNL     1       3.683 -17.627 -24.165  1.00  0.00     0.172 HD
BRANCH  19  21
HETATM   21  S1  UNL     1       2.210 -15.717 -23.625  1.00  0.00     0.223 S 
HETATM   22  C12 UNL     1       0.741 -16.522 -23.103  1.00  0.00     0.185 C 
HETATM   23  O1  UNL     1       2.004 -15.246 -25.053  1.00  0.00    -0.206 OA
HETATM   24  O2  UNL     1       2.439 -14.522 -22.744  1.00  0.00    -0.206 OA
ENDBRANCH  19  21
ENDBRANCH  18  19
ENDBRANCH  17  18
ENDBRANCH  15  17
ENDBRANCH  10  15
BRANCH  11  25
HETATM   25  N8  UNL     1       4.598 -12.552 -23.787  1.00  0.00    -0.351 N 
ATOM     26  H8  UNL     1       4.136 -13.222 -23.172  1.00  0.00     0.166 HD
BRANCH  25  27
HETATM   27  C14 UNL     1       4.911 -11.377 -23.101  1.00  0.00     0.088 C 
BRANCH  27  28
HETATM   28  C15 UNL     1       6.325 -10.931 -23.431  1.00  0.00     0.212 C 
BRANCH  28  29
HETATM   29  O3  UNL     1       6.432 -10.397 -24.685  1.00  0.00    -0.384 OA
BRANCH  29  30
HETATM   30  C16 UNL     1       7.692 -10.544 -25.258  1.00  0.00     0.194 C 
BRANCH  30  31
HETATM   31  C17 UNL     1       7.692 -11.417 -26.465  1.00  0.00     0.193 C 
BRANCH  31  32
HETATM   32  O4  UNL     1       8.966 -11.752 -26.827  1.00  0.00    -0.394 OA
HETATM   33  C18 UNL     1       9.919 -11.033 -26.162  1.00  0.00     0.201 C 
ENDBRANCH  31  32
ENDBRANCH  30  31
ENDBRANCH  29  30
ENDBRANCH  28  29
ENDBRANCH  27  28
ENDBRANCH  25  27
ENDBRANCH  11  25
BRANCH   4  34
HETATM   34  N3  UNL     1       4.551 -14.096 -31.027  1.00  0.00    -0.234 N 
ATOM     35  H32 UNL     1       4.249 -13.514 -31.809  1.00  0.00     0.174 HD
ATOM     36  H31 UNL     1       4.927 -15.021 -31.236  1.00  0.00     0.174 HD
ENDBRANCH   4  34
BRANCH   1  37
HETATM   37  N1  UNL     1       3.051 -10.959 -27.979  1.00  0.00    -0.365 N 
ATOM     38  H1  UNL     1       2.176 -11.099 -27.475  1.00  0.00     0.162 HD
BRANCH  37  39
HETATM   39  C3  UNL     1       3.383  -9.602 -28.222  1.00  0.00     0.024 C 
HETATM   40  C4  UNL     1       2.458  -8.867 -29.151  1.00  0.00     0.038 C 
HETATM   41  C5  UNL     1       3.256  -8.889 -26.863  1.00  0.00     0.038 C 
BRANCH  39  42
HETATM   42  C2  UNL     1       4.855  -9.398 -28.603  1.00  0.00     0.026 C 
HETATM   43  C1  UNL     1       5.451  -8.508 -27.512  1.00  0.00     0.007 C 
ENDBRANCH  39  42
ENDBRANCH  37  39
ENDBRANCH   1  37
TORSDOF 16
ENDMDL
MODEL 3
REMARK VINA RESULT: -7.368575341      3.155      6.971
REMARK  16 active torsions:
REMARK  status: ('A' for Active; 'I' for Inactive)
REMARK    1  A    between atoms: C2_2  and  C3_3 
REMARK    2  A    between atoms: C3_3  and  N1_6 
REMARK    3  A    between atoms: N1_6  and  C6_8 
REMARK    4  A    between atoms: C7_11  and  N3_12 
REMARK    5  A    between atoms: C9_20  and  N6_21 
REMARK    6  A    between atoms: N6_21  and  C10_23 
REMARK    7  A    between atoms: C10_23  and  C11_24 
REMARK    8  A    between atoms: C11_24  and  N7_25 
REMARK    9  A    between atoms: N7_25  and  S1_27 
REMARK   10  A    between atoms: C13_31  and  N8_32 
REMARK   11  A    between atoms: N8_32  and  C14_34 
REMARK   12  A    between atoms: C14_34  and  C15_35 
REMARK   13  A    between atoms: C15_35  and  O3_36 
REMARK   14  A    between atoms: O3_36  and  C16_37 
REMARK   15  A    between atoms: C16_37  and  C17_38 
REMARK   16  A    between atoms: C17_38  and  O4_39 
ROOT
HETATM    1  C6  UNL     1       3.650 -12.006 -28.307  1.00  0.00     0.148 A 
HETATM    2  N2  UNL     1       3.789 -12.527 -29.529  1.00  0.00    -0.175 N 
ATOM      3  H2  UNL     1       3.360 -12.026 -30.307  1.00  0.00     0.186 HD
HETATM    4  C7  UNL     1       4.456 -13.666 -29.809  1.00  0.00     0.679 A 
HETATM    5  N4  UNL     1       5.024 -14.332 -28.788  1.00  0.00    -0.174 N 
ATOM      6  H4  UNL     1       5.533 -15.197 -28.973  1.00  0.00     0.186 HD
HETATM    7  C8  UNL     1       4.930 -13.871 -27.520  1.00  0.00     0.153 A 
HETATM    8  N5  UNL     1       5.516 -14.573 -26.535  1.00  0.00    -0.323 N 
ATOM      9  H5  UNL     1       6.021 -15.434 -26.744  1.00  0.00     0.169 HD
HETATM   10  C9  UNL     1       5.426 -14.122 -25.269  1.00  0.00     0.151 A 
HETATM   11  C13 UNL     1       4.739 -12.943 -24.951  1.00  0.00     0.150 A 
HETATM   12  N9  UNL     1       4.170 -12.279 -25.992  1.00  0.00    -0.333 N 
ATOM     13  H9  UNL     1       3.663 -11.415 -25.798  1.00  0.00     0.168 HD
HETATM   14  C19 UNL     1       4.244 -12.705 -27.255  1.00  0.00     0.123 A 
ENDROOT
BRANCH  10  15
HETATM   15  N6  UNL     1       5.946 -14.735 -24.349  1.00  0.00    -0.351 N 
ATOM     16  H6  UNL     1       6.853 -14.293 -24.208  1.00  0.00     0.166 HD
BRANCH  15  17
HETATM   17  C10 UNL     1       5.880 -15.740 -23.418  1.00  0.00     0.083 C 
BRANCH  17  18
HETATM   18  C11 UNL     1       4.642 -16.594 -23.321  1.00  0.00     0.176 C 
BRANCH  18  19
HETATM   19  N7  UNL     1       3.852 -16.204 -22.131  1.00  0.00    -0.315 N 
ATOM     20  H7  UNL     1       4.117 -16.353 -21.157  1.00  0.00     0.172 HD
BRANCH  19  21
HETATM   21  S1  UNL     1       2.402 -15.452 -22.691  1.00  0.00     0.223 S 
HETATM   22  C12 UNL     1       2.184 -15.594 -24.426  1.00  0.00     0.185 C 
HETATM   23  O1  UNL     1       2.507 -13.976 -22.352  1.00  0.00    -0.206 OA
HETATM   24  O2  UNL     1       1.193 -16.025 -22.009  1.00  0.00    -0.206 OA
ENDBRANCH  19  21
ENDBRANCH  18  19
ENDBRANCH  17  18
ENDBRANCH  15  17
ENDBRANCH  10  15
BRANCH  11  25
HETATM   25  N8  UNL     1       4.615 -12.467 -23.811  1.00  0.00    -0.351 N 
ATOM     26  H8  UNL     1       4.083 -13.095 -23.209  1.00  0.00     0.166 HD
BRANCH  25  27
HETATM   27  C14 UNL     1       4.998 -11.316 -23.119  1.00  0.00     0.088 C 
BRANCH  27  28
HETATM   28  C15 UNL     1       6.337 -10.811 -23.630  1.00  0.00     0.212 C 
BRANCH  28  29
HETATM   29  O3  UNL     1       7.341 -10.959 -22.714  1.00  0.00    -0.384 OA
BRANCH  29  30
HETATM   30  C16 UNL     1       8.041 -12.156 -22.831  1.00  0.00     0.194 C 
BRANCH  30  31
HETATM   31  C17 UNL     1       8.766 -12.292 -24.125  1.00  0.00     0.193 C 
BRANCH  31  32
HETATM   32  O4  UNL     1       8.758 -13.588 -24.557  1.00  0.00    -0.394 OA
HETATM   33  C18 UNL     1       9.588 -14.399 -23.835  1.00  0.00     0.201 C 
ENDBRANCH  31  32
ENDBRANCH  30  31
ENDBRANCH  29  30
ENDBRANCH  28  29
ENDBRANCH  27  28
ENDBRANCH  25  27
ENDBRANCH  11  25
BRANCH   4  34
HETATM   34  N3  UNL     1       4.549 -14.110 -31.029  1.00  0.00    -0.234 N 
ATOM     35  H32 UNL     1       3.748 -14.074 -31.660  1.00  0.00     0.174 HD
ATOM     36  H31 UNL     1       5.420 -14.504 -31.383  1.00  0.00     0.174 HD
ENDBRANCH   4  34
BRANCH   1  37
HETATM   37  N1  UNL     1       3.034 -10.946 -28.016  1.00  0.00    -0.365 N 
ATOM     38  H1  UNL     1       2.148 -11.088 -27.533  1.00  0.00     0.162 HD
BRANCH  37  39
HETATM   39  C3  UNL     1       3.368  -9.588 -28.250  1.00  0.00     0.024 C 
HETATM   40  C4  UNL     1       2.472  -8.856 -29.207  1.00  0.00     0.038 C 
HETATM   41  C5  UNL     1       3.196  -8.875 -26.896  1.00  0.00     0.038 C 
BRANCH  39  42
HETATM   42  C2  UNL     1       4.851  -9.378 -28.582  1.00  0.00     0.026 C 
HETATM   43  C1  UNL     1       5.508  -8.894 -27.289  1.00  0.00     0.007 C 
ENDBRANCH  39  42
ENDBRANCH  37  39
ENDBRANCH   1  37
TORSDOF 16
ENDMDL
MODEL 4
REMARK VINA RESULT: -7.347815053      1.846      2.525
REMARK  16 active torsions:
REMARK  status: ('A' for Active; 'I' for Inactive)
REMARK    1  A    between atoms: C2_2  and  C3_3 
REMARK    2  A    between atoms: C3_3  and  N1_6 
REMARK    3  A    between atoms: N1_6  and  C6_8 
REMARK    4  A    between atoms: C7_11  and  N3_12 
REMARK    5  A    between atoms: C9_20  and  N6_21 
REMARK    6  A    between atoms: N6_21  and  C10_23 
REMARK    7  A    between atoms: C10_23  and  C11_24 
REMARK    8  A    between atoms: C11_24  and  N7_25 
REMARK    9  A    between atoms: N7_25  and  S1_27 
REMARK   10  A    between atoms: C13_31  and  N8_32 
REMARK   11  A    between atoms: N8_32  and  C14_34 
REMARK   12  A    between atoms: C14_34  and  C15_35 
REMARK   13  A    between atoms: C15_35  and  O3_36 
REMARK   14  A    between atoms: O3_36  and  C16_37 
REMARK   15  A    between atoms: C16_37  and  C17_38 
REMARK   16  A    between atoms: C17_38  and  O4_39 
ROOT
HETATM    1  C6  UNL     1       3.481 -16.181 -22.004  1.00  0.00     0.148 A 
HETATM    2  N2  UNL     1       2.199 -16.501 -21.808  1.00  0.00    -0.175 N 
ATOM      3  H2  UNL     1       1.940 -16.878 -20.897  1.00  0.00     0.186 HD
HETATM    4  C7  UNL     1       1.223 -16.362 -22.728  1.00  0.00     0.679 A 
HETATM    5  N4  UNL     1       1.556 -15.866 -23.933  1.00  0.00    -0.174 N 
ATOM      6  H4  UNL     1       0.836 -15.753 -24.647  1.00  0.00     0.186 HD
HETATM    7  C8  UNL     1       2.833 -15.517 -24.211  1.00  0.00     0.153 A 
HETATM    8  N5  UNL     1       3.115 -15.027 -25.430  1.00  0.00    -0.323 N 
ATOM      9  H5  UNL     1       2.378 -14.920 -26.128  1.00  0.00     0.169 HD
HETATM   10  C9  UNL     1       4.384 -14.677 -25.716  1.00  0.00     0.151 A 
HETATM   11  C13 UNL     1       5.417 -14.812 -24.779  1.00  0.00     0.150 A 
HETATM   12  N9  UNL     1       5.067 -15.313 -23.565  1.00  0.00    -0.333 N 
ATOM     13  H9  UNL     1       5.793 -15.424 -22.857  1.00  0.00     0.168 HD
HETATM   14  C19 UNL     1       3.816 -15.668 -23.257  1.00  0.00     0.123 A 
ENDROOT
BRANCH  10  15
HETATM   15  N6  UNL     1       4.676 -14.228 -26.814  1.00  0.00    -0.351 N 
ATOM     16  H6  UNL     1       5.123 -13.330 -26.629  1.00  0.00     0.166 HD
BRANCH  15  17
HETATM   17  C10 UNL     1       4.684 -14.367 -28.179  1.00  0.00     0.083 C 
BRANCH  17  18
HETATM   18  C11 UNL     1       4.915 -13.162 -29.054  1.00  0.00     0.176 C 
BRANCH  18  19
HETATM   19  N7  UNL     1       3.629 -12.477 -29.317  1.00  0.00    -0.315 N 
ATOM     20  H7  UNL     1       2.877 -12.817 -29.917  1.00  0.00     0.172 HD
BRANCH  19  21
HETATM   21  S1  UNL     1       3.633 -10.999 -28.424  1.00  0.00     0.223 S 
HETATM   22  C12 UNL     1       5.183 -10.176 -28.470  1.00  0.00     0.185 C 
HETATM   23  O1  UNL     1       3.334 -11.353 -26.978  1.00  0.00    -0.206 OA
HETATM   24  O2  UNL     1       2.576 -10.056 -28.924  1.00  0.00    -0.206 OA
ENDBRANCH  19  21
ENDBRANCH  18  19
ENDBRANCH  17  18
ENDBRANCH  15  17
ENDBRANCH  10  15
BRANCH  11  25
HETATM   25  N8  UNL     1       6.606 -14.511 -24.970  1.00  0.00    -0.351 N 
ATOM     26  H8  UNL     1       7.011 -15.080 -25.714  1.00  0.00     0.166 HD
BRANCH  25  27
HETATM   27  C14 UNL     1       7.547 -13.617 -24.457  1.00  0.00     0.088 C 
BRANCH  27  28
HETATM   28  C15 UNL     1       8.956 -14.130 -24.704  1.00  0.00     0.212 C 
BRANCH  28  29
HETATM   29  O3  UNL     1       9.111 -15.440 -24.346  1.00  0.00    -0.384 OA
BRANCH  29  30
HETATM   30  C16 UNL     1       9.399 -15.629 -22.998  1.00  0.00     0.194 C 
BRANCH  30  31
HETATM   31  C17 UNL     1       8.655 -16.768 -22.390  1.00  0.00     0.193 C 
BRANCH  31  32
HETATM   32  O4  UNL     1       7.525 -17.051 -23.103  1.00  0.00    -0.394 OA
HETATM   33  C18 UNL     1       6.942 -18.231 -22.736  1.00  0.00     0.201 C 
ENDBRANCH  31  32
ENDBRANCH  30  31
ENDBRANCH  29  30
ENDBRANCH  28  29
ENDBRANCH  27  28
ENDBRANCH  25  27
ENDBRANCH  11  25
BRANCH   4  34
HETATM   34  N3  UNL     1      -0.007 -16.696 -22.462  1.00  0.00    -0.234 N 
ATOM     35  H32 UNL     1      -0.491 -17.397 -23.024  1.00  0.00     0.174 HD
ATOM     36  H31 UNL     1      -0.515 -16.268 -21.688  1.00  0.00     0.174 HD
ENDBRANCH   4  34
BRANCH   1  37
HETATM   37  N1  UNL     1       4.413 -16.300 -21.164  1.00  0.00    -0.365 N 
ATOM     38  H1  UNL     1       4.944 -17.167 -21.238  1.00  0.00     0.162 HD
BRANCH  37  39
HETATM   39  C3  UNL     1       4.847 -15.428 -20.133  1.00  0.00     0.024 C 
HETATM   40  C4  UNL     1       3.844 -14.402 -19.689  1.00  0.00     0.038 C 
HETATM   41  C5  UNL     1       5.094 -16.323 -18.904  1.00  0.00     0.038 C 
BRANCH  39  42
HETATM   42  C2  UNL     1       6.221 -14.803 -20.408  1.00  0.00     0.026 C 
HETATM   43  C1  UNL     1       6.954 -14.792 -19.066  1.00  0.00     0.007 C 
ENDBRANCH  39  42
ENDBRANCH  37  39
ENDBRANCH   1  37
TORSDOF 16
ENDMDL
MODEL 5
REMARK VINA RESULT: -7.316876188      2.530      3.629
REMARK  16 active torsions:
REMARK  status: ('A' for Active; 'I' for Inactive)
REMARK    1  A    between atoms: C2_2  and  C3_3 
REMARK    2  A    between atoms: C3_3  and  N1_6 
REMARK    3  A    between atoms: N1_6  and  C6_8 
REMARK    4  A    between atoms: C7_11  and  N3_12 
REMARK    5  A    between atoms: C9_20  and  N6_21 
REMARK    6  A    between atoms: N6_21  and  C10_23 
REMARK    7  A    between atoms: C10_23  and  C11_24 
REMARK    8  A    between atoms: C11_24  and  N7_25 
REMARK    9  A    between atoms: N7_25  and  S1_27 
REMARK   10  A    between atoms: C13_31  and  N8_32 
REMARK   11  A    between atoms: N8_32  and  C14_34 
REMARK   12  A    between atoms: C14_34  and  C15_35 
REMARK   13  A    between atoms: C15_35  and  O3_36 
REMARK   14  A    between atoms: O3_36  and  C16_37 
REMARK   15  A    between atoms: C16_37  and  C17_38 
REMARK   16  A    between atoms: C17_38  and  O4_39 
ROOT
HETATM    1  C6  UNL     1       4.213 -16.371 -22.175  1.00  0.00     0.148 A 
HETATM    2  N2  UNL     1       2.968 -16.633 -21.771  1.00  0.00    -0.175 N 
ATOM      3  H2  UNL     1       2.853 -17.106 -20.874  1.00  0.00     0.186 HD
HETATM    4  C7  UNL     1       1.853 -16.319 -22.461  1.00  0.00     0.679 A 
HETATM    5  N4  UNL     1       1.997 -15.696 -23.644  1.00  0.00    -0.174 N 
ATOM      6  H4  UNL     1       1.169 -15.448 -24.186  1.00  0.00     0.186 HD
HETATM    7  C8  UNL     1       3.225 -15.394 -24.125  1.00  0.00     0.153 A 
HETATM    8  N5  UNL     1       3.315 -14.771 -25.312  1.00  0.00    -0.323 N 
ATOM      9  H5  UNL     1       2.473 -14.531 -25.836  1.00  0.00     0.169 HD
HETATM   10  C9  UNL     1       4.533 -14.467 -25.800  1.00  0.00     0.151 A 
HETATM   11  C13 UNL     1       5.707 -14.783 -25.104  1.00  0.00     0.150 A 
HETATM   12  N9  UNL     1       5.548 -15.412 -23.909  1.00  0.00    -0.333 N 
ATOM     13  H9  UNL     1       6.382 -15.656 -23.373  1.00  0.00     0.168 HD
HETATM   14  C19 UNL     1       4.352 -15.725 -23.404  1.00  0.00     0.123 A 
ENDROOT
BRANCH  10  15
HETATM   15  N6  UNL     1       4.653 -13.902 -26.876  1.00  0.00    -0.351 N 
ATOM     16  H6  UNL     1       4.888 -12.936 -26.649  1.00  0.00     0.166 HD
BRANCH  15  17
HETATM   17  C10 UNL     1       4.618 -13.958 -28.246  1.00  0.00     0.083 C 
BRANCH  17  18
HETATM   18  C11 UNL     1       4.852 -12.708 -29.054  1.00  0.00     0.176 C 
BRANCH  18  19
HETATM   19  N7  UNL     1       3.572 -11.992 -29.258  1.00  0.00    -0.315 N 
ATOM     20  H7  UNL     1       2.798 -12.297 -29.848  1.00  0.00     0.172 HD
BRANCH  19  21
HETATM   21  S1  UNL     1       3.627 -10.547 -28.313  1.00  0.00     0.223 S 
HETATM   22  C12 UNL     1       5.135  -9.668 -28.495  1.00  0.00     0.185 C 
HETATM   23  O1  UNL     1       3.499 -10.962 -26.859  1.00  0.00    -0.206 OA
HETATM   24  O2  UNL     1       2.492  -9.626 -28.660  1.00  0.00    -0.206 OA
ENDBRANCH  19  21
ENDBRANCH  18  19
ENDBRANCH  17  18
ENDBRANCH  15  17
ENDBRANCH  10  15
BRANCH  11  25
HETATM   25  N8  UNL     1       6.861 -14.535 -25.488  1.00  0.00    -0.351 N 
ATOM     26  H8  UNL     1       7.076 -15.040 -26.348  1.00  0.00     0.166 HD
BRANCH  25  27
HETATM   27  C14 UNL     1       7.949 -13.762 -25.079  1.00  0.00     0.088 C 
BRANCH  27  28
HETATM   28  C15 UNL     1       7.519 -12.323 -24.846  1.00  0.00     0.212 C 
BRANCH  28  29
HETATM   29  O3  UNL     1       7.156 -12.083 -23.551  1.00  0.00    -0.384 OA
BRANCH  29  30
HETATM   30  C16 UNL     1       6.141 -11.141 -23.412  1.00  0.00     0.194 C 
BRANCH  30  31
HETATM   31  C17 UNL     1       4.789 -11.748 -23.260  1.00  0.00     0.193 C 
BRANCH  31  32
HETATM   32  O4  UNL     1       4.359 -11.667 -21.966  1.00  0.00    -0.394 OA
HETATM   33  C18 UNL     1       3.373 -12.567 -21.672  1.00  0.00     0.201 C 
ENDBRANCH  31  32
ENDBRANCH  30  31
ENDBRANCH  29  30
ENDBRANCH  28  29
ENDBRANCH  27  28
ENDBRANCH  25  27
ENDBRANCH  11  25
BRANCH   4  34
HETATM   34  N3  UNL     1       0.671 -16.607 -21.999  1.00  0.00    -0.234 N 
ATOM     35  H32 UNL     1       0.561 -17.073 -21.098  1.00  0.00     0.174 HD
ATOM     36  H31 UNL     1      -0.173 -16.376 -22.524  1.00  0.00     0.174 HD
ENDBRANCH   4  34
BRANCH   1  37
HETATM   37  N1  UNL     1       5.273 -16.653 -21.553  1.00  0.00    -0.365 N 
ATOM     38  H1  UNL     1       5.954 -17.185 -22.093  1.00  0.00     0.162 HD
BRANCH  37  39
HETATM   39  C3  UNL     1       5.674 -16.353 -20.226  1.00  0.00     0.024 C 
HETATM   40  C4  UNL     1       5.027 -17.180 -19.152  1.00  0.00     0.038 C 
HETATM   41  C5  UNL     1       7.176 -16.687 -20.157  1.00  0.00     0.038 C 
BRANCH  39  42
HETATM   42  C2  UNL     1       5.622 -14.854 -19.903  1.00  0.00     0.026 C 
HETATM   43  C1  UNL     1       4.580 -14.699 -18.794  1.00  0.00     0.007 C 
ENDBRANCH  39  42
ENDBRANCH  37  39
ENDBRANCH   1  37
TORSDOF 16
ENDMDL
