MODEL 1
REMARK VINA RESULT: -7.960448647      0.000      0.000
REMARK  16 active torsions:
REMARK  status: ('A' for Active; 'I' for Inactive)
REMARK    1  A    between atoms: C7_7  and  N1_8 
REMARK       I    between atoms: N1_8  and  C8_10 
REMARK    2  A    between atoms: C8_10  and  C9_12 
REMARK    3  A    between atoms: C9_12  and  C10_13 
REMARK    4  A    between atoms: C10_13  and  S1_14 
REMARK    5  A    between atoms: S1_14  and  N2_17 
REMARK    6  A    between atoms: N2_17  and  C11_19 
REMARK    7  A    between atoms: C11_19  and  C12_20 
REMARK    8  A    between atoms: N3_23  and  C15_24 
REMARK    9  A    between atoms: C15_24  and  C16_25 
REMARK   10  A    between atoms: C16_25  and  O4_26 
REMARK   11  A    between atoms: C16_25  and  C17_28 
REMARK   12  A    between atoms: C17_28  and  O5_29 
REMARK   13  A    between atoms: C17_28  and  C18_31 
REMARK   14  A    between atoms: C18_31  and  O6_32 
REMARK   15  A    between atoms: C18_31  and  C19_34 
REMARK   16  A    between atoms: C19_34  and  O7_35 
ROOT
HETATM    1  C12 UNL     1       5.920 -11.638 -23.222  1.00  0.00     0.013 C 
HETATM    2  C13 UNL     1       7.288 -11.215 -23.710  1.00  0.00     0.051 C 
HETATM    3  C14 UNL     1       7.297 -11.387 -25.209  1.00  0.00     0.063 C 
HETATM    4  N3  UNL     1       6.250 -10.759 -25.886  1.00  0.00    -0.371 N 
HETATM    5  C20 UNL     1       4.998 -10.571 -25.301  1.00  0.00     0.063 C 
HETATM    6  C21 UNL     1       4.920 -10.695 -23.823  1.00  0.00     0.051 C 
ENDROOT
BRANCH   1   7
HETATM    7  C11 UNL     1       5.666 -13.038 -23.741  1.00  0.00     0.137 C 
BRANCH   7   8
HETATM    8  N2  UNL     1       4.216 -13.213 -23.876  1.00  0.00    -0.319 N 
ATOM      9  H2  UNL     1       3.497 -12.823 -23.266  1.00  0.00     0.172 HD
BRANCH   8  10
HETATM   10  S1  UNL     1       3.961 -14.206 -25.263  1.00  0.00     0.227 S 
HETATM   11  O2  UNL     1       5.258 -14.312 -26.043  1.00  0.00    -0.206 OA
HETATM   12  O3  UNL     1       2.964 -13.596 -26.202  1.00  0.00    -0.206 OA
BRANCH  10  13
HETATM   13  C10 UNL     1       3.417 -15.795 -24.734  1.00  0.00     0.172 C 
BRANCH  13  14
HETATM   14  C9  UNL     1       2.229 -15.720 -23.818  1.00  0.00     0.119 C 
BRANCH  14  15
HETATM   15  C8  UNL     1       2.568 -16.231 -22.482  1.00  0.00     0.218 C 
HETATM   16  N1  UNL     1       3.825 -15.986 -21.873  1.00  0.00    -0.356 N 
ATOM     17  H1  UNL     1       4.520 -15.437 -22.380  1.00  0.00     0.162 HD
HETATM   18  O1  UNL     1       1.724 -16.906 -21.850  1.00  0.00    -0.274 OA
BRANCH  16  19
HETATM   19  C7  UNL     1       4.158 -16.492 -20.553  1.00  0.00     0.088 C 
HETATM   20  C2  UNL     1       5.403 -17.297 -20.663  1.00  0.00     0.004 C 
HETATM   21  C1  UNL     1       5.720 -18.116 -19.437  1.00  0.00     0.012 C 
HETATM   22  C3  UNL     1       6.541 -16.444 -21.126  1.00  0.00     0.006 C 
HETATM   23  C4  UNL     1       6.601 -15.078 -20.546  1.00  0.00     0.001 C 
HETATM   24  C5  UNL     1       5.663 -14.844 -19.397  1.00  0.00     0.002 C 
HETATM   25  C6  UNL     1       4.272 -15.298 -19.648  1.00  0.00     0.025 C 
ENDBRANCH  16  19
ENDBRANCH  14  15
ENDBRANCH  13  14
ENDBRANCH  10  13
ENDBRANCH   8  10
ENDBRANCH   7   8
ENDBRANCH   1   7
BRANCH   4  26
HETATM   26  C15 UNL     1       6.383 -10.545 -27.296  1.00  0.00     0.165 C 
BRANCH  26  27
HETATM   27  C16 UNL     1       5.127 -11.077 -28.006  1.00  0.00     0.195 C 
BRANCH  27  28
HETATM   28  O4  UNL     1       4.680 -10.024 -28.872  1.00  0.00    -0.387 OA
ATOM     29  H4  UNL     1       4.529 -10.424 -29.720  1.00  0.00     0.210 HD
ENDBRANCH  27  28
BRANCH  27  30
HETATM   30  C17 UNL     1       5.479 -12.237 -28.886  1.00  0.00     0.104 C 
BRANCH  30  31
HETATM   31  O5  UNL     1       6.564 -12.945 -28.367  1.00  0.00    -0.360 OA
ATOM     32  H5  UNL     1       6.422 -13.883 -28.433  1.00  0.00     0.217 HD
ENDBRANCH  30  31
BRANCH  30  33
HETATM   33  C18 UNL     1       4.414 -13.032 -29.497  1.00  0.00     0.098 C 
BRANCH  33  34
HETATM   34  O6  UNL     1       3.176 -12.774 -28.923  1.00  0.00    -0.360 OA
ATOM     35  H6  UNL     1       2.869 -13.501 -28.394  1.00  0.00     0.217 HD
ENDBRANCH  33  34
BRANCH  33  36
HETATM   36  C19 UNL     1       4.633 -14.459 -29.834  1.00  0.00     0.231 C 
BRANCH  36  37
HETATM   37  O7  UNL     1       5.005 -15.250 -28.786  1.00  0.00    -0.394 OA
ATOM     38  H7  UNL     1       5.268 -16.132 -29.021  1.00  0.00     0.209 HD
ENDBRANCH  36  37
ENDBRANCH  33  36
ENDBRANCH  30  33
ENDBRANCH  27  30
ENDBRANCH  26  27
ENDBRANCH   4  26
TORSDOF 16
ENDMDL
MODEL 2
REMARK VINA RESULT: -7.920651206      2.504      4.077
REMARK  16 active torsions:
REMARK  status: ('A' for Active; 'I' for Inactive)
REMARK    1  A    between atoms: C7_7  and  N1_8 
REMARK       I    between atoms: N1_8  and  C8_10 
REMARK    2  A    between atoms: C8_10  and  C9_12 
REMARK    3  A    between atoms: C9_12  and  C10_13 
REMARK    4  A    between atoms: C10_13  and  S1_14 
REMARK    5  A    between atoms: S1_14  and  N2_17 
REMARK    6  A    between atoms: N2_17  and  C11_19 
REMARK    7  A    between atoms: C11_19  and  C12_20 
REMARK    8  A    between atoms: N3_23  and  C15_24 
REMARK    9  A    between atoms: C15_24  and  C16_25 
REMARK   10  A    between atoms: C16_25  and  O4_26 
REMARK   11  A    between atoms: C16_25  and  C17_28 
REMARK   12  A    between atoms: C17_28  and  O5_29 
REMARK   13  A    between atoms: C17_28  and  C18_31 
REMARK   14  A    between atoms: C18_31  and  O6_32 
REMARK   15  A    between atoms: C18_31  and  C19_34 
REMARK   16  A    between atoms: C19_34  and  O7_35 
ROOT
HETATM    1  C12 UNL     1       5.193 -14.581 -23.580  1.00  0.00     0.013 C 
HETATM    2  C13 UNL     1       4.397 -15.612 -24.350  1.00  0.00     0.051 C 
HETATM    3  C14 UNL     1       3.975 -14.968 -25.648  1.00  0.00     0.063 C 
HETATM    4  N3  UNL     1       5.009 -14.400 -26.393  1.00  0.00    -0.371 N 
HETATM    5  C20 UNL     1       6.149 -13.868 -25.792  1.00  0.00     0.063 C 
HETATM    6  C21 UNL     1       6.419 -14.270 -24.387  1.00  0.00     0.051 C 
ENDROOT
BRANCH   1   7
HETATM    7  C11 UNL     1       4.336 -13.337 -23.469  1.00  0.00     0.137 C 
BRANCH   7   8
HETATM    8  N2  UNL     1       4.550 -12.759 -22.137  1.00  0.00    -0.319 N 
ATOM      9  H2  UNL     1       5.320 -12.153 -21.854  1.00  0.00     0.172 HD
BRANCH   8  10
HETATM   10  S1  UNL     1       3.247 -13.301 -21.144  1.00  0.00     0.227 S 
HETATM   11  O2  UNL     1       2.052 -13.619 -22.023  1.00  0.00    -0.206 OA
HETATM   12  O3  UNL     1       2.791 -12.229 -20.201  1.00  0.00    -0.206 OA
BRANCH  10  13
HETATM   13  C10 UNL     1       3.766 -14.728 -20.253  1.00  0.00     0.172 C 
BRANCH  13  14
HETATM   14  C9  UNL     1       4.683 -14.390 -19.112  1.00  0.00     0.119 C 
BRANCH  14  15
HETATM   15  C8  UNL     1       6.050 -14.856 -19.387  1.00  0.00     0.218 C 
HETATM   16  N1  UNL     1       6.317 -16.128 -19.955  1.00  0.00    -0.356 N 
ATOM     17  H1  UNL     1       5.534 -16.741 -20.181  1.00  0.00     0.162 HD
HETATM   18  O1  UNL     1       7.020 -14.112 -19.114  1.00  0.00    -0.274 OA
BRANCH  16  19
HETATM   19  C7  UNL     1       7.669 -16.587 -20.225  1.00  0.00     0.088 C 
HETATM   20  C2  UNL     1       7.694 -18.066 -20.088  1.00  0.00     0.004 C 
HETATM   21  C1  UNL     1       9.081 -18.660 -20.062  1.00  0.00     0.012 C 
HETATM   22  C3  UNL     1       6.786 -18.703 -21.091  1.00  0.00     0.006 C 
HETATM   23  C4  UNL     1       6.793 -18.093 -22.446  1.00  0.00     0.001 C 
HETATM   24  C5  UNL     1       7.889 -17.094 -22.677  1.00  0.00     0.002 C 
HETATM   25  C6  UNL     1       8.030 -16.086 -21.596  1.00  0.00     0.025 C 
ENDBRANCH  16  19
ENDBRANCH  14  15
ENDBRANCH  13  14
ENDBRANCH  10  13
ENDBRANCH   8  10
ENDBRANCH   7   8
ENDBRANCH   1   7
BRANCH   4  26
HETATM   26  C15 UNL     1       4.773 -14.117 -27.778  1.00  0.00     0.165 C 
BRANCH  26  27
HETATM   27  C16 UNL     1       5.372 -12.742 -28.119  1.00  0.00     0.195 C 
BRANCH  27  28
HETATM   28  O4  UNL     1       6.299 -12.965 -29.192  1.00  0.00    -0.387 OA
ATOM     29  H4  UNL     1       7.141 -12.651 -28.884  1.00  0.00     0.210 HD
ENDBRANCH  27  28
BRANCH  27  30
HETATM   30  C17 UNL     1       4.309 -11.830 -28.650  1.00  0.00     0.104 C 
BRANCH  30  31
HETATM   31  O5  UNL     1       3.294 -12.555 -29.274  1.00  0.00    -0.360 OA
ATOM     32  H5  UNL     1       2.696 -12.923 -28.635  1.00  0.00     0.217 HD
ENDBRANCH  30  31
BRANCH  30  33
HETATM   33  C18 UNL     1       3.892 -10.670 -27.862  1.00  0.00     0.098 C 
BRANCH  33  34
HETATM   34  O6  UNL     1       3.632 -11.004 -26.540  1.00  0.00    -0.360 OA
ATOM     35  H6  UNL     1       3.861 -10.302 -25.942  1.00  0.00     0.217 HD
ENDBRANCH  33  34
BRANCH  33  36
HETATM   36  C19 UNL     1       2.951  -9.672 -28.425  1.00  0.00     0.231 C 
BRANCH  36  37
HETATM   37  O7  UNL     1       2.464  -9.972 -29.664  1.00  0.00    -0.394 OA
ATOM     38  H7  UNL     1       2.315  -9.224 -30.230  1.00  0.00     0.209 HD
ENDBRANCH  36  37
ENDBRANCH  33  36
ENDBRANCH  30  33
ENDBRANCH  27  30
ENDBRANCH  26  27
ENDBRANCH   4  26
TORSDOF 16
ENDMDL
MODEL 3
REMARK VINA RESULT: -7.865354964      2.719      4.209
REMARK  16 active torsions:
REMARK  status: ('A' for Active; 'I' for Inactive)
REMARK    1  A    between atoms: C7_7  and  N1_8 
REMARK       I    between atoms: N1_8  and  C8_10 
REMARK    2  A    between atoms: C8_10  and  C9_12 
REMARK    3  A    between atoms: C9_12  and  C10_13 
REMARK    4  A    between atoms: C10_13  and  S1_14 
REMARK    5  A    between atoms: S1_14  and  N2_17 
REMARK    6  A    between atoms: N2_17  and  C11_19 
REMARK    7  A    between atoms: C11_19  and  C12_20 
REMARK    8  A    between atoms: N3_23  and  C15_24 
REMARK    9  A    between atoms: C15_24  and  C16_25 
REMARK   10  A    between atoms: C16_25  and  O4_26 
REMARK   11  A    between atoms: C16_25  and  C17_28 
REMARK   12  A    between atoms: C17_28  and  O5_29 
REMARK   13  A    between atoms: C17_28  and  C18_31 
REMARK   14  A    between atoms: C18_31  and  O6_32 
REMARK   15  A    between atoms: C18_31  and  C19_34 
REMARK   16  A    between atoms: C19_34  and  O7_35 
ROOT
HETATM    1  C12 UNL     1       3.918 -15.678 -23.396  1.00  0.00     0.013 C 
HETATM    2  C13 UNL     1       3.054 -15.589 -24.634  1.00  0.00     0.051 C 
HETATM    3  C14 UNL     1       3.336 -14.253 -25.277  1.00  0.00     0.063 C 
HETATM    4  N3  UNL     1       4.683 -13.985 -25.523  1.00  0.00    -0.371 N 
HETATM    5  C20 UNL     1       5.700 -14.503 -24.721  1.00  0.00     0.063 C 
HETATM    6  C21 UNL     1       5.348 -15.651 -23.847  1.00  0.00     0.051 C 
ENDROOT
BRANCH   1   7
HETATM    7  C11 UNL     1       3.634 -14.452 -22.554  1.00  0.00     0.137 C 
BRANCH   7   8
HETATM    8  N2  UNL     1       3.202 -14.904 -21.227  1.00  0.00    -0.319 N 
ATOM      9  H2  UNL     1       2.317 -15.358 -20.998  1.00  0.00     0.172 HD
BRANCH   8  10
HETATM   10  S1  UNL     1       4.478 -14.523 -20.131  1.00  0.00     0.227 S 
HETATM   11  O2  UNL     1       4.032 -13.390 -19.225  1.00  0.00    -0.206 OA
HETATM   12  O3  UNL     1       5.692 -14.021 -20.852  1.00  0.00    -0.206 OA
BRANCH  10  13
HETATM   13  C10 UNL     1       4.868 -15.959 -19.190  1.00  0.00     0.172 C 
BRANCH  13  14
HETATM   14  C9  UNL     1       4.772 -17.220 -20.001  1.00  0.00     0.119 C 
BRANCH  14  15
HETATM   15  C8  UNL     1       6.101 -17.643 -20.465  1.00  0.00     0.218 C 
HETATM   16  N1  UNL     1       7.231 -16.786 -20.413  1.00  0.00    -0.356 N 
ATOM     17  H1  UNL     1       7.117 -15.843 -20.040  1.00  0.00     0.162 HD
HETATM   18  O1  UNL     1       6.254 -18.798 -20.925  1.00  0.00    -0.274 OA
BRANCH  16  19
HETATM   19  C7  UNL     1       8.543 -17.206 -20.872  1.00  0.00     0.088 C 
HETATM   20  C2  UNL     1       8.723 -16.727 -22.267  1.00  0.00     0.004 C 
HETATM   21  C1  UNL     1       9.915 -17.321 -22.976  1.00  0.00     0.012 C 
HETATM   22  C3  UNL     1       8.676 -15.233 -22.320  1.00  0.00     0.006 C 
HETATM   23  C4  UNL     1       9.364 -14.526 -21.209  1.00  0.00     0.001 C 
HETATM   24  C5  UNL     1      10.214 -15.406 -20.339  1.00  0.00     0.002 C 
HETATM   25  C6  UNL     1       9.542 -16.652 -19.894  1.00  0.00     0.025 C 
ENDBRANCH  16  19
ENDBRANCH  14  15
ENDBRANCH  13  14
ENDBRANCH  10  13
ENDBRANCH   8  10
ENDBRANCH   7   8
ENDBRANCH   1   7
BRANCH   4  26
HETATM   26  C15 UNL     1       5.011 -12.945 -26.454  1.00  0.00     0.165 C 
BRANCH  26  27
HETATM   27  C16 UNL     1       3.712 -12.384 -27.057  1.00  0.00     0.195 C 
BRANCH  27  28
HETATM   28  O4  UNL     1       3.678 -10.992 -26.712  1.00  0.00    -0.387 OA
ATOM     29  H4  UNL     1       3.154 -10.566 -27.380  1.00  0.00     0.210 HD
ENDBRANCH  27  28
BRANCH  27  30
HETATM   30  C17 UNL     1       3.761 -12.456 -28.553  1.00  0.00     0.104 C 
BRANCH  30  31
HETATM   31  O5  UNL     1       3.261 -11.286 -29.125  1.00  0.00    -0.360 OA
ATOM     32  H5  UNL     1       3.623 -11.149 -29.993  1.00  0.00     0.217 HD
ENDBRANCH  30  31
BRANCH  30  33
HETATM   33  C18 UNL     1       4.920 -13.059 -29.210  1.00  0.00     0.098 C 
BRANCH  33  34
HETATM   34  O6  UNL     1       5.904 -12.122 -29.497  1.00  0.00    -0.360 OA
ATOM     35  H6  UNL     1       6.702 -12.281 -29.005  1.00  0.00     0.217 HD
ENDBRANCH  33  34
BRANCH  33  36
HETATM   36  C19 UNL     1       4.741 -14.084 -30.267  1.00  0.00     0.231 C 
BRANCH  36  37
HETATM   37  O7  UNL     1       3.619 -13.939 -31.029  1.00  0.00    -0.394 OA
ATOM     38  H7  UNL     1       2.798 -14.038 -30.561  1.00  0.00     0.209 HD
ENDBRANCH  36  37
ENDBRANCH  33  36
ENDBRANCH  30  33
ENDBRANCH  27  30
ENDBRANCH  26  27
ENDBRANCH   4  26
TORSDOF 16
ENDMDL
MODEL 4
REMARK VINA RESULT: -7.771378310      3.250      7.823
REMARK  16 active torsions:
REMARK  status: ('A' for Active; 'I' for Inactive)
REMARK    1  A    between atoms: C7_7  and  N1_8 
REMARK       I    between atoms: N1_8  and  C8_10 
REMARK    2  A    between atoms: C8_10  and  C9_12 
REMARK    3  A    between atoms: C9_12  and  C10_13 
REMARK    4  A    between atoms: C10_13  and  S1_14 
REMARK    5  A    between atoms: S1_14  and  N2_17 
REMARK    6  A    between atoms: N2_17  and  C11_19 
REMARK    7  A    between atoms: C11_19  and  C12_20 
REMARK    8  A    between atoms: N3_23  and  C15_24 
REMARK    9  A    between atoms: C15_24  and  C16_25 
REMARK   10  A    between atoms: C16_25  and  O4_26 
REMARK   11  A    between atoms: C16_25  and  C17_28 
REMARK   12  A    between atoms: C17_28  and  O5_29 
REMARK   13  A    between atoms: C17_28  and  C18_31 
REMARK   14  A    between atoms: C18_31  and  O6_32 
REMARK   15  A    between atoms: C18_31  and  C19_34 
REMARK   16  A    between atoms: C19_34  and  O7_35 
ROOT
HETATM    1  C12 UNL     1       5.088 -16.009 -18.966  1.00  0.00     0.013 C 
HETATM    2  C13 UNL     1       5.277 -17.500 -19.132  1.00  0.00     0.051 C 
HETATM    3  C14 UNL     1       5.788 -17.729 -20.534  1.00  0.00     0.063 C 
HETATM    4  N3  UNL     1       6.917 -16.987 -20.883  1.00  0.00    -0.371 N 
HETATM    5  C20 UNL     1       7.174 -15.729 -20.338  1.00  0.00     0.063 C 
HETATM    6  C21 UNL     1       6.439 -15.370 -19.098  1.00  0.00     0.051 C 
ENDROOT
BRANCH   1   7
HETATM    7  C11 UNL     1       4.196 -15.535 -20.093  1.00  0.00     0.137 C 
BRANCH   7   8
HETATM    8  N2  UNL     1       3.608 -14.251 -19.696  1.00  0.00    -0.319 N 
ATOM      9  H2  UNL     1       3.428 -13.934 -18.743  1.00  0.00     0.172 HD
BRANCH   8  10
HETATM   10  S1  UNL     1       3.280 -13.382 -21.149  1.00  0.00     0.227 S 
HETATM   11  O2  UNL     1       3.156 -11.904 -20.827  1.00  0.00    -0.206 OA
HETATM   12  O3  UNL     1       1.966 -13.785 -21.748  1.00  0.00    -0.206 OA
BRANCH  10  13
HETATM   13  C10 UNL     1       4.591 -13.665 -22.289  1.00  0.00     0.172 C 
BRANCH  13  14
HETATM   14  C9  UNL     1       5.022 -12.410 -22.992  1.00  0.00     0.119 C 
BRANCH  14  15
HETATM   15  C8  UNL     1       4.690 -12.473 -24.422  1.00  0.00     0.218 C 
HETATM   16  N1  UNL     1       5.346 -11.668 -25.389  1.00  0.00    -0.356 N 
ATOM     17  H1  UNL     1       6.073 -11.022 -25.081  1.00  0.00     0.162 HD
HETATM   18  O1  UNL     1       3.800 -13.262 -24.813  1.00  0.00    -0.274 OA
BRANCH  16  19
HETATM   19  C7  UNL     1       5.016 -11.732 -26.803  1.00  0.00     0.088 C 
HETATM   20  C2  UNL     1       3.990 -10.695 -27.088  1.00  0.00     0.004 C 
HETATM   21  C1  UNL     1       3.344 -10.823 -28.446  1.00  0.00     0.012 C 
HETATM   22  C3  UNL     1       4.530  -9.329 -26.806  1.00  0.00     0.006 C 
HETATM   23  C4  UNL     1       5.939  -9.096 -27.212  1.00  0.00     0.001 C 
HETATM   24  C5  UNL     1       6.531 -10.177 -28.069  1.00  0.00     0.002 C 
HETATM   25  C6  UNL     1       6.304 -11.551 -27.556  1.00  0.00     0.025 C 
ENDBRANCH  16  19
ENDBRANCH  14  15
ENDBRANCH  13  14
ENDBRANCH  10  13
ENDBRANCH   8  10
ENDBRANCH   7   8
ENDBRANCH   1   7
BRANCH   4  26
HETATM   26  C15 UNL     1       7.683 -17.408 -22.019  1.00  0.00     0.165 C 
BRANCH  26  27
HETATM   27  C16 UNL     1       9.167 -17.488 -21.622  1.00  0.00     0.195 C 
BRANCH  27  28
HETATM   28  O4  UNL     1       9.426 -18.867 -21.322  1.00  0.00    -0.387 OA
ATOM     29  H4  UNL     1       8.954 -19.056 -20.519  1.00  0.00     0.210 HD
ENDBRANCH  27  28
BRANCH  27  30
HETATM   30  C17 UNL     1      10.036 -17.131 -22.789  1.00  0.00     0.104 C 
BRANCH  30  31
HETATM   31  O5  UNL     1       9.675 -17.861 -23.922  1.00  0.00    -0.360 OA
ATOM     32  H5  UNL     1      10.298 -18.559 -24.090  1.00  0.00     0.217 HD
ENDBRANCH  30  31
BRANCH  30  33
HETATM   33  C18 UNL     1      10.419 -15.736 -23.006  1.00  0.00     0.098 C 
BRANCH  33  34
HETATM   34  O6  UNL     1      10.682 -15.076 -21.813  1.00  0.00    -0.360 OA
ATOM     35  H6  UNL     1      10.301 -14.205 -21.795  1.00  0.00     0.217 HD
ENDBRANCH  33  34
BRANCH  33  36
HETATM   36  C19 UNL     1       9.710 -14.905 -24.008  1.00  0.00     0.231 C 
BRANCH  36  37
HETATM   37  O7  UNL     1       9.554 -15.483 -25.233  1.00  0.00    -0.394 OA
ATOM     38  H7  UNL     1       8.713 -15.898 -25.380  1.00  0.00     0.209 HD
ENDBRANCH  36  37
ENDBRANCH  33  36
ENDBRANCH  30  33
ENDBRANCH  27  30
ENDBRANCH  26  27
ENDBRANCH   4  26
TORSDOF 16
ENDMDL
MODEL 5
REMARK VINA RESULT: -7.752977068      2.140      3.050
REMARK  16 active torsions:
REMARK  status: ('A' for Active; 'I' for Inactive)
REMARK    1  A    between atoms: C7_7  and  N1_8 
REMARK       I    between atoms: N1_8  and  C8_10 
REMARK    2  A    between atoms: C8_10  and  C9_12 
REMARK    3  A    between atoms: C9_12  and  C10_13 
REMARK    4  A    between atoms: C10_13  and  S1_14 
REMARK    5  A    between atoms: S1_14  and  N2_17 
REMARK    6  A    between atoms: N2_17  and  C11_19 
REMARK    7  A    between atoms: C11_19  and  C12_20 
REMARK    8  A    between atoms: N3_23  and  C15_24 
REMARK    9  A    between atoms: C15_24  and  C16_25 
REMARK   10  A    between atoms: C16_25  and  O4_26 
REMARK   11  A    between atoms: C16_25  and  C17_28 
REMARK   12  A    between atoms: C17_28  and  O5_29 
REMARK   13  A    between atoms: C17_28  and  C18_31 
REMARK   14  A    between atoms: C18_31  and  O6_32 
REMARK   15  A    between atoms: C18_31  and  C19_34 
REMARK   16  A    between atoms: C19_34  and  O7_35 
ROOT
HETATM    1  C12 UNL     1       5.529 -11.074 -23.187  1.00  0.00     0.013 C 
HETATM    2  C13 UNL     1       6.982 -11.076 -23.607  1.00  0.00     0.051 C 
HETATM    3  C14 UNL     1       7.078 -11.901 -24.867  1.00  0.00     0.063 C 
HETATM    4  N3  UNL     1       6.207 -11.525 -25.891  1.00  0.00    -0.371 N 
HETATM    5  C20 UNL     1       4.963 -10.951 -25.632  1.00  0.00     0.063 C 
HETATM    6  C21 UNL     1       4.751 -10.390 -24.272  1.00  0.00     0.051 C 
ENDROOT
BRANCH   1   7
HETATM    7  C11 UNL     1       5.084 -12.518 -23.083  1.00  0.00     0.137 C 
BRANCH   7   8
HETATM    8  N2  UNL     1       3.974 -12.581 -22.126  1.00  0.00    -0.319 N 
ATOM      9  H2  UNL     1       3.693 -11.851 -21.471  1.00  0.00     0.172 HD
BRANCH   8  10
HETATM   10  S1  UNL     1       3.234 -14.126 -22.323  1.00  0.00     0.227 S 
HETATM   11  O2  UNL     1       3.116 -14.436 -23.803  1.00  0.00    -0.206 OA
HETATM   12  O3  UNL     1       1.834 -14.139 -21.786  1.00  0.00    -0.206 OA
BRANCH  10  13
HETATM   13  C10 UNL     1       4.218 -15.336 -21.507  1.00  0.00     0.172 C 
BRANCH  13  14
HETATM   14  C9  UNL     1       4.641 -16.447 -22.426  1.00  0.00     0.119 C 
BRANCH  14  15
HETATM   15  C8  UNL     1       6.106 -16.542 -22.489  1.00  0.00     0.218 C 
HETATM   16  N1  UNL     1       6.953 -15.742 -21.680  1.00  0.00    -0.356 N 
ATOM     17  H1  UNL     1       6.531 -15.078 -21.031  1.00  0.00     0.162 HD
HETATM   18  O1  UNL     1       6.637 -17.354 -23.282  1.00  0.00    -0.274 OA
BRANCH  16  19
HETATM   19  C7  UNL     1       8.402 -15.837 -21.744  1.00  0.00     0.088 C 
HETATM   20  C2  UNL     1       8.935 -14.518 -22.172  1.00  0.00     0.004 C 
HETATM   21  C1  UNL     1      10.395 -14.537 -22.555  1.00  0.00     0.012 C 
HETATM   22  C3  UNL     1       8.591 -13.461 -21.172  1.00  0.00     0.006 C 
HETATM   23  C4  UNL     1       8.693 -13.865 -19.746  1.00  0.00     0.001 C 
HETATM   24  C5  UNL     1       9.367 -15.187 -19.517  1.00  0.00     0.002 C 
HETATM   25  C6  UNL     1       8.867 -16.282 -20.385  1.00  0.00     0.025 C 
ENDBRANCH  16  19
ENDBRANCH  14  15
ENDBRANCH  13  14
ENDBRANCH  10  13
ENDBRANCH   8  10
ENDBRANCH   7   8
ENDBRANCH   1   7
BRANCH   4  26
HETATM   26  C15 UNL     1       6.484 -11.983 -27.221  1.00  0.00     0.165 C 
BRANCH  26  27
HETATM   27  C16 UNL     1       5.526 -11.285 -28.201  1.00  0.00     0.195 C 
BRANCH  27  28
HETATM   28  O4  UNL     1       6.350 -10.711 -29.226  1.00  0.00    -0.387 OA
ATOM     29  H4  UNL     1       6.318  -9.770 -29.096  1.00  0.00     0.210 HD
ENDBRANCH  27  28
BRANCH  27  30
HETATM   30  C17 UNL     1       4.644 -12.294 -28.872  1.00  0.00     0.104 C 
BRANCH  30  31
HETATM   31  O5  UNL     1       3.514 -11.684 -29.419  1.00  0.00    -0.360 OA
ATOM     32  H5  UNL     1       3.699 -10.786 -29.668  1.00  0.00     0.217 HD
ENDBRANCH  30  31
BRANCH  30  33
HETATM   33  C18 UNL     1       5.245 -13.374 -29.654  1.00  0.00     0.098 C 
BRANCH  33  34
HETATM   34  O6  UNL     1       6.171 -12.898 -30.574  1.00  0.00    -0.360 OA
ATOM     35  H6  UNL     1       5.939 -13.131 -31.466  1.00  0.00     0.217 HD
ENDBRANCH  33  34
BRANCH  33  36
HETATM   36  C19 UNL     1       4.416 -14.493 -30.160  1.00  0.00     0.231 C 
BRANCH  36  37
HETATM   37  O7  UNL     1       3.412 -14.130 -31.011  1.00  0.00    -0.394 OA
ATOM     38  H7  UNL     1       3.447 -14.533 -31.870  1.00  0.00     0.209 HD
ENDBRANCH  36  37
ENDBRANCH  33  36
ENDBRANCH  30  33
ENDBRANCH  27  30
ENDBRANCH  26  27
ENDBRANCH   4  26
TORSDOF 16
ENDMDL
