MODEL 1
REMARK VINA RESULT: -8.568269120      0.000      0.000
REMARK  15 active torsions:
REMARK  status: ('A' for Active; 'I' for Inactive)
REMARK    1  A    between atoms: C2_2  and  O1_3 
REMARK    2  A    between atoms: O1_3  and  C3_4 
REMARK    3  A    between atoms: C3_4  and  C4_5 
REMARK    4  A    between atoms: C3_4  and  C24_37 
REMARK       I    between atoms: C4_5  and  N1_7 
REMARK    5  A    between atoms: N1_7  and  C5_9 
REMARK    6  A    between atoms: C5_9  and  C6_10 
REMARK    7  A    between atoms: C6_10  and  C7_11 
REMARK    8  A    between atoms: C7_11  and  C8_12 
REMARK    9  A    between atoms: C8_12  and  C10_14 
REMARK   10  A    between atoms: C11_15  and  O3_16 
REMARK   11  A    between atoms: C12_18  and  O4_19 
REMARK   12  A    between atoms: C14_22  and  N2_23 
REMARK       I    between atoms: N2_23  and  C15_25 
REMARK   13  A    between atoms: C15_25  and  C16_27 
REMARK   14  A    between atoms: C16_27  and  C17_28 
REMARK   15  A    between atoms: C23_34  and  O6_35 
ROOT
HETATM    1  C10 UNL     1       4.395 -26.035   7.117  1.00  0.00     0.051 C 
HETATM    2  C11 UNL     1       3.157 -25.796   6.338  1.00  0.00     0.153 C 
HETATM    3  C12 UNL     1       3.239 -25.654   4.883  1.00  0.00     0.149 C 
HETATM    4  C13 UNL     1       4.496 -26.059   4.215  1.00  0.00     0.062 C 
HETATM    5  C14 UNL     1       5.284 -27.083   4.979  1.00  0.00     0.116 C 
HETATM    6  C23 UNL     1       5.473 -26.780   6.402  1.00  0.00     0.148 C 
ENDROOT
BRANCH   1   7
HETATM    7  C8  UNL     1       4.963 -24.749   7.731  1.00  0.00    -0.009 C 
HETATM    8  C9  UNL     1       6.473 -24.723   7.597  1.00  0.00     0.010 C 
BRANCH   7   9
HETATM    9  C7  UNL     1       4.446 -23.519   7.075  1.00  0.00     0.006 C 
BRANCH   9  10
HETATM   10  C6  UNL     1       5.474 -22.435   6.806  1.00  0.00     0.020 C 
BRANCH  10  11
HETATM   11  C5  UNL     1       4.988 -21.222   7.562  1.00  0.00     0.122 C 
BRANCH  11  12
HETATM   12  N1  UNL     1       3.826 -20.674   6.919  1.00  0.00    -0.359 N 
HETATM   13  C4  UNL     1       2.569 -20.642   7.567  1.00  0.00     0.248 C 
HETATM   14  O2  UNL     1       2.485 -21.079   8.737  1.00  0.00    -0.271 OA
ATOM     15  H1  UNL     1       3.908 -20.299   5.975  1.00  0.00     0.162 HD
BRANCH  13  16
HETATM   16  C3  UNL     1       1.374 -20.117   6.896  1.00  0.00     0.231 C 
BRANCH  16  17
HETATM   17  O1  UNL     1       0.932 -20.921   5.879  1.00  0.00    -0.375 OA
BRANCH  17  18
HETATM   18  C2  UNL     1      -0.038 -21.836   6.166  1.00  0.00     0.164 C 
HETATM   19  C1  UNL     1      -1.124 -21.771   5.081  1.00  0.00     0.033 C 
ENDBRANCH  17  18
ENDBRANCH  16  17
BRANCH  16  20
HETATM   20  C24 UNL     1       1.667 -18.694   6.365  1.00  0.00     0.116 C 
HETATM   21  C25 UNL     1       0.886 -18.416   5.122  1.00  0.00     0.030 C 
HETATM   22 CL1  UNL     1       1.168 -17.558   7.625  1.00  0.00    -0.122 Cl
ENDBRANCH  16  20
ENDBRANCH  13  16
ENDBRANCH  11  12
ENDBRANCH  10  11
ENDBRANCH   9  10
ENDBRANCH   7   9
ENDBRANCH   1   7
BRANCH   2  23
HETATM   23  O3  UNL     1       2.184 -26.768   6.691  1.00  0.00    -0.393 OA
ATOM     24  H3  UNL     1       1.435 -26.686   6.113  1.00  0.00     0.210 HD
ENDBRANCH   2  23
BRANCH   6  25
HETATM   25  O6  UNL     1       5.768 -28.009   7.046  1.00  0.00    -0.393 OA
ATOM     26  H6  UNL     1       6.666 -28.276   6.890  1.00  0.00     0.210 HD
ENDBRANCH   6  25
BRANCH   3  27
HETATM   27  O4  UNL     1       2.191 -26.400   4.291  1.00  0.00    -0.393 OA
ATOM     28  H4  UNL     1       1.996 -27.147   4.845  1.00  0.00     0.210 HD
ENDBRANCH   3  27
BRANCH   5  29
HETATM   29  N2  UNL     1       6.595 -27.137   4.300  1.00  0.00    -0.354 N 
HETATM   30  C15 UNL     1       7.367 -25.965   4.076  1.00  0.00     0.218 C 
HETATM   31  O5  UNL     1       6.912 -24.869   4.472  1.00  0.00    -0.274 OA
ATOM     32  H2  UNL     1       6.955 -28.038   3.983  1.00  0.00     0.162 HD
BRANCH  30  33
HETATM   33  C16 UNL     1       8.659 -26.075   3.396  1.00  0.00     0.107 C 
BRANCH  33  34
HETATM   34  C17 UNL     1       9.852 -26.189   4.293  1.00  0.00    -0.006 C 
HETATM   35  C18 UNL     1      10.703 -24.963   4.306  1.00  0.00     0.005 C 
HETATM   36  C19 UNL     1      11.706 -25.104   5.452  1.00  0.00     0.000 C 
HETATM   37  C20 UNL     1      12.529 -26.355   5.339  1.00  0.00     0.000 C 
HETATM   38  C21 UNL     1      12.191 -27.029   4.024  1.00  0.00     0.000 C 
HETATM   39  C22 UNL     1      10.702 -27.399   4.040  1.00  0.00     0.005 C 
ENDBRANCH  33  34
ENDBRANCH  30  33
ENDBRANCH   5  29
TORSDOF 15
ENDMDL
MODEL 2
REMARK VINA RESULT: -8.323374451      4.527      7.894
REMARK  15 active torsions:
REMARK  status: ('A' for Active; 'I' for Inactive)
REMARK    1  A    between atoms: C2_2  and  O1_3 
REMARK    2  A    between atoms: O1_3  and  C3_4 
REMARK    3  A    between atoms: C3_4  and  C4_5 
REMARK    4  A    between atoms: C3_4  and  C24_37 
REMARK       I    between atoms: C4_5  and  N1_7 
REMARK    5  A    between atoms: N1_7  and  C5_9 
REMARK    6  A    between atoms: C5_9  and  C6_10 
REMARK    7  A    between atoms: C6_10  and  C7_11 
REMARK    8  A    between atoms: C7_11  and  C8_12 
REMARK    9  A    between atoms: C8_12  and  C10_14 
REMARK   10  A    between atoms: C11_15  and  O3_16 
REMARK   11  A    between atoms: C12_18  and  O4_19 
REMARK   12  A    between atoms: C14_22  and  N2_23 
REMARK       I    between atoms: N2_23  and  C15_25 
REMARK   13  A    between atoms: C15_25  and  C16_27 
REMARK   14  A    between atoms: C16_27  and  C17_28 
REMARK   15  A    between atoms: C23_34  and  O6_35 
ROOT
HETATM    1  C10 UNL     1       2.833 -26.601   6.192  1.00  0.00     0.051 C 
HETATM    2  C11 UNL     1       3.411 -27.791   6.859  1.00  0.00     0.153 C 
HETATM    3  C12 UNL     1       4.854 -28.026   6.790  1.00  0.00     0.149 C 
HETATM    4  C13 UNL     1       5.717 -26.916   6.327  1.00  0.00     0.062 C 
HETATM    5  C14 UNL     1       5.122 -25.555   6.548  1.00  0.00     0.116 C 
HETATM    6  C23 UNL     1       3.730 -25.411   6.106  1.00  0.00     0.148 C 
ENDROOT
BRANCH   1   7
HETATM    7  C8  UNL     1       2.253 -26.923   4.809  1.00  0.00    -0.009 C 
HETATM    8  C9  UNL     1       3.354 -27.375   3.868  1.00  0.00     0.010 C 
BRANCH   7   9
HETATM    9  C7  UNL     1       1.239 -28.011   4.847  1.00  0.00     0.006 C 
BRANCH   9  10
HETATM   10  C6  UNL     1       0.629 -28.388   3.509  1.00  0.00     0.020 C 
BRANCH  10  11
HETATM   11  C5  UNL     1       0.401 -29.879   3.576  1.00  0.00     0.122 C 
BRANCH  11  12
HETATM   12  N1  UNL     1       1.348 -30.561   2.738  1.00  0.00    -0.359 N 
HETATM   13  C4  UNL     1       2.468 -31.231   3.281  1.00  0.00     0.248 C 
HETATM   14  O2  UNL     1       2.613 -31.247   4.525  1.00  0.00    -0.271 OA
ATOM     15  H1  UNL     1       1.210 -30.561   1.727  1.00  0.00     0.162 HD
BRANCH  13  16
HETATM   16  C3  UNL     1       3.455 -31.894   2.421  1.00  0.00     0.231 C 
BRANCH  16  17
HETATM   17  O1  UNL     1       3.471 -33.255   2.571  1.00  0.00    -0.375 OA
BRANCH  17  18
HETATM   18  C2  UNL     1       2.337 -33.944   2.254  1.00  0.00     0.164 C 
HETATM   19  C1  UNL     1       1.940 -34.831   3.444  1.00  0.00     0.033 C 
ENDBRANCH  17  18
ENDBRANCH  16  17
BRANCH  16  20
HETATM   20  C24 UNL     1       4.859 -31.309   2.705  1.00  0.00     0.116 C 
HETATM   21  C25 UNL     1       5.931 -32.222   2.205  1.00  0.00     0.030 C 
HETATM   22 CL1  UNL     1       4.963 -29.770   1.838  1.00  0.00    -0.122 Cl
ENDBRANCH  16  20
ENDBRANCH  13  16
ENDBRANCH  11  12
ENDBRANCH  10  11
ENDBRANCH   9  10
ENDBRANCH   7   9
ENDBRANCH   1   7
BRANCH   2  23
HETATM   23  O3  UNL     1       2.961 -27.840   8.205  1.00  0.00    -0.393 OA
ATOM     24  H3  UNL     1       3.707 -27.952   8.782  1.00  0.00     0.210 HD
ENDBRANCH   2  23
BRANCH   6  25
HETATM   25  O6  UNL     1       3.191 -24.304   6.810  1.00  0.00    -0.393 OA
ATOM     26  H6  UNL     1       3.069 -24.504   7.730  1.00  0.00     0.210 HD
ENDBRANCH   6  25
BRANCH   3  27
HETATM   27  O4  UNL     1       5.317 -28.410   8.072  1.00  0.00    -0.393 OA
ATOM     28  H4  UNL     1       6.102 -28.935   7.970  1.00  0.00     0.210 HD
ENDBRANCH   3  27
BRANCH   5  29
HETATM   29  N2  UNL     1       5.989 -24.634   5.783  1.00  0.00    -0.354 N 
HETATM   30  C15 UNL     1       6.996 -23.859   6.419  1.00  0.00     0.218 C 
HETATM   31  O5  UNL     1       7.141 -23.972   7.656  1.00  0.00    -0.274 OA
ATOM     32  H2  UNL     1       5.861 -24.553   4.774  1.00  0.00     0.162 HD
BRANCH  30  33
HETATM   33  C16 UNL     1       7.826 -22.961   5.613  1.00  0.00     0.107 C 
BRANCH  33  34
HETATM   34  C17 UNL     1       9.175 -23.492   5.241  1.00  0.00    -0.006 C 
HETATM   35  C18 UNL     1       9.218 -24.980   5.135  1.00  0.00     0.005 C 
HETATM   36  C19 UNL     1      10.550 -25.362   4.487  1.00  0.00     0.000 C 
HETATM   37  C20 UNL     1      11.728 -24.822   5.244  1.00  0.00     0.000 C 
HETATM   38  C21 UNL     1      11.219 -24.168   6.512  1.00  0.00     0.000 C 
HETATM   39  C22 UNL     1      10.292 -23.010   6.120  1.00  0.00     0.005 C 
ENDBRANCH  33  34
ENDBRANCH  30  33
ENDBRANCH   5  29
TORSDOF 15
ENDMDL
MODEL 3
REMARK VINA RESULT: -8.319781179      4.987      8.085
REMARK  15 active torsions:
REMARK  status: ('A' for Active; 'I' for Inactive)
REMARK    1  A    between atoms: C2_2  and  O1_3 
REMARK    2  A    between atoms: O1_3  and  C3_4 
REMARK    3  A    between atoms: C3_4  and  C4_5 
REMARK    4  A    between atoms: C3_4  and  C24_37 
REMARK       I    between atoms: C4_5  and  N1_7 
REMARK    5  A    between atoms: N1_7  and  C5_9 
REMARK    6  A    between atoms: C5_9  and  C6_10 
REMARK    7  A    between atoms: C6_10  and  C7_11 
REMARK    8  A    between atoms: C7_11  and  C8_12 
REMARK    9  A    between atoms: C8_12  and  C10_14 
REMARK   10  A    between atoms: C11_15  and  O3_16 
REMARK   11  A    between atoms: C12_18  and  O4_19 
REMARK   12  A    between atoms: C14_22  and  N2_23 
REMARK       I    between atoms: N2_23  and  C15_25 
REMARK   13  A    between atoms: C15_25  and  C16_27 
REMARK   14  A    between atoms: C16_27  and  C17_28 
REMARK   15  A    between atoms: C23_34  and  O6_35 
ROOT
HETATM    1  C10 UNL     1       2.809 -26.631   6.167  1.00  0.00     0.051 C 
HETATM    2  C11 UNL     1       3.399 -27.809   6.845  1.00  0.00     0.153 C 
HETATM    3  C12 UNL     1       4.847 -28.022   6.791  1.00  0.00     0.149 C 
HETATM    4  C13 UNL     1       5.697 -26.900   6.331  1.00  0.00     0.062 C 
HETATM    5  C14 UNL     1       5.078 -25.548   6.541  1.00  0.00     0.116 C 
HETATM    6  C23 UNL     1       3.689 -25.428   6.084  1.00  0.00     0.148 C 
ENDROOT
BRANCH   1   7
HETATM    7  C8  UNL     1       2.249 -26.969   4.779  1.00  0.00    -0.009 C 
HETATM    8  C9  UNL     1       3.375 -27.321   3.827  1.00  0.00     0.010 C 
BRANCH   7   9
HETATM    9  C7  UNL     1       1.317 -28.129   4.799  1.00  0.00     0.006 C 
BRANCH   9  10
HETATM   10  C6  UNL     1       0.606 -28.424   3.491  1.00  0.00     0.020 C 
BRANCH  10  11
HETATM   11  C5  UNL     1      -0.448 -29.451   3.829  1.00  0.00     0.122 C 
BRANCH  11  12
HETATM   12  N1  UNL     1       0.115 -30.481   4.657  1.00  0.00    -0.359 N 
HETATM   13  C4  UNL     1       0.545 -31.713   4.113  1.00  0.00     0.248 C 
HETATM   14  O2  UNL     1       0.452 -31.890   2.877  1.00  0.00    -0.271 OA
ATOM     15  H1  UNL     1       0.208 -30.319   5.659  1.00  0.00     0.162 HD
BRANCH  13  16
HETATM   16  C3  UNL     1       1.085 -32.779   4.965  1.00  0.00     0.231 C 
BRANCH  16  17
HETATM   17  O1  UNL     1       2.454 -32.813   4.981  1.00  0.00    -0.375 OA
BRANCH  17  18
HETATM   18  C2  UNL     1       3.108 -31.812   5.638  1.00  0.00     0.164 C 
HETATM   19  C1  UNL     1       3.882 -30.966   4.616  1.00  0.00     0.033 C 
ENDBRANCH  17  18
ENDBRANCH  16  17
BRANCH  16  20
HETATM   20  C24 UNL     1       0.521 -34.143   4.501  1.00  0.00     0.116 C 
HETATM   21  C25 UNL     1       1.567 -35.208   4.576  1.00  0.00     0.030 C 
HETATM   22 CL1  UNL     1      -0.803 -34.557   5.599  1.00  0.00    -0.122 Cl
ENDBRANCH  16  20
ENDBRANCH  13  16
ENDBRANCH  11  12
ENDBRANCH  10  11
ENDBRANCH   9  10
ENDBRANCH   7   9
ENDBRANCH   1   7
BRANCH   2  23
HETATM   23  O3  UNL     1       2.937 -27.860   8.187  1.00  0.00    -0.393 OA
ATOM     24  H3  UNL     1       2.460 -28.670   8.325  1.00  0.00     0.210 HD
ENDBRANCH   2  23
BRANCH   6  25
HETATM   25  O6  UNL     1       3.125 -24.326   6.777  1.00  0.00    -0.393 OA
ATOM     26  H6  UNL     1       3.155 -23.535   6.253  1.00  0.00     0.210 HD
ENDBRANCH   6  25
BRANCH   3  27
HETATM   27  O4  UNL     1       5.303 -28.392   8.079  1.00  0.00    -0.393 OA
ATOM     28  H4  UNL     1       5.300 -29.340   8.145  1.00  0.00     0.210 HD
ENDBRANCH   3  27
BRANCH   5  29
HETATM   29  N2  UNL     1       5.937 -24.617   5.780  1.00  0.00    -0.354 N 
HETATM   30  C15 UNL     1       6.939 -23.837   6.419  1.00  0.00     0.218 C 
HETATM   31  O5  UNL     1       7.085 -23.955   7.656  1.00  0.00    -0.274 OA
ATOM     32  H2  UNL     1       5.809 -24.532   4.772  1.00  0.00     0.162 HD
BRANCH  30  33
HETATM   33  C16 UNL     1       7.762 -22.929   5.617  1.00  0.00     0.107 C 
BRANCH  33  34
HETATM   34  C17 UNL     1       9.113 -23.449   5.238  1.00  0.00    -0.006 C 
HETATM   35  C18 UNL     1       9.164 -24.936   5.118  1.00  0.00     0.005 C 
HETATM   36  C19 UNL     1      10.496 -25.305   4.465  1.00  0.00     0.000 C 
HETATM   37  C20 UNL     1      11.672 -24.767   5.225  1.00  0.00     0.000 C 
HETATM   38  C21 UNL     1      11.162 -24.127   6.501  1.00  0.00     0.000 C 
HETATM   39  C22 UNL     1      10.229 -22.970   6.120  1.00  0.00     0.005 C 
ENDBRANCH  33  34
ENDBRANCH  30  33
ENDBRANCH   5  29
TORSDOF 15
ENDMDL
MODEL 4
REMARK VINA RESULT: -8.285970597      4.163      7.025
REMARK  15 active torsions:
REMARK  status: ('A' for Active; 'I' for Inactive)
REMARK    1  A    between atoms: C2_2  and  O1_3 
REMARK    2  A    between atoms: O1_3  and  C3_4 
REMARK    3  A    between atoms: C3_4  and  C4_5 
REMARK    4  A    between atoms: C3_4  and  C24_37 
REMARK       I    between atoms: C4_5  and  N1_7 
REMARK    5  A    between atoms: N1_7  and  C5_9 
REMARK    6  A    between atoms: C5_9  and  C6_10 
REMARK    7  A    between atoms: C6_10  and  C7_11 
REMARK    8  A    between atoms: C7_11  and  C8_12 
REMARK    9  A    between atoms: C8_12  and  C10_14 
REMARK   10  A    between atoms: C11_15  and  O3_16 
REMARK   11  A    between atoms: C12_18  and  O4_19 
REMARK   12  A    between atoms: C14_22  and  N2_23 
REMARK       I    between atoms: N2_23  and  C15_25 
REMARK   13  A    between atoms: C15_25  and  C16_27 
REMARK   14  A    between atoms: C16_27  and  C17_28 
REMARK   15  A    between atoms: C23_34  and  O6_35 
ROOT
HETATM    1  C10 UNL     1       3.918 -25.531   6.578  1.00  0.00     0.051 C 
HETATM    2  C11 UNL     1       4.299 -24.534   7.607  1.00  0.00     0.153 C 
HETATM    3  C12 UNL     1       5.674 -24.034   7.651  1.00  0.00     0.149 C 
HETATM    4  C13 UNL     1       6.549 -24.302   6.488  1.00  0.00     0.062 C 
HETATM    5  C14 UNL     1       5.799 -24.514   5.204  1.00  0.00     0.116 C 
HETATM    6  C23 UNL     1       4.674 -25.452   5.294  1.00  0.00     0.148 C 
ENDROOT
BRANCH   1   7
HETATM    7  C8  UNL     1       3.941 -26.969   7.114  1.00  0.00    -0.009 C 
HETATM    8  C9  UNL     1       4.299 -26.977   8.587  1.00  0.00     0.010 C 
BRANCH   7   9
HETATM    9  C7  UNL     1       2.629 -27.655   6.980  1.00  0.00     0.006 C 
BRANCH   9  10
HETATM   10  C6  UNL     1       2.502 -28.608   5.805  1.00  0.00     0.020 C 
BRANCH  10  11
HETATM   11  C5  UNL     1       3.917 -28.986   5.439  1.00  0.00     0.122 C 
BRANCH  11  12
HETATM   12  N1  UNL     1       3.924 -29.739   4.215  1.00  0.00    -0.359 N 
HETATM   13  C4  UNL     1       4.286 -29.145   2.984  1.00  0.00     0.248 C 
HETATM   14  O2  UNL     1       4.632 -27.942   2.976  1.00  0.00    -0.271 OA
ATOM     15  H1  UNL     1       3.663 -30.725   4.235  1.00  0.00     0.162 HD
BRANCH  13  16
HETATM   16  C3  UNL     1       4.256 -29.906   1.729  1.00  0.00     0.231 C 
BRANCH  16  17
HETATM   17  O1  UNL     1       3.332 -30.916   1.734  1.00  0.00    -0.375 OA
BRANCH  17  18
HETATM   18  C2  UNL     1       2.150 -30.701   1.088  1.00  0.00     0.164 C 
HETATM   19  C1  UNL     1       1.011 -30.685   2.119  1.00  0.00     0.033 C 
ENDBRANCH  17  18
ENDBRANCH  16  17
BRANCH  16  20
HETATM   20  C24 UNL     1       5.666 -30.471   1.438  1.00  0.00     0.116 C 
HETATM   21  C25 UNL     1       5.851 -31.807   2.083  1.00  0.00     0.030 C 
HETATM   22 CL1  UNL     1       5.798 -30.656  -0.316  1.00  0.00    -0.122 Cl
ENDBRANCH  16  20
ENDBRANCH  13  16
ENDBRANCH  11  12
ENDBRANCH  10  11
ENDBRANCH   9  10
ENDBRANCH   7   9
ENDBRANCH   1   7
BRANCH   2  23
HETATM   23  O3  UNL     1       3.376 -23.455   7.580  1.00  0.00    -0.393 OA
ATOM     24  H3  UNL     1       3.764 -22.721   7.119  1.00  0.00     0.210 HD
ENDBRANCH   2  23
BRANCH   6  25
HETATM   25  O6  UNL     1       3.814 -25.163   4.204  1.00  0.00    -0.393 OA
ATOM     26  H6  UNL     1       4.298 -25.086   3.390  1.00  0.00     0.210 HD
ENDBRANCH   6  25
BRANCH   3  27
HETATM   27  O4  UNL     1       5.644 -22.630   7.838  1.00  0.00    -0.393 OA
ATOM     28  H4  UNL     1       6.532 -22.295   7.787  1.00  0.00     0.210 HD
ENDBRANCH   3  27
BRANCH   5  29
HETATM   29  N2  UNL     1       6.808 -25.030   4.257  1.00  0.00    -0.354 N 
HETATM   30  C15 UNL     1       7.587 -26.182   4.552  1.00  0.00     0.218 C 
HETATM   31  O5  UNL     1       7.400 -26.762   5.644  1.00  0.00    -0.274 OA
ATOM     32  H2  UNL     1       6.950 -24.549   3.368  1.00  0.00     0.162 HD
BRANCH  30  33
HETATM   33  C16 UNL     1       8.575 -26.649   3.578  1.00  0.00     0.107 C 
BRANCH  33  34
HETATM   34  C17 UNL     1       9.998 -26.305   3.888  1.00  0.00    -0.006 C 
HETATM   35  C18 UNL     1      10.679 -27.315   4.750  1.00  0.00     0.005 C 
HETATM   36  C19 UNL     1      12.174 -26.992   4.755  1.00  0.00     0.000 C 
HETATM   37  C20 UNL     1      12.452 -25.590   5.212  1.00  0.00     0.000 C 
HETATM   38  C21 UNL     1      11.145 -24.968   5.662  1.00  0.00     0.000 C 
HETATM   39  C22 UNL     1      10.190 -24.932   4.462  1.00  0.00     0.005 C 
ENDBRANCH  33  34
ENDBRANCH  30  33
ENDBRANCH   5  29
TORSDOF 15
ENDMDL
MODEL 5
REMARK VINA RESULT: -8.284345290      4.700      6.849
REMARK  15 active torsions:
REMARK  status: ('A' for Active; 'I' for Inactive)
REMARK    1  A    between atoms: C2_2  and  O1_3 
REMARK    2  A    between atoms: O1_3  and  C3_4 
REMARK    3  A    between atoms: C3_4  and  C4_5 
REMARK    4  A    between atoms: C3_4  and  C24_37 
REMARK       I    between atoms: C4_5  and  N1_7 
REMARK    5  A    between atoms: N1_7  and  C5_9 
REMARK    6  A    between atoms: C5_9  and  C6_10 
REMARK    7  A    between atoms: C6_10  and  C7_11 
REMARK    8  A    between atoms: C7_11  and  C8_12 
REMARK    9  A    between atoms: C8_12  and  C10_14 
REMARK   10  A    between atoms: C11_15  and  O3_16 
REMARK   11  A    between atoms: C12_18  and  O4_19 
REMARK   12  A    between atoms: C14_22  and  N2_23 
REMARK       I    between atoms: N2_23  and  C15_25 
REMARK   13  A    between atoms: C15_25  and  C16_27 
REMARK   14  A    between atoms: C16_27  and  C17_28 
REMARK   15  A    between atoms: C23_34  and  O6_35 
ROOT
HETATM    1  C10 UNL     1       3.018 -27.114   5.971  1.00  0.00     0.051 C 
HETATM    2  C11 UNL     1       3.606 -28.028   6.979  1.00  0.00     0.153 C 
HETATM    3  C12 UNL     1       5.041 -27.961   7.261  1.00  0.00     0.149 C 
HETATM    4  C13 UNL     1       5.793 -26.787   6.766  1.00  0.00     0.062 C 
HETATM    5  C14 UNL     1       4.943 -25.565   6.567  1.00  0.00     0.116 C 
HETATM    6  C23 UNL     1       3.698 -25.793   5.826  1.00  0.00     0.148 C 
ENDROOT
BRANCH   1   7
HETATM    7  C8  UNL     1       2.857 -27.776   4.597  1.00  0.00    -0.009 C 
HETATM    8  C9  UNL     1       4.008 -27.392   3.688  1.00  0.00     0.010 C 
BRANCH   7   9
HETATM    9  C7  UNL     1       2.837 -29.262   4.671  1.00  0.00     0.006 C 
BRANCH   9  10
HETATM   10  C6  UNL     1       1.486 -29.914   4.434  1.00  0.00     0.020 C 
BRANCH  10  11
HETATM   11  C5  UNL     1       0.972 -30.285   5.804  1.00  0.00     0.122 C 
BRANCH  11  12
HETATM   12  N1  UNL     1      -0.223 -29.544   6.099  1.00  0.00    -0.359 N 
HETATM   13  C4  UNL     1      -1.266 -30.102   6.874  1.00  0.00     0.248 C 
HETATM   14  O2  UNL     1      -1.122 -31.259   7.330  1.00  0.00    -0.271 OA
ATOM     15  H1  UNL     1      -0.322 -28.594   5.742  1.00  0.00     0.162 HD
BRANCH  13  16
HETATM   16  C3  UNL     1      -2.503 -29.359   7.142  1.00  0.00     0.231 C 
BRANCH  16  17
HETATM   17  O1  UNL     1      -2.716 -29.134   8.476  1.00  0.00    -0.375 OA
BRANCH  17  18
HETATM   18  C2  UNL     1      -2.406 -27.901   8.971  1.00  0.00     0.164 C 
HETATM   19  C1  UNL     1      -3.674 -27.032   8.978  1.00  0.00     0.033 C 
ENDBRANCH  17  18
ENDBRANCH  16  17
BRANCH  16  20
HETATM   20  C24 UNL     1      -3.702 -30.120   6.530  1.00  0.00     0.116 C 
HETATM   21  C25 UNL     1      -4.783 -30.319   7.542  1.00  0.00     0.030 C 
HETATM   22 CL1  UNL     1      -4.327 -29.124   5.208  1.00  0.00    -0.122 Cl
ENDBRANCH  16  20
ENDBRANCH  13  16
ENDBRANCH  11  12
ENDBRANCH  10  11
ENDBRANCH   9  10
ENDBRANCH   7   9
ENDBRANCH   1   7
BRANCH   2  23
HETATM   23  O3  UNL     1       2.856 -27.947   8.182  1.00  0.00    -0.393 OA
ATOM     24  H3  UNL     1       3.042 -27.121   8.613  1.00  0.00     0.210 HD
ENDBRANCH   2  23
BRANCH   6  25
HETATM   25  O6  UNL     1       2.826 -24.723   6.153  1.00  0.00    -0.393 OA
ATOM     26  H6  UNL     1       3.268 -23.884   6.092  1.00  0.00     0.210 HD
ENDBRANCH   6  25
BRANCH   3  27
HETATM   27  O4  UNL     1       5.234 -28.020   8.663  1.00  0.00    -0.393 OA
ATOM     28  H4  UNL     1       4.517 -28.508   9.051  1.00  0.00     0.210 HD
ENDBRANCH   3  27
BRANCH   5  29
HETATM   29  N2  UNL     1       5.804 -24.621   5.823  1.00  0.00    -0.354 N 
HETATM   30  C15 UNL     1       6.752 -23.797   6.487  1.00  0.00     0.218 C 
HETATM   31  O5  UNL     1       6.850 -23.885   7.730  1.00  0.00    -0.274 OA
ATOM     32  H2  UNL     1       5.716 -24.561   4.809  1.00  0.00     0.162 HD
BRANCH  30  33
HETATM   33  C16 UNL     1       7.579 -22.879   5.700  1.00  0.00     0.107 C 
BRANCH  33  34
HETATM   34  C17 UNL     1       8.905 -23.419   5.263  1.00  0.00    -0.006 C 
HETATM   35  C18 UNL     1       8.952 -24.910   5.218  1.00  0.00     0.005 C 
HETATM   36  C19 UNL     1      10.241 -25.314   4.501  1.00  0.00     0.000 C 
HETATM   37  C20 UNL     1      11.462 -24.738   5.156  1.00  0.00     0.000 C 
HETATM   38  C21 UNL     1      11.032 -24.031   6.426  1.00  0.00     0.000 C 
HETATM   39  C22 UNL     1      10.073 -22.896   6.046  1.00  0.00     0.005 C 
ENDBRANCH  33  34
ENDBRANCH  30  33
ENDBRANCH   5  29
TORSDOF 15
ENDMDL
