MODEL 1
REMARK VINA RESULT: -7.141706602      0.000      0.000
REMARK  10 active torsions:
REMARK  status: ('A' for Active; 'I' for Inactive)
REMARK    1  A    between atoms: S1_2  and  C1_3 
REMARK    2  A    between atoms: S1_2  and  C15_27 
REMARK    3  A    between atoms: C6_9  and  C7_10 
REMARK    4  A    between atoms: C7_10  and  C8_11 
REMARK    5  A    between atoms: C8_11  and  N1_12 
REMARK    6  A    between atoms: N1_12  and  C9_15 
REMARK    7  A    between atoms: C9_15  and  C10_16 
REMARK    8  A    between atoms: C10_16  and  C11_17 
REMARK    9  A    between atoms: C11_17  and  N2_18 
REMARK   10  A    between atoms: N2_18  and  C12_20 
ROOT
HETATM    1  C7  UNL     1     -14.810 -25.142 -11.344  1.00  0.00     0.067 C 
ENDROOT
BRANCH   1   2
HETATM    2  C6  UNL     1     -15.573 -24.418 -12.365  1.00  0.00    -0.036 A 
HETATM    3  C1  UNL     1     -15.026 -23.206 -12.820  1.00  0.00     0.038 A 
HETATM    4  C2  UNL     1     -15.729 -22.498 -13.789  1.00  0.00     0.023 A 
HETATM    5  C3  UNL     1     -16.942 -22.956 -14.305  1.00  0.00     0.020 A 
HETATM    6  C4  UNL     1     -17.464 -24.141 -13.848  1.00  0.00     0.011 A 
HETATM    7 BR1  UNL     1     -19.111 -24.859 -14.479  1.00  0.00    -0.051 Br
HETATM    8  C5  UNL     1     -16.755 -24.829 -12.894  1.00  0.00     0.027 A 
BRANCH   3   9
HETATM    9  S1  UNL     1     -13.559 -22.608 -12.183  1.00  0.00     0.054 S 
HETATM   10  O1  UNL     1     -13.613 -22.031 -10.644  1.00  0.00    -0.252 OA
BRANCH   9  11
HETATM   11  C15 UNL     1     -12.605 -21.669 -13.273  1.00  0.00     0.084 C 
HETATM   12  C16 UNL     1     -12.164 -20.342 -12.695  1.00  0.00     0.018 C 
HETATM   13  C17 UNL     1     -11.734 -19.418 -13.821  1.00  0.00     0.001 C 
HETATM   14  C18 UNL     1     -10.670 -20.110 -14.657  1.00  0.00     0.000 C 
HETATM   15  C19 UNL     1     -10.254 -21.424 -14.062  1.00  0.00     0.001 C 
HETATM   16  C20 UNL     1     -11.406 -22.395 -13.885  1.00  0.00     0.018 C 
ENDBRANCH   9  11
ENDBRANCH   3   9
ENDBRANCH   1   2
BRANCH   1  17
HETATM   17  C8  UNL     1     -15.480 -25.259 -10.025  1.00  0.00     0.237 C 
BRANCH  17  18
HETATM   18  N1  UNL     1     -15.567 -23.977  -9.373  1.00  0.00    -0.075 N 
ATOM     19  H12 UNL     1     -14.789 -23.830  -8.730  1.00  0.00     0.277 HD
ATOM     20  H11 UNL     1     -15.381 -23.213 -10.023  1.00  0.00     0.277 HD
BRANCH  18  21
HETATM   21  C9  UNL     1     -16.863 -23.805  -8.697  1.00  0.00     0.234 C 
BRANCH  21  22
HETATM   22  C10 UNL     1     -17.846 -23.103  -9.598  1.00  0.00     0.047 C 
BRANCH  22  23
HETATM   23  C11 UNL     1     -17.219 -21.843 -10.175  1.00  0.00     0.123 C 
BRANCH  23  24
HETATM   24  N2  UNL     1     -17.802 -20.632  -9.732  1.00  0.00    -0.370 N 
ATOM     25  H2  UNL     1     -18.627 -20.271 -10.211  1.00  0.00     0.161 HD
BRANCH  24  26
HETATM   26  C12 UNL     1     -17.303 -19.962  -8.717  1.00  0.00     0.145 A 
HETATM   27  N3  UNL     1     -17.849 -18.889  -8.126  1.00  0.00    -0.345 N 
HETATM   28  C13 UNL     1     -17.208 -18.350  -7.129  1.00  0.00     0.121 A 
ATOM     29  H3  UNL     1     -18.738 -18.506  -8.449  1.00  0.00     0.167 HD
HETATM   30  C14 UNL     1     -16.030 -18.892  -6.741  1.00  0.00     0.093 A 
HETATM   31 CL1  UNL     1     -14.946 -18.373  -5.434  1.00  0.00    -0.075 Cl
HETATM   32  S2  UNL     1     -15.860 -20.200  -7.835  1.00  0.00    -0.041 SA
ENDBRANCH  24  26
ENDBRANCH  23  24
ENDBRANCH  22  23
ENDBRANCH  21  22
ENDBRANCH  18  21
ENDBRANCH  17  18
ENDBRANCH   1  17
TORSDOF 10
ENDMDL
MODEL 2
REMARK VINA RESULT: -6.738069946      4.399      6.328
REMARK  10 active torsions:
REMARK  status: ('A' for Active; 'I' for Inactive)
REMARK    1  A    between atoms: S1_2  and  C1_3 
REMARK    2  A    between atoms: S1_2  and  C15_27 
REMARK    3  A    between atoms: C6_9  and  C7_10 
REMARK    4  A    between atoms: C7_10  and  C8_11 
REMARK    5  A    between atoms: C8_11  and  N1_12 
REMARK    6  A    between atoms: N1_12  and  C9_15 
REMARK    7  A    between atoms: C9_15  and  C10_16 
REMARK    8  A    between atoms: C10_16  and  C11_17 
REMARK    9  A    between atoms: C11_17  and  N2_18 
REMARK   10  A    between atoms: N2_18  and  C12_20 
ROOT
HETATM    1  C7  UNL     1     -15.011 -25.170 -11.274  1.00  0.00     0.067 C 
ENDROOT
BRANCH   1   2
HETATM    2  C6  UNL     1     -15.723 -24.446 -12.331  1.00  0.00    -0.036 A 
HETATM    3  C1  UNL     1     -15.120 -23.269 -12.806  1.00  0.00     0.038 A 
HETATM    4  C2  UNL     1     -15.774 -22.562 -13.810  1.00  0.00     0.023 A 
HETATM    5  C3  UNL     1     -16.992 -22.989 -14.341  1.00  0.00     0.020 A 
HETATM    6  C4  UNL     1     -17.569 -24.141 -13.864  1.00  0.00     0.011 A 
HETATM    7 BR1  UNL     1     -19.228 -24.813 -14.514  1.00  0.00    -0.051 Br
HETATM    8  C5  UNL     1     -16.907 -24.828 -12.876  1.00  0.00     0.027 A 
BRANCH   3   9
HETATM    9  S1  UNL     1     -13.645 -22.709 -12.152  1.00  0.00     0.054 S 
HETATM   10  O1  UNL     1     -13.692 -22.181 -10.595  1.00  0.00    -0.252 OA
BRANCH   9  11
HETATM   11  C15 UNL     1     -12.682 -21.745 -13.212  1.00  0.00     0.084 C 
HETATM   12  C16 UNL     1     -12.248 -20.431 -12.601  1.00  0.00     0.018 C 
HETATM   13  C17 UNL     1     -11.808 -19.483 -13.703  1.00  0.00     0.001 C 
HETATM   14  C18 UNL     1     -10.734 -20.156 -14.542  1.00  0.00     0.000 C 
HETATM   15  C19 UNL     1     -10.323 -21.482 -13.971  1.00  0.00     0.001 C 
HETATM   16  C20 UNL     1     -11.476 -22.457 -13.827  1.00  0.00     0.018 C 
ENDBRANCH   9  11
ENDBRANCH   3   9
ENDBRANCH   1   2
BRANCH   1  17
HETATM   17  C8  UNL     1     -15.706 -25.212  -9.964  1.00  0.00     0.237 C 
BRANCH  17  18
HETATM   18  N1  UNL     1     -15.091 -26.172  -9.082  1.00  0.00    -0.075 N 
ATOM     19  H12 UNL     1     -14.074 -26.097  -9.099  1.00  0.00     0.277 HD
ATOM     20  H11 UNL     1     -15.251 -25.937  -8.103  1.00  0.00     0.277 HD
BRANCH  18  21
HETATM   21  C9  UNL     1     -15.534 -27.541  -9.387  1.00  0.00     0.234 C 
BRANCH  21  22
HETATM   22  C10 UNL     1     -14.355 -28.431  -9.683  1.00  0.00     0.047 C 
BRANCH  22  23
HETATM   23  C11 UNL     1     -14.470 -28.999 -11.090  1.00  0.00     0.123 C 
BRANCH  23  24
HETATM   24  N2  UNL     1     -15.683 -28.703 -11.755  1.00  0.00    -0.370 N 
ATOM     25  H2  UNL     1     -16.531 -28.558 -11.205  1.00  0.00     0.161 HD
BRANCH  24  26
HETATM   26  C12 UNL     1     -15.742 -28.612 -13.064  1.00  0.00     0.145 A 
HETATM   27  N3  UNL     1     -14.706 -28.671 -13.915  1.00  0.00    -0.345 N 
HETATM   28  C13 UNL     1     -14.955 -28.559 -15.188  1.00  0.00     0.121 A 
ATOM     29  H3  UNL     1     -13.754 -28.800 -13.574  1.00  0.00     0.167 HD
HETATM   30  C14 UNL     1     -16.236 -28.387 -15.590  1.00  0.00     0.093 A 
HETATM   31 CL1  UNL     1     -16.867 -28.199 -17.239  1.00  0.00    -0.075 Cl
HETATM   32  S2  UNL     1     -17.083 -28.393 -14.100  1.00  0.00    -0.041 SA
ENDBRANCH  24  26
ENDBRANCH  23  24
ENDBRANCH  22  23
ENDBRANCH  21  22
ENDBRANCH  18  21
ENDBRANCH  17  18
ENDBRANCH   1  17
TORSDOF 10
ENDMDL
MODEL 3
REMARK VINA RESULT: -6.628161096      4.489      6.911
REMARK  10 active torsions:
REMARK  status: ('A' for Active; 'I' for Inactive)
REMARK    1  A    between atoms: S1_2  and  C1_3 
REMARK    2  A    between atoms: S1_2  and  C15_27 
REMARK    3  A    between atoms: C6_9  and  C7_10 
REMARK    4  A    between atoms: C7_10  and  C8_11 
REMARK    5  A    between atoms: C8_11  and  N1_12 
REMARK    6  A    between atoms: N1_12  and  C9_15 
REMARK    7  A    between atoms: C9_15  and  C10_16 
REMARK    8  A    between atoms: C10_16  and  C11_17 
REMARK    9  A    between atoms: C11_17  and  N2_18 
REMARK   10  A    between atoms: N2_18  and  C12_20 
ROOT
HETATM    1  C7  UNL     1     -14.865 -25.113 -11.270  1.00  0.00     0.067 C 
ENDROOT
BRANCH   1   2
HETATM    2  C6  UNL     1     -15.603 -24.396 -12.313  1.00  0.00    -0.036 A 
HETATM    3  C1  UNL     1     -15.012 -23.222 -12.809  1.00  0.00     0.038 A 
HETATM    4  C2  UNL     1     -15.691 -22.520 -13.801  1.00  0.00     0.023 A 
HETATM    5  C3  UNL     1     -16.922 -22.950 -14.299  1.00  0.00     0.020 A 
HETATM    6  C4  UNL     1     -17.486 -24.099 -13.802  1.00  0.00     0.011 A 
HETATM    7 BR1  UNL     1     -19.161 -24.775 -14.407  1.00  0.00    -0.051 Br
HETATM    8  C5  UNL     1     -16.801 -24.780 -12.826  1.00  0.00     0.027 A 
BRANCH   3   9
HETATM    9  S1  UNL     1     -13.522 -22.658 -12.195  1.00  0.00     0.054 S 
HETATM   10  O1  UNL     1     -13.524 -22.143 -10.633  1.00  0.00    -0.252 OA
BRANCH   9  11
HETATM   11  C15 UNL     1     -12.595 -21.681 -13.275  1.00  0.00     0.084 C 
HETATM   12  C16 UNL     1     -12.172 -20.358 -12.675  1.00  0.00     0.018 C 
HETATM   13  C17 UNL     1     -11.769 -19.405 -13.787  1.00  0.00     0.001 C 
HETATM   14  C18 UNL     1     -10.702 -20.062 -14.647  1.00  0.00     0.000 C 
HETATM   15  C19 UNL     1     -10.257 -21.380 -14.083  1.00  0.00     0.001 C 
HETATM   16  C20 UNL     1     -11.391 -22.374 -13.914  1.00  0.00     0.018 C 
ENDBRANCH   9  11
ENDBRANCH   3   9
ENDBRANCH   1   2
BRANCH   1  17
HETATM   17  C8  UNL     1     -15.480 -25.066  -9.920  1.00  0.00     0.237 C 
BRANCH  17  18
HETATM   18  N1  UNL     1     -15.143 -26.241  -9.156  1.00  0.00    -0.075 N 
ATOM     19  H12 UNL     1     -14.295 -26.100  -8.607  1.00  0.00     0.277 HD
ATOM     20  H11 UNL     1     -15.802 -26.393  -8.392  1.00  0.00     0.277 HD
BRANCH  18  21
HETATM   21  C9  UNL     1     -15.035 -27.428 -10.018  1.00  0.00     0.234 C 
BRANCH  21  22
HETATM   22  C10 UNL     1     -14.411 -28.577  -9.269  1.00  0.00     0.047 C 
BRANCH  22  23
HETATM   23  C11 UNL     1     -14.338 -29.806 -10.163  1.00  0.00     0.123 C 
BRANCH  23  24
HETATM   24  N2  UNL     1     -13.389 -29.725 -11.209  1.00  0.00    -0.370 N 
ATOM     25  H2  UNL     1     -12.414 -29.528 -10.985  1.00  0.00     0.161 HD
BRANCH  24  26
HETATM   26  C12 UNL     1     -13.737 -29.900 -12.465  1.00  0.00     0.145 A 
HETATM   27  N3  UNL     1     -12.934 -30.283 -13.468  1.00  0.00    -0.345 N 
HETATM   28  C13 UNL     1     -13.455 -30.402 -14.656  1.00  0.00     0.121 A 
ATOM     29  H3  UNL     1     -11.945 -30.475 -13.306  1.00  0.00     0.167 HD
HETATM   30  C14 UNL     1     -14.771 -30.133 -14.820  1.00  0.00     0.093 A 
HETATM   31 CL1  UNL     1     -15.741 -30.202 -16.306  1.00  0.00    -0.075 Cl
HETATM   32  S2  UNL     1     -15.252 -29.708 -13.231  1.00  0.00    -0.041 SA
ENDBRANCH  24  26
ENDBRANCH  23  24
ENDBRANCH  22  23
ENDBRANCH  21  22
ENDBRANCH  18  21
ENDBRANCH  17  18
ENDBRANCH   1  17
TORSDOF 10
ENDMDL
MODEL 4
REMARK VINA RESULT: -6.583339534      2.511      3.172
REMARK  10 active torsions:
REMARK  status: ('A' for Active; 'I' for Inactive)
REMARK    1  A    between atoms: S1_2  and  C1_3 
REMARK    2  A    between atoms: S1_2  and  C15_27 
REMARK    3  A    between atoms: C6_9  and  C7_10 
REMARK    4  A    between atoms: C7_10  and  C8_11 
REMARK    5  A    between atoms: C8_11  and  N1_12 
REMARK    6  A    between atoms: N1_12  and  C9_15 
REMARK    7  A    between atoms: C9_15  and  C10_16 
REMARK    8  A    between atoms: C10_16  and  C11_17 
REMARK    9  A    between atoms: C11_17  and  N2_18 
REMARK   10  A    between atoms: N2_18  and  C12_20 
ROOT
HETATM    1  C7  UNL     1     -15.071 -25.445 -11.676  1.00  0.00     0.067 C 
ENDROOT
BRANCH   1   2
HETATM    2  C6  UNL     1     -15.811 -24.578 -12.598  1.00  0.00    -0.036 A 
HETATM    3  C1  UNL     1     -15.215 -23.347 -12.921  1.00  0.00     0.038 A 
HETATM    4  C2  UNL     1     -15.895 -22.505 -13.794  1.00  0.00     0.023 A 
HETATM    5  C3  UNL     1     -17.133 -22.850 -14.341  1.00  0.00     0.020 A 
HETATM    6  C4  UNL     1     -17.701 -24.056 -14.013  1.00  0.00     0.011 A 
HETATM    7 BR1  UNL     1     -19.384 -24.626 -14.698  1.00  0.00    -0.051 Br
HETATM    8  C5  UNL     1     -17.014 -24.877 -13.153  1.00  0.00     0.027 A 
BRANCH   3   9
HETATM    9  S1  UNL     1     -13.717 -22.888 -12.242  1.00  0.00     0.054 S 
HETATM   10  O1  UNL     1     -13.725 -22.521 -10.639  1.00  0.00    -0.252 OA
BRANCH   9  11
HETATM   11  C15 UNL     1     -12.749 -21.842 -13.217  1.00  0.00     0.084 C 
HETATM   12  C16 UNL     1     -12.311 -20.586 -12.497  1.00  0.00     0.018 C 
HETATM   13  C17 UNL     1     -11.867 -19.550 -13.515  1.00  0.00     0.001 C 
HETATM   14  C18 UNL     1     -10.796 -20.153 -14.409  1.00  0.00     0.000 C 
HETATM   15  C19 UNL     1     -10.390 -21.525 -13.952  1.00  0.00     0.001 C 
HETATM   16  C20 UNL     1     -11.547 -22.504 -13.891  1.00  0.00     0.018 C 
ENDBRANCH   9  11
ENDBRANCH   3   9
ENDBRANCH   1   2
BRANCH   1  17
HETATM   17  C8  UNL     1     -15.453 -26.878 -11.717  1.00  0.00     0.237 C 
BRANCH  17  18
HETATM   18  N1  UNL     1     -16.073 -27.284 -10.480  1.00  0.00    -0.075 N 
ATOM     19  H12 UNL     1     -16.979 -26.834 -10.351  1.00  0.00     0.277 HD
ATOM     20  H11 UNL     1     -16.382 -28.255 -10.518  1.00  0.00     0.277 HD
BRANCH  18  21
HETATM   21  C9  UNL     1     -15.185 -27.045  -9.332  1.00  0.00     0.234 C 
BRANCH  21  22
HETATM   22  C10 UNL     1     -15.943 -27.166  -8.036  1.00  0.00     0.047 C 
BRANCH  22  23
HETATM   23  C11 UNL     1     -16.894 -25.989  -7.875  1.00  0.00     0.123 C 
BRANCH  23  24
HETATM   24  N2  UNL     1     -16.320 -24.721  -8.127  1.00  0.00    -0.370 N 
ATOM     25  H2  UNL     1     -15.446 -24.468  -7.665  1.00  0.00     0.161 HD
BRANCH  24  26
HETATM   26  C12 UNL     1     -16.888 -23.861  -8.943  1.00  0.00     0.145 A 
HETATM   27  N3  UNL     1     -16.420 -22.649  -9.275  1.00  0.00    -0.345 N 
HETATM   28  C13 UNL     1     -17.123 -21.928 -10.101  1.00  0.00     0.121 A 
ATOM     29  H3  UNL     1     -15.540 -22.302  -8.892  1.00  0.00     0.167 HD
HETATM   30  C14 UNL     1     -18.285 -22.431 -10.579  1.00  0.00     0.093 A 
HETATM   31 CL1  UNL     1     -19.441 -21.683 -11.701  1.00  0.00    -0.075 Cl
HETATM   32  S2  UNL     1     -18.349 -23.968  -9.822  1.00  0.00    -0.041 SA
ENDBRANCH  24  26
ENDBRANCH  23  24
ENDBRANCH  22  23
ENDBRANCH  21  22
ENDBRANCH  18  21
ENDBRANCH  17  18
ENDBRANCH   1  17
TORSDOF 10
ENDMDL
MODEL 5
REMARK VINA RESULT: -6.578916022      3.734      6.940
REMARK  10 active torsions:
REMARK  status: ('A' for Active; 'I' for Inactive)
REMARK    1  A    between atoms: S1_2  and  C1_3 
REMARK    2  A    between atoms: S1_2  and  C15_27 
REMARK    3  A    between atoms: C6_9  and  C7_10 
REMARK    4  A    between atoms: C7_10  and  C8_11 
REMARK    5  A    between atoms: C8_11  and  N1_12 
REMARK    6  A    between atoms: N1_12  and  C9_15 
REMARK    7  A    between atoms: C9_15  and  C10_16 
REMARK    8  A    between atoms: C10_16  and  C11_17 
REMARK    9  A    between atoms: C11_17  and  N2_18 
REMARK   10  A    between atoms: N2_18  and  C12_20 
ROOT
HETATM    1  C7  UNL     1     -16.414 -23.532  -9.651  1.00  0.00     0.067 C 
ENDROOT
BRANCH   1   2
HETATM    2  C6  UNL     1     -17.324 -22.940 -10.635  1.00  0.00    -0.036 A 
HETATM    3  C1  UNL     1     -18.290 -22.046 -10.142  1.00  0.00     0.038 A 
HETATM    4  C2  UNL     1     -19.167 -21.468 -11.054  1.00  0.00     0.023 A 
HETATM    5  C3  UNL     1     -19.110 -21.756 -12.419  1.00  0.00     0.020 A 
HETATM    6  C4  UNL     1     -18.162 -22.634 -12.883  1.00  0.00     0.011 A 
HETATM    7 BR1  UNL     1     -17.995 -23.100 -14.722  1.00  0.00    -0.051 Br
HETATM    8  C5  UNL     1     -17.301 -23.191 -11.969  1.00  0.00     0.027 A 
BRANCH   3   9
HETATM    9  S1  UNL     1     -18.400 -21.700  -8.474  1.00  0.00     0.054 S 
HETATM   10  O1  UNL     1     -19.827 -22.070  -7.745  1.00  0.00    -0.252 OA
BRANCH   9  11
HETATM   11  C15 UNL     1     -17.706 -20.199  -7.979  1.00  0.00     0.084 C 
HETATM   12  C16 UNL     1     -18.192 -19.730  -6.625  1.00  0.00     0.018 C 
HETATM   13  C17 UNL     1     -17.899 -18.248  -6.469  1.00  0.00     0.001 C 
HETATM   14  C18 UNL     1     -16.418 -18.002  -6.712  1.00  0.00     0.000 C 
HETATM   15  C19 UNL     1     -15.658 -19.284  -6.893  1.00  0.00     0.001 C 
HETATM   16  C20 UNL     1     -16.179 -20.134  -8.036  1.00  0.00     0.018 C 
ENDBRANCH   9  11
ENDBRANCH   3   9
ENDBRANCH   1   2
BRANCH   1  17
HETATM   17  C8  UNL     1     -15.008 -23.678 -10.104  1.00  0.00     0.237 C 
BRANCH  17  18
HETATM   18  N1  UNL     1     -14.224 -22.524  -9.740  1.00  0.00    -0.075 N 
ATOM     19  H12 UNL     1     -14.785 -21.835  -9.239  1.00  0.00     0.277 HD
ATOM     20  H11 UNL     1     -13.551 -22.745  -9.006  1.00  0.00     0.277 HD
BRANCH  18  21
HETATM   21  C9  UNL     1     -13.565 -21.931 -10.914  1.00  0.00     0.234 C 
BRANCH  21  22
HETATM   22  C10 UNL     1     -13.534 -22.909 -12.059  1.00  0.00     0.047 C 
BRANCH  22  23
HETATM   23  C11 UNL     1     -12.575 -22.423 -13.136  1.00  0.00     0.123 C 
BRANCH  23  24
HETATM   24  N2  UNL     1     -12.597 -21.028 -13.367  1.00  0.00    -0.370 N 
ATOM     25  H2  UNL     1     -13.419 -20.489 -13.093  1.00  0.00     0.161 HD
BRANCH  24  26
HETATM   26  C12 UNL     1     -11.581 -20.409 -13.926  1.00  0.00     0.145 A 
HETATM   27  N3  UNL     1     -11.446 -19.085 -14.089  1.00  0.00    -0.345 N 
HETATM   28  C13 UNL     1     -10.365 -18.648 -14.670  1.00  0.00     0.121 A 
ATOM     29  H3  UNL     1     -12.168 -18.440 -13.767  1.00  0.00     0.167 HD
HETATM   30  C14 UNL     1      -9.439 -19.545 -15.082  1.00  0.00     0.093 A 
HETATM   31 CL1  UNL     1      -7.891 -19.246 -15.901  1.00  0.00    -0.075 Cl
HETATM   32  S2  UNL     1     -10.146 -21.033 -14.613  1.00  0.00    -0.041 SA
ENDBRANCH  24  26
ENDBRANCH  23  24
ENDBRANCH  22  23
ENDBRANCH  21  22
ENDBRANCH  18  21
ENDBRANCH  17  18
ENDBRANCH   1  17
TORSDOF 10
ENDMDL
