MODEL 1
REMARK VINA RESULT: -5.919226167      0.000      0.000
REMARK  2 active torsions:
REMARK  status: ('A' for Active; 'I' for Inactive)
REMARK    1  A    between atoms: C1_4  and  N2_6 
REMARK    2  A    between atoms: N3_8  and  N4_10 
ROOT
HETATM    1  N2  UNL     1      28.897  21.637  15.394  1.00  0.00    -0.262 N 
ATOM      2  H2  UNL     1      29.086  22.475  14.844  1.00  0.00     0.191 HD
HETATM    3  N3  UNL     1      28.885  20.511  14.806  1.00  0.00    -0.243 N 
ATOM      4  H3  UNL     1      28.695  19.681  15.367  1.00  0.00     0.208 HD
ENDROOT
BRANCH   3   5
HETATM    5  N4  UNL     1      29.112  20.342  13.461  1.00  0.00    -0.309 N 
HETATM    6  C2  UNL     1      29.009  21.378  12.465  1.00  0.00     0.170 C 
HETATM    7  C3  UNL     1      28.309  20.931  11.215  1.00  0.00     0.189 C 
HETATM    8  O1  UNL     1      28.501  19.639  10.860  1.00  0.00    -0.388 OA
HETATM    9  C4  UNL     1      28.518  18.710  11.848  1.00  0.00     0.189 C 
HETATM   10  C5  UNL     1      29.490  19.013  12.974  1.00  0.00     0.170 C 
ENDBRANCH   3   5
BRANCH   1  11
HETATM   11  C1  UNL     1      28.659  21.776  16.785  1.00  0.00     0.188 C 
HETATM   12  N1  UNL     1      29.365  21.135  17.620  1.00  0.00    -0.375 N 
ATOM     13  H12 UNL     1      29.193  21.235  18.620  1.00  0.00     0.158 HD
ATOM     14  H11 UNL     1      30.097  20.527  17.253  1.00  0.00     0.158 HD
HETATM   15 CL1  UNL     1      27.396  22.826  17.418  1.00  0.00    -0.044 Cl
ENDBRANCH   1  11
TORSDOF 2
ENDMDL
MODEL 2
REMARK VINA RESULT: -5.403556133     10.331     10.980
REMARK  2 active torsions:
REMARK  status: ('A' for Active; 'I' for Inactive)
REMARK    1  A    between atoms: C1_4  and  N2_6 
REMARK    2  A    between atoms: N3_8  and  N4_10 
ROOT
HETATM    1  N2  UNL     1      22.022  24.819   6.879  1.00  0.00    -0.262 N 
ATOM      2  H2  UNL     1      21.496  24.811   7.752  1.00  0.00     0.191 HD
HETATM    3  N3  UNL     1      22.229  23.718   6.280  1.00  0.00    -0.243 N 
ATOM      4  H3  UNL     1      22.757  23.740   5.407  1.00  0.00     0.208 HD
ENDROOT
BRANCH   3   5
HETATM    5  N4  UNL     1      21.784  22.499   6.734  1.00  0.00    -0.309 N 
HETATM    6  C2  UNL     1      22.473  21.668   7.689  1.00  0.00     0.170 C 
HETATM    7  C3  UNL     1      22.479  20.215   7.314  1.00  0.00     0.189 C 
HETATM    8  O1  UNL     1      21.379  19.767   6.665  1.00  0.00    -0.388 OA
HETATM    9  C4  UNL     1      20.826  20.579   5.730  1.00  0.00     0.189 C 
HETATM   10  C5  UNL     1      20.514  21.979   6.224  1.00  0.00     0.170 C 
ENDBRANCH   3   5
BRANCH   1  11
HETATM   11  C1  UNL     1      22.495  26.060   6.382  1.00  0.00     0.188 C 
HETATM   12  N1  UNL     1      23.376  26.710   7.023  1.00  0.00    -0.375 N 
ATOM     13  H12 UNL     1      23.716  27.602   6.665  1.00  0.00     0.158 HD
ATOM     14  H11 UNL     1      23.720  26.307   7.895  1.00  0.00     0.158 HD
HETATM   15 CL1  UNL     1      21.901  26.754   4.878  1.00  0.00    -0.044 Cl
ENDBRANCH   1  11
TORSDOF 2
ENDMDL
MODEL 3
REMARK VINA RESULT: -5.328064045      2.629      3.290
REMARK  2 active torsions:
REMARK  status: ('A' for Active; 'I' for Inactive)
REMARK    1  A    between atoms: C1_4  and  N2_6 
REMARK    2  A    between atoms: N3_8  and  N4_10 
ROOT
HETATM    1  N2  UNL     1      28.842  20.334  12.629  1.00  0.00    -0.262 N 
ATOM      2  H2  UNL     1      29.064  21.178  12.101  1.00  0.00     0.191 HD
HETATM    3  N3  UNL     1      28.462  19.300  11.995  1.00  0.00    -0.243 N 
ATOM      4  H3  UNL     1      28.243  18.463  12.534  1.00  0.00     0.208 HD
ENDROOT
BRANCH   3   5
HETATM    5  N4  UNL     1      28.329  19.240  10.629  1.00  0.00    -0.309 N 
HETATM    6  C2  UNL     1      28.103  20.373   9.766  1.00  0.00     0.170 C 
HETATM    7  C3  UNL     1      27.069  20.116   8.709  1.00  0.00     0.189 C 
HETATM    8  O1  UNL     1      27.016  18.851   8.228  1.00  0.00    -0.388 OA
HETATM    9  C4  UNL     1      27.170  17.835   9.113  1.00  0.00     0.189 C 
HETATM   10  C5  UNL     1      28.418  17.935   9.970  1.00  0.00     0.170 C 
ENDBRANCH   3   5
BRANCH   1  11
HETATM   11  C1  UNL     1      28.970  20.362  14.040  1.00  0.00     0.188 C 
HETATM   12  N1  UNL     1      29.223  21.452  14.637  1.00  0.00    -0.375 N 
ATOM     13  H12 UNL     1      29.315  21.472  15.652  1.00  0.00     0.158 HD
ATOM     14  H11 UNL     1      29.330  22.290  14.066  1.00  0.00     0.158 HD
HETATM   15 CL1  UNL     1      28.785  18.915  15.026  1.00  0.00    -0.044 Cl
ENDBRANCH   1  11
TORSDOF 2
ENDMDL
MODEL 4
REMARK VINA RESULT: -5.223418793      8.715      9.692
REMARK  2 active torsions:
REMARK  status: ('A' for Active; 'I' for Inactive)
REMARK    1  A    between atoms: C1_4  and  N2_6 
REMARK    2  A    between atoms: N3_8  and  N4_10 
ROOT
HETATM    1  N2  UNL     1      22.625  24.094   7.075  1.00  0.00    -0.262 N 
ATOM      2  H2  UNL     1      21.736  23.659   7.322  1.00  0.00     0.191 HD
HETATM    3  N3  UNL     1      23.693  23.418   7.209  1.00  0.00    -0.243 N 
ATOM      4  H3  UNL     1      24.575  23.864   6.958  1.00  0.00     0.208 HD
ENDROOT
BRANCH   3   5
HETATM    5  N4  UNL     1      23.732  22.124   7.671  1.00  0.00    -0.309 N 
HETATM    6  C2  UNL     1      24.929  21.337   7.835  1.00  0.00     0.170 C 
HETATM    7  C3  UNL     1      24.781  19.925   7.350  1.00  0.00     0.189 C 
HETATM    8  O1  UNL     1      23.555  19.371   7.506  1.00  0.00    -0.388 OA
HETATM    9  C4  UNL     1      22.475  20.156   7.267  1.00  0.00     0.189 C 
HETATM   10  C5  UNL     1      22.474  21.467   8.031  1.00  0.00     0.170 C 
ENDBRANCH   3   5
BRANCH   1  11
HETATM   11  C1  UNL     1      22.619  25.428   6.595  1.00  0.00     0.188 C 
HETATM   12  N1  UNL     1      23.250  26.333   7.221  1.00  0.00    -0.375 N 
ATOM     13  H12 UNL     1      23.247  27.292   6.876  1.00  0.00     0.158 HD
ATOM     14  H11 UNL     1      23.751  26.062   8.067  1.00  0.00     0.158 HD
HETATM   15 CL1  UNL     1      21.756  25.894   5.134  1.00  0.00    -0.044 Cl
ENDBRANCH   1  11
TORSDOF 2
ENDMDL
MODEL 5
REMARK VINA RESULT: -4.963480498      3.510      4.398
REMARK  2 active torsions:
REMARK  status: ('A' for Active; 'I' for Inactive)
REMARK    1  A    between atoms: C1_4  and  N2_6 
REMARK    2  A    between atoms: N3_8  and  N4_10 
ROOT
HETATM    1  N2  UNL     1      28.493  20.501  11.398  1.00  0.00    -0.262 N 
ATOM      2  H2  UNL     1      28.533  21.356  10.843  1.00  0.00     0.191 HD
HETATM    3  N3  UNL     1      28.083  19.433  10.845  1.00  0.00    -0.243 N 
ATOM      4  H3  UNL     1      28.047  18.585  11.411  1.00  0.00     0.208 HD
ENDROOT
BRANCH   3   5
HETATM    5  N4  UNL     1      27.686  19.349   9.532  1.00  0.00    -0.309 N 
HETATM    6  C2  UNL     1      27.412  20.474   8.674  1.00  0.00     0.170 C 
HETATM    7  C3  UNL     1      26.175  20.298   7.842  1.00  0.00     0.189 C 
HETATM    8  O1  UNL     1      25.907  19.033   7.441  1.00  0.00    -0.388 OA
HETATM    9  C4  UNL     1      26.126  18.031   8.329  1.00  0.00     0.189 C 
HETATM   10  C5  UNL     1      27.519  18.024   8.931  1.00  0.00     0.170 C 
ENDBRANCH   3   5
BRANCH   1  11
HETATM   11  C1  UNL     1      28.896  20.553  12.756  1.00  0.00     0.188 C 
HETATM   12  N1  UNL     1      29.174  21.666  13.297  1.00  0.00    -0.375 N 
ATOM     13  H12 UNL     1      29.464  21.703  14.274  1.00  0.00     0.158 HD
ATOM     14  H11 UNL     1      29.097  22.504  12.721  1.00  0.00     0.158 HD
HETATM   15 CL1  UNL     1      29.028  19.106  13.749  1.00  0.00    -0.044 Cl
ENDBRANCH   1  11
TORSDOF 2
ENDMDL
