MODEL 1
REMARK VINA RESULT: -5.545277874      0.000      0.000
REMARK  2 active torsions:
REMARK  status: ('A' for Active; 'I' for Inactive)
REMARK    1  A    between atoms: C1_4  and  N2_5 
REMARK    2  A    between atoms: N3_7  and  N4_9 
ROOT
HETATM    1  N4  UNL     1      26.455  16.581   8.625  1.00  0.00    -0.303 N 
HETATM    2  C2  UNL     1      26.697  15.185   8.966  1.00  0.00     0.151 C 
HETATM    3  C3  UNL     1      28.153  15.147   9.314  1.00  0.00     0.031 C 
HETATM    4  C4  UNL     1      28.339  15.643  10.726  1.00  0.00     0.177 C 
HETATM    5  O1  UNL     1      27.708  16.821  10.994  1.00  0.00    -0.354 OA
HETATM    6  C5  UNL     1      27.891  17.819  10.071  1.00  0.00     0.331 C 
HETATM    7  F1  UNL     1      29.067  18.515  10.230  1.00  0.00    -0.217 F 
HETATM    8  C6  UNL     1      27.700  17.328   8.655  1.00  0.00     0.164 C 
HETATM    9  C7  UNL     1      28.715  16.223   8.375  1.00  0.00     0.040 C 
ENDROOT
BRANCH   1  10
HETATM   10  N3  UNL     1      25.228  17.178   8.305  1.00  0.00    -0.244 N 
HETATM   11  N2  UNL     1      25.176  18.390   7.967  1.00  0.00    -0.282 N 
ATOM     12  H2  UNL     1      26.016  18.964   7.916  1.00  0.00     0.189 HD
ATOM     13  H3  UNL     1      24.371  16.626   8.347  1.00  0.00     0.208 HD
BRANCH  11  14
HETATM   14  C1  UNL     1      23.894  18.924   7.657  1.00  0.00     0.192 C 
HETATM   15  N1  UNL     1      22.868  18.482   8.286  1.00  0.00    -0.394 N 
ATOM     16  H12 UNL     1      22.986  17.757   8.995  1.00  0.00     0.156 HD
ATOM     17  H11 UNL     1      21.949  18.864   8.064  1.00  0.00     0.156 HD
ENDBRANCH  11  14
ENDBRANCH   1  10
TORSDOF 2
ENDMDL
MODEL 2
REMARK VINA RESULT: -5.391849272      2.080      2.566
REMARK  2 active torsions:
REMARK  status: ('A' for Active; 'I' for Inactive)
REMARK    1  A    between atoms: C1_4  and  N2_5 
REMARK    2  A    between atoms: N3_7  and  N4_9 
ROOT
HETATM    1  N4  UNL     1      26.589  16.714   8.406  1.00  0.00    -0.303 N 
HETATM    2  C2  UNL     1      27.684  16.810   7.448  1.00  0.00     0.151 C 
HETATM    3  C3  UNL     1      28.715  15.865   7.986  1.00  0.00     0.031 C 
HETATM    4  C4  UNL     1      28.346  14.455   7.598  1.00  0.00     0.177 C 
HETATM    5  O1  UNL     1      27.053  14.120   7.867  1.00  0.00    -0.354 OA
HETATM    6  C5  UNL     1      26.603  14.441   9.122  1.00  0.00     0.331 C 
HETATM    7  F1  UNL     1      26.950  13.525  10.090  1.00  0.00    -0.217 F 
HETATM    8  C6  UNL     1      26.964  15.854   9.514  1.00  0.00     0.164 C 
HETATM    9  C7  UNL     1      28.484  15.997   9.497  1.00  0.00     0.040 C 
ENDROOT
BRANCH   1  10
HETATM   10  N3  UNL     1      25.335  17.335   8.328  1.00  0.00    -0.244 N 
HETATM   11  N2  UNL     1      25.210  18.454   7.762  1.00  0.00    -0.282 N 
ATOM     12  H2  UNL     1      26.010  18.933   7.350  1.00  0.00     0.189 HD
ATOM     13  H3  UNL     1      24.517  16.878   8.732  1.00  0.00     0.208 HD
BRANCH  11  14
HETATM   14  C1  UNL     1      23.906  19.021   7.723  1.00  0.00     0.192 C 
HETATM   15  N1  UNL     1      22.937  18.389   8.276  1.00  0.00    -0.394 N 
ATOM     16  H12 UNL     1      23.115  17.494   8.732  1.00  0.00     0.156 HD
ATOM     17  H11 UNL     1      22.002  18.796   8.248  1.00  0.00     0.156 HD
ENDBRANCH  11  14
ENDBRANCH   1  10
TORSDOF 2
ENDMDL
MODEL 3
REMARK VINA RESULT: -5.300522549      3.435      4.701
REMARK  2 active torsions:
REMARK  status: ('A' for Active; 'I' for Inactive)
REMARK    1  A    between atoms: C1_4  and  N2_5 
REMARK    2  A    between atoms: N3_7  and  N4_9 
ROOT
HETATM    1  N4  UNL     1      28.131  16.993  10.766  1.00  0.00    -0.303 N 
HETATM    2  C2  UNL     1      27.790  18.035   9.805  1.00  0.00     0.151 C 
HETATM    3  C3  UNL     1      27.616  17.292   8.516  1.00  0.00     0.031 C 
HETATM    4  C4  UNL     1      26.248  16.659   8.489  1.00  0.00     0.177 C 
HETATM    5  O1  UNL     1      25.935  15.954   9.613  1.00  0.00    -0.354 OA
HETATM    6  C5  UNL     1      26.895  15.082  10.057  1.00  0.00     0.331 C 
HETATM    7  F1  UNL     1      26.893  13.870   9.403  1.00  0.00    -0.217 F 
HETATM    8  C6  UNL     1      28.267  15.714  10.092  1.00  0.00     0.164 C 
HETATM    9  C7  UNL     1      28.640  16.160   8.681  1.00  0.00     0.040 C 
ENDROOT
BRANCH   1  10
HETATM   10  N3  UNL     1      28.317  17.137  12.147  1.00  0.00    -0.244 N 
HETATM   11  N2  UNL     1      28.796  18.202  12.620  1.00  0.00    -0.282 N 
ATOM     12  H2  UNL     1      29.059  18.980  12.016  1.00  0.00     0.189 HD
ATOM     13  H3  UNL     1      28.062  16.375  12.775  1.00  0.00     0.208 HD
BRANCH  11  14
HETATM   14  C1  UNL     1      28.955  18.274  14.032  1.00  0.00     0.192 C 
HETATM   15  N1  UNL     1      29.304  19.389  14.561  1.00  0.00    -0.394 N 
ATOM     16  H12 UNL     1      29.461  20.202  13.965  1.00  0.00     0.156 HD
ATOM     17  H11 UNL     1      29.418  19.441  15.573  1.00  0.00     0.156 HD
ENDBRANCH  11  14
ENDBRANCH   1  10
TORSDOF 2
ENDMDL
MODEL 4
REMARK VINA RESULT: -5.244033949      2.985      3.773
REMARK  2 active torsions:
REMARK  status: ('A' for Active; 'I' for Inactive)
REMARK    1  A    between atoms: C1_4  and  N2_5 
REMARK    2  A    between atoms: N3_7  and  N4_9 
ROOT
HETATM    1  N4  UNL     1      27.732  18.380   9.421  1.00  0.00    -0.303 N 
HETATM    2  C2  UNL     1      26.862  17.923   8.345  1.00  0.00     0.151 C 
HETATM    3  C3  UNL     1      27.222  16.479   8.181  1.00  0.00     0.031 C 
HETATM    4  C4  UNL     1      26.523  15.669   9.244  1.00  0.00     0.177 C 
HETATM    5  O1  UNL     1      26.663  16.163  10.507  1.00  0.00    -0.354 OA
HETATM    6  C5  UNL     1      27.939  16.503  10.876  1.00  0.00     0.331 C 
HETATM    7  F1  UNL     1      28.698  15.437  11.304  1.00  0.00    -0.217 F 
HETATM    8  C6  UNL     1      28.641  17.320   9.816  1.00  0.00     0.164 C 
HETATM    9  C7  UNL     1      28.716  16.499   8.531  1.00  0.00     0.040 C 
ENDROOT
BRANCH   1  10
HETATM   10  N3  UNL     1      27.742  19.643  10.028  1.00  0.00    -0.244 N 
HETATM   11  N2  UNL     1      28.524  19.887  10.985  1.00  0.00    -0.282 N 
ATOM     12  H2  UNL     1      29.165  19.178  11.341  1.00  0.00     0.189 HD
ATOM     13  H3  UNL     1      27.110  20.371   9.692  1.00  0.00     0.208 HD
BRANCH  11  14
HETATM   14  C1  UNL     1      28.475  21.192  11.550  1.00  0.00     0.192 C 
HETATM   15  N1  UNL     1      29.024  21.395  12.691  1.00  0.00    -0.394 N 
ATOM     16  H12 UNL     1      29.484  20.623  13.173  1.00  0.00     0.156 HD
ATOM     17  H11 UNL     1      28.989  22.331  13.096  1.00  0.00     0.156 HD
ENDBRANCH  11  14
ENDBRANCH   1  10
TORSDOF 2
ENDMDL
MODEL 5
REMARK VINA RESULT: -5.197674844      3.557      5.289
REMARK  2 active torsions:
REMARK  status: ('A' for Active; 'I' for Inactive)
REMARK    1  A    between atoms: C1_4  and  N2_5 
REMARK    2  A    between atoms: N3_7  and  N4_9 
ROOT
HETATM    1  N4  UNL     1      28.240  14.753  10.143  1.00  0.00    -0.303 N 
HETATM    2  C2  UNL     1      27.998  16.156  10.457  1.00  0.00     0.151 C 
HETATM    3  C3  UNL     1      28.002  16.828   9.118  1.00  0.00     0.031 C 
HETATM    4  C4  UNL     1      26.661  16.626   8.458  1.00  0.00     0.177 C 
HETATM    5  O1  UNL     1      26.225  15.335   8.458  1.00  0.00    -0.354 OA
HETATM    6  C5  UNL     1      27.141  14.396   8.058  1.00  0.00     0.331 C 
HETATM    7  F1  UNL     1      27.246  14.268   6.691  1.00  0.00    -0.217 F 
HETATM    8  C6  UNL     1      28.485  14.591   8.721  1.00  0.00     0.164 C 
HETATM    9  C7  UNL     1      29.020  15.972   8.354  1.00  0.00     0.040 C 
ENDROOT
BRANCH   1  10
HETATM   10  N3  UNL     1      28.249  13.672  11.035  1.00  0.00    -0.244 N 
HETATM   11  N2  UNL     1      28.751  12.568  10.696  1.00  0.00    -0.282 N 
ATOM     12  H2  UNL     1      29.161  12.432   9.773  1.00  0.00     0.189 HD
ATOM     13  H3  UNL     1      27.846  13.780  11.967  1.00  0.00     0.208 HD
BRANCH  11  14
HETATM   14  C1  UNL     1      28.724  11.518  11.657  1.00  0.00     0.192 C 
HETATM   15  N1  UNL     1      27.893  11.590  12.631  1.00  0.00    -0.394 N 
ATOM     16  H12 UNL     1      27.269  12.394  12.702  1.00  0.00     0.156 HD
ATOM     17  H11 UNL     1      27.874  10.837  13.319  1.00  0.00     0.156 HD
ENDBRANCH  11  14
ENDBRANCH   1  10
TORSDOF 2
ENDMDL
