MODEL 1
REMARK VINA RESULT: -8.291682264      0.000      0.000
REMARK  9 active torsions:
REMARK  status: ('A' for Active; 'I' for Inactive)
REMARK    1  A    between atoms: N1_1  and  C1_4 
REMARK    2  A    between atoms: C2_7  and  N3_8 
REMARK    3  A    between atoms: N3_8  and  O1_10 
REMARK    4  A    between atoms: O1_10  and  C3_11 
REMARK    5  A    between atoms: C3_11  and  C4_12 
REMARK    6  A    between atoms: C3_11  and  C5_15 
REMARK    7  A    between atoms: C4_12  and  O2_13 
REMARK    8  A    between atoms: C5_15  and  O3_16 
REMARK    9  A    between atoms: N7_27  and  C8_28 
ROOT
HETATM    1  C1  UNL     1     -10.622 -17.447  11.138  1.00  0.00     0.146 A 
HETATM    2  N2  UNL     1     -10.399 -16.669  10.079  1.00  0.00    -0.173 N 
ATOM      3  H2  UNL     1     -10.525 -15.662  10.183  1.00  0.00     0.186 HD
HETATM    4  C2  UNL     1     -10.019 -17.143   8.887  1.00  0.00     0.705 A 
HETATM    5  N4  UNL     1      -9.860 -18.469   8.771  1.00  0.00    -0.172 N 
ATOM      6  H4  UNL     1      -9.570 -18.854   7.872  1.00  0.00     0.186 HD
HETATM    7  C6  UNL     1     -10.068 -19.309   9.800  1.00  0.00     0.168 A 
HETATM    8  N5  UNL     1      -9.990 -20.635   9.972  1.00  0.00    -0.174 N 
ATOM      9  H5  UNL     1      -9.723 -21.302   9.248  1.00  0.00     0.186 HD
HETATM   10  C7  UNL     1     -10.309 -20.956  11.219  1.00  0.00     0.682 A 
HETATM   11  N6  UNL     1     -10.333 -22.144  11.707  1.00  0.00    -0.234 N 
ATOM     12  H61 UNL     1     -10.579 -22.391  12.666  1.00  0.00     0.174 HD
ATOM     13  H62 UNL     1     -10.109 -23.000  11.199  1.00  0.00     0.174 HD
HETATM   14  N7  UNL     1     -10.610 -19.810  11.899  1.00  0.00    -0.147 N 
HETATM   15  C12 UNL     1     -10.459 -18.813  11.025  1.00  0.00     0.143 A 
ENDROOT
BRANCH   4  16
HETATM   16  N3  UNL     1      -9.815 -16.343   7.888  1.00  0.00    -0.096 N 
ATOM     17  H3  UNL     1      -8.922 -15.854   7.822  1.00  0.00     0.213 HD
BRANCH  16  18
HETATM   18  O1  UNL     1     -10.750 -16.131   6.929  1.00  0.00    -0.257 OA
BRANCH  18  19
HETATM   19  C3  UNL     1     -10.712 -15.109   5.979  1.00  0.00     0.199 C 
BRANCH  19  20
HETATM   20  C4  UNL     1      -9.511 -14.219   6.141  1.00  0.00     0.200 C 
BRANCH  20  21
HETATM   21  O2  UNL     1      -8.371 -14.955   5.933  1.00  0.00    -0.398 OA
ATOM     22  H2  UNL     1      -7.761 -14.796   6.644  1.00  0.00     0.209 HD
ENDBRANCH  20  21
ENDBRANCH  19  20
BRANCH  19  23
HETATM   23  C5  UNL     1     -10.676 -15.662   4.565  1.00  0.00     0.200 C 
BRANCH  23  24
HETATM   24  O3  UNL     1     -10.283 -17.019   4.589  1.00  0.00    -0.398 OA
ATOM     25  H3  UNL     1      -9.591 -17.167   3.954  1.00  0.00     0.209 HD
ENDBRANCH  23  24
ENDBRANCH  19  23
ENDBRANCH  18  19
ENDBRANCH  16  18
ENDBRANCH   4  16
BRANCH   1  26
HETATM   26  N1  UNL     1     -10.981 -16.951  12.246  1.00  0.00    -0.383 N 
ATOM     27  H12 UNL     1     -10.352 -17.001  13.047  1.00  0.00     0.157 HD
ATOM     28  H11 UNL     1     -11.891 -16.502  12.350  1.00  0.00     0.157 HD
ENDBRANCH   1  26
BRANCH  14  29
HETATM   29  C8  UNL     1     -10.998 -19.797  13.274  1.00  0.00     0.274 C 
HETATM   30  C9  UNL     1     -12.502 -19.617  13.421  1.00  0.00     0.178 C 
HETATM   31  N8  UNL     1     -12.901 -19.806  14.785  1.00  0.00    -0.348 N 
HETATM   32  C10 UNL     1     -12.197 -20.672  15.686  1.00  0.00     0.317 C 
ATOM     33  H8  UNL     1     -13.719 -19.304  15.129  1.00  0.00     0.163 HD
HETATM   34  O4  UNL     1     -12.614 -20.827  16.858  1.00  0.00    -0.262 OA
HETATM   35  C11 UNL     1     -11.012 -21.325  15.147  1.00  0.00     0.353 C 
HETATM   36  O5  UNL     1     -10.344 -22.107  15.898  1.00  0.00    -0.254 OA
HETATM   37  O6  UNL     1     -10.674 -21.057  13.833  1.00  0.00    -0.285 OA
ENDBRANCH  14  29
TORSDOF 9
ENDMDL
MODEL 2
REMARK VINA RESULT: -8.200336385      4.697      6.032
REMARK  9 active torsions:
REMARK  status: ('A' for Active; 'I' for Inactive)
REMARK    1  A    between atoms: N1_1  and  C1_4 
REMARK    2  A    between atoms: C2_7  and  N3_8 
REMARK    3  A    between atoms: N3_8  and  O1_10 
REMARK    4  A    between atoms: O1_10  and  C3_11 
REMARK    5  A    between atoms: C3_11  and  C4_12 
REMARK    6  A    between atoms: C3_11  and  C5_15 
REMARK    7  A    between atoms: C4_12  and  O2_13 
REMARK    8  A    between atoms: C5_15  and  O3_16 
REMARK    9  A    between atoms: N7_27  and  C8_28 
ROOT
HETATM    1  C1  UNL     1     -14.041 -17.388   9.958  1.00  0.00     0.146 A 
HETATM    2  N2  UNL     1     -15.207 -16.816   9.661  1.00  0.00    -0.173 N 
ATOM      3  H2  UNL     1     -16.025 -17.064  10.217  1.00  0.00     0.186 HD
HETATM    4  C2  UNL     1     -15.358 -15.930   8.667  1.00  0.00     0.705 A 
HETATM    5  N4  UNL     1     -14.271 -15.617   7.948  1.00  0.00    -0.172 N 
ATOM      6  H4  UNL     1     -14.362 -14.945   7.186  1.00  0.00     0.186 HD
HETATM    7  C6  UNL     1     -13.066 -16.159   8.196  1.00  0.00     0.168 A 
HETATM    8  N5  UNL     1     -11.845 -16.039   7.661  1.00  0.00    -0.174 N 
ATOM      9  H5  UNL     1     -11.610 -15.434   6.873  1.00  0.00     0.186 HD
HETATM   10  C7  UNL     1     -10.983 -16.819   8.301  1.00  0.00     0.682 A 
HETATM   11  N6  UNL     1      -9.732 -16.936   8.034  1.00  0.00    -0.234 N 
ATOM     12  H61 UNL     1      -9.070 -17.536   8.527  1.00  0.00     0.174 HD
ATOM     13  H62 UNL     1      -9.234 -16.444   7.293  1.00  0.00     0.174 HD
HETATM   14  N7  UNL     1     -11.651 -17.480   9.294  1.00  0.00    -0.147 N 
HETATM   15  C12 UNL     1     -12.918 -17.069   9.221  1.00  0.00     0.143 A 
ENDROOT
BRANCH   4  16
HETATM   16  N3  UNL     1     -16.515 -15.402   8.419  1.00  0.00    -0.096 N 
ATOM     17  H3  UNL     1     -16.973 -14.854   9.147  1.00  0.00     0.213 HD
BRANCH  16  18
HETATM   18  O1  UNL     1     -17.138 -15.555   7.225  1.00  0.00    -0.257 OA
BRANCH  18  19
HETATM   19  C3  UNL     1     -17.607 -14.514   6.422  1.00  0.00     0.199 C 
BRANCH  19  20
HETATM   20  C4  UNL     1     -18.369 -15.011   5.226  1.00  0.00     0.200 C 
BRANCH  20  21
HETATM   21  O2  UNL     1     -17.482 -15.433   4.267  1.00  0.00    -0.398 OA
ATOM     22  H2  UNL     1     -16.600 -15.396   4.618  1.00  0.00     0.209 HD
ENDBRANCH  20  21
ENDBRANCH  19  20
BRANCH  19  23
HETATM   23  C5  UNL     1     -18.532 -13.588   7.193  1.00  0.00     0.200 C 
BRANCH  23  24
HETATM   24  O3  UNL     1     -19.869 -14.025   7.062  1.00  0.00    -0.398 OA
ATOM     25  H3  UNL     1     -20.380 -13.731   7.807  1.00  0.00     0.209 HD
ENDBRANCH  23  24
ENDBRANCH  19  23
ENDBRANCH  18  19
ENDBRANCH  16  18
ENDBRANCH   4  16
BRANCH   1  26
HETATM   26  N1  UNL     1     -13.948 -18.221  10.907  1.00  0.00    -0.383 N 
ATOM     27  H12 UNL     1     -14.068 -17.902  11.869  1.00  0.00     0.157 HD
ATOM     28  H11 UNL     1     -13.755 -19.205  10.724  1.00  0.00     0.157 HD
ENDBRANCH   1  26
BRANCH  14  29
HETATM   29  C8  UNL     1     -11.017 -18.405  10.178  1.00  0.00     0.274 C 
HETATM   30  C9  UNL     1     -10.592 -19.668   9.442  1.00  0.00     0.178 C 
HETATM   31  N8  UNL     1      -9.784 -20.497  10.289  1.00  0.00    -0.348 N 
HETATM   32  C10 UNL     1      -8.952 -19.965  11.328  1.00  0.00     0.317 C 
ATOM     33  H8  UNL     1      -9.803 -21.506  10.146  1.00  0.00     0.163 HD
HETATM   34  O4  UNL     1      -8.239 -20.736  12.013  1.00  0.00    -0.262 OA
HETATM   35  C11 UNL     1      -9.004 -18.521  11.511  1.00  0.00     0.353 C 
HETATM   36  O5  UNL     1      -8.287 -17.989  12.418  1.00  0.00    -0.254 OA
HETATM   37  O6  UNL     1      -9.839 -17.800  10.678  1.00  0.00    -0.285 OA
ENDBRANCH  14  29
TORSDOF 9
ENDMDL
MODEL 3
REMARK VINA RESULT: -8.131167077      0.688      1.343
REMARK  9 active torsions:
REMARK  status: ('A' for Active; 'I' for Inactive)
REMARK    1  A    between atoms: N1_1  and  C1_4 
REMARK    2  A    between atoms: C2_7  and  N3_8 
REMARK    3  A    between atoms: N3_8  and  O1_10 
REMARK    4  A    between atoms: O1_10  and  C3_11 
REMARK    5  A    between atoms: C3_11  and  C4_12 
REMARK    6  A    between atoms: C3_11  and  C5_15 
REMARK    7  A    between atoms: C4_12  and  O2_13 
REMARK    8  A    between atoms: C5_15  and  O3_16 
REMARK    9  A    between atoms: N7_27  and  C8_28 
ROOT
HETATM    1  C1  UNL     1     -10.279 -17.272  11.057  1.00  0.00     0.146 A 
HETATM    2  N2  UNL     1      -9.940 -16.502  10.023  1.00  0.00    -0.173 N 
ATOM      3  H2  UNL     1      -9.926 -15.491  10.155  1.00  0.00     0.186 HD
HETATM    4  C2  UNL     1      -9.616 -16.991   8.818  1.00  0.00     0.705 A 
HETATM    5  N4  UNL     1      -9.641 -18.322   8.665  1.00  0.00    -0.172 N 
ATOM      6  H4  UNL     1      -9.398 -18.717   7.756  1.00  0.00     0.186 HD
HETATM    7  C6  UNL     1      -9.974 -19.154   9.666  1.00  0.00     0.168 A 
HETATM    8  N5  UNL     1     -10.082 -20.482   9.799  1.00  0.00    -0.174 N 
ATOM      9  H5  UNL     1      -9.902 -21.159   9.058  1.00  0.00     0.186 HD
HETATM   10  C7  UNL     1     -10.456 -20.792  11.035  1.00  0.00     0.682 A 
HETATM   11  N6  UNL     1     -10.649 -21.978  11.487  1.00  0.00    -0.234 N 
ATOM     12  H61 UNL     1     -10.936 -22.216  12.437  1.00  0.00     0.174 HD
ATOM     13  H62 UNL     1     -10.540 -22.842  10.956  1.00  0.00     0.174 HD
HETATM   14  N7  UNL     1     -10.601 -19.634  11.747  1.00  0.00    -0.147 N 
HETATM   15  C12 UNL     1     -10.305 -18.643  10.904  1.00  0.00     0.143 A 
ENDROOT
BRANCH   4  16
HETATM   16  N3  UNL     1      -9.294 -16.198   7.845  1.00  0.00    -0.096 N 
ATOM     17  H3  UNL     1      -8.385 -15.737   7.866  1.00  0.00     0.213 HD
BRANCH  16  18
HETATM   18  O1  UNL     1     -10.125 -15.960   6.801  1.00  0.00    -0.257 OA
BRANCH  18  19
HETATM   19  C3  UNL     1      -9.828 -15.149   5.704  1.00  0.00     0.199 C 
BRANCH  19  20
HETATM   20  C4  UNL     1     -10.831 -15.295   4.595  1.00  0.00     0.200 C 
BRANCH  20  21
HETATM   21  O2  UNL     1     -10.496 -16.377   3.819  1.00  0.00    -0.398 OA
ATOM     22  H2  UNL     1     -11.207 -16.566   3.220  1.00  0.00     0.209 HD
ENDBRANCH  20  21
ENDBRANCH  19  20
BRANCH  19  23
HETATM   23  C5  UNL     1      -9.792 -13.681   6.090  1.00  0.00     0.200 C 
BRANCH  23  24
HETATM   24  O3  UNL     1     -10.352 -13.507   7.375  1.00  0.00    -0.398 OA
ATOM     25  H3  UNL     1      -9.723 -13.086   7.948  1.00  0.00     0.209 HD
ENDBRANCH  23  24
ENDBRANCH  19  23
ENDBRANCH  18  19
ENDBRANCH  16  18
ENDBRANCH   4  16
BRANCH   1  26
HETATM   26  N1  UNL     1     -10.577 -16.763  12.176  1.00  0.00    -0.383 N 
ATOM     27  H12 UNL     1     -11.391 -16.154  12.251  1.00  0.00     0.157 HD
ATOM     28  H11 UNL     1     -10.014 -16.954  13.006  1.00  0.00     0.157 HD
ENDBRANCH   1  26
BRANCH  14  29
HETATM   29  C8  UNL     1     -10.998 -19.608  13.119  1.00  0.00     0.274 C 
HETATM   30  C9  UNL     1     -12.502 -19.415  13.255  1.00  0.00     0.178 C 
HETATM   31  N8  UNL     1     -12.911 -19.590  14.618  1.00  0.00    -0.348 N 
HETATM   32  C10 UNL     1     -12.219 -20.453  15.530  1.00  0.00     0.317 C 
ATOM     33  H8  UNL     1     -13.727 -19.080  14.952  1.00  0.00     0.163 HD
HETATM   34  O4  UNL     1     -12.644 -20.595  16.701  1.00  0.00    -0.262 OA
HETATM   35  C11 UNL     1     -11.035 -21.120  15.005  1.00  0.00     0.353 C 
HETATM   36  O5  UNL     1     -10.377 -21.899  15.766  1.00  0.00    -0.254 OA
HETATM   37  O6  UNL     1     -10.687 -20.865  13.691  1.00  0.00    -0.285 OA
ENDBRANCH  14  29
TORSDOF 9
ENDMDL
MODEL 4
REMARK VINA RESULT: -8.100859203      4.570      5.874
REMARK  9 active torsions:
REMARK  status: ('A' for Active; 'I' for Inactive)
REMARK    1  A    between atoms: N1_1  and  C1_4 
REMARK    2  A    between atoms: C2_7  and  N3_8 
REMARK    3  A    between atoms: N3_8  and  O1_10 
REMARK    4  A    between atoms: O1_10  and  C3_11 
REMARK    5  A    between atoms: C3_11  and  C4_12 
REMARK    6  A    between atoms: C3_11  and  C5_15 
REMARK    7  A    between atoms: C4_12  and  O2_13 
REMARK    8  A    between atoms: C5_15  and  O3_16 
REMARK    9  A    between atoms: N7_27  and  C8_28 
ROOT
HETATM    1  C1  UNL     1     -13.927 -17.350   9.948  1.00  0.00     0.146 A 
HETATM    2  N2  UNL     1     -15.086 -16.772   9.635  1.00  0.00    -0.173 N 
ATOM      3  H2  UNL     1     -15.908 -16.995  10.197  1.00  0.00     0.186 HD
HETATM    4  C2  UNL     1     -15.226 -15.911   8.619  1.00  0.00     0.705 A 
HETATM    5  N4  UNL     1     -14.136 -15.629   7.893  1.00  0.00    -0.172 N 
ATOM      6  H4  UNL     1     -14.218 -14.976   7.113  1.00  0.00     0.186 HD
HETATM    7  C6  UNL     1     -12.937 -16.179   8.155  1.00  0.00     0.168 A 
HETATM    8  N5  UNL     1     -11.714 -16.088   7.617  1.00  0.00    -0.174 N 
ATOM      9  H5  UNL     1     -11.472 -15.507   6.815  1.00  0.00     0.186 HD
HETATM   10  C7  UNL     1     -10.862 -16.862   8.278  1.00  0.00     0.682 A 
HETATM   11  N6  UNL     1      -9.613 -17.001   8.015  1.00  0.00    -0.234 N 
ATOM     12  H61 UNL     1      -8.958 -17.596   8.523  1.00  0.00     0.174 HD
ATOM     13  H62 UNL     1      -9.109 -16.533   7.262  1.00  0.00     0.174 HD
HETATM   14  N7  UNL     1     -11.538 -17.488   9.288  1.00  0.00    -0.147 N 
HETATM   15  C12 UNL     1     -12.801 -17.064   9.204  1.00  0.00     0.143 A 
ENDROOT
BRANCH   4  16
HETATM   16  N3  UNL     1     -16.377 -15.375   8.356  1.00  0.00    -0.096 N 
ATOM     17  H3  UNL     1     -16.624 -14.493   8.805  1.00  0.00     0.213 HD
BRANCH  16  18
HETATM   18  O1  UNL     1     -17.264 -15.949   7.507  1.00  0.00    -0.257 OA
BRANCH  18  19
HETATM   19  C3  UNL     1     -17.839 -15.322   6.400  1.00  0.00     0.199 C 
BRANCH  19  20
HETATM   20  C4  UNL     1     -18.302 -13.926   6.708  1.00  0.00     0.200 C 
BRANCH  20  21
HETATM   21  O2  UNL     1     -19.663 -13.928   6.888  1.00  0.00    -0.398 OA
ATOM     22  H2  UNL     1     -20.079 -13.511   6.143  1.00  0.00     0.209 HD
ENDBRANCH  20  21
ENDBRANCH  19  20
BRANCH  19  23
HETATM   23  C5  UNL     1     -16.863 -15.228   5.241  1.00  0.00     0.200 C 
BRANCH  23  24
HETATM   24  O3  UNL     1     -17.527 -15.517   4.028  1.00  0.00    -0.398 OA
ATOM     25  H3  UNL     1     -16.953 -15.333   3.293  1.00  0.00     0.209 HD
ENDBRANCH  23  24
ENDBRANCH  19  23
ENDBRANCH  18  19
ENDBRANCH  16  18
ENDBRANCH   4  16
BRANCH   1  26
HETATM   26  N1  UNL     1     -13.845 -18.159  10.919  1.00  0.00    -0.383 N 
ATOM     27  H12 UNL     1     -14.369 -19.033  10.891  1.00  0.00     0.157 HD
ATOM     28  H11 UNL     1     -13.261 -17.948  11.729  1.00  0.00     0.157 HD
ENDBRANCH   1  26
BRANCH  14  29
HETATM   29  C8  UNL     1     -10.916 -18.398  10.196  1.00  0.00     0.274 C 
HETATM   30  C9  UNL     1     -10.521 -19.691   9.496  1.00  0.00     0.178 C 
HETATM   31  N8  UNL     1      -9.724 -20.509  10.363  1.00  0.00    -0.348 N 
HETATM   32  C10 UNL     1      -8.873 -19.962  11.379  1.00  0.00     0.317 C 
ATOM     33  H8  UNL     1      -9.763 -21.521  10.252  1.00  0.00     0.163 HD
HETATM   34  O4  UNL     1      -8.170 -20.724  12.083  1.00  0.00    -0.262 OA
HETATM   35  C11 UNL     1      -8.895 -18.512  11.517  1.00  0.00     0.353 C 
HETATM   36  O5  UNL     1      -8.160 -17.965  12.402  1.00  0.00    -0.254 OA
HETATM   37  O6  UNL     1      -9.723 -17.800  10.668  1.00  0.00    -0.285 OA
ENDBRANCH  14  29
TORSDOF 9
ENDMDL
MODEL 5
REMARK VINA RESULT: -7.997597295      0.909      1.041
REMARK  9 active torsions:
REMARK  status: ('A' for Active; 'I' for Inactive)
REMARK    1  A    between atoms: N1_1  and  C1_4 
REMARK    2  A    between atoms: C2_7  and  N3_8 
REMARK    3  A    between atoms: N3_8  and  O1_10 
REMARK    4  A    between atoms: O1_10  and  C3_11 
REMARK    5  A    between atoms: C3_11  and  C4_12 
REMARK    6  A    between atoms: C3_11  and  C5_15 
REMARK    7  A    between atoms: C4_12  and  O2_13 
REMARK    8  A    between atoms: C5_15  and  O3_16 
REMARK    9  A    between atoms: N7_27  and  C8_28 
ROOT
HETATM    1  C1  UNL     1      -9.974 -17.245  11.812  1.00  0.00     0.146 A 
HETATM    2  N2  UNL     1      -9.538 -16.375  10.900  1.00  0.00    -0.173 N 
ATOM      3  H2  UNL     1      -9.482 -15.390  11.158  1.00  0.00     0.186 HD
HETATM    4  C2  UNL     1      -9.167 -16.732   9.664  1.00  0.00     0.705 A 
HETATM    5  N4  UNL     1      -9.247 -18.031   9.345  1.00  0.00    -0.172 N 
ATOM      6  H4  UNL     1      -8.971 -18.326   8.408  1.00  0.00     0.186 HD
HETATM    7  C6  UNL     1      -9.679 -18.958  10.217  1.00  0.00     0.168 A 
HETATM    8  N5  UNL     1      -9.859 -20.285  10.178  1.00  0.00    -0.174 N 
ATOM      9  H5  UNL     1      -9.669 -20.876   9.369  1.00  0.00     0.186 HD
HETATM   10  C7  UNL     1     -10.320 -20.721  11.344  1.00  0.00     0.682 A 
HETATM   11  N6  UNL     1     -10.597 -21.941  11.635  1.00  0.00    -0.234 N 
ATOM     12  H61 UNL     1     -10.951 -22.276  12.531  1.00  0.00     0.174 HD
ATOM     13  H62 UNL     1     -10.499 -22.738  11.007  1.00  0.00     0.174 HD
HETATM   14  N7  UNL     1     -10.452 -19.652  12.185  1.00  0.00    -0.147 N 
HETATM   15  C12 UNL     1     -10.058 -18.584  11.489  1.00  0.00     0.143 A 
ENDROOT
BRANCH   4  16
HETATM   16  N3  UNL     1      -8.750 -15.846   8.815  1.00  0.00    -0.096 N 
ATOM     17  H3  UNL     1      -7.827 -15.961   8.396  1.00  0.00     0.213 HD
BRANCH  16  18
HETATM   18  O1  UNL     1      -9.498 -14.771   8.465  1.00  0.00    -0.257 OA
BRANCH  18  19
HETATM   19  C3  UNL     1     -10.330 -14.698   7.347  1.00  0.00     0.199 C 
BRANCH  19  20
HETATM   20  C4  UNL     1      -9.572 -14.394   6.086  1.00  0.00     0.200 C 
BRANCH  20  21
HETATM   21  O2  UNL     1      -8.351 -15.021   6.128  1.00  0.00    -0.398 OA
ATOM     22  H2  UNL     1      -8.077 -15.114   7.033  1.00  0.00     0.209 HD
ENDBRANCH  20  21
ENDBRANCH  19  20
BRANCH  19  23
HETATM   23  C5  UNL     1     -11.076 -16.001   7.121  1.00  0.00     0.200 C 
BRANCH  23  24
HETATM   24  O3  UNL     1     -10.240 -16.925   6.454  1.00  0.00    -0.398 OA
ATOM     25  H3  UNL     1     -10.099 -16.645   5.557  1.00  0.00     0.209 HD
ENDBRANCH  23  24
ENDBRANCH  19  23
ENDBRANCH  18  19
ENDBRANCH  16  18
ENDBRANCH   4  16
BRANCH   1  26
HETATM   26  N1  UNL     1     -10.313 -16.859  12.968  1.00  0.00    -0.383 N 
ATOM     27  H12 UNL     1     -10.693 -17.534  13.632  1.00  0.00     0.157 HD
ATOM     28  H11 UNL     1     -10.212 -15.883  13.247  1.00  0.00     0.157 HD
ENDBRANCH   1  26
BRANCH  14  29
HETATM   29  C8  UNL     1     -10.927 -19.770  13.527  1.00  0.00     0.274 C 
HETATM   30  C9  UNL     1     -12.441 -19.618  13.591  1.00  0.00     0.178 C 
HETATM   31  N8  UNL     1     -12.923 -19.936  14.904  1.00  0.00    -0.348 N 
HETATM   32  C10 UNL     1     -12.265 -20.873  15.766  1.00  0.00     0.317 C 
ATOM     33  H8  UNL     1     -13.769 -19.476  15.238  1.00  0.00     0.163 HD
HETATM   34  O4  UNL     1     -12.753 -21.140  16.889  1.00  0.00    -0.262 OA
HETATM   35  C11 UNL     1     -11.037 -21.463  15.248  1.00  0.00     0.353 C 
HETATM   36  O5  UNL     1     -10.407 -22.304  15.967  1.00  0.00    -0.254 OA
HETATM   37  O6  UNL     1     -10.620 -21.072  13.989  1.00  0.00    -0.285 OA
ENDBRANCH  14  29
TORSDOF 9
ENDMDL
