MODEL 1
REMARK VINA RESULT: -7.098499893      0.000      0.000
REMARK  15 active torsions:
REMARK  status: ('A' for Active; 'I' for Inactive)
REMARK    1  A    between atoms: C2_2  and  C4_4 
REMARK    2  A    between atoms: C4_4  and  C5_5 
REMARK    3  A    between atoms: C5_5  and  N1_6 
REMARK    4  A    between atoms: C5_5  and  C28_40 
REMARK       I    between atoms: N1_6  and  C6_8 
REMARK    5  A    between atoms: C6_8  and  C7_10 
REMARK    6  A    between atoms: C7_10  and  N2_11 
REMARK    7  A    between atoms: C7_10  and  C24_36 
REMARK    8  A    between atoms: N2_11  and  C8_13 
REMARK    9  A    between atoms: C8_13  and  C9_14 
REMARK   10  A    between atoms: C8_13  and  C13_18 
REMARK   11  A    between atoms: C9_14  and  C10_15 
REMARK       I    between atoms: C13_18  and  N3_20 
REMARK   12  A    between atoms: C18_25  and  C19_26 
REMARK       I    between atoms: C19_26  and  N4_28 
REMARK   13  A    between atoms: N4_28  and  C20_30 
REMARK   14  A    between atoms: C20_30  and  C21_31 
REMARK   15  A    between atoms: C28_40  and  C29_42 
ROOT
HETATM    1  C8  UNL     1       7.087  34.875   0.221  1.00  0.00     0.174 C 
ENDROOT
BRANCH   1   2
HETATM    2  N2  UNL     1       6.673  35.312  -1.062  1.00  0.00    -0.375 N 
ATOM      3  H2  UNL     1       5.906  34.790  -1.487  1.00  0.00     0.160 HD
BRANCH   2   4
HETATM    4  C7  UNL     1       7.176  36.347  -1.804  1.00  0.00     0.082 C 
BRANCH   4   5
HETATM    5  C6  UNL     1       8.201  37.288  -1.440  1.00  0.00     0.265 C 
HETATM    6  N1  UNL     1       8.131  38.340  -0.499  1.00  0.00    -0.344 N 
ATOM      7  H1  UNL     1       7.267  38.518   0.013  1.00  0.00     0.163 HD
HETATM    8  O1  UNL     1       9.363  37.221  -2.005  1.00  0.00    -0.266 OA
BRANCH   6   9
HETATM    9  C5  UNL     1       9.360  39.204  -0.260  1.00  0.00     0.155 C 
BRANCH   9  10
HETATM   10  C4  UNL     1       8.897  40.589  -0.478  1.00  0.00     0.037 C 
BRANCH  10  11
HETATM   11  C2  UNL     1       7.530  41.032  -0.634  1.00  0.00    -0.020 C 
HETATM   12  C1  UNL     1       7.013  41.547  -1.914  1.00  0.00     0.009 C 
HETATM   13  C3  UNL     1       7.281  42.125   0.443  1.00  0.00     0.009 C 
ENDBRANCH  10  11
ENDBRANCH   9  10
BRANCH   9  14
HETATM   14  C28 UNL     1       9.773  38.929   1.134  1.00  0.00     0.152 C 
HETATM   15  O6  UNL     1       9.134  39.469   2.072  1.00  0.00    -0.295 OA
BRANCH  14  16
HETATM   16  C29 UNL     1      10.865  38.046   1.555  1.00  0.00     0.049 C 
HETATM   17  C30 UNL     1      10.674  36.585   1.358  1.00  0.00     0.017 C 
HETATM   18  C31 UNL     1      12.137  38.415   0.766  1.00  0.00     0.017 C 
ENDBRANCH  14  16
ENDBRANCH   9  14
ENDBRANCH   6   9
ENDBRANCH   4   5
BRANCH   4  19
HETATM   19  C24 UNL     1       5.967  37.050  -2.487  1.00  0.00    -0.004 C 
HETATM   20  C25 UNL     1       5.370  35.978  -3.421  1.00  0.00     0.021 C 
HETATM   21  C26 UNL     1       4.880  37.383  -1.525  1.00  0.00     0.021 C 
HETATM   22  C27 UNL     1       6.425  38.171  -3.370  1.00  0.00     0.021 C 
ENDBRANCH   4  19
ENDBRANCH   2   4
ENDBRANCH   1   2
BRANCH   1  23
HETATM   23  C9  UNL     1       5.864  34.447   1.012  1.00  0.00     0.038 C 
BRANCH  23  24
HETATM   24  C10 UNL     1       5.345  33.080   0.726  1.00  0.00    -0.020 C 
HETATM   25  C11 UNL     1       3.892  33.299   0.236  1.00  0.00     0.009 C 
HETATM   26  C12 UNL     1       5.152  32.270   2.008  1.00  0.00     0.009 C 
ENDBRANCH  23  24
ENDBRANCH   1  23
BRANCH   1  27
HETATM   27  C13 UNL     1       7.996  33.697   0.029  1.00  0.00     0.243 C 
HETATM   28  O2  UNL     1       8.038  33.269  -1.155  1.00  0.00    -0.271 OA
HETATM   29  N3  UNL     1       8.774  33.060   1.022  1.00  0.00    -0.337 N 
HETATM   30  C14 UNL     1       8.879  33.474   2.403  1.00  0.00     0.127 C 
HETATM   31  C18 UNL     1       9.553  31.868   0.670  1.00  0.00     0.179 C 
HETATM   32  C15 UNL     1       8.436  32.374   3.294  1.00  0.00     0.020 C 
HETATM   33  C16 UNL     1       9.120  31.065   3.036  1.00  0.00     0.004 C 
HETATM   34  C17 UNL     1       9.968  31.041   1.827  1.00  0.00     0.035 C 
BRANCH  31  35
HETATM   35  C19 UNL     1      10.811  32.234  -0.062  1.00  0.00     0.241 C 
HETATM   36  O3  UNL     1      11.162  31.562  -1.079  1.00  0.00    -0.271 OA
HETATM   37  N4  UNL     1      11.650  33.302   0.323  1.00  0.00    -0.340 N 
ATOM     38  H4  UNL     1      11.364  33.839   1.141  1.00  0.00     0.163 HD
BRANCH  37  39
HETATM   39  C20 UNL     1      12.864  33.708  -0.322  1.00  0.00     0.121 A 
HETATM   40  C22 UNL     1      14.136  32.922  -0.194  1.00  0.00     0.045 A 
HETATM   41  C23 UNL     1      14.044  34.168   0.571  1.00  0.00     0.045 A 
BRANCH  39  42
HETATM   42  C21 UNL     1      12.730  34.519  -1.579  1.00  0.00     0.202 C 
HETATM   43  O4  UNL     1      12.852  33.918  -2.668  1.00  0.00    -0.646 OA
HETATM   44  O5  UNL     1      12.484  35.876  -1.587  1.00  0.00    -0.646 OA
ENDBRANCH  39  42
ENDBRANCH  37  39
ENDBRANCH  31  35
ENDBRANCH   1  27
TORSDOF 15
ENDMDL
MODEL 2
REMARK VINA RESULT: -6.792802413      1.369      2.713
REMARK  15 active torsions:
REMARK  status: ('A' for Active; 'I' for Inactive)
REMARK    1  A    between atoms: C2_2  and  C4_4 
REMARK    2  A    between atoms: C4_4  and  C5_5 
REMARK    3  A    between atoms: C5_5  and  N1_6 
REMARK    4  A    between atoms: C5_5  and  C28_40 
REMARK       I    between atoms: N1_6  and  C6_8 
REMARK    5  A    between atoms: C6_8  and  C7_10 
REMARK    6  A    between atoms: C7_10  and  N2_11 
REMARK    7  A    between atoms: C7_10  and  C24_36 
REMARK    8  A    between atoms: N2_11  and  C8_13 
REMARK    9  A    between atoms: C8_13  and  C9_14 
REMARK   10  A    between atoms: C8_13  and  C13_18 
REMARK   11  A    between atoms: C9_14  and  C10_15 
REMARK       I    between atoms: C13_18  and  N3_20 
REMARK   12  A    between atoms: C18_25  and  C19_26 
REMARK       I    between atoms: C19_26  and  N4_28 
REMARK   13  A    between atoms: N4_28  and  C20_30 
REMARK   14  A    between atoms: C20_30  and  C21_31 
REMARK   15  A    between atoms: C28_40  and  C29_42 
ROOT
HETATM    1  C8  UNL     1       6.918  34.877   0.137  1.00  0.00     0.174 C 
ENDROOT
BRANCH   1   2
HETATM    2  N2  UNL     1       6.441  35.308  -1.127  1.00  0.00    -0.375 N 
ATOM      3  H2  UNL     1       5.645  34.794  -1.503  1.00  0.00     0.160 HD
BRANCH   2   4
HETATM    4  C7  UNL     1       6.918  36.328  -1.906  1.00  0.00     0.082 C 
BRANCH   4   5
HETATM    5  C6  UNL     1       7.912  37.313  -1.573  1.00  0.00     0.265 C 
HETATM    6  N1  UNL     1       9.219  37.449  -2.093  1.00  0.00    -0.344 N 
ATOM      7  H1  UNL     1       9.570  36.789  -2.787  1.00  0.00     0.163 HD
HETATM    8  O1  UNL     1       7.644  38.223  -0.693  1.00  0.00    -0.266 OA
BRANCH   6   9
HETATM    9  C5  UNL     1      10.097  38.592  -1.603  1.00  0.00     0.155 C 
BRANCH   9  10
HETATM   10  C4  UNL     1      11.150  37.940  -0.799  1.00  0.00     0.037 C 
BRANCH  10  11
HETATM   11  C2  UNL     1      11.182  37.798   0.638  1.00  0.00    -0.020 C 
HETATM   12  C1  UNL     1      10.450  36.728   1.337  1.00  0.00     0.009 C 
HETATM   13  C3  UNL     1      10.716  39.153   1.240  1.00  0.00     0.009 C 
ENDBRANCH  10  11
ENDBRANCH   9  10
BRANCH   9  14
HETATM   14  C28 UNL     1      10.606  39.252  -2.825  1.00  0.00     0.152 C 
HETATM   15  O6  UNL     1      11.715  38.891  -3.291  1.00  0.00    -0.295 OA
BRANCH  14  16
HETATM   16  C29 UNL     1       9.922  40.299  -3.592  1.00  0.00     0.049 C 
HETATM   17  C30 UNL     1       9.180  39.877  -4.809  1.00  0.00     0.017 C 
HETATM   18  C31 UNL     1       8.882  40.984  -2.683  1.00  0.00     0.017 C 
ENDBRANCH  14  16
ENDBRANCH   9  14
ENDBRANCH   6   9
ENDBRANCH   4   5
BRANCH   4  19
HETATM   19  C24 UNL     1       5.694  36.966  -2.624  1.00  0.00    -0.004 C 
HETATM   20  C25 UNL     1       5.256  35.910  -3.658  1.00  0.00     0.021 C 
HETATM   21  C26 UNL     1       4.525  37.139  -1.719  1.00  0.00     0.021 C 
HETATM   22  C27 UNL     1       6.101  38.179  -3.406  1.00  0.00     0.021 C 
ENDBRANCH   4  19
ENDBRANCH   2   4
ENDBRANCH   1   2
BRANCH   1  23
HETATM   23  C9  UNL     1       5.740  34.412   0.973  1.00  0.00     0.038 C 
BRANCH  23  24
HETATM   24  C10 UNL     1       5.285  33.013   0.743  1.00  0.00    -0.020 C 
HETATM   25  C11 UNL     1       3.795  33.138   0.339  1.00  0.00     0.009 C 
HETATM   26  C12 UNL     1       5.218  32.219   2.047  1.00  0.00     0.009 C 
ENDBRANCH  23  24
ENDBRANCH   1  23
BRANCH   1  27
HETATM   27  C13 UNL     1       7.850  33.726  -0.098  1.00  0.00     0.243 C 
HETATM   28  O2  UNL     1       7.813  33.265  -1.271  1.00  0.00    -0.271 OA
HETATM   29  N3  UNL     1       8.728  33.144   0.845  1.00  0.00    -0.337 N 
HETATM   30  C14 UNL     1       8.928  33.600   2.201  1.00  0.00     0.127 C 
HETATM   31  C18 UNL     1       9.518  31.969   0.462  1.00  0.00     0.179 C 
HETATM   32  C15 UNL     1       8.597  32.512   3.154  1.00  0.00     0.020 C 
HETATM   33  C16 UNL     1       9.306  31.220   2.874  1.00  0.00     0.004 C 
HETATM   34  C17 UNL     1      10.054  31.190   1.602  1.00  0.00     0.035 C 
BRANCH  31  35
HETATM   35  C19 UNL     1      10.700  32.356  -0.379  1.00  0.00     0.241 C 
HETATM   36  O3  UNL     1      11.243  31.492  -1.131  1.00  0.00    -0.271 OA
HETATM   37  N4  UNL     1      11.260  33.652  -0.381  1.00  0.00    -0.340 N 
ATOM     38  H4  UNL     1      10.820  34.343   0.226  1.00  0.00     0.163 HD
BRANCH  37  39
HETATM   39  C20 UNL     1      12.385  34.094  -1.151  1.00  0.00     0.121 A 
HETATM   40  C22 UNL     1      13.781  33.622  -0.866  1.00  0.00     0.045 A 
HETATM   41  C23 UNL     1      13.441  34.986  -0.451  1.00  0.00     0.045 A 
BRANCH  39  42
HETATM   42  C21 UNL     1      12.120  34.505  -2.571  1.00  0.00     0.202 C 
HETATM   43  O4  UNL     1      11.048  35.099  -2.808  1.00  0.00    -0.646 OA
HETATM   44  O5  UNL     1      12.993  34.259  -3.610  1.00  0.00    -0.646 OA
ENDBRANCH  39  42
ENDBRANCH  37  39
ENDBRANCH  31  35
ENDBRANCH   1  27
TORSDOF 15
ENDMDL
MODEL 3
REMARK VINA RESULT: -6.693301622      1.364      2.755
REMARK  15 active torsions:
REMARK  status: ('A' for Active; 'I' for Inactive)
REMARK    1  A    between atoms: C2_2  and  C4_4 
REMARK    2  A    between atoms: C4_4  and  C5_5 
REMARK    3  A    between atoms: C5_5  and  N1_6 
REMARK    4  A    between atoms: C5_5  and  C28_40 
REMARK       I    between atoms: N1_6  and  C6_8 
REMARK    5  A    between atoms: C6_8  and  C7_10 
REMARK    6  A    between atoms: C7_10  and  N2_11 
REMARK    7  A    between atoms: C7_10  and  C24_36 
REMARK    8  A    between atoms: N2_11  and  C8_13 
REMARK    9  A    between atoms: C8_13  and  C9_14 
REMARK   10  A    between atoms: C8_13  and  C13_18 
REMARK   11  A    between atoms: C9_14  and  C10_15 
REMARK       I    between atoms: C13_18  and  N3_20 
REMARK   12  A    between atoms: C18_25  and  C19_26 
REMARK       I    between atoms: C19_26  and  N4_28 
REMARK   13  A    between atoms: N4_28  and  C20_30 
REMARK   14  A    between atoms: C20_30  and  C21_31 
REMARK   15  A    between atoms: C28_40  and  C29_42 
ROOT
HETATM    1  C8  UNL     1       7.259  34.025   0.016  1.00  0.00     0.174 C 
ENDROOT
BRANCH   1   2
HETATM    2  N2  UNL     1       7.264  34.980  -1.031  1.00  0.00    -0.375 N 
ATOM      3  H2  UNL     1       6.921  34.654  -1.935  1.00  0.00     0.160 HD
BRANCH   2   4
HETATM    4  C7  UNL     1       7.671  36.286  -0.981  1.00  0.00     0.082 C 
BRANCH   4   5
HETATM    5  C6  UNL     1       8.304  36.980   0.108  1.00  0.00     0.265 C 
HETATM    6  N1  UNL     1       9.570  37.608   0.129  1.00  0.00    -0.344 N 
ATOM      7  H1  UNL     1      10.167  37.594  -0.698  1.00  0.00     0.163 HD
HETATM    8  O1  UNL     1       7.695  37.081   1.245  1.00  0.00    -0.266 OA
BRANCH   6   9
HETATM    9  C5  UNL     1      10.030  38.307   1.400  1.00  0.00     0.155 C 
BRANCH   9  10
HETATM   10  C4  UNL     1      11.387  37.780   1.650  1.00  0.00     0.037 C 
BRANCH  10  11
HETATM   11  C2  UNL     1      12.610  38.542   1.747  1.00  0.00    -0.020 C 
HETATM   12  C1  UNL     1      13.612  38.558   0.666  1.00  0.00     0.009 C 
HETATM   13  C3  UNL     1      13.332  38.081   3.045  1.00  0.00     0.009 C 
ENDBRANCH  10  11
ENDBRANCH   9  10
BRANCH   9  14
HETATM   14  C28 UNL     1      10.004  39.753   1.090  1.00  0.00     0.152 C 
HETATM   15  O6  UNL     1      10.084  40.116  -0.111  1.00  0.00    -0.295 OA
BRANCH  14  16
HETATM   16  C29 UNL     1       9.863  40.844   2.060  1.00  0.00     0.049 C 
HETATM   17  C30 UNL     1      11.009  41.779   2.205  1.00  0.00     0.017 C 
HETATM   18  C31 UNL     1       8.657  41.716   1.659  1.00  0.00     0.017 C 
ENDBRANCH  14  16
ENDBRANCH   9  14
ENDBRANCH   6   9
ENDBRANCH   4   5
BRANCH   4  19
HETATM   19  C24 UNL     1       6.547  37.142  -1.632  1.00  0.00    -0.004 C 
HETATM   20  C25 UNL     1       6.501  36.673  -3.100  1.00  0.00     0.021 C 
HETATM   21  C26 UNL     1       5.199  36.833  -1.079  1.00  0.00     0.021 C 
HETATM   22  C27 UNL     1       6.925  38.592  -1.664  1.00  0.00     0.021 C 
ENDBRANCH   4  19
ENDBRANCH   2   4
ENDBRANCH   1   2
BRANCH   1  23
HETATM   23  C9  UNL     1       5.992  33.195  -0.081  1.00  0.00     0.038 C 
BRANCH  23  24
HETATM   24  C10 UNL     1       4.990  33.400   1.001  1.00  0.00    -0.020 C 
HETATM   25  C11 UNL     1       5.312  32.312   2.056  1.00  0.00     0.009 C 
HETATM   26  C12 UNL     1       3.581  33.024   0.545  1.00  0.00     0.009 C 
ENDBRANCH  23  24
ENDBRANCH   1  23
BRANCH   1  27
HETATM   27  C13 UNL     1       8.454  33.138  -0.173  1.00  0.00     0.243 C 
HETATM   28  O2  UNL     1       8.740  32.911  -1.379  1.00  0.00    -0.271 OA
HETATM   29  N3  UNL     1       9.250  32.565   0.845  1.00  0.00    -0.337 N 
HETATM   30  C14 UNL     1       9.086  32.783   2.264  1.00  0.00     0.127 C 
HETATM   31  C18 UNL     1      10.341  31.656   0.478  1.00  0.00     0.179 C 
HETATM   32  C15 UNL     1       8.839  31.490   2.949  1.00  0.00     0.020 C 
HETATM   33  C16 UNL     1       9.859  30.434   2.646  1.00  0.00     0.004 C 
HETATM   34  C17 UNL     1      10.818  30.790   1.581  1.00  0.00     0.035 C 
BRANCH  31  35
HETATM   35  C19 UNL     1      11.540  32.413  -0.014  1.00  0.00     0.241 C 
HETATM   36  O3  UNL     1      12.171  31.996  -1.032  1.00  0.00    -0.271 OA
HETATM   37  N4  UNL     1      12.023  33.588   0.604  1.00  0.00    -0.340 N 
ATOM     38  H4  UNL     1      11.513  33.919   1.422  1.00  0.00     0.163 HD
BRANCH  37  39
HETATM   39  C20 UNL     1      13.159  34.361   0.195  1.00  0.00     0.121 A 
HETATM   40  C22 UNL     1      14.566  33.890   0.420  1.00  0.00     0.045 A 
HETATM   41  C23 UNL     1      14.072  34.953   1.299  1.00  0.00     0.045 A 
BRANCH  39  42
HETATM   42  C21 UNL     1      12.968  35.291  -0.968  1.00  0.00     0.202 C 
HETATM   43  O4  UNL     1      11.844  35.817  -1.105  1.00  0.00    -0.646 OA
HETATM   44  O5  UNL     1      13.961  35.587  -1.877  1.00  0.00    -0.646 OA
ENDBRANCH  39  42
ENDBRANCH  37  39
ENDBRANCH  31  35
ENDBRANCH   1  27
TORSDOF 15
ENDMDL
MODEL 4
REMARK VINA RESULT: -6.684687418      1.218      1.569
REMARK  15 active torsions:
REMARK  status: ('A' for Active; 'I' for Inactive)
REMARK    1  A    between atoms: C2_2  and  C4_4 
REMARK    2  A    between atoms: C4_4  and  C5_5 
REMARK    3  A    between atoms: C5_5  and  N1_6 
REMARK    4  A    between atoms: C5_5  and  C28_40 
REMARK       I    between atoms: N1_6  and  C6_8 
REMARK    5  A    between atoms: C6_8  and  C7_10 
REMARK    6  A    between atoms: C7_10  and  N2_11 
REMARK    7  A    between atoms: C7_10  and  C24_36 
REMARK    8  A    between atoms: N2_11  and  C8_13 
REMARK    9  A    between atoms: C8_13  and  C9_14 
REMARK   10  A    between atoms: C8_13  and  C13_18 
REMARK   11  A    between atoms: C9_14  and  C10_15 
REMARK       I    between atoms: C13_18  and  N3_20 
REMARK   12  A    between atoms: C18_25  and  C19_26 
REMARK       I    between atoms: C19_26  and  N4_28 
REMARK   13  A    between atoms: N4_28  and  C20_30 
REMARK   14  A    between atoms: C20_30  and  C21_31 
REMARK   15  A    between atoms: C28_40  and  C29_42 
ROOT
HETATM    1  C8  UNL     1       7.444  34.062  -0.283  1.00  0.00     0.174 C 
ENDROOT
BRANCH   1   2
HETATM    2  N2  UNL     1       7.361  34.719  -1.536  1.00  0.00    -0.375 N 
ATOM      3  H2  UNL     1       7.055  34.146  -2.322  1.00  0.00     0.160 HD
BRANCH   2   4
HETATM    4  C7  UNL     1       7.642  36.028  -1.823  1.00  0.00     0.082 C 
BRANCH   4   5
HETATM    5  C6  UNL     1       8.543  36.916  -1.140  1.00  0.00     0.265 C 
HETATM    6  N1  UNL     1       8.738  37.065   0.252  1.00  0.00    -0.344 N 
ATOM      7  H1  UNL     1       8.192  36.512   0.912  1.00  0.00     0.163 HD
HETATM    8  O1  UNL     1       9.306  37.708  -1.823  1.00  0.00    -0.266 OA
BRANCH   6   9
HETATM    9  C5  UNL     1       9.773  38.063   0.753  1.00  0.00     0.155 C 
BRANCH   9  10
HETATM   10  C4  UNL     1       9.022  38.969   1.645  1.00  0.00     0.037 C 
BRANCH  10  11
HETATM   11  C2  UNL     1       8.910  40.405   1.529  1.00  0.00    -0.020 C 
HETATM   12  C1  UNL     1       8.867  41.086   0.222  1.00  0.00     0.009 C 
HETATM   13  C3  UNL     1      10.087  41.020   2.337  1.00  0.00     0.009 C 
ENDBRANCH  10  11
ENDBRANCH   9  10
BRANCH   9  14
HETATM   14  C28 UNL     1      10.796  37.255   1.453  1.00  0.00     0.152 C 
HETATM   15  O6  UNL     1      10.684  36.004   1.452  1.00  0.00    -0.295 OA
BRANCH  14  16
HETATM   16  C29 UNL     1      11.979  37.772   2.149  1.00  0.00     0.049 C 
HETATM   17  C30 UNL     1      12.656  36.861   3.109  1.00  0.00     0.017 C 
HETATM   18  C31 UNL     1      13.047  38.151   1.103  1.00  0.00     0.017 C 
ENDBRANCH  14  16
ENDBRANCH   9  14
ENDBRANCH   6   9
ENDBRANCH   4   5
BRANCH   4  19
HETATM   19  C24 UNL     1       6.291  36.724  -2.156  1.00  0.00    -0.004 C 
HETATM   20  C25 UNL     1       5.565  35.738  -3.093  1.00  0.00     0.021 C 
HETATM   21  C26 UNL     1       5.407  36.858  -0.964  1.00  0.00     0.021 C 
HETATM   22  C27 UNL     1       6.512  37.976  -2.950  1.00  0.00     0.021 C 
ENDBRANCH   4  19
ENDBRANCH   2   4
ENDBRANCH   1   2
BRANCH   1  23
HETATM   23  C9  UNL     1       6.152  33.303  -0.040  1.00  0.00     0.038 C 
BRANCH  23  24
HETATM   24  C10 UNL     1       5.380  33.695   1.171  1.00  0.00    -0.020 C 
HETATM   25  C11 UNL     1       6.239  34.785   1.858  1.00  0.00     0.009 C 
HETATM   26  C12 UNL     1       5.356  32.576   2.212  1.00  0.00     0.009 C 
ENDBRANCH  23  24
ENDBRANCH   1  23
BRANCH   1  27
HETATM   27  C13 UNL     1       8.587  33.094  -0.352  1.00  0.00     0.243 C 
HETATM   28  O2  UNL     1       8.888  32.737  -1.522  1.00  0.00    -0.271 OA
HETATM   29  N3  UNL     1       9.323  32.577   0.739  1.00  0.00    -0.337 N 
HETATM   30  C14 UNL     1       9.139  32.940   2.125  1.00  0.00     0.127 C 
HETATM   31  C18 UNL     1      10.367  31.577   0.491  1.00  0.00     0.179 C 
HETATM   32  C15 UNL     1       8.798  31.735   2.922  1.00  0.00     0.020 C 
HETATM   33  C16 UNL     1       9.761  30.598   2.750  1.00  0.00     0.004 C 
HETATM   34  C17 UNL     1      10.764  30.795   1.685  1.00  0.00     0.035 C 
BRANCH  31  35
HETATM   35  C19 UNL     1      11.620  32.213  -0.034  1.00  0.00     0.241 C 
HETATM   36  O3  UNL     1      12.161  31.758  -1.086  1.00  0.00    -0.271 OA
HETATM   37  N4  UNL     1      12.252  33.312   0.588  1.00  0.00    -0.340 N 
ATOM     38  H4  UNL     1      11.814  33.674   1.435  1.00  0.00     0.163 HD
BRANCH  37  39
HETATM   39  C20 UNL     1      13.448  33.969   0.149  1.00  0.00     0.121 A 
HETATM   40  C22 UNL     1      14.814  33.439   0.474  1.00  0.00     0.045 A 
HETATM   41  C23 UNL     1      14.361  34.614   1.223  1.00  0.00     0.045 A 
BRANCH  39  42
HETATM   42  C21 UNL     1      13.355  34.786  -1.108  1.00  0.00     0.202 C 
HETATM   43  O4  UNL     1      14.210  34.578  -1.994  1.00  0.00    -0.646 OA
HETATM   44  O5  UNL     1      12.384  35.741  -1.324  1.00  0.00    -0.646 OA
ENDBRANCH  39  42
ENDBRANCH  37  39
ENDBRANCH  31  35
ENDBRANCH   1  27
TORSDOF 15
ENDMDL
MODEL 5
REMARK VINA RESULT: -6.607035306      2.025      4.093
REMARK  15 active torsions:
REMARK  status: ('A' for Active; 'I' for Inactive)
REMARK    1  A    between atoms: C2_2  and  C4_4 
REMARK    2  A    between atoms: C4_4  and  C5_5 
REMARK    3  A    between atoms: C5_5  and  N1_6 
REMARK    4  A    between atoms: C5_5  and  C28_40 
REMARK       I    between atoms: N1_6  and  C6_8 
REMARK    5  A    between atoms: C6_8  and  C7_10 
REMARK    6  A    between atoms: C7_10  and  N2_11 
REMARK    7  A    between atoms: C7_10  and  C24_36 
REMARK    8  A    between atoms: N2_11  and  C8_13 
REMARK    9  A    between atoms: C8_13  and  C9_14 
REMARK   10  A    between atoms: C8_13  and  C13_18 
REMARK   11  A    between atoms: C9_14  and  C10_15 
REMARK       I    between atoms: C13_18  and  N3_20 
REMARK   12  A    between atoms: C18_25  and  C19_26 
REMARK       I    between atoms: C19_26  and  N4_28 
REMARK   13  A    between atoms: N4_28  and  C20_30 
REMARK   14  A    between atoms: C20_30  and  C21_31 
REMARK   15  A    between atoms: C28_40  and  C29_42 
ROOT
HETATM    1  C8  UNL     1       7.299  34.231   0.153  1.00  0.00     0.174 C 
ENDROOT
BRANCH   1   2
HETATM    2  N2  UNL     1       7.497  35.276  -0.783  1.00  0.00    -0.375 N 
ATOM      3  H2  UNL     1       8.013  35.028  -1.628  1.00  0.00     0.160 HD
BRANCH   2   4
HETATM    4  C7  UNL     1       7.082  36.578  -0.695  1.00  0.00     0.082 C 
BRANCH   4   5
HETATM    5  C6  UNL     1       6.135  37.268  -1.528  1.00  0.00     0.265 C 
HETATM    6  N1  UNL     1       6.369  37.938  -2.751  1.00  0.00    -0.344 N 
ATOM      7  H1  UNL     1       7.309  37.986  -3.142  1.00  0.00     0.163 HD
HETATM    8  O1  UNL     1       4.891  37.324  -1.176  1.00  0.00    -0.266 OA
BRANCH   6   9
HETATM    9  C5  UNL     1       5.198  38.587  -3.477  1.00  0.00     0.155 C 
BRANCH   9  10
HETATM   10  C4  UNL     1       5.559  40.015  -3.573  1.00  0.00     0.037 C 
BRANCH  10  11
HETATM   11  C2  UNL     1       4.928  41.118  -2.885  1.00  0.00    -0.020 C 
HETATM   12  C1  UNL     1       4.327  40.968  -1.548  1.00  0.00     0.009 C 
HETATM   13  C3  UNL     1       3.828  41.675  -3.831  1.00  0.00     0.009 C 
ENDBRANCH  10  11
ENDBRANCH   9  10
BRANCH   9  14
HETATM   14  C28 UNL     1       5.118  37.906  -4.788  1.00  0.00     0.152 C 
HETATM   15  O6  UNL     1       4.867  36.675  -4.816  1.00  0.00    -0.295 OA
BRANCH  14  16
HETATM   16  C29 UNL     1       5.278  38.537  -6.102  1.00  0.00     0.049 C 
HETATM   17  C30 UNL     1       6.414  38.077  -6.944  1.00  0.00     0.017 C 
HETATM   18  C31 UNL     1       4.007  38.283  -6.936  1.00  0.00     0.017 C 
ENDBRANCH  14  16
ENDBRANCH   9  14
ENDBRANCH   6   9
ENDBRANCH   4   5
BRANCH   4  19
HETATM   19  C24 UNL     1       8.345  37.444  -0.420  1.00  0.00    -0.004 C 
HETATM   20  C25 UNL     1       8.615  37.271   1.088  1.00  0.00     0.021 C 
HETATM   21  C26 UNL     1       9.560  36.916  -1.100  1.00  0.00     0.021 C 
HETATM   22  C27 UNL     1       8.056  38.900  -0.633  1.00  0.00     0.021 C 
ENDBRANCH   4  19
ENDBRANCH   2   4
ENDBRANCH   1   2
BRANCH   1  23
HETATM   23  C9  UNL     1       6.013  33.500  -0.190  1.00  0.00     0.038 C 
BRANCH  23  24
HETATM   24  C10 UNL     1       4.930  33.569   0.829  1.00  0.00    -0.020 C 
HETATM   25  C11 UNL     1       5.263  32.447   1.844  1.00  0.00     0.009 C 
HETATM   26  C12 UNL     1       3.586  33.120   0.256  1.00  0.00     0.009 C 
ENDBRANCH  23  24
ENDBRANCH   1  23
BRANCH   1  27
HETATM   27  C13 UNL     1       8.458  33.287   0.031  1.00  0.00     0.243 C 
HETATM   28  O2  UNL     1       8.818  33.065  -1.156  1.00  0.00    -0.271 OA
HETATM   29  N3  UNL     1       9.150  32.658   1.091  1.00  0.00    -0.337 N 
HETATM   30  C14 UNL     1       8.898  32.861   2.499  1.00  0.00     0.127 C 
HETATM   31  C18 UNL     1      10.218  31.700   0.784  1.00  0.00     0.179 C 
HETATM   32  C15 UNL     1       8.538  31.573   3.140  1.00  0.00     0.020 C 
HETATM   33  C16 UNL     1       9.523  30.470   2.889  1.00  0.00     0.004 C 
HETATM   34  C17 UNL     1      10.571  30.794   1.901  1.00  0.00     0.035 C 
BRANCH  31  35
HETATM   35  C19 UNL     1      11.486  32.403   0.393  1.00  0.00     0.241 C 
HETATM   36  O3  UNL     1      12.566  31.744   0.305  1.00  0.00    -0.271 OA
HETATM   37  N4  UNL     1      11.552  33.785   0.113  1.00  0.00    -0.340 N 
ATOM     38  H4  UNL     1      10.681  34.310   0.185  1.00  0.00     0.163 HD
BRANCH  37  39
HETATM   39  C20 UNL     1      12.722  34.524  -0.263  1.00  0.00     0.121 A 
HETATM   40  C22 UNL     1      13.760  34.937   0.739  1.00  0.00     0.045 A 
HETATM   41  C23 UNL     1      12.857  35.981   0.248  1.00  0.00     0.045 A 
BRANCH  39  42
HETATM   42  C21 UNL     1      13.217  34.349  -1.670  1.00  0.00     0.202 C 
HETATM   43  O4  UNL     1      12.374  34.053  -2.543  1.00  0.00    -0.646 OA
HETATM   44  O5  UNL     1      14.538  34.496  -2.036  1.00  0.00    -0.646 OA
ENDBRANCH  39  42
ENDBRANCH  37  39
ENDBRANCH  31  35
ENDBRANCH   1  27
TORSDOF 15
ENDMDL
