MODEL 1
REMARK VINA RESULT: -6.862808140      0.000      0.000
REMARK  5 active torsions:
REMARK  status: ('A' for Active; 'I' for Inactive)
REMARK    1  A    between atoms: C3_3  and  C4_4 
REMARK    2  A    between atoms: C4_4  and  O1_5 
REMARK    3  A    between atoms: N1_10  and  S1_11 
REMARK    4  A    between atoms: S1_11  and  C7_13 
REMARK    5  A    between atoms: C7_13  and  C8_14 
ROOT
HETATM    1  C1  UNL     1      22.834  46.129   4.433  1.00  0.00     0.112 C 
HETATM    2  C2  UNL     1      23.396  46.847   3.275  1.00  0.00    -0.108 C 
HETATM    3  C3  UNL     1      23.851  47.447   2.327  1.00  0.00    -0.068 C 
ENDROOT
BRANCH   3   4
HETATM    4  C4  UNL     1      24.383  48.178   1.175  1.00  0.00     0.131 C 
HETATM    5  C5  UNL     1      25.853  48.416   1.425  1.00  0.00     0.155 C 
HETATM    6  C6  UNL     1      26.371  49.563   0.638  1.00  0.00     0.236 C 
HETATM    7  O2  UNL     1      27.617  49.771   0.707  1.00  0.00    -0.272 OA
HETATM    8  N1  UNL     1      25.541  50.397  -0.154  1.00  0.00    -0.258 N 
HETATM    9  C13 UNL     1      24.094  50.356  -0.049  1.00  0.00     0.045 C 
HETATM   10  C14 UNL     1      23.533  51.751   0.258  1.00  0.00     0.039 C 
HETATM   11  C15 UNL     1      23.468  49.953  -1.386  1.00  0.00     0.039 C 
HETATM   12  C16 UNL     1      23.615  49.447   1.031  1.00  0.00     0.083 C 
BRANCH   4  13
HETATM   13  O1  UNL     1      24.199  47.341   0.061  1.00  0.00    -0.377 OA
ATOM     14  H1  UNL     1      24.330  47.887  -0.705  1.00  0.00     0.211 HD
ENDBRANCH   4  13
BRANCH   8  15
HETATM   15  S1  UNL     1      26.296  51.471  -1.257  1.00  0.00     0.120 S 
HETATM   16  O3  UNL     1      25.255  52.233  -2.013  1.00  0.00    -0.235 OA
BRANCH  15  17
HETATM   17  C7  UNL     1      26.924  50.723  -2.531  1.00  0.00     0.141 C 
BRANCH  17  18
HETATM   18  C8  UNL     1      28.280  50.865  -2.976  1.00  0.00    -0.028 A 
HETATM   19  C9  UNL     1      28.727  52.335  -2.676  1.00  0.00     0.016 C 
HETATM   20  C10 UNL     1      29.375  49.924  -2.628  1.00  0.00     0.015 A 
HETATM   21  C11 UNL     1      28.993  50.283  -4.082  1.00  0.00    -0.009 A 
HETATM   22  C12 UNL     1      28.693  49.131  -4.934  1.00  0.00     0.011 C 
ENDBRANCH  17  18
ENDBRANCH  15  17
ENDBRANCH   8  15
ENDBRANCH   3   4
TORSDOF 5
ENDMDL
MODEL 2
REMARK VINA RESULT: -6.711359738      0.754      1.574
REMARK  5 active torsions:
REMARK  status: ('A' for Active; 'I' for Inactive)
REMARK    1  A    between atoms: C3_3  and  C4_4 
REMARK    2  A    between atoms: C4_4  and  O1_5 
REMARK    3  A    between atoms: N1_10  and  S1_11 
REMARK    4  A    between atoms: S1_11  and  C7_13 
REMARK    5  A    between atoms: C7_13  and  C8_14 
ROOT
HETATM    1  C1  UNL     1      22.686  46.073   4.486  1.00  0.00     0.112 C 
HETATM    2  C2  UNL     1      23.256  46.788   3.330  1.00  0.00    -0.108 C 
HETATM    3  C3  UNL     1      23.736  47.377   2.387  1.00  0.00    -0.068 C 
ENDROOT
BRANCH   3   4
HETATM    4  C4  UNL     1      24.322  48.104   1.258  1.00  0.00     0.131 C 
HETATM    5  C5  UNL     1      25.783  48.324   1.567  1.00  0.00     0.155 C 
HETATM    6  C6  UNL     1      26.345  49.467   0.804  1.00  0.00     0.236 C 
HETATM    7  O2  UNL     1      27.590  49.660   0.922  1.00  0.00    -0.272 OA
HETATM    8  N1  UNL     1      25.556  50.312  -0.018  1.00  0.00    -0.258 N 
HETATM    9  C13 UNL     1      24.107  50.288   0.029  1.00  0.00     0.045 C 
HETATM   10  C14 UNL     1      23.549  51.688   0.318  1.00  0.00     0.039 C 
HETATM   11  C15 UNL     1      23.529  49.894  -1.332  1.00  0.00     0.039 C 
HETATM   12  C16 UNL     1      23.575  49.383   1.087  1.00  0.00     0.083 C 
BRANCH   4  13
HETATM   13  O1  UNL     1      24.172  47.272   0.136  1.00  0.00    -0.377 OA
ATOM     14  H1  UNL     1      24.363  47.811  -0.621  1.00  0.00     0.211 HD
ENDBRANCH   4  13
BRANCH   8  15
HETATM   15  S1  UNL     1      26.367  51.379  -1.088  1.00  0.00     0.120 S 
HETATM   16  O3  UNL     1      25.388  51.964  -2.057  1.00  0.00    -0.235 OA
BRANCH  15  17
HETATM   17  C7  UNL     1      27.259  50.614  -2.181  1.00  0.00     0.141 C 
BRANCH  17  18
HETATM   18  C8  UNL     1      28.644  50.885  -2.441  1.00  0.00    -0.028 A 
HETATM   19  C9  UNL     1      29.125  49.884  -3.544  1.00  0.00     0.016 C 
HETATM   20  C10 UNL     1      29.191  52.238  -2.716  1.00  0.00     0.015 A 
HETATM   21  C11 UNL     1      29.713  51.323  -1.584  1.00  0.00    -0.009 A 
HETATM   22  C12 UNL     1      29.704  51.935  -0.254  1.00  0.00     0.011 C 
ENDBRANCH  17  18
ENDBRANCH  15  17
ENDBRANCH   8  15
ENDBRANCH   3   4
TORSDOF 5
ENDMDL
MODEL 3
REMARK VINA RESULT: -6.324979654      2.131      2.633
REMARK  5 active torsions:
REMARK  status: ('A' for Active; 'I' for Inactive)
REMARK    1  A    between atoms: C3_3  and  C4_4 
REMARK    2  A    between atoms: C4_4  and  O1_5 
REMARK    3  A    between atoms: N1_10  and  S1_11 
REMARK    4  A    between atoms: S1_11  and  C7_13 
REMARK    5  A    between atoms: C7_13  and  C8_14 
ROOT
HETATM    1  C1  UNL     1      22.750  46.333   4.650  1.00  0.00     0.112 C 
HETATM    2  C2  UNL     1      23.314  46.950   3.437  1.00  0.00    -0.108 C 
HETATM    3  C3  UNL     1      23.770  47.466   2.440  1.00  0.00    -0.068 C 
ENDROOT
BRANCH   3   4
HETATM    4  C4  UNL     1      24.302  48.093   1.229  1.00  0.00     0.131 C 
HETATM    5  C5  UNL     1      25.795  48.236   1.408  1.00  0.00     0.155 C 
HETATM    6  C6  UNL     1      26.359  49.299   0.538  1.00  0.00     0.236 C 
HETATM    7  O2  UNL     1      27.618  49.419   0.547  1.00  0.00    -0.272 OA
HETATM    8  N1  UNL     1      25.556  50.148  -0.267  1.00  0.00    -0.258 N 
HETATM    9  C13 UNL     1      24.117  50.219  -0.104  1.00  0.00     0.045 C 
HETATM   10  C14 UNL     1      23.669  51.665   0.147  1.00  0.00     0.039 C 
HETATM   11  C15 UNL     1      23.407  49.792  -1.390  1.00  0.00     0.039 C 
HETATM   12  C16 UNL     1      23.621  49.406   1.044  1.00  0.00     0.083 C 
BRANCH   4  13
HETATM   13  O1  UNL     1      24.012  47.214   0.172  1.00  0.00    -0.377 OA
ATOM     14  H1  UNL     1      23.330  46.635   0.489  1.00  0.00     0.211 HD
ENDBRANCH   4  13
BRANCH   8  15
HETATM   15  S1  UNL     1      26.338  51.103  -1.457  1.00  0.00     0.120 S 
HETATM   16  O3  UNL     1      27.605  51.669  -0.899  1.00  0.00    -0.235 OA
BRANCH  15  17
HETATM   17  C7  UNL     1      25.612  52.514  -1.705  1.00  0.00     0.141 C 
BRANCH  17  18
HETATM   18  C8  UNL     1      25.359  53.087  -2.996  1.00  0.00    -0.028 A 
HETATM   19  C9  UNL     1      26.440  54.192  -3.245  1.00  0.00     0.016 C 
HETATM   20  C10 UNL     1      25.154  52.294  -4.235  1.00  0.00     0.015 A 
HETATM   21  C11 UNL     1      24.136  53.335  -3.713  1.00  0.00    -0.009 A 
HETATM   22  C12 UNL     1      22.779  52.818  -3.528  1.00  0.00     0.011 C 
ENDBRANCH  17  18
ENDBRANCH  15  17
ENDBRANCH   8  15
ENDBRANCH   3   4
TORSDOF 5
ENDMDL
MODEL 4
REMARK VINA RESULT: -6.320819943      1.921      2.703
REMARK  5 active torsions:
REMARK  status: ('A' for Active; 'I' for Inactive)
REMARK    1  A    between atoms: C3_3  and  C4_4 
REMARK    2  A    between atoms: C4_4  and  O1_5 
REMARK    3  A    between atoms: N1_10  and  S1_11 
REMARK    4  A    between atoms: S1_11  and  C7_13 
REMARK    5  A    between atoms: C7_13  and  C8_14 
ROOT
HETATM    1  C1  UNL     1      22.610  46.251   4.634  1.00  0.00     0.112 C 
HETATM    2  C2  UNL     1      23.218  46.890   3.454  1.00  0.00    -0.108 C 
HETATM    3  C3  UNL     1      23.708  47.413   2.477  1.00  0.00    -0.068 C 
ENDROOT
BRANCH   3   4
HETATM    4  C4  UNL     1      24.295  48.030   1.286  1.00  0.00     0.131 C 
HETATM    5  C5  UNL     1      25.784  48.132   1.512  1.00  0.00     0.155 C 
HETATM    6  C6  UNL     1      26.404  49.182   0.665  1.00  0.00     0.236 C 
HETATM    7  O2  UNL     1      27.665  49.268   0.714  1.00  0.00    -0.272 OA
HETATM    8  N1  UNL     1      25.650  50.055  -0.160  1.00  0.00    -0.258 N 
HETATM    9  C13 UNL     1      24.208  50.164  -0.042  1.00  0.00     0.045 C 
HETATM   10  C14 UNL     1      23.791  51.621   0.201  1.00  0.00     0.039 C 
HETATM   11  C15 UNL     1      23.528  49.761  -1.352  1.00  0.00     0.039 C 
HETATM   12  C16 UNL     1      23.655  49.361   1.085  1.00  0.00     0.083 C 
BRANCH   4  13
HETATM   13  O1  UNL     1      24.014  47.163   0.217  1.00  0.00    -0.377 OA
ATOM     14  H1  UNL     1      24.626  46.440   0.293  1.00  0.00     0.211 HD
ENDBRANCH   4  13
BRANCH   8  15
HETATM   15  S1  UNL     1      26.493  50.994  -1.321  1.00  0.00     0.120 S 
HETATM   16  O3  UNL     1      27.644  51.691  -0.668  1.00  0.00    -0.235 OA
BRANCH  15  17
HETATM   17  C7  UNL     1      25.703  52.325  -1.747  1.00  0.00     0.141 C 
BRANCH  17  18
HETATM   18  C8  UNL     1      25.373  52.684  -3.096  1.00  0.00    -0.028 A 
HETATM   19  C9  UNL     1      25.667  51.442  -4.003  1.00  0.00     0.016 C 
HETATM   20  C10 UNL     1      24.091  53.313  -3.503  1.00  0.00     0.015 A 
HETATM   21  C11 UNL     1      25.475  53.929  -3.810  1.00  0.00    -0.009 A 
HETATM   22  C12 UNL     1      25.645  55.306  -3.343  1.00  0.00     0.011 C 
ENDBRANCH  17  18
ENDBRANCH  15  17
ENDBRANCH   8  15
ENDBRANCH   3   4
TORSDOF 5
ENDMDL
MODEL 5
REMARK VINA RESULT: -6.019096606      1.891      6.804
REMARK  5 active torsions:
REMARK  status: ('A' for Active; 'I' for Inactive)
REMARK    1  A    between atoms: C3_3  and  C4_4 
REMARK    2  A    between atoms: C4_4  and  O1_5 
REMARK    3  A    between atoms: N1_10  and  S1_11 
REMARK    4  A    between atoms: S1_11  and  C7_13 
REMARK    5  A    between atoms: C7_13  and  C8_14 
ROOT
HETATM    1  C1  UNL     1      31.200  50.422  -6.375  1.00  0.00     0.112 C 
HETATM    2  C2  UNL     1      30.331  50.781  -5.240  1.00  0.00    -0.108 C 
HETATM    3  C3  UNL     1      29.625  51.086  -4.304  1.00  0.00    -0.068 C 
ENDROOT
BRANCH   3   4
HETATM    4  C4  UNL     1      28.787  51.454  -3.162  1.00  0.00     0.131 C 
HETATM    5  C5  UNL     1      29.171  50.560  -2.007  1.00  0.00     0.155 C 
HETATM    6  C6  UNL     1      28.084  50.453  -1.002  1.00  0.00     0.236 C 
HETATM    7  O2  UNL     1      28.357  49.806   0.050  1.00  0.00    -0.272 OA
HETATM    8  N1  UNL     1      26.801  51.031  -1.185  1.00  0.00    -0.258 N 
HETATM    9  C13 UNL     1      26.370  51.543  -2.471  1.00  0.00     0.045 C 
HETATM   10  C14 UNL     1      25.053  50.884  -2.905  1.00  0.00     0.039 C 
HETATM   11  C15 UNL     1      26.063  53.039  -2.381  1.00  0.00     0.039 C 
HETATM   12  C16 UNL     1      27.359  51.293  -3.558  1.00  0.00     0.083 C 
BRANCH   4  13
HETATM   13  O1  UNL     1      29.087  52.795  -2.871  1.00  0.00    -0.377 OA
ATOM     14  H1  UNL     1      29.028  53.265  -3.694  1.00  0.00     0.211 HD
ENDBRANCH   4  13
BRANCH   8  15
HETATM   15  S1  UNL     1      25.756  51.114   0.171  1.00  0.00     0.120 S 
HETATM   16  O3  UNL     1      26.559  51.295   1.420  1.00  0.00    -0.235 OA
BRANCH  15  17
HETATM   17  C7  UNL     1      25.131  49.690   0.571  1.00  0.00     0.141 C 
BRANCH  17  18
HETATM   18  C8  UNL     1      23.731  49.376   0.551  1.00  0.00    -0.028 A 
HETATM   19  C9  UNL     1      22.957  50.686   0.186  1.00  0.00     0.016 C 
HETATM   20  C10 UNL     1      23.145  48.224  -0.179  1.00  0.00     0.015 A 
HETATM   21  C11 UNL     1      22.941  48.464   1.335  1.00  0.00    -0.009 A 
HETATM   22  C12 UNL     1      23.320  47.334   2.186  1.00  0.00     0.011 C 
ENDBRANCH  17  18
ENDBRANCH  15  17
ENDBRANCH   8  15
ENDBRANCH   3   4
TORSDOF 5
ENDMDL
