MODEL 1
REMARK VINA RESULT: -7.956710640      0.000      0.000
REMARK  11 active torsions:
REMARK  status: ('A' for Active; 'I' for Inactive)
REMARK    1  A    between atoms: C5_5  and  C6_6 
REMARK    2  A    between atoms: C6_6  and  N1_7 
REMARK       I    between atoms: N1_7  and  C7_9 
REMARK    3  A    between atoms: C7_9  and  C8_11 
REMARK    4  A    between atoms: C8_11  and  C9_12 
REMARK    5  A    between atoms: C8_11  and  N2_16 
REMARK    6  A    between atoms: C9_12  and  C10_13 
REMARK    7  A    between atoms: N2_16  and  C13_18 
REMARK    8  A    between atoms: C13_18  and  C14_20 
REMARK    9  A    between atoms: N3_23  and  C17_24 
REMARK   10  A    between atoms: C17_24  and  C18_25 
REMARK       I    between atoms: C18_25  and  N4_27 
REMARK   11  A    between atoms: N4_27  and  C19_29 
ROOT
HETATM    1  N2  UNL     1      33.576 -34.332   1.350  1.00  0.00    -0.371 N 
ATOM      2  H2  UNL     1      34.427 -34.651   1.811  1.00  0.00     0.161 HD
ENDROOT
BRANCH   1   3
HETATM    3  C8  UNL     1      32.348 -34.221   2.156  1.00  0.00     0.174 C 
BRANCH   3   4
HETATM    4  C7  UNL     1      31.587 -33.033   1.591  1.00  0.00     0.240 C 
HETATM    5  N1  UNL     1      31.974 -31.711   1.763  1.00  0.00    -0.359 N 
ATOM      6  H1  UNL     1      32.818 -31.587   2.322  1.00  0.00     0.162 HD
HETATM    7  O1  UNL     1      30.532 -33.291   0.915  1.00  0.00    -0.271 OA
BRANCH   5   8
HETATM    8  C6  UNL     1      31.400 -30.507   1.295  1.00  0.00     0.127 C 
BRANCH   8   9
HETATM    9  C5  UNL     1      32.203 -29.696   0.383  1.00  0.00     0.003 C 
HETATM   10  C4  UNL     1      31.286 -28.890  -0.538  1.00  0.00     0.006 C 
HETATM   11  C3  UNL     1      32.029 -27.675  -0.990  1.00  0.00     0.005 C 
HETATM   12  C2  UNL     1      33.421 -28.005  -1.415  1.00  0.00    -0.019 C 
HETATM   13  C1  UNL     1      33.353 -28.859  -2.674  1.00  0.00     0.010 C 
HETATM   14  C28 UNL     1      34.261 -28.644  -0.339  1.00  0.00     0.005 C 
HETATM   15  C27 UNL     1      33.314 -28.854   0.869  1.00  0.00     0.006 C 
ENDBRANCH   8   9
ENDBRANCH   5   8
ENDBRANCH   3   4
BRANCH   3  16
HETATM   16  C9  UNL     1      31.550 -35.466   1.962  1.00  0.00     0.039 C 
BRANCH  16  17
HETATM   17  C10 UNL     1      30.588 -35.922   2.947  1.00  0.00    -0.012 A 
HETATM   18  C11 UNL     1      30.738 -35.934   4.407  1.00  0.00     0.005 A 
HETATM   19  C12 UNL     1      30.924 -37.234   3.686  1.00  0.00     0.005 A 
ENDBRANCH  16  17
ENDBRANCH   3  16
ENDBRANCH   1   3
BRANCH   1  20
HETATM   20  C13 UNL     1      33.640 -34.020  -0.029  1.00  0.00     0.078 C 
HETATM   21  S1  UNL     1      32.981 -35.031  -1.114  1.00  0.00    -0.065 SA
BRANCH  20  22
HETATM   22  C14 UNL     1      34.334 -32.778  -0.510  1.00  0.00     0.050 C 
HETATM   23  C15 UNL     1      33.970 -32.452  -1.920  1.00  0.00     0.042 C 
HETATM   24  C16 UNL     1      35.171 -32.004  -2.738  1.00  0.00     0.273 C 
HETATM   25  N3  UNL     1      36.012 -31.102  -2.028  1.00  0.00     0.097 N 
HETATM   26  C25 UNL     1      36.469 -31.639  -0.759  1.00  0.00     0.273 C 
HETATM   27  C26 UNL     1      35.837 -32.951  -0.419  1.00  0.00     0.042 C 
BRANCH  25  28
HETATM   28  C17 UNL     1      37.126 -30.578  -2.734  1.00  0.00     0.374 C 
BRANCH  28  29
HETATM   29  C18 UNL     1      37.181 -29.114  -2.865  1.00  0.00     0.246 C 
HETATM   30  O2  UNL     1      37.588 -28.348  -1.936  1.00  0.00    -0.272 OA
HETATM   31  N4  UNL     1      36.752 -28.558  -4.100  1.00  0.00    -0.355 N 
ATOM     32  H4  UNL     1      36.424 -29.162  -4.854  1.00  0.00     0.162 HD
BRANCH  31  33
HETATM   33  C19 UNL     1      36.788 -27.131  -4.272  1.00  0.00     0.084 C 
HETATM   34  C20 UNL     1      37.430 -26.822  -5.606  1.00  0.00     0.025 C 
HETATM   35  C21 UNL     1      36.523 -27.100  -6.759  1.00  0.00     0.002 C 
HETATM   36  C22 UNL     1      35.293 -26.229  -6.615  1.00  0.00     0.000 C 
HETATM   37  C23 UNL     1      34.581 -26.632  -5.353  1.00  0.00     0.002 C 
HETATM   38  C24 UNL     1      35.440 -26.484  -4.124  1.00  0.00     0.025 C 
ENDBRANCH  31  33
ENDBRANCH  28  29
ENDBRANCH  25  28
ENDBRANCH  20  22
ENDBRANCH   1  20
TORSDOF 11
ENDMDL
MODEL 2
REMARK VINA RESULT: -7.836620101      0.898      1.249
REMARK  11 active torsions:
REMARK  status: ('A' for Active; 'I' for Inactive)
REMARK    1  A    between atoms: C5_5  and  C6_6 
REMARK    2  A    between atoms: C6_6  and  N1_7 
REMARK       I    between atoms: N1_7  and  C7_9 
REMARK    3  A    between atoms: C7_9  and  C8_11 
REMARK    4  A    between atoms: C8_11  and  C9_12 
REMARK    5  A    between atoms: C8_11  and  N2_16 
REMARK    6  A    between atoms: C9_12  and  C10_13 
REMARK    7  A    between atoms: N2_16  and  C13_18 
REMARK    8  A    between atoms: C13_18  and  C14_20 
REMARK    9  A    between atoms: N3_23  and  C17_24 
REMARK   10  A    between atoms: C17_24  and  C18_25 
REMARK       I    between atoms: C18_25  and  N4_27 
REMARK   11  A    between atoms: N4_27  and  C19_29 
ROOT
HETATM    1  N2  UNL     1      32.914 -34.967   0.154  1.00  0.00    -0.371 N 
ATOM      2  H2  UNL     1      32.183 -35.427  -0.388  1.00  0.00     0.161 HD
ENDROOT
BRANCH   1   3
HETATM    3  C8  UNL     1      32.596 -34.537   1.526  1.00  0.00     0.174 C 
BRANCH   3   4
HETATM    4  C7  UNL     1      31.646 -33.359   1.381  1.00  0.00     0.240 C 
HETATM    5  N1  UNL     1      32.028 -32.032   1.532  1.00  0.00    -0.359 N 
ATOM      6  H1  UNL     1      33.011 -31.899   1.769  1.00  0.00     0.162 HD
HETATM    7  O1  UNL     1      30.428 -33.629   1.099  1.00  0.00    -0.271 OA
BRANCH   5   8
HETATM    8  C6  UNL     1      31.287 -30.834   1.415  1.00  0.00     0.127 C 
BRANCH   8   9
HETATM    9  C5  UNL     1      31.737 -29.868   0.415  1.00  0.00     0.003 C 
HETATM   10  C4  UNL     1      32.866 -30.473  -0.419  1.00  0.00     0.006 C 
HETATM   11  C3  UNL     1      32.883 -29.792  -1.748  1.00  0.00     0.005 C 
HETATM   12  C2  UNL     1      32.758 -28.311  -1.612  1.00  0.00    -0.019 C 
HETATM   13  C1  UNL     1      34.015 -27.780  -0.935  1.00  0.00     0.010 C 
HETATM   14  C28 UNL     1      31.502 -27.858  -0.913  1.00  0.00     0.005 C 
HETATM   15  C27 UNL     1      30.782 -29.150  -0.453  1.00  0.00     0.006 C 
ENDBRANCH   8   9
ENDBRANCH   5   8
ENDBRANCH   3   4
BRANCH   3  16
HETATM   16  C9  UNL     1      31.899 -35.660   2.216  1.00  0.00     0.039 C 
BRANCH  16  17
HETATM   17  C10 UNL     1      31.512 -35.581   3.612  1.00  0.00    -0.012 A 
HETATM   18  C11 UNL     1      31.462 -36.674   4.591  1.00  0.00     0.005 A 
HETATM   19  C12 UNL     1      30.163 -36.227   3.993  1.00  0.00     0.005 A 
ENDBRANCH  16  17
ENDBRANCH   3  16
ENDBRANCH   1   3
BRANCH   1  20
HETATM   20  C13 UNL     1      34.178 -34.777  -0.455  1.00  0.00     0.078 C 
HETATM   21  S1  UNL     1      35.180 -36.042  -0.636  1.00  0.00    -0.065 SA
BRANCH  20  22
HETATM   22  C14 UNL     1      34.620 -33.418  -0.914  1.00  0.00     0.050 C 
HETATM   23  C15 UNL     1      34.375 -33.220  -2.373  1.00  0.00     0.042 C 
HETATM   24  C16 UNL     1      35.535 -32.519  -3.064  1.00  0.00     0.273 C 
HETATM   25  N3  UNL     1      36.043 -31.427  -2.305  1.00  0.00     0.097 N 
HETATM   26  C25 UNL     1      36.444 -31.810  -0.965  1.00  0.00     0.273 C 
HETATM   27  C26 UNL     1      36.097 -33.226  -0.633  1.00  0.00     0.042 C 
BRANCH  25  28
HETATM   28  C17 UNL     1      37.086 -30.669  -2.899  1.00  0.00     0.374 C 
BRANCH  28  29
HETATM   29  C18 UNL     1      36.958 -29.207  -2.809  1.00  0.00     0.246 C 
HETATM   30  O2  UNL     1      37.396 -28.530  -1.827  1.00  0.00    -0.272 OA
HETATM   31  N4  UNL     1      36.310 -28.546  -3.887  1.00  0.00    -0.355 N 
ATOM     32  H4  UNL     1      35.954 -29.078  -4.682  1.00  0.00     0.162 HD
BRANCH  31  33
HETATM   33  C19 UNL     1      36.161 -27.116  -3.841  1.00  0.00     0.084 C 
HETATM   34  C20 UNL     1      37.279 -26.489  -4.645  1.00  0.00     0.025 C 
HETATM   35  C21 UNL     1      37.073 -26.625  -6.118  1.00  0.00     0.002 C 
HETATM   36  C22 UNL     1      35.780 -25.926  -6.481  1.00  0.00     0.000 C 
HETATM   37  C23 UNL     1      34.653 -26.637  -5.785  1.00  0.00     0.002 C 
HETATM   38  C24 UNL     1      34.805 -26.648  -4.286  1.00  0.00     0.025 C 
ENDBRANCH  31  33
ENDBRANCH  28  29
ENDBRANCH  25  28
ENDBRANCH  20  22
ENDBRANCH   1  20
TORSDOF 11
ENDMDL
MODEL 3
REMARK VINA RESULT: -7.733807527      1.354      1.716
REMARK  11 active torsions:
REMARK  status: ('A' for Active; 'I' for Inactive)
REMARK    1  A    between atoms: C5_5  and  C6_6 
REMARK    2  A    between atoms: C6_6  and  N1_7 
REMARK       I    between atoms: N1_7  and  C7_9 
REMARK    3  A    between atoms: C7_9  and  C8_11 
REMARK    4  A    between atoms: C8_11  and  C9_12 
REMARK    5  A    between atoms: C8_11  and  N2_16 
REMARK    6  A    between atoms: C9_12  and  C10_13 
REMARK    7  A    between atoms: N2_16  and  C13_18 
REMARK    8  A    between atoms: C13_18  and  C14_20 
REMARK    9  A    between atoms: N3_23  and  C17_24 
REMARK   10  A    between atoms: C17_24  and  C18_25 
REMARK       I    between atoms: C18_25  and  N4_27 
REMARK   11  A    between atoms: N4_27  and  C19_29 
ROOT
HETATM    1  N2  UNL     1      33.048 -35.239   0.302  1.00  0.00    -0.371 N 
ATOM      2  H2  UNL     1      32.340 -35.749  -0.224  1.00  0.00     0.161 HD
ENDROOT
BRANCH   1   3
HETATM    3  C8  UNL     1      32.692 -34.734   1.639  1.00  0.00     0.174 C 
BRANCH   3   4
HETATM    4  C7  UNL     1      31.949 -33.430   1.405  1.00  0.00     0.240 C 
HETATM    5  N1  UNL     1      32.471 -32.176   1.697  1.00  0.00    -0.359 N 
ATOM      6  H1  UNL     1      33.406 -32.192   2.105  1.00  0.00     0.162 HD
HETATM    7  O1  UNL     1      30.775 -33.515   0.904  1.00  0.00    -0.271 OA
BRANCH   5   8
HETATM    8  C6  UNL     1      31.929 -30.882   1.526  1.00  0.00     0.127 C 
BRANCH   8   9
HETATM    9  C5  UNL     1      32.421 -30.098   0.396  1.00  0.00     0.003 C 
HETATM   10  C4  UNL     1      33.410 -29.042   0.889  1.00  0.00     0.006 C 
HETATM   11  C3  UNL     1      34.329 -28.700  -0.238  1.00  0.00     0.005 C 
HETATM   12  C2  UNL     1      33.585 -28.495  -1.516  1.00  0.00    -0.019 C 
HETATM   13  C1  UNL     1      32.724 -27.247  -1.379  1.00  0.00     0.010 C 
HETATM   14  C28 UNL     1      32.785 -29.691  -1.963  1.00  0.00     0.005 C 
HETATM   15  C27 UNL     1      32.925 -30.743  -0.834  1.00  0.00     0.006 C 
ENDBRANCH   8   9
ENDBRANCH   5   8
ENDBRANCH   3   4
BRANCH   3  16
HETATM   16  C9  UNL     1      31.779 -35.723   2.282  1.00  0.00     0.039 C 
BRANCH  16  17
HETATM   17  C10 UNL     1      31.407 -35.626   3.681  1.00  0.00    -0.012 A 
HETATM   18  C11 UNL     1      31.347 -36.710   4.669  1.00  0.00     0.005 A 
HETATM   19  C12 UNL     1      30.050 -36.246   4.078  1.00  0.00     0.005 A 
ENDBRANCH  16  17
ENDBRANCH   3  16
ENDBRANCH   1   3
BRANCH   1  20
HETATM   20  C13 UNL     1      34.320 -35.056  -0.294  1.00  0.00     0.078 C 
HETATM   21  S1  UNL     1      35.240 -36.349  -0.636  1.00  0.00    -0.065 SA
BRANCH  20  22
HETATM   22  C14 UNL     1      34.844 -33.681  -0.590  1.00  0.00     0.050 C 
HETATM   23  C15 UNL     1      35.442 -33.600  -1.955  1.00  0.00     0.042 C 
HETATM   24  C16 UNL     1      36.736 -32.802  -1.973  1.00  0.00     0.273 C 
HETATM   25  N3  UNL     1      36.657 -31.613  -1.195  1.00  0.00     0.097 N 
HETATM   26  C25 UNL     1      36.268 -31.865   0.181  1.00  0.00     0.273 C 
HETATM   27  C26 UNL     1      35.896 -33.292   0.430  1.00  0.00     0.042 C 
BRANCH  25  28
HETATM   28  C17 UNL     1      37.797 -30.768  -1.203  1.00  0.00     0.374 C 
BRANCH  28  29
HETATM   29  C18 UNL     1      38.001 -29.966  -2.419  1.00  0.00     0.246 C 
HETATM   30  O2  UNL     1      38.885 -30.238  -3.291  1.00  0.00    -0.272 OA
HETATM   31  N4  UNL     1      37.155 -28.839  -2.601  1.00  0.00    -0.355 N 
ATOM     32  H4  UNL     1      36.441 -28.609  -1.909  1.00  0.00     0.162 HD
BRANCH  31  33
HETATM   33  C19 UNL     1      37.320 -28.025  -3.775  1.00  0.00     0.084 C 
HETATM   34  C20 UNL     1      36.307 -28.462  -4.810  1.00  0.00     0.025 C 
HETATM   35  C21 UNL     1      34.923 -28.002  -4.489  1.00  0.00     0.002 C 
HETATM   36  C22 UNL     1      34.926 -26.489  -4.441  1.00  0.00     0.000 C 
HETATM   37  C23 UNL     1      35.832 -26.059  -3.320  1.00  0.00     0.002 C 
HETATM   38  C24 UNL     1      37.246 -26.552  -3.489  1.00  0.00     0.025 C 
ENDBRANCH  31  33
ENDBRANCH  28  29
ENDBRANCH  25  28
ENDBRANCH  20  22
ENDBRANCH   1  20
TORSDOF 11
ENDMDL
MODEL 4
REMARK VINA RESULT: -7.700286784      0.977      1.518
REMARK  11 active torsions:
REMARK  status: ('A' for Active; 'I' for Inactive)
REMARK    1  A    between atoms: C5_5  and  C6_6 
REMARK    2  A    between atoms: C6_6  and  N1_7 
REMARK       I    between atoms: N1_7  and  C7_9 
REMARK    3  A    between atoms: C7_9  and  C8_11 
REMARK    4  A    between atoms: C8_11  and  C9_12 
REMARK    5  A    between atoms: C8_11  and  N2_16 
REMARK    6  A    between atoms: C9_12  and  C10_13 
REMARK    7  A    between atoms: N2_16  and  C13_18 
REMARK    8  A    between atoms: C13_18  and  C14_20 
REMARK    9  A    between atoms: N3_23  and  C17_24 
REMARK   10  A    between atoms: C17_24  and  C18_25 
REMARK       I    between atoms: C18_25  and  N4_27 
REMARK   11  A    between atoms: N4_27  and  C19_29 
ROOT
HETATM    1  N2  UNL     1      33.566 -34.205   1.390  1.00  0.00    -0.371 N 
ATOM      2  H2  UNL     1      34.399 -34.498   1.899  1.00  0.00     0.161 HD
ENDROOT
BRANCH   1   3
HETATM    3  C8  UNL     1      32.302 -34.082   2.136  1.00  0.00     0.174 C 
BRANCH   3   4
HETATM    4  C7  UNL     1      31.596 -32.866   1.559  1.00  0.00     0.240 C 
HETATM    5  N1  UNL     1      32.059 -31.564   1.694  1.00  0.00    -0.359 N 
ATOM      6  H1  UNL     1      32.920 -31.476   2.234  1.00  0.00     0.162 HD
HETATM    7  O1  UNL     1      30.514 -33.079   0.911  1.00  0.00    -0.271 OA
BRANCH   5   8
HETATM    8  C6  UNL     1      31.543 -30.341   1.211  1.00  0.00     0.127 C 
BRANCH   8   9
HETATM    9  C5  UNL     1      32.381 -29.584   0.283  1.00  0.00     0.003 C 
HETATM   10  C4  UNL     1      31.502 -28.726  -0.627  1.00  0.00     0.006 C 
HETATM   11  C3  UNL     1      32.311 -27.560  -1.095  1.00  0.00     0.005 C 
HETATM   12  C2  UNL     1      33.674 -27.976  -1.539  1.00  0.00    -0.019 C 
HETATM   13  C1  UNL     1      33.535 -28.829  -2.793  1.00  0.00     0.010 C 
HETATM   14  C28 UNL     1      34.488 -28.663  -0.473  1.00  0.00     0.005 C 
HETATM   15  C27 UNL     1      33.549 -28.810   0.750  1.00  0.00     0.006 C 
ENDBRANCH   8   9
ENDBRANCH   5   8
ENDBRANCH   3   4
BRANCH   3  16
HETATM   16  C9  UNL     1      31.488 -35.305   1.875  1.00  0.00     0.039 C 
BRANCH  16  17
HETATM   17  C10 UNL     1      30.544 -35.820   2.850  1.00  0.00    -0.012 A 
HETATM   18  C11 UNL     1      30.726 -35.929   4.302  1.00  0.00     0.005 A 
HETATM   19  C12 UNL     1      30.890 -37.180   3.493  1.00  0.00     0.005 A 
ENDBRANCH  16  17
ENDBRANCH   3  16
ENDBRANCH   1   3
BRANCH   1  20
HETATM   20  C13 UNL     1      33.689 -33.937   0.005  1.00  0.00     0.078 C 
HETATM   21  S1  UNL     1      33.002 -34.940  -1.071  1.00  0.00    -0.065 SA
BRANCH  20  22
HETATM   22  C14 UNL     1      34.469 -32.753  -0.488  1.00  0.00     0.050 C 
HETATM   23  C15 UNL     1      34.148 -32.433  -1.910  1.00  0.00     0.042 C 
HETATM   24  C16 UNL     1      35.388 -32.082  -2.718  1.00  0.00     0.273 C 
HETATM   25  N3  UNL     1      36.276 -31.222  -2.011  1.00  0.00     0.097 N 
HETATM   26  C25 UNL     1      36.678 -31.761  -0.725  1.00  0.00     0.273 C 
HETATM   27  C26 UNL     1      35.956 -33.022  -0.369  1.00  0.00     0.042 C 
BRANCH  25  28
HETATM   28  C17 UNL     1      37.432 -30.785  -2.709  1.00  0.00     0.374 C 
BRANCH  28  29
HETATM   29  C18 UNL     1      37.204 -29.846  -3.818  1.00  0.00     0.246 C 
HETATM   30  O2  UNL     1      37.050 -30.217  -5.023  1.00  0.00    -0.272 OA
HETATM   31  N4  UNL     1      37.161 -28.463  -3.495  1.00  0.00    -0.355 N 
ATOM     32  H4  UNL     1      37.283 -28.151  -2.531  1.00  0.00     0.162 HD
BRANCH  31  33
HETATM   33  C19 UNL     1      36.942 -27.508  -4.548  1.00  0.00     0.084 C 
HETATM   34  C20 UNL     1      35.907 -26.507  -4.084  1.00  0.00     0.025 C 
HETATM   35  C21 UNL     1      36.454 -25.532  -3.093  1.00  0.00     0.002 C 
HETATM   36  C22 UNL     1      37.584 -24.771  -3.754  1.00  0.00     0.000 C 
HETATM   37  C23 UNL     1      38.673 -25.752  -4.093  1.00  0.00     0.002 C 
HETATM   38  C24 UNL     1      38.207 -26.846  -5.018  1.00  0.00     0.025 C 
ENDBRANCH  31  33
ENDBRANCH  28  29
ENDBRANCH  25  28
ENDBRANCH  20  22
ENDBRANCH   1  20
TORSDOF 11
ENDMDL
MODEL 5
REMARK VINA RESULT: -7.688959923      1.428      1.819
REMARK  11 active torsions:
REMARK  status: ('A' for Active; 'I' for Inactive)
REMARK    1  A    between atoms: C5_5  and  C6_6 
REMARK    2  A    between atoms: C6_6  and  N1_7 
REMARK       I    between atoms: N1_7  and  C7_9 
REMARK    3  A    between atoms: C7_9  and  C8_11 
REMARK    4  A    between atoms: C8_11  and  C9_12 
REMARK    5  A    between atoms: C8_11  and  N2_16 
REMARK    6  A    between atoms: C9_12  and  C10_13 
REMARK    7  A    between atoms: N2_16  and  C13_18 
REMARK    8  A    between atoms: C13_18  and  C14_20 
REMARK    9  A    between atoms: N3_23  and  C17_24 
REMARK   10  A    between atoms: C17_24  and  C18_25 
REMARK       I    between atoms: C18_25  and  N4_27 
REMARK   11  A    between atoms: N4_27  and  C19_29 
ROOT
HETATM    1  N2  UNL     1      33.067 -35.012   0.457  1.00  0.00    -0.371 N 
ATOM      2  H2  UNL     1      32.435 -35.544  -0.141  1.00  0.00     0.161 HD
ENDROOT
BRANCH   1   3
HETATM    3  C8  UNL     1      32.559 -34.532   1.753  1.00  0.00     0.174 C 
BRANCH   3   4
HETATM    4  C7  UNL     1      31.750 -33.283   1.445  1.00  0.00     0.240 C 
HETATM    5  N1  UNL     1      32.227 -31.989   1.612  1.00  0.00    -0.359 N 
ATOM      6  H1  UNL     1      33.177 -31.933   1.981  1.00  0.00     0.162 HD
HETATM    7  O1  UNL     1      30.564 -33.456   1.001  1.00  0.00    -0.271 OA
BRANCH   5   8
HETATM    8  C6  UNL     1      31.623 -30.737   1.359  1.00  0.00     0.127 C 
BRANCH   8   9
HETATM    9  C5  UNL     1      32.314 -29.837   0.438  1.00  0.00     0.003 C 
HETATM   10  C4  UNL     1      31.296 -29.117  -0.445  1.00  0.00     0.006 C 
HETATM   11  C3  UNL     1      31.899 -27.828  -0.899  1.00  0.00     0.005 C 
HETATM   12  C2  UNL     1      33.305 -28.009  -1.365  1.00  0.00    -0.019 C 
HETATM   13  C1  UNL     1      33.289 -28.850  -2.635  1.00  0.00     0.010 C 
HETATM   14  C28 UNL     1      34.235 -28.574  -0.322  1.00  0.00     0.005 C 
HETATM   15  C27 UNL     1      33.348 -28.893   0.908  1.00  0.00     0.006 C 
ENDBRANCH   8   9
ENDBRANCH   5   8
ENDBRANCH   3   4
BRANCH   3  16
HETATM   16  C9  UNL     1      31.663 -35.582   2.319  1.00  0.00     0.039 C 
BRANCH  16  17
HETATM   17  C10 UNL     1      31.268 -35.582   3.715  1.00  0.00    -0.012 A 
HETATM   18  C11 UNL     1      31.284 -36.713   4.651  1.00  0.00     0.005 A 
HETATM   19  C12 UNL     1      29.961 -36.326   4.062  1.00  0.00     0.005 A 
ENDBRANCH  16  17
ENDBRANCH   3  16
ENDBRANCH   1   3
BRANCH   1  20
HETATM   20  C13 UNL     1      34.384 -34.776  -0.006  1.00  0.00     0.078 C 
HETATM   21  S1  UNL     1      35.175 -35.945  -0.809  1.00  0.00    -0.065 SA
BRANCH  20  22
HETATM   22  C14 UNL     1      35.075 -33.469   0.258  1.00  0.00     0.050 C 
HETATM   23  C15 UNL     1      34.744 -32.450  -0.781  1.00  0.00     0.042 C 
HETATM   24  C16 UNL     1      35.961 -31.643  -1.207  1.00  0.00     0.273 C 
HETATM   25  N3  UNL     1      36.771 -31.252  -0.105  1.00  0.00     0.097 N 
HETATM   26  C25 UNL     1      37.202 -32.376   0.706  1.00  0.00     0.273 C 
HETATM   27  C26 UNL     1      36.577 -33.669   0.288  1.00  0.00     0.042 C 
BRANCH  25  28
HETATM   28  C17 UNL     1      37.897 -30.438  -0.398  1.00  0.00     0.374 C 
BRANCH  28  29
HETATM   29  C18 UNL     1      38.025 -29.986  -1.792  1.00  0.00     0.246 C 
HETATM   30  O2  UNL     1      38.592 -30.675  -2.697  1.00  0.00    -0.272 OA
HETATM   31  N4  UNL     1      37.481 -28.713  -2.112  1.00  0.00    -0.355 N 
ATOM     32  H4  UNL     1      37.023 -28.150  -1.394  1.00  0.00     0.162 HD
BRANCH  31  33
HETATM   33  C19 UNL     1      37.585 -28.230  -3.462  1.00  0.00     0.084 C 
HETATM   34  C20 UNL     1      36.269 -27.594  -3.849  1.00  0.00     0.025 C 
HETATM   35  C21 UNL     1      36.068 -26.257  -3.215  1.00  0.00     0.002 C 
HETATM   36  C22 UNL     1      37.186 -25.343  -3.672  1.00  0.00     0.000 C 
HETATM   37  C23 UNL     1      38.486 -25.909  -3.169  1.00  0.00     0.002 C 
HETATM   38  C24 UNL     1      38.750 -27.304  -3.671  1.00  0.00     0.025 C 
ENDBRANCH  31  33
ENDBRANCH  28  29
ENDBRANCH  25  28
ENDBRANCH  20  22
ENDBRANCH   1  20
TORSDOF 11
ENDMDL
