MODEL 1
REMARK VINA RESULT: -7.696534224      0.000      0.000
REMARK  10 active torsions:
REMARK  status: ('A' for Active; 'I' for Inactive)
REMARK    1  A    between atoms: C4_6  and  C5_7 
REMARK    2  A    between atoms: C6_8  and  C7_9 
REMARK    3  A    between atoms: C7_9  and  C8_10 
REMARK    4  A    between atoms: C8_10  and  C10_12 
REMARK    5  A    between atoms: C10_12  and  O3_13 
REMARK    6  A    between atoms: C10_12  and  C11_15 
REMARK    7  A    between atoms: C12_17  and  C13_18 
REMARK    8  A    between atoms: C13_18  and  O5_19 
REMARK    9  A    between atoms: C13_18  and  C14_21 
REMARK   10  A    between atoms: C14_21  and  C15_22 
ROOT
HETATM    1  C1  UNL     1     -11.864  46.689   1.559  1.00  0.00     0.025 C 
HETATM    2  C2  UNL     1     -12.349  45.903   0.647  1.00  0.00     0.017 C 
HETATM    3  C3  UNL     1     -13.831  45.685   0.562  1.00  0.00     0.289 C 
HETATM    4  O1  UNL     1     -14.699  45.935   1.421  1.00  0.00    -0.260 OA
HETATM    5  O2  UNL     1     -14.083  45.132  -0.687  1.00  0.00    -0.307 OA
HETATM    6  C4  UNL     1     -12.929  45.367  -1.509  1.00  0.00     0.165 C 
HETATM    7  C12 UNL     1     -11.844  45.078  -0.440  1.00  0.00     0.086 C 
ENDROOT
BRANCH   7   8
HETATM    8  C13 UNL     1     -10.558  45.358  -1.059  1.00  0.00     0.130 C 
BRANCH   8   9
HETATM    9  O5  UNL     1     -10.285  46.744  -0.959  1.00  0.00    -0.395 OA
ATOM     10  H5  UNL     1     -10.889  47.222  -1.517  1.00  0.00     0.210 HD
ENDBRANCH   8   9
BRANCH   8  11
HETATM   11  C14 UNL     1      -9.348  44.610  -0.688  1.00  0.00     0.037 C 
BRANCH  11  12
HETATM   12  C15 UNL     1      -9.492  43.765   0.554  1.00  0.00    -0.012 C 
HETATM   13  C16 UNL     1      -9.232  44.515   1.816  1.00  0.00     0.005 C 
HETATM   14  C17 UNL     1      -8.217  45.591   1.748  1.00  0.00     0.000 C 
HETATM   15  C18 UNL     1      -6.787  45.137   1.704  1.00  0.00     0.000 C 
HETATM   16  C19 UNL     1      -6.493  43.885   2.428  1.00  0.00     0.000 C 
HETATM   17  C20 UNL     1      -6.518  42.622   1.661  1.00  0.00     0.000 C 
HETATM   18  C21 UNL     1      -7.237  42.632   0.350  1.00  0.00     0.000 C 
HETATM   19  C22 UNL     1      -8.712  42.469   0.464  1.00  0.00     0.005 C 
ENDBRANCH  11  12
ENDBRANCH   8  11
ENDBRANCH   7   8
BRANCH   6  20
HETATM   20  C5  UNL     1     -12.821  44.435  -2.627  1.00  0.00     0.002 C 
HETATM   21  C6  UNL     1     -13.817  44.231  -3.449  1.00  0.00    -0.028 C 
BRANCH  21  22
HETATM   22  C7  UNL     1     -15.151  44.876  -3.387  1.00  0.00     0.034 C 
BRANCH  22  23
HETATM   23  C8  UNL     1     -15.660  45.236  -4.764  1.00  0.00     0.020 C 
HETATM   24  C9  UNL     1     -16.174  44.041  -5.522  1.00  0.00     0.013 C 
BRANCH  23  25
HETATM   25  C10 UNL     1     -16.734  46.274  -4.726  1.00  0.00     0.183 C 
BRANCH  25  26
HETATM   26  O3  UNL     1     -16.316  47.508  -5.192  1.00  0.00    -0.388 OA
ATOM     27  H3  UNL     1     -16.626  48.232  -4.663  1.00  0.00     0.210 HD
ENDBRANCH  25  26
BRANCH  25  28
HETATM   28  C11 UNL     1     -17.156  46.437  -3.301  1.00  0.00     0.263 C 
HETATM   29  O4  UNL     1     -18.362  46.425  -3.091  1.00  0.00    -0.304 OA
ENDBRANCH  25  28
ENDBRANCH  23  25
ENDBRANCH  22  23
ENDBRANCH  21  22
ENDBRANCH   6  20
TORSDOF 10
ENDMDL
MODEL 2
REMARK VINA RESULT: -7.616690527      1.192      2.112
REMARK  10 active torsions:
REMARK  status: ('A' for Active; 'I' for Inactive)
REMARK    1  A    between atoms: C4_6  and  C5_7 
REMARK    2  A    between atoms: C6_8  and  C7_9 
REMARK    3  A    between atoms: C7_9  and  C8_10 
REMARK    4  A    between atoms: C8_10  and  C10_12 
REMARK    5  A    between atoms: C10_12  and  O3_13 
REMARK    6  A    between atoms: C10_12  and  C11_15 
REMARK    7  A    between atoms: C12_17  and  C13_18 
REMARK    8  A    between atoms: C13_18  and  O5_19 
REMARK    9  A    between atoms: C13_18  and  C14_21 
REMARK   10  A    between atoms: C14_21  and  C15_22 
ROOT
HETATM    1  C1  UNL     1     -11.826  47.034   1.662  1.00  0.00     0.025 C 
HETATM    2  C2  UNL     1     -12.378  46.125   0.919  1.00  0.00     0.017 C 
HETATM    3  C3  UNL     1     -13.861  46.150   0.689  1.00  0.00     0.289 C 
HETATM    4  O1  UNL     1     -14.731  46.772   1.330  1.00  0.00    -0.260 OA
HETATM    5  O2  UNL     1     -14.110  45.330  -0.404  1.00  0.00    -0.307 OA
HETATM    6  C4  UNL     1     -12.865  45.130  -1.092  1.00  0.00     0.165 C 
HETATM    7  C12 UNL     1     -11.958  44.961   0.154  1.00  0.00     0.086 C 
ENDROOT
BRANCH   7   8
HETATM    8  C13 UNL     1     -10.593  44.836  -0.332  1.00  0.00     0.130 C 
BRANCH   8   9
HETATM    9  O5  UNL     1     -10.259  45.989  -1.084  1.00  0.00    -0.395 OA
ATOM     10  H5  UNL     1      -9.673  46.535  -0.574  1.00  0.00     0.210 HD
ENDBRANCH   8   9
BRANCH   8  11
HETATM   11  C14 UNL     1      -9.480  44.524   0.576  1.00  0.00     0.037 C 
BRANCH  11  12
HETATM   12  C15 UNL     1      -8.113  44.847   0.022  1.00  0.00    -0.012 C 
HETATM   13  C16 UNL     1      -7.300  43.638  -0.295  1.00  0.00     0.005 C 
HETATM   14  C17 UNL     1      -7.502  42.459   0.579  1.00  0.00     0.000 C 
HETATM   15  C18 UNL     1      -6.878  42.543   1.942  1.00  0.00     0.000 C 
HETATM   16  C19 UNL     1      -5.628  43.321   2.025  1.00  0.00     0.000 C 
HETATM   17  C20 UNL     1      -5.726  44.746   2.402  1.00  0.00     0.000 C 
HETATM   18  C21 UNL     1      -7.061  45.403   2.257  1.00  0.00     0.000 C 
HETATM   19  C22 UNL     1      -7.369  45.855   0.873  1.00  0.00     0.005 C 
ENDBRANCH  11  12
ENDBRANCH   8  11
ENDBRANCH   7   8
BRANCH   6  20
HETATM   20  C5  UNL     1     -12.851  43.924  -1.914  1.00  0.00     0.002 C 
HETATM   21  C6  UNL     1     -13.452  43.877  -3.074  1.00  0.00    -0.028 C 
BRANCH  21  22
HETATM   22  C7  UNL     1     -14.208  44.981  -3.715  1.00  0.00     0.034 C 
BRANCH  22  23
HETATM   23  C8  UNL     1     -15.695  44.715  -3.709  1.00  0.00     0.020 C 
HETATM   24  C9  UNL     1     -16.455  45.694  -2.854  1.00  0.00     0.013 C 
BRANCH  23  25
HETATM   25  C10 UNL     1     -16.286  44.722  -5.082  1.00  0.00     0.183 C 
BRANCH  25  26
HETATM   26  O3  UNL     1     -15.496  44.079  -6.018  1.00  0.00    -0.388 OA
ATOM     27  H3  UNL     1     -14.843  44.646  -6.411  1.00  0.00     0.210 HD
ENDBRANCH  25  26
BRANCH  25  28
HETATM   28  C11 UNL     1     -16.433  46.149  -5.504  1.00  0.00     0.263 C 
HETATM   29  O4  UNL     1     -15.786  46.489  -6.487  1.00  0.00    -0.304 OA
ENDBRANCH  25  28
ENDBRANCH  23  25
ENDBRANCH  22  23
ENDBRANCH  21  22
ENDBRANCH   6  20
TORSDOF 10
ENDMDL
MODEL 3
REMARK VINA RESULT: -7.279836025      1.266      2.229
REMARK  10 active torsions:
REMARK  status: ('A' for Active; 'I' for Inactive)
REMARK    1  A    between atoms: C4_6  and  C5_7 
REMARK    2  A    between atoms: C6_8  and  C7_9 
REMARK    3  A    between atoms: C7_9  and  C8_10 
REMARK    4  A    between atoms: C8_10  and  C10_12 
REMARK    5  A    between atoms: C10_12  and  O3_13 
REMARK    6  A    between atoms: C10_12  and  C11_15 
REMARK    7  A    between atoms: C12_17  and  C13_18 
REMARK    8  A    between atoms: C13_18  and  O5_19 
REMARK    9  A    between atoms: C13_18  and  C14_21 
REMARK   10  A    between atoms: C14_21  and  C15_22 
ROOT
HETATM    1  C1  UNL     1     -11.522  47.044   2.018  1.00  0.00     0.025 C 
HETATM    2  C2  UNL     1     -11.980  46.109   1.242  1.00  0.00     0.017 C 
HETATM    3  C3  UNL     1     -13.425  46.117   0.839  1.00  0.00     0.289 C 
HETATM    4  O1  UNL     1     -14.367  46.750   1.355  1.00  0.00    -0.260 OA
HETATM    5  O2  UNL     1     -13.541  45.264  -0.250  1.00  0.00    -0.307 OA
HETATM    6  C4  UNL     1     -12.222  45.053  -0.782  1.00  0.00     0.165 C 
HETATM    7  C12 UNL     1     -11.468  44.927   0.566  1.00  0.00     0.086 C 
ENDROOT
BRANCH   7   8
HETATM    8  C13 UNL     1     -10.055  44.798   0.248  1.00  0.00     0.130 C 
BRANCH   8   9
HETATM    9  O5  UNL     1      -9.662  45.882  -0.574  1.00  0.00    -0.395 OA
ATOM     10  H5  UNL     1      -8.746  46.079  -0.414  1.00  0.00     0.210 HD
ENDBRANCH   8   9
BRANCH   8  11
HETATM   11  C14 UNL     1      -9.044  44.611   1.299  1.00  0.00     0.037 C 
BRANCH  11  12
HETATM   12  C15 UNL     1      -7.620  44.811   0.839  1.00  0.00    -0.012 C 
HETATM   13  C16 UNL     1      -6.773  43.592   0.982  1.00  0.00     0.005 C 
HETATM   14  C17 UNL     1      -7.079  42.705   2.128  1.00  0.00     0.000 C 
HETATM   15  C18 UNL     1      -6.627  43.197   3.472  1.00  0.00     0.000 C 
HETATM   16  C19 UNL     1      -5.397  44.011   3.473  1.00  0.00     0.000 C 
HETATM   17  C20 UNL     1      -5.541  45.481   3.410  1.00  0.00     0.000 C 
HETATM   18  C21 UNL     1      -6.850  46.019   2.927  1.00  0.00     0.000 C 
HETATM   19  C22 UNL     1      -6.987  46.047   1.445  1.00  0.00     0.005 C 
ENDBRANCH  11  12
ENDBRANCH   8  11
ENDBRANCH   7   8
BRANCH   6  20
HETATM   20  C5  UNL     1     -12.108  43.824  -1.560  1.00  0.00     0.002 C 
HETATM   21  C6  UNL     1     -12.607  43.725  -2.764  1.00  0.00    -0.028 C 
BRANCH  21  22
HETATM   22  C7  UNL     1     -13.336  44.786  -3.501  1.00  0.00     0.034 C 
BRANCH  22  23
HETATM   23  C8  UNL     1     -14.783  44.414  -3.728  1.00  0.00     0.020 C 
HETATM   24  C9  UNL     1     -15.632  44.616  -2.500  1.00  0.00     0.013 C 
BRANCH  23  25
HETATM   25  C10 UNL     1     -15.399  45.166  -4.862  1.00  0.00     0.183 C 
BRANCH  25  26
HETATM   26  O3  UNL     1     -15.957  46.372  -4.476  1.00  0.00    -0.388 OA
ATOM     27  H3  UNL     1     -15.941  47.028  -5.162  1.00  0.00     0.210 HD
ENDBRANCH  25  26
BRANCH  25  28
HETATM   28  C11 UNL     1     -16.487  44.315  -5.433  1.00  0.00     0.263 C 
HETATM   29  O4  UNL     1     -17.599  44.824  -5.483  1.00  0.00    -0.304 OA
ENDBRANCH  25  28
ENDBRANCH  23  25
ENDBRANCH  22  23
ENDBRANCH  21  22
ENDBRANCH   6  20
TORSDOF 10
ENDMDL
MODEL 4
REMARK VINA RESULT: -7.212574377      3.312      5.407
REMARK  10 active torsions:
REMARK  status: ('A' for Active; 'I' for Inactive)
REMARK    1  A    between atoms: C4_6  and  C5_7 
REMARK    2  A    between atoms: C6_8  and  C7_9 
REMARK    3  A    between atoms: C7_9  and  C8_10 
REMARK    4  A    between atoms: C8_10  and  C10_12 
REMARK    5  A    between atoms: C10_12  and  O3_13 
REMARK    6  A    between atoms: C10_12  and  C11_15 
REMARK    7  A    between atoms: C12_17  and  C13_18 
REMARK    8  A    between atoms: C13_18  and  O5_19 
REMARK    9  A    between atoms: C13_18  and  C14_21 
REMARK   10  A    between atoms: C14_21  and  C15_22 
ROOT
HETATM    1  C1  UNL     1      -7.265  45.138   2.202  1.00  0.00     0.025 C 
HETATM    2  C2  UNL     1      -7.578  44.527   1.101  1.00  0.00     0.017 C 
HETATM    3  C3  UNL     1      -7.336  43.051   0.974  1.00  0.00     0.289 C 
HETATM    4  O1  UNL     1      -6.613  42.324   1.682  1.00  0.00    -0.260 OA
HETATM    5  O2  UNL     1      -8.086  42.616  -0.111  1.00  0.00    -0.307 OA
HETATM    6  C4  UNL     1      -9.063  43.628  -0.401  1.00  0.00     0.165 C 
HETATM    7  C12 UNL     1      -8.155  44.866  -0.190  1.00  0.00     0.086 C 
ENDROOT
BRANCH   7   8
HETATM    8  C13 UNL     1      -9.000  46.040  -0.349  1.00  0.00     0.130 C 
BRANCH   8   9
HETATM    9  O5  UNL     1      -9.724  46.258   0.848  1.00  0.00    -0.395 OA
ATOM     10  H5  UNL     1      -9.750  47.189   1.032  1.00  0.00     0.210 HD
ENDBRANCH   8   9
BRANCH   8  11
HETATM   11  C14 UNL     1      -8.452  47.324  -0.811  1.00  0.00     0.037 C 
BRANCH  11  12
HETATM   12  C15 UNL     1      -7.655  48.074   0.228  1.00  0.00    -0.012 C 
HETATM   13  C16 UNL     1      -8.182  49.440   0.509  1.00  0.00     0.005 C 
HETATM   14  C17 UNL     1      -8.800  50.156  -0.631  1.00  0.00     0.000 C 
HETATM   15  C18 UNL     1      -7.845  50.714  -1.646  1.00  0.00     0.000 C 
HETATM   16  C19 UNL     1      -6.537  51.147  -1.120  1.00  0.00     0.000 C 
HETATM   17  C20 UNL     1      -5.420  50.180  -1.165  1.00  0.00     0.000 C 
HETATM   18  C21 UNL     1      -5.772  48.736  -1.328  1.00  0.00     0.000 C 
HETATM   19  C22 UNL     1      -6.169  48.060  -0.064  1.00  0.00     0.005 C 
ENDBRANCH  11  12
ENDBRANCH   8  11
ENDBRANCH   7   8
BRANCH   6  20
HETATM   20  C5  UNL     1      -9.557  43.571  -1.773  1.00  0.00     0.002 C 
HETATM   21  C6  UNL     1     -10.803  43.839  -2.066  1.00  0.00    -0.028 C 
BRANCH  21  22
HETATM   22  C7  UNL     1     -11.866  44.222  -1.105  1.00  0.00     0.034 C 
BRANCH  22  23
HETATM   23  C8  UNL     1     -12.832  45.216  -1.710  1.00  0.00     0.020 C 
HETATM   24  C9  UNL     1     -13.536  44.674  -2.925  1.00  0.00     0.013 C 
BRANCH  23  25
HETATM   25  C10 UNL     1     -13.860  45.685  -0.732  1.00  0.00     0.183 C 
BRANCH  25  26
HETATM   26  O3  UNL     1     -14.277  46.983  -0.962  1.00  0.00    -0.388 OA
ATOM     27  H3  UNL     1     -14.064  47.576  -0.252  1.00  0.00     0.210 HD
ENDBRANCH  25  26
BRANCH  25  28
HETATM   28  C11 UNL     1     -13.247  45.631   0.630  1.00  0.00     0.263 C 
HETATM   29  O4  UNL     1     -14.029  45.558   1.570  1.00  0.00    -0.304 OA
ENDBRANCH  25  28
ENDBRANCH  23  25
ENDBRANCH  22  23
ENDBRANCH  21  22
ENDBRANCH   6  20
TORSDOF 10
ENDMDL
MODEL 5
REMARK VINA RESULT: -7.120353131      3.367      5.908
REMARK  10 active torsions:
REMARK  status: ('A' for Active; 'I' for Inactive)
REMARK    1  A    between atoms: C4_6  and  C5_7 
REMARK    2  A    between atoms: C6_8  and  C7_9 
REMARK    3  A    between atoms: C7_9  and  C8_10 
REMARK    4  A    between atoms: C8_10  and  C10_12 
REMARK    5  A    between atoms: C10_12  and  O3_13 
REMARK    6  A    between atoms: C10_12  and  C11_15 
REMARK    7  A    between atoms: C12_17  and  C13_18 
REMARK    8  A    between atoms: C13_18  and  O5_19 
REMARK    9  A    between atoms: C13_18  and  C14_21 
REMARK   10  A    between atoms: C14_21  and  C15_22 
ROOT
HETATM    1  C1  UNL     1      -7.740  41.797   0.321  1.00  0.00     0.025 C 
HETATM    2  C2  UNL     1      -7.930  43.056   0.066  1.00  0.00     0.017 C 
HETATM    3  C3  UNL     1      -8.808  43.459  -1.082  1.00  0.00     0.289 C 
HETATM    4  O1  UNL     1      -9.196  42.761  -2.039  1.00  0.00    -0.260 OA
HETATM    5  O2  UNL     1      -9.127  44.797  -0.890  1.00  0.00    -0.307 OA
HETATM    6  C4  UNL     1      -8.842  45.122   0.480  1.00  0.00     0.165 C 
HETATM    7  C12 UNL     1      -7.511  44.338   0.611  1.00  0.00     0.086 C 
ENDROOT
BRANCH   7   8
HETATM    8  C13 UNL     1      -7.084  44.461   1.996  1.00  0.00     0.130 C 
BRANCH   8   9
HETATM    9  O5  UNL     1      -8.025  43.812   2.833  1.00  0.00    -0.395 OA
ATOM     10  H5  UNL     1      -8.153  44.330   3.619  1.00  0.00     0.210 HD
ENDBRANCH   8   9
BRANCH   8  11
HETATM   11  C14 UNL     1      -5.730  44.076   2.420  1.00  0.00     0.037 C 
BRANCH  11  12
HETATM   12  C15 UNL     1      -4.823  45.238   2.744  1.00  0.00    -0.012 C 
HETATM   13  C16 UNL     1      -3.987  45.018   3.959  1.00  0.00     0.005 C 
HETATM   14  C17 UNL     1      -4.594  44.208   5.041  1.00  0.00     0.000 C 
HETATM   15  C18 UNL     1      -5.639  44.901   5.866  1.00  0.00     0.000 C 
HETATM   16  C19 UNL     1      -5.453  46.353   6.042  1.00  0.00     0.000 C 
HETATM   17  C20 UNL     1      -6.145  47.257   5.100  1.00  0.00     0.000 C 
HETATM   18  C21 UNL     1      -6.620  46.668   3.810  1.00  0.00     0.000 C 
HETATM   19  C22 UNL     1      -5.564  46.559   2.767  1.00  0.00     0.005 C 
ENDBRANCH  11  12
ENDBRANCH   8  11
ENDBRANCH   7   8
BRANCH   6  20
HETATM   20  C5  UNL     1      -8.629  46.549   0.698  1.00  0.00     0.002 C 
HETATM   21  C6  UNL     1      -9.418  47.250   1.470  1.00  0.00    -0.028 C 
BRANCH  21  22
HETATM   22  C7  UNL     1     -10.597  46.742   2.212  1.00  0.00     0.034 C 
BRANCH  22  23
HETATM   23  C8  UNL     1     -11.892  47.142   1.543  1.00  0.00     0.020 C 
HETATM   24  C9  UNL     1     -11.783  48.451   0.806  1.00  0.00     0.013 C 
BRANCH  23  25
HETATM   25  C10 UNL     1     -12.394  46.102   0.595  1.00  0.00     0.183 C 
BRANCH  25  26
HETATM   26  O3  UNL     1     -11.902  46.252  -0.689  1.00  0.00    -0.388 OA
ATOM     27  H3  UNL     1     -12.492  45.925  -1.357  1.00  0.00     0.210 HD
ENDBRANCH  25  26
BRANCH  25  28
HETATM   28  C11 UNL     1     -13.882  46.223   0.537  1.00  0.00     0.263 C 
HETATM   29  O4  UNL     1     -14.503  45.674   1.439  1.00  0.00    -0.304 OA
ENDBRANCH  25  28
ENDBRANCH  23  25
ENDBRANCH  22  23
ENDBRANCH  21  22
ENDBRANCH   6  20
TORSDOF 10
ENDMDL
