MODEL 1
REMARK VINA RESULT: -6.745606133      0.000      0.000
REMARK  11 active torsions:
REMARK  status: ('A' for Active; 'I' for Inactive)
REMARK    1  A    between atoms: C2_2  and  O2_4 
REMARK    2  A    between atoms: O2_4  and  C3_5 
REMARK    3  A    between atoms: C3_5  and  C4_6 
REMARK    4  A    between atoms: C4_6  and  C7_9 
REMARK    5  A    between atoms: C7_9  and  C8_10 
REMARK    6  A    between atoms: C8_10  and  C9_11 
REMARK    7  A    between atoms: C10_12  and  C11_13 
REMARK    8  A    between atoms: C11_13  and  C12_14 
REMARK    9  A    between atoms: C12_14  and  C13_15 
REMARK   10  A    between atoms: C21_24  and  O4_26 
REMARK   11  A    between atoms: C23_28  and  O5_29 
ROOT
HETATM    1  C13 UNL     1     -10.491  44.526  -1.422  1.00  0.00    -0.043 C 
HETATM    2  C14 UNL     1     -10.508  45.044   0.019  1.00  0.00     0.033 C 
HETATM    3  C15 UNL     1     -11.691  44.398   0.704  1.00  0.00     0.088 C 
HETATM    4  C16 UNL     1     -12.803  45.412   0.637  1.00  0.00     0.135 C 
HETATM    5  O3  UNL     1     -13.826  45.386   1.265  1.00  0.00    -0.297 OA
HETATM    6  C17 UNL     1     -12.311  46.420  -0.383  1.00  0.00     0.100 C 
HETATM    7  C18 UNL     1     -10.883  46.498   0.073  1.00  0.00    -0.027 C 
HETATM    8  C19 UNL     1     -10.000  47.445  -0.607  1.00  0.00     0.016 C 
HETATM    9  C20 UNL     1     -10.947  46.891   1.550  1.00  0.00     0.016 C 
HETATM   10  C21 UNL     1     -12.550  45.905  -1.739  1.00  0.00     0.095 C 
HETATM   11  C22 UNL     1     -14.048  45.635  -1.883  1.00  0.00     0.050 C 
HETATM   12  C23 UNL     1     -11.751  44.658  -2.120  1.00  0.00     0.182 C 
ENDROOT
BRANCH   1  13
HETATM   13  C12 UNL     1      -9.608  43.356  -1.477  1.00  0.00     0.006 C 
BRANCH  13  14
HETATM   14  C11 UNL     1      -8.162  43.401  -1.551  1.00  0.00     0.000 C 
BRANCH  14  15
HETATM   15  C10 UNL     1      -7.277  43.342  -0.402  1.00  0.00    -0.004 C 
HETATM   16  C9  UNL     1      -6.910  42.403   0.397  1.00  0.00    -0.027 C 
BRANCH  16  17
HETATM   17  C8  UNL     1      -5.947  42.684   1.522  1.00  0.00     0.028 C 
BRANCH  17  18
HETATM   18  C7  UNL     1      -6.601  43.409   2.632  1.00  0.00     0.014 C 
BRANCH  18  19
HETATM   19  C4  UNL     1      -5.656  44.314   3.439  1.00  0.00    -0.025 C 
HETATM   20  C5  UNL     1      -5.199  43.703   4.706  1.00  0.00     0.017 C 
HETATM   21  C6  UNL     1      -4.452  44.493   2.479  1.00  0.00     0.017 C 
BRANCH  19  22
HETATM   22  C3  UNL     1      -6.307  45.647   3.621  1.00  0.00     0.187 C 
BRANCH  22  23
HETATM   23  O2  UNL     1      -7.116  46.095   2.670  1.00  0.00    -0.321 OA
BRANCH  23  24
HETATM   24  C2  UNL     1      -7.136  47.080   1.781  1.00  0.00     0.254 C 
HETATM   25  C1  UNL     1      -6.523  46.905   0.408  1.00  0.00     0.126 C 
HETATM   26  O1  UNL     1      -7.658  48.175   2.053  1.00  0.00    -0.266 OA
ENDBRANCH  23  24
ENDBRANCH  22  23
ENDBRANCH  19  22
ENDBRANCH  18  19
ENDBRANCH  17  18
ENDBRANCH  16  17
ENDBRANCH  14  15
ENDBRANCH  13  14
ENDBRANCH   1  13
BRANCH  12  27
HETATM   27  O5  UNL     1     -11.635  44.679  -3.533  1.00  0.00    -0.388 OA
ATOM     28  H5  UNL     1     -12.035  43.936  -3.968  1.00  0.00     0.210 HD
ENDBRANCH  12  27
BRANCH  10  29
HETATM   29  O4  UNL     1     -12.247  46.895  -2.668  1.00  0.00    -0.386 OA
ATOM     30  H4  UNL     1     -11.349  46.791  -2.957  1.00  0.00     0.210 HD
ENDBRANCH  10  29
TORSDOF 11
ENDMDL
MODEL 2
REMARK VINA RESULT: -6.574029930      1.122      2.131
REMARK  11 active torsions:
REMARK  status: ('A' for Active; 'I' for Inactive)
REMARK    1  A    between atoms: C2_2  and  O2_4 
REMARK    2  A    between atoms: O2_4  and  C3_5 
REMARK    3  A    between atoms: C3_5  and  C4_6 
REMARK    4  A    between atoms: C4_6  and  C7_9 
REMARK    5  A    between atoms: C7_9  and  C8_10 
REMARK    6  A    between atoms: C8_10  and  C9_11 
REMARK    7  A    between atoms: C10_12  and  C11_13 
REMARK    8  A    between atoms: C11_13  and  C12_14 
REMARK    9  A    between atoms: C12_14  and  C13_15 
REMARK   10  A    between atoms: C21_24  and  O4_26 
REMARK   11  A    between atoms: C23_28  and  O5_29 
ROOT
HETATM    1  C13 UNL     1     -10.465  44.375  -1.640  1.00  0.00    -0.043 C 
HETATM    2  C14 UNL     1     -10.406  44.799  -0.169  1.00  0.00     0.033 C 
HETATM    3  C15 UNL     1     -11.631  44.221   0.503  1.00  0.00     0.088 C 
HETATM    4  C16 UNL     1     -12.645  45.335   0.527  1.00  0.00     0.135 C 
HETATM    5  O3  UNL     1     -13.654  45.363   1.177  1.00  0.00    -0.297 OA
HETATM    6  C17 UNL     1     -12.080  46.357  -0.440  1.00  0.00     0.100 C 
HETATM    7  C18 UNL     1     -10.643  46.275  -0.015  1.00  0.00    -0.027 C 
HETATM    8  C19 UNL     1      -9.688  47.178  -0.657  1.00  0.00     0.016 C 
HETATM    9  C20 UNL     1     -10.642  46.575   1.484  1.00  0.00     0.016 C 
HETATM   10  C21 UNL     1     -12.392  45.955  -1.819  1.00  0.00     0.095 C 
HETATM   11  C22 UNL     1     -13.910  45.833  -1.943  1.00  0.00     0.050 C 
HETATM   12  C23 UNL     1     -11.719  44.667  -2.297  1.00  0.00     0.182 C 
ENDROOT
BRANCH   1  13
HETATM   13  C12 UNL     1      -9.695  43.136  -1.789  1.00  0.00     0.006 C 
BRANCH  13  14
HETATM   14  C11 UNL     1      -8.250  43.037  -1.753  1.00  0.00     0.000 C 
BRANCH  14  15
HETATM   15  C10 UNL     1      -7.447  43.158  -0.550  1.00  0.00    -0.004 C 
HETATM   16  C9  UNL     1      -7.025  42.322   0.332  1.00  0.00    -0.027 C 
BRANCH  16  17
HETATM   17  C8  UNL     1      -6.184  42.788   1.492  1.00  0.00     0.028 C 
BRANCH  17  18
HETATM   18  C7  UNL     1      -6.824  43.909   2.213  1.00  0.00     0.014 C 
BRANCH  18  19
HETATM   19  C4  UNL     1      -5.965  45.183   2.287  1.00  0.00    -0.025 C 
HETATM   20  C5  UNL     1      -4.531  44.939   2.022  1.00  0.00     0.017 C 
HETATM   21  C6  UNL     1      -6.564  46.065   1.163  1.00  0.00     0.017 C 
BRANCH  19  22
HETATM   22  C3  UNL     1      -6.223  45.859   3.595  1.00  0.00     0.187 C 
BRANCH  22  23
HETATM   23  O2  UNL     1      -6.231  45.126   4.700  1.00  0.00    -0.321 OA
BRANCH  23  24
HETATM   24  C2  UNL     1      -5.399  44.833   5.690  1.00  0.00     0.254 C 
HETATM   25  C1  UNL     1      -4.453  43.656   5.594  1.00  0.00     0.126 C 
HETATM   26  O1  UNL     1      -5.373  45.520   6.727  1.00  0.00    -0.266 OA
ENDBRANCH  23  24
ENDBRANCH  22  23
ENDBRANCH  19  22
ENDBRANCH  18  19
ENDBRANCH  17  18
ENDBRANCH  16  17
ENDBRANCH  14  15
ENDBRANCH  13  14
ENDBRANCH   1  13
BRANCH  12  27
HETATM   27  O5  UNL     1     -11.629  44.768  -3.708  1.00  0.00    -0.388 OA
ATOM     28  H5  UNL     1     -10.824  45.165  -4.020  1.00  0.00     0.210 HD
ENDBRANCH  12  27
BRANCH  10  29
HETATM   29  O4  UNL     1     -12.016  46.971  -2.692  1.00  0.00    -0.386 OA
ATOM     30  H4  UNL     1     -11.077  47.101  -2.637  1.00  0.00     0.210 HD
ENDBRANCH  10  29
TORSDOF 11
ENDMDL
MODEL 3
REMARK VINA RESULT: -6.566644945      1.303      2.703
REMARK  11 active torsions:
REMARK  status: ('A' for Active; 'I' for Inactive)
REMARK    1  A    between atoms: C2_2  and  O2_4 
REMARK    2  A    between atoms: O2_4  and  C3_5 
REMARK    3  A    between atoms: C3_5  and  C4_6 
REMARK    4  A    between atoms: C4_6  and  C7_9 
REMARK    5  A    between atoms: C7_9  and  C8_10 
REMARK    6  A    between atoms: C8_10  and  C9_11 
REMARK    7  A    between atoms: C10_12  and  C11_13 
REMARK    8  A    between atoms: C11_13  and  C12_14 
REMARK    9  A    between atoms: C12_14  and  C13_15 
REMARK   10  A    between atoms: C21_24  and  O4_26 
REMARK   11  A    between atoms: C23_28  and  O5_29 
ROOT
HETATM    1  C13 UNL     1     -11.576  44.583  -0.025  1.00  0.00    -0.043 C 
HETATM    2  C14 UNL     1     -10.964  44.736  -1.421  1.00  0.00     0.033 C 
HETATM    3  C15 UNL     1     -10.481  46.165  -1.534  1.00  0.00     0.088 C 
HETATM    4  C16 UNL     1     -11.576  46.908  -2.253  1.00  0.00     0.135 C 
HETATM    5  O3  UNL     1     -11.488  47.999  -2.746  1.00  0.00    -0.297 OA
HETATM    6  C17 UNL     1     -12.757  45.959  -2.191  1.00  0.00     0.100 C 
HETATM    7  C18 UNL     1     -12.019  44.687  -2.489  1.00  0.00    -0.027 C 
HETATM    8  C19 UNL     1     -12.800  43.456  -2.605  1.00  0.00     0.016 C 
HETATM    9  C20 UNL     1     -11.316  44.927  -3.826  1.00  0.00     0.016 C 
HETATM   10  C21 UNL     1     -13.402  46.063  -0.874  1.00  0.00     0.095 C 
HETATM   11  C22 UNL     1     -13.828  47.516  -0.670  1.00  0.00     0.050 C 
HETATM   12  C23 UNL     1     -12.558  45.590   0.311  1.00  0.00     0.182 C 
ENDROOT
BRANCH   1  13
HETATM   13  C12 UNL     1     -10.537  44.074   0.876  1.00  0.00     0.006 C 
BRANCH  13  14
HETATM   14  C11 UNL     1      -9.479  43.158   0.503  1.00  0.00     0.000 C 
BRANCH  14  15
HETATM   15  C10 UNL     1      -8.135  43.187   1.048  1.00  0.00    -0.004 C 
HETATM   16  C9  UNL     1      -7.001  42.719   0.660  1.00  0.00    -0.027 C 
BRANCH  16  17
HETATM   17  C8  UNL     1      -5.757  42.936   1.483  1.00  0.00     0.028 C 
BRANCH  17  18
HETATM   18  C7  UNL     1      -6.081  43.186   2.904  1.00  0.00     0.014 C 
BRANCH  18  19
HETATM   19  C4  UNL     1      -5.386  44.421   3.501  1.00  0.00    -0.025 C 
HETATM   20  C5  UNL     1      -4.816  44.181   4.844  1.00  0.00     0.017 C 
HETATM   21  C6  UNL     1      -4.245  44.695   2.489  1.00  0.00     0.017 C 
BRANCH  19  22
HETATM   22  C3  UNL     1      -6.335  45.575   3.454  1.00  0.00     0.187 C 
BRANCH  22  23
HETATM   23  O2  UNL     1      -6.451  46.258   2.323  1.00  0.00    -0.321 OA
BRANCH  23  24
HETATM   24  C2  UNL     1      -7.414  46.595   1.474  1.00  0.00     0.254 C 
HETATM   25  C1  UNL     1      -7.158  46.654  -0.016  1.00  0.00     0.126 C 
HETATM   26  O1  UNL     1      -8.556  46.873   1.882  1.00  0.00    -0.266 OA
ENDBRANCH  23  24
ENDBRANCH  22  23
ENDBRANCH  19  22
ENDBRANCH  18  19
ENDBRANCH  17  18
ENDBRANCH  16  17
ENDBRANCH  14  15
ENDBRANCH  13  14
ENDBRANCH   1  13
BRANCH  12  27
HETATM   27  O5  UNL     1     -13.475  45.197   1.318  1.00  0.00    -0.388 OA
ATOM     28  H5  UNL     1     -13.547  45.810   2.041  1.00  0.00     0.210 HD
ENDBRANCH  12  27
BRANCH  10  29
HETATM   29  O4  UNL     1     -14.575  45.315  -0.875  1.00  0.00    -0.386 OA
ATOM     30  H4  UNL     1     -14.366  44.403  -1.039  1.00  0.00     0.210 HD
ENDBRANCH  10  29
TORSDOF 11
ENDMDL
MODEL 4
REMARK VINA RESULT: -6.506564049      1.121      1.343
REMARK  11 active torsions:
REMARK  status: ('A' for Active; 'I' for Inactive)
REMARK    1  A    between atoms: C2_2  and  O2_4 
REMARK    2  A    between atoms: O2_4  and  C3_5 
REMARK    3  A    between atoms: C3_5  and  C4_6 
REMARK    4  A    between atoms: C4_6  and  C7_9 
REMARK    5  A    between atoms: C7_9  and  C8_10 
REMARK    6  A    between atoms: C8_10  and  C9_11 
REMARK    7  A    between atoms: C10_12  and  C11_13 
REMARK    8  A    between atoms: C11_13  and  C12_14 
REMARK    9  A    between atoms: C12_14  and  C13_15 
REMARK   10  A    between atoms: C21_24  and  O4_26 
REMARK   11  A    between atoms: C23_28  and  O5_29 
ROOT
HETATM    1  C13 UNL     1     -10.280  44.085  -0.863  1.00  0.00    -0.043 C 
HETATM    2  C14 UNL     1     -10.518  45.041   0.310  1.00  0.00     0.033 C 
HETATM    3  C15 UNL     1     -11.795  44.595   0.987  1.00  0.00     0.088 C 
HETATM    4  C16 UNL     1     -12.880  45.478   0.428  1.00  0.00     0.135 C 
HETATM    5  O3  UNL     1     -13.988  45.608   0.872  1.00  0.00    -0.297 OA
HETATM    6  C17 UNL     1     -12.232  46.124  -0.780  1.00  0.00     0.100 C 
HETATM    7  C18 UNL     1     -10.892  46.414  -0.170  1.00  0.00    -0.027 C 
HETATM    8  C19 UNL     1      -9.912  47.131  -0.984  1.00  0.00     0.016 C 
HETATM    9  C20 UNL     1     -11.183  47.260   1.070  1.00  0.00     0.016 C 
HETATM   10  C21 UNL     1     -12.261  45.187  -1.913  1.00  0.00     0.095 C 
HETATM   11  C22 UNL     1     -13.718  44.813  -2.180  1.00  0.00     0.050 C 
HETATM   12  C23 UNL     1     -11.415  43.924  -1.743  1.00  0.00     0.182 C 
ENDROOT
BRANCH   1  13
HETATM   13  C12 UNL     1      -9.402  43.005  -0.401  1.00  0.00     0.006 C 
BRANCH  13  14
HETATM   14  C11 UNL     1      -7.984  42.900  -0.679  1.00  0.00     0.000 C 
BRANCH  14  15
HETATM   15  C10 UNL     1      -6.939  43.017   0.320  1.00  0.00    -0.004 C 
HETATM   16  C9  UNL     1      -6.866  42.744   1.576  1.00  0.00    -0.027 C 
BRANCH  16  17
HETATM   17  C8  UNL     1      -5.592  42.991   2.343  1.00  0.00     0.028 C 
BRANCH  17  18
HETATM   18  C7  UNL     1      -5.863  43.298   3.763  1.00  0.00     0.014 C 
BRANCH  18  19
HETATM   19  C4  UNL     1      -5.233  44.612   4.255  1.00  0.00    -0.025 C 
HETATM   20  C5  UNL     1      -6.203  45.521   4.903  1.00  0.00     0.017 C 
HETATM   21  C6  UNL     1      -4.195  44.125   5.297  1.00  0.00     0.017 C 
BRANCH  19  22
HETATM   22  C3  UNL     1      -4.492  45.243   3.121  1.00  0.00     0.187 C 
BRANCH  22  23
HETATM   23  O2  UNL     1      -4.944  46.386   2.622  1.00  0.00    -0.321 OA
BRANCH  23  24
HETATM   24  C2  UNL     1      -5.607  46.794   1.548  1.00  0.00     0.254 C 
HETATM   25  C1  UNL     1      -7.092  46.539   1.402  1.00  0.00     0.126 C 
HETATM   26  O1  UNL     1      -5.025  47.398   0.629  1.00  0.00    -0.266 OA
ENDBRANCH  23  24
ENDBRANCH  22  23
ENDBRANCH  19  22
ENDBRANCH  18  19
ENDBRANCH  17  18
ENDBRANCH  16  17
ENDBRANCH  14  15
ENDBRANCH  13  14
ENDBRANCH   1  13
BRANCH  12  27
HETATM   27  O5  UNL     1     -11.082  43.492  -3.051  1.00  0.00    -0.388 OA
ATOM     28  H5  UNL     1     -11.281  44.123  -3.734  1.00  0.00     0.210 HD
ENDBRANCH  12  27
BRANCH  10  29
HETATM   29  O4  UNL     1     -11.814  45.836  -3.060  1.00  0.00    -0.386 OA
ATOM     30  H4  UNL     1     -11.851  45.237  -3.795  1.00  0.00     0.210 HD
ENDBRANCH  10  29
TORSDOF 11
ENDMDL
MODEL 5
REMARK VINA RESULT: -6.494213490      1.233      1.753
REMARK  11 active torsions:
REMARK  status: ('A' for Active; 'I' for Inactive)
REMARK    1  A    between atoms: C2_2  and  O2_4 
REMARK    2  A    between atoms: O2_4  and  C3_5 
REMARK    3  A    between atoms: C3_5  and  C4_6 
REMARK    4  A    between atoms: C4_6  and  C7_9 
REMARK    5  A    between atoms: C7_9  and  C8_10 
REMARK    6  A    between atoms: C8_10  and  C9_11 
REMARK    7  A    between atoms: C10_12  and  C11_13 
REMARK    8  A    between atoms: C11_13  and  C12_14 
REMARK    9  A    between atoms: C12_14  and  C13_15 
REMARK   10  A    between atoms: C21_24  and  O4_26 
REMARK   11  A    between atoms: C23_28  and  O5_29 
ROOT
HETATM    1  C13 UNL     1     -10.461  44.408  -1.435  1.00  0.00    -0.043 C 
HETATM    2  C14 UNL     1     -10.456  44.868   0.026  1.00  0.00     0.033 C 
HETATM    3  C15 UNL     1     -11.697  44.294   0.671  1.00  0.00     0.088 C 
HETATM    4  C16 UNL     1     -12.722  45.397   0.633  1.00  0.00     0.135 C 
HETATM    5  O3  UNL     1     -13.752  45.430   1.248  1.00  0.00    -0.297 OA
HETATM    6  C17 UNL     1     -12.135  46.401  -0.339  1.00  0.00     0.100 C 
HETATM    7  C18 UNL     1     -10.712  46.344   0.135  1.00  0.00    -0.027 C 
HETATM    8  C19 UNL     1      -9.745  47.242  -0.497  1.00  0.00     0.016 C 
HETATM    9  C20 UNL     1     -10.765  46.682   1.625  1.00  0.00     0.016 C 
HETATM   10  C21 UNL     1     -12.396  45.962  -1.718  1.00  0.00     0.095 C 
HETATM   11  C22 UNL     1     -13.908  45.820  -1.889  1.00  0.00     0.050 C 
HETATM   12  C23 UNL     1     -11.695  44.670  -2.141  1.00  0.00     0.182 C 
ENDROOT
BRANCH   1  13
HETATM   13  C12 UNL     1      -9.674  43.173  -1.527  1.00  0.00     0.006 C 
BRANCH  13  14
HETATM   14  C11 UNL     1      -8.231  43.104  -1.626  1.00  0.00     0.000 C 
BRANCH  14  15
HETATM   15  C10 UNL     1      -7.326  43.135  -0.492  1.00  0.00    -0.004 C 
HETATM   16  C9  UNL     1      -7.031  42.298   0.440  1.00  0.00    -0.027 C 
BRANCH  16  17
HETATM   17  C8  UNL     1      -6.015  42.651   1.496  1.00  0.00     0.028 C 
BRANCH  17  18
HETATM   18  C7  UNL     1      -6.612  43.465   2.576  1.00  0.00     0.014 C 
BRANCH  18  19
HETATM   19  C4  UNL     1      -5.969  44.851   2.751  1.00  0.00    -0.025 C 
HETATM   20  C5  UNL     1      -4.589  44.927   2.223  1.00  0.00     0.017 C 
HETATM   21  C6  UNL     1      -6.900  45.768   1.919  1.00  0.00     0.017 C 
BRANCH  19  22
HETATM   22  C3  UNL     1      -6.081  45.254   4.186  1.00  0.00     0.187 C 
BRANCH  22  23
HETATM   23  O2  UNL     1      -6.568  46.454   4.474  1.00  0.00    -0.321 OA
BRANCH  23  24
HETATM   24  C2  UNL     1      -7.251  47.026   5.457  1.00  0.00     0.254 C 
HETATM   25  C1  UNL     1      -8.462  47.887   5.169  1.00  0.00     0.126 C 
HETATM   26  O1  UNL     1      -6.915  46.868   6.644  1.00  0.00    -0.266 OA
ENDBRANCH  23  24
ENDBRANCH  22  23
ENDBRANCH  19  22
ENDBRANCH  18  19
ENDBRANCH  17  18
ENDBRANCH  16  17
ENDBRANCH  14  15
ENDBRANCH  13  14
ENDBRANCH   1  13
BRANCH  12  27
HETATM   27  O5  UNL     1     -11.558  44.737  -3.550  1.00  0.00    -0.388 OA
ATOM     28  H5  UNL     1     -10.658  44.728  -3.856  1.00  0.00     0.210 HD
ENDBRANCH  12  27
BRANCH  10  29
HETATM   29  O4  UNL     1     -12.001  46.960  -2.603  1.00  0.00    -0.386 OA
ATOM     30  H4  UNL     1     -11.679  46.562  -3.403  1.00  0.00     0.210 HD
ENDBRANCH  10  29
TORSDOF 11
ENDMDL
