MODEL 1
REMARK VINA RESULT: -6.223645417      0.000      0.000
REMARK  10 active torsions:
REMARK  status: ('A' for Active; 'I' for Inactive)
REMARK    1  A    between atoms: C2_2  and  C4_4 
REMARK    2  A    between atoms: C4_4  and  N1_5 
REMARK    3  A    between atoms: N1_5  and  C5_6 
REMARK       I    between atoms: N1_5  and  C7_8 
REMARK    4  A    between atoms: C7_8  and  C8_10 
REMARK       I    between atoms: C8_10  and  N2_12 
REMARK    5  A    between atoms: N2_12  and  C9_14 
REMARK    6  A    between atoms: C9_14  and  C10_15 
REMARK    7  A    between atoms: C9_14  and  C17_22 
REMARK    8  A    between atoms: C10_15  and  C11_16 
REMARK    9  A    between atoms: C17_22  and  C18_24 
REMARK   10  A    between atoms: C18_24  and  C19_25 
ROOT
HETATM    1  C9  UNL     1      68.482  52.603  -1.492  1.00  0.00     0.178 C 
ENDROOT
BRANCH   1   2
HETATM    2  N2  UNL     1      69.728  53.435  -1.557  1.00  0.00    -0.338 N 
HETATM    3  C8  UNL     1      70.281  54.041  -0.408  1.00  0.00     0.310 C 
HETATM    4  O2  UNL     1      69.693  53.861   0.674  1.00  0.00    -0.262 OA
ATOM      5  H2  UNL     1      70.188  53.566  -2.457  1.00  0.00     0.164 HD
BRANCH   3   6
HETATM    6  C7  UNL     1      71.480  54.841  -0.462  1.00  0.00     0.311 C 
HETATM    7  N1  UNL     1      72.794  54.366  -0.255  1.00  0.00    -0.341 N 
HETATM    8  O1  UNL     1      71.362  56.094  -0.719  1.00  0.00    -0.262 OA
BRANCH   7   9
HETATM    9  C4  UNL     1      73.902  55.318  -0.317  1.00  0.00     0.159 C 
BRANCH   9  10
HETATM   10  C2  UNL     1      74.513  55.463   1.012  1.00  0.00    -0.075 C 
HETATM   11  C1  UNL     1      75.798  55.216   1.165  1.00  0.00     0.015 C 
HETATM   12  C3  UNL     1      73.739  55.886   2.222  1.00  0.00     0.044 C 
ENDBRANCH   9  10
ENDBRANCH   7   9
BRANCH   7  13
HETATM   13  C5  UNL     1      73.140  52.989   0.005  1.00  0.00     0.122 C 
HETATM   14  C6  UNL     1      73.729  52.292  -1.200  1.00  0.00     0.026 C 
ENDBRANCH   7  13
ENDBRANCH   3   6
ENDBRANCH   1   2
BRANCH   1  15
HETATM   15  C10 UNL     1      68.957  51.240  -1.697  1.00  0.00     0.008 C 
BRANCH  15  16
HETATM   16  C11 UNL     1      69.344  50.306  -0.653  1.00  0.00    -0.081 C 
HETATM   17  C12 UNL     1      68.524  49.045  -0.500  1.00  0.00     0.034 C 
HETATM   18  C13 UNL     1      69.243  48.166   0.537  1.00  0.00     0.004 C 
HETATM   19  C14 UNL     1      69.690  49.065   1.666  1.00  0.00     0.001 C 
HETATM   20  C15 UNL     1      70.857  49.924   1.228  1.00  0.00     0.004 C 
HETATM   21  C16 UNL     1      70.791  50.140  -0.306  1.00  0.00     0.034 C 
ENDBRANCH  15  16
ENDBRANCH   1  15
BRANCH   1  22
HETATM   22  C17 UNL     1      67.471  53.233  -2.352  1.00  0.00     0.161 C 
HETATM   23  O3  UNL     1      66.299  52.750  -2.349  1.00  0.00    -0.295 OA
BRANCH  22  24
HETATM   24  C18 UNL     1      67.635  54.379  -3.262  1.00  0.00     0.180 C 
BRANCH  24  25
HETATM   25  C19 UNL     1      67.188  55.632  -2.605  1.00  0.00     0.238 C 
HETATM   26  N3  UNL     1      68.093  56.366  -1.791  1.00  0.00    -0.062 NA
HETATM   27  O4  UNL     1      66.041  56.066  -2.744  1.00  0.00    -0.276 OA
ENDBRANCH  24  25
ENDBRANCH  22  24
ENDBRANCH   1  22
TORSDOF 10
ENDMDL
MODEL 2
REMARK VINA RESULT: -6.127988278      0.766      1.284
REMARK  10 active torsions:
REMARK  status: ('A' for Active; 'I' for Inactive)
REMARK    1  A    between atoms: C2_2  and  C4_4 
REMARK    2  A    between atoms: C4_4  and  N1_5 
REMARK    3  A    between atoms: N1_5  and  C5_6 
REMARK       I    between atoms: N1_5  and  C7_8 
REMARK    4  A    between atoms: C7_8  and  C8_10 
REMARK       I    between atoms: C8_10  and  N2_12 
REMARK    5  A    between atoms: N2_12  and  C9_14 
REMARK    6  A    between atoms: C9_14  and  C10_15 
REMARK    7  A    between atoms: C9_14  and  C17_22 
REMARK    8  A    between atoms: C10_15  and  C11_16 
REMARK    9  A    between atoms: C17_22  and  C18_24 
REMARK   10  A    between atoms: C18_24  and  C19_25 
ROOT
HETATM    1  C9  UNL     1      68.432  52.527  -1.419  1.00  0.00     0.178 C 
ENDROOT
BRANCH   1   2
HETATM    2  N2  UNL     1      69.687  53.346  -1.411  1.00  0.00    -0.338 N 
HETATM    3  C8  UNL     1      70.124  54.029  -0.255  1.00  0.00     0.310 C 
HETATM    4  O2  UNL     1      69.424  53.929   0.770  1.00  0.00    -0.262 OA
ATOM      5  H2  UNL     1      70.241  53.412  -2.264  1.00  0.00     0.164 HD
BRANCH   3   6
HETATM    6  C7  UNL     1      71.332  54.818  -0.238  1.00  0.00     0.311 C 
HETATM    7  N1  UNL     1      72.574  54.406   0.291  1.00  0.00    -0.341 N 
HETATM    8  O1  UNL     1      71.293  55.998  -0.744  1.00  0.00    -0.262 OA
BRANCH   7   9
HETATM    9  C4  UNL     1      73.697  55.341   0.256  1.00  0.00     0.159 C 
BRANCH   9  10
HETATM   10  C2  UNL     1      74.740  54.839  -0.650  1.00  0.00    -0.075 C 
HETATM   11  C1  UNL     1      75.958  54.639  -0.189  1.00  0.00     0.015 C 
HETATM   12  C3  UNL     1      74.485  54.536  -2.094  1.00  0.00     0.044 C 
ENDBRANCH   9  10
ENDBRANCH   7   9
BRANCH   7  13
HETATM   13  C5  UNL     1      72.834  53.107   0.866  1.00  0.00     0.122 C 
HETATM   14  C6  UNL     1      72.603  53.067   2.359  1.00  0.00     0.026 C 
ENDBRANCH   7  13
ENDBRANCH   3   6
ENDBRANCH   1   2
BRANCH   1  15
HETATM   15  C10 UNL     1      68.902  51.162  -1.625  1.00  0.00     0.008 C 
BRANCH  15  16
HETATM   16  C11 UNL     1      69.318  50.238  -0.583  1.00  0.00    -0.081 C 
HETATM   17  C12 UNL     1      68.542  48.949  -0.437  1.00  0.00     0.034 C 
HETATM   18  C13 UNL     1      69.288  48.091   0.598  1.00  0.00     0.004 C 
HETATM   19  C14 UNL     1      69.700  49.001   1.732  1.00  0.00     0.001 C 
HETATM   20  C15 UNL     1      70.839  49.901   1.301  1.00  0.00     0.004 C 
HETATM   21  C16 UNL     1      70.770  50.121  -0.233  1.00  0.00     0.034 C 
ENDBRANCH  15  16
ENDBRANCH   1  15
BRANCH   1  22
HETATM   22  C17 UNL     1      67.469  53.182  -2.315  1.00  0.00     0.161 C 
HETATM   23  O3  UNL     1      66.282  52.738  -2.344  1.00  0.00    -0.295 OA
BRANCH  22  24
HETATM   24  C18 UNL     1      67.699  54.313  -3.228  1.00  0.00     0.180 C 
BRANCH  24  25
HETATM   25  C19 UNL     1      67.215  55.578  -2.622  1.00  0.00     0.238 C 
HETATM   26  N3  UNL     1      68.088  56.354  -1.813  1.00  0.00    -0.062 NA
HETATM   27  O4  UNL     1      66.062  55.985  -2.799  1.00  0.00    -0.276 OA
ENDBRANCH  24  25
ENDBRANCH  22  24
ENDBRANCH   1  22
TORSDOF 10
ENDMDL
MODEL 3
REMARK VINA RESULT: -6.106570363      0.395      1.075
REMARK  10 active torsions:
REMARK  status: ('A' for Active; 'I' for Inactive)
REMARK    1  A    between atoms: C2_2  and  C4_4 
REMARK    2  A    between atoms: C4_4  and  N1_5 
REMARK    3  A    between atoms: N1_5  and  C5_6 
REMARK       I    between atoms: N1_5  and  C7_8 
REMARK    4  A    between atoms: C7_8  and  C8_10 
REMARK       I    between atoms: C8_10  and  N2_12 
REMARK    5  A    between atoms: N2_12  and  C9_14 
REMARK    6  A    between atoms: C9_14  and  C10_15 
REMARK    7  A    between atoms: C9_14  and  C17_22 
REMARK    8  A    between atoms: C10_15  and  C11_16 
REMARK    9  A    between atoms: C17_22  and  C18_24 
REMARK   10  A    between atoms: C18_24  and  C19_25 
ROOT
HETATM    1  C9  UNL     1      68.593  52.656  -1.454  1.00  0.00     0.178 C 
ENDROOT
BRANCH   1   2
HETATM    2  N2  UNL     1      69.806  53.534  -1.516  1.00  0.00    -0.338 N 
HETATM    3  C8  UNL     1      70.299  54.206  -0.376  1.00  0.00     0.310 C 
HETATM    4  O2  UNL     1      69.684  54.046   0.695  1.00  0.00    -0.262 OA
ATOM      5  H2  UNL     1      70.289  53.649  -2.406  1.00  0.00     0.164 HD
BRANCH   3   6
HETATM    6  C7  UNL     1      71.467  55.052  -0.427  1.00  0.00     0.311 C 
HETATM    7  N1  UNL     1      72.797  54.628  -0.216  1.00  0.00    -0.341 N 
HETATM    8  O1  UNL     1      71.302  56.299  -0.684  1.00  0.00    -0.262 OA
BRANCH   7   9
HETATM    9  C4  UNL     1      73.868  55.621  -0.274  1.00  0.00     0.159 C 
BRANCH   9  10
HETATM   10  C2  UNL     1      74.537  55.714   1.031  1.00  0.00    -0.075 C 
HETATM   11  C1  UNL     1      75.843  55.553   1.103  1.00  0.00     0.015 C 
HETATM   12  C3  UNL     1      73.801  55.991   2.305  1.00  0.00     0.044 C 
ENDBRANCH   9  10
ENDBRANCH   7   9
BRANCH   7  13
HETATM   13  C5  UNL     1      73.194  53.264   0.046  1.00  0.00     0.122 C 
HETATM   14  C6  UNL     1      73.477  52.481  -1.216  1.00  0.00     0.026 C 
ENDBRANCH   7  13
ENDBRANCH   3   6
ENDBRANCH   1   2
BRANCH   1  15
HETATM   15  C10 UNL     1      69.123  51.309  -1.630  1.00  0.00     0.008 C 
BRANCH  15  16
HETATM   16  C11 UNL     1      69.264  50.306  -0.587  1.00  0.00    -0.081 C 
HETATM   17  C12 UNL     1      70.413  50.461   0.384  1.00  0.00     0.034 C 
HETATM   18  C13 UNL     1      70.227  49.390   1.471  1.00  0.00     0.004 C 
HETATM   19  C14 UNL     1      69.828  48.106   0.782  1.00  0.00     0.001 C 
HETATM   20  C15 UNL     1      68.400  48.193   0.286  1.00  0.00     0.004 C 
HETATM   21  C16 UNL     1      68.042  49.677   0.005  1.00  0.00     0.034 C 
ENDBRANCH  15  16
ENDBRANCH   1  15
BRANCH   1  22
HETATM   22  C17 UNL     1      67.571  53.233  -2.339  1.00  0.00     0.161 C 
HETATM   23  O3  UNL     1      66.420  52.701  -2.348  1.00  0.00    -0.295 OA
BRANCH  22  24
HETATM   24  C18 UNL     1      67.702  54.373  -3.260  1.00  0.00     0.180 C 
BRANCH  24  25
HETATM   25  C19 UNL     1      67.200  55.616  -2.625  1.00  0.00     0.238 C 
HETATM   26  N3  UNL     1      68.067  56.396  -1.814  1.00  0.00    -0.062 NA
HETATM   27  O4  UNL     1      66.037  56.000  -2.778  1.00  0.00    -0.276 OA
ENDBRANCH  24  25
ENDBRANCH  22  24
ENDBRANCH   1  22
TORSDOF 10
ENDMDL
MODEL 4
REMARK VINA RESULT: -6.098712497      2.029      5.725
REMARK  10 active torsions:
REMARK  status: ('A' for Active; 'I' for Inactive)
REMARK    1  A    between atoms: C2_2  and  C4_4 
REMARK    2  A    between atoms: C4_4  and  N1_5 
REMARK    3  A    between atoms: N1_5  and  C5_6 
REMARK       I    between atoms: N1_5  and  C7_8 
REMARK    4  A    between atoms: C7_8  and  C8_10 
REMARK       I    between atoms: C8_10  and  N2_12 
REMARK    5  A    between atoms: N2_12  and  C9_14 
REMARK    6  A    between atoms: C9_14  and  C10_15 
REMARK    7  A    between atoms: C9_14  and  C17_22 
REMARK    8  A    between atoms: C10_15  and  C11_16 
REMARK    9  A    between atoms: C17_22  and  C18_24 
REMARK   10  A    between atoms: C18_24  and  C19_25 
ROOT
HETATM    1  C9  UNL     1      70.867  52.874  -0.027  1.00  0.00     0.178 C 
ENDROOT
BRANCH   1   2
HETATM    2  N2  UNL     1      69.577  53.496  -0.470  1.00  0.00    -0.338 N 
HETATM    3  C8  UNL     1      69.515  54.823  -0.948  1.00  0.00     0.310 C 
HETATM    4  O2  UNL     1      70.578  55.469  -0.988  1.00  0.00    -0.262 OA
ATOM      5  H2  UNL     1      68.720  52.945  -0.425  1.00  0.00     0.164 HD
BRANCH   3   6
HETATM    6  C7  UNL     1      68.278  55.429  -1.378  1.00  0.00     0.311 C 
HETATM    7  N1  UNL     1      67.543  55.067  -2.528  1.00  0.00    -0.341 N 
HETATM    8  O1  UNL     1      67.788  56.379  -0.666  1.00  0.00    -0.262 OA
BRANCH   7   9
HETATM    9  C4  UNL     1      66.319  55.803  -2.839  1.00  0.00     0.159 C 
BRANCH   9  10
HETATM   10  C2  UNL     1      66.594  56.826  -3.858  1.00  0.00    -0.075 C 
HETATM   11  C1  UNL     1      66.335  56.567  -5.124  1.00  0.00     0.015 C 
HETATM   12  C3  UNL     1      67.159  58.172  -3.527  1.00  0.00     0.044 C 
ENDBRANCH   9  10
ENDBRANCH   7   9
BRANCH   7  13
HETATM   13  C5  UNL     1      67.903  54.000  -3.433  1.00  0.00     0.122 C 
HETATM   14  C6  UNL     1      67.391  52.650  -2.984  1.00  0.00     0.026 C 
ENDBRANCH   7  13
ENDBRANCH   3   6
ENDBRANCH   1   2
BRANCH   1  15
HETATM   15  C10 UNL     1      70.806  51.518  -0.561  1.00  0.00     0.008 C 
BRANCH  15  16
HETATM   16  C11 UNL     1      70.176  50.377   0.081  1.00  0.00    -0.081 C 
HETATM   17  C12 UNL     1      70.862  49.787   1.293  1.00  0.00     0.034 C 
HETATM   18  C13 UNL     1      69.911  48.728   1.874  1.00  0.00     0.004 C 
HETATM   19  C14 UNL     1      69.344  47.940   0.716  1.00  0.00     0.001 C 
HETATM   20  C15 UNL     1      68.337  48.773  -0.048  1.00  0.00     0.004 C 
HETATM   21  C16 UNL     1      68.683  50.276   0.114  1.00  0.00     0.034 C 
ENDBRANCH  15  16
ENDBRANCH   1  15
BRANCH   1  22
HETATM   22  C17 UNL     1      71.039  53.160   1.404  1.00  0.00     0.161 C 
HETATM   23  O3  UNL     1      70.007  53.438   2.086  1.00  0.00    -0.295 OA
BRANCH  22  24
HETATM   24  C18 UNL     1      72.287  53.186   2.184  1.00  0.00     0.180 C 
BRANCH  24  25
HETATM   25  C19 UNL     1      72.541  54.547   2.716  1.00  0.00     0.238 C 
HETATM   26  N3  UNL     1      73.073  55.552   1.864  1.00  0.00    -0.062 NA
HETATM   27  O4  UNL     1      72.301  54.841   3.891  1.00  0.00    -0.276 OA
ENDBRANCH  24  25
ENDBRANCH  22  24
ENDBRANCH   1  22
TORSDOF 10
ENDMDL
MODEL 5
REMARK VINA RESULT: -6.089249110      1.323      1.460
REMARK  10 active torsions:
REMARK  status: ('A' for Active; 'I' for Inactive)
REMARK    1  A    between atoms: C2_2  and  C4_4 
REMARK    2  A    between atoms: C4_4  and  N1_5 
REMARK    3  A    between atoms: N1_5  and  C5_6 
REMARK       I    between atoms: N1_5  and  C7_8 
REMARK    4  A    between atoms: C7_8  and  C8_10 
REMARK       I    between atoms: C8_10  and  N2_12 
REMARK    5  A    between atoms: N2_12  and  C9_14 
REMARK    6  A    between atoms: C9_14  and  C10_15 
REMARK    7  A    between atoms: C9_14  and  C17_22 
REMARK    8  A    between atoms: C10_15  and  C11_16 
REMARK    9  A    between atoms: C17_22  and  C18_24 
REMARK   10  A    between atoms: C18_24  and  C19_25 
ROOT
HETATM    1  C9  UNL     1      68.580  51.816  -1.311  1.00  0.00     0.178 C 
ENDROOT
BRANCH   1   2
HETATM    2  N2  UNL     1      69.618  52.788  -0.837  1.00  0.00    -0.338 N 
HETATM    3  C8  UNL     1      69.726  53.160   0.521  1.00  0.00     0.310 C 
HETATM    4  O2  UNL     1      68.920  52.649   1.321  1.00  0.00    -0.262 OA
ATOM      5  H2  UNL     1      70.264  53.192  -1.514  1.00  0.00     0.164 HD
BRANCH   3   6
HETATM    6  C7  UNL     1      70.723  54.093   0.986  1.00  0.00     0.311 C 
HETATM    7  N1  UNL     1      72.094  53.808   1.166  1.00  0.00    -0.341 N 
HETATM    8  O1  UNL     1      70.350  55.290   1.266  1.00  0.00    -0.262 OA
BRANCH   7   9
HETATM    9  C4  UNL     1      72.970  54.862   1.675  1.00  0.00     0.159 C 
BRANCH   9  10
HETATM   10  C2  UNL     1      73.435  54.519   3.026  1.00  0.00    -0.075 C 
HETATM   11  C1  UNL     1      74.729  54.457   3.270  1.00  0.00     0.015 C 
HETATM   12  C3  UNL     1      72.501  54.235   4.160  1.00  0.00     0.044 C 
ENDBRANCH   9  10
ENDBRANCH   7   9
BRANCH   7  13
HETATM   13  C5  UNL     1      72.716  52.538   0.870  1.00  0.00     0.122 C 
HETATM   14  C6  UNL     1      73.264  52.465  -0.536  1.00  0.00     0.026 C 
ENDBRANCH   7  13
ENDBRANCH   3   6
ENDBRANCH   1   2
BRANCH   1  15
HETATM   15  C10 UNL     1      69.287  50.542  -1.360  1.00  0.00     0.008 C 
BRANCH  15  16
HETATM   16  C11 UNL     1      69.575  49.684  -0.223  1.00  0.00    -0.081 C 
HETATM   17  C12 UNL     1      68.721  48.449  -0.041  1.00  0.00     0.034 C 
HETATM   18  C13 UNL     1      69.342  47.640   1.110  1.00  0.00     0.004 C 
HETATM   19  C14 UNL     1      69.719  48.615   2.201  1.00  0.00     0.001 C 
HETATM   20  C15 UNL     1      70.933  49.423   1.793  1.00  0.00     0.004 C 
HETATM   21  C16 UNL     1      70.988  49.525   0.246  1.00  0.00     0.034 C 
ENDBRANCH  15  16
ENDBRANCH   1  15
BRANCH   1  22
HETATM   22  C17 UNL     1      67.912  52.403  -2.481  1.00  0.00     0.161 C 
HETATM   23  O3  UNL     1      66.915  51.790  -2.970  1.00  0.00    -0.295 OA
BRANCH  22  24
HETATM   24  C18 UNL     1      68.256  53.639  -3.202  1.00  0.00     0.180 C 
BRANCH  24  25
HETATM   25  C19 UNL     1      67.665  54.818  -2.524  1.00  0.00     0.238 C 
HETATM   26  N3  UNL     1      68.479  55.646  -1.705  1.00  0.00    -0.062 NA
HETATM   27  O4  UNL     1      66.471  55.110  -2.648  1.00  0.00    -0.276 OA
ENDBRANCH  24  25
ENDBRANCH  22  24
ENDBRANCH   1  22
TORSDOF 10
ENDMDL
