MODEL 1
REMARK VINA RESULT: -5.821514568      0.000      0.000
REMARK  12 active torsions:
REMARK  status: ('A' for Active; 'I' for Inactive)
REMARK    1  A    between atoms: C2_2  and  C3_3 
REMARK    2  A    between atoms: C3_3  and  C4_4 
REMARK    3  A    between atoms: N1_6  and  C6_7 
REMARK    4  A    between atoms: C6_7  and  C7_9 
REMARK    5  A    between atoms: C7_9  and  C8_10 
REMARK    6  A    between atoms: C7_9  and  C12_18 
REMARK    7  A    between atoms: C8_10  and  C9_11 
REMARK    8  A    between atoms: C9_11  and  C10_12 
REMARK    9  A    between atoms: C10_12  and  N2_13 
REMARK   10  A    between atoms: C12_18  and  C13_19 
REMARK   11  A    between atoms: C13_19  and  S2_20 
REMARK   12  A    between atoms: C16_23  and  N5_24 
ROOT
HETATM    1  C6  UNL     1      71.939  50.479   1.474  1.00  0.00     0.080 C 
HETATM    2  S1  UNL     1      72.455  49.192   2.383  1.00  0.00    -0.065 SA
ENDROOT
BRANCH   1   3
HETATM    3  N1  UNL     1      70.847  50.291   0.572  1.00  0.00    -0.372 N 
HETATM    4  C5  UNL     1      70.739  50.457  -0.835  1.00  0.00     0.130 C 
HETATM    5  C4  UNL     1      69.629  49.460  -1.271  1.00  0.00     0.036 C 
HETATM    6  C16 UNL     1      69.330  48.713  -0.010  1.00  0.00     0.207 C 
HETATM    7  C15 UNL     1      69.513  49.849   1.008  1.00  0.00     0.156 C 
BRANCH   5   8
HETATM    8  C3  UNL     1      68.466  50.205  -1.805  1.00  0.00     0.008 C 
BRANCH   8   9
HETATM    9  C2  UNL     1      68.594  51.670  -2.010  1.00  0.00    -0.004 C 
HETATM   10  C1  UNL     1      67.383  52.209  -2.756  1.00  0.00     0.005 C 
ENDBRANCH   8   9
ENDBRANCH   5   8
BRANCH   6  11
HETATM   11  N5  UNL     1      68.058  48.138   0.142  1.00  0.00    -0.073 N 
ATOM     12  H53 UNL     1      68.150  47.261   0.655  1.00  0.00     0.274 HD
ATOM     13  H52 UNL     1      67.519  48.698   0.804  1.00  0.00     0.274 HD
ATOM     14  H51 UNL     1      67.494  47.976  -0.691  1.00  0.00     0.274 HD
ENDBRANCH   6  11
ENDBRANCH   1   3
BRANCH   1  15
HETATM   15  C7  UNL     1      72.626  51.777   1.624  1.00  0.00     0.048 C 
BRANCH  15  16
HETATM   16  C8  UNL     1      71.786  52.847   2.262  1.00  0.00     0.013 C 
BRANCH  16  17
HETATM   17  C9  UNL     1      71.331  53.862   1.277  1.00  0.00     0.020 C 
BRANCH  17  18
HETATM   18  C10 UNL     1      69.872  53.793   0.942  1.00  0.00     0.122 C 
BRANCH  18  19
HETATM   19  N2  UNL     1      69.558  54.572  -0.261  1.00  0.00    -0.367 N 
HETATM   20  C11 UNL     1      68.744  55.586  -0.191  1.00  0.00     0.196 C 
HETATM   21  N3  UNL     1      68.485  56.290  -1.376  1.00  0.00    -0.067 NA
HETATM   22  N4  UNL     1      68.143  55.960   1.038  1.00  0.00    -0.067 NA
ATOM     23  H2  UNL     1      69.980  54.320  -1.154  1.00  0.00     0.161 HD
ENDBRANCH  18  19
ENDBRANCH  17  18
ENDBRANCH  16  17
ENDBRANCH  15  16
BRANCH  15  24
HETATM   24  C12 UNL     1      73.336  52.243   0.374  1.00  0.00     0.022 C 
BRANCH  24  25
HETATM   25  C13 UNL     1      74.568  51.369   0.163  1.00  0.00     0.074 C 
BRANCH  25  26
HETATM   26  S2  UNL     1      74.463  50.441  -1.375  1.00  0.00    -0.173 SA
HETATM   27  C14 UNL     1      76.011  49.519  -1.579  1.00  0.00     0.089 C 
ENDBRANCH  25  26
ENDBRANCH  24  25
ENDBRANCH  15  24
ENDBRANCH   1  15
TORSDOF 12
ENDMDL
MODEL 2
REMARK VINA RESULT: -5.787383405      2.991      5.126
REMARK  12 active torsions:
REMARK  status: ('A' for Active; 'I' for Inactive)
REMARK    1  A    between atoms: C2_2  and  C3_3 
REMARK    2  A    between atoms: C3_3  and  C4_4 
REMARK    3  A    between atoms: N1_6  and  C6_7 
REMARK    4  A    between atoms: C6_7  and  C7_9 
REMARK    5  A    between atoms: C7_9  and  C8_10 
REMARK    6  A    between atoms: C7_9  and  C12_18 
REMARK    7  A    between atoms: C8_10  and  C9_11 
REMARK    8  A    between atoms: C9_11  and  C10_12 
REMARK    9  A    between atoms: C10_12  and  N2_13 
REMARK   10  A    between atoms: C12_18  and  C13_19 
REMARK   11  A    between atoms: C13_19  and  S2_20 
REMARK   12  A    between atoms: C16_23  and  N5_24 
ROOT
HETATM    1  C6  UNL     1      69.475  49.036   0.384  1.00  0.00     0.080 C 
HETATM    2  S1  UNL     1      68.085  48.197   0.050  1.00  0.00    -0.065 SA
ENDROOT
BRANCH   1   3
HETATM    3  N1  UNL     1      70.366  48.526   1.377  1.00  0.00    -0.372 N 
HETATM    4  C5  UNL     1      71.688  48.896   1.746  1.00  0.00     0.130 C 
HETATM    5  C4  UNL     1      71.805  48.510   3.248  1.00  0.00     0.036 C 
HETATM    6  C16 UNL     1      70.417  48.078   3.597  1.00  0.00     0.207 C 
HETATM    7  C15 UNL     1      70.018  47.411   2.271  1.00  0.00     0.156 C 
BRANCH   5   8
HETATM    8  C3  UNL     1      72.816  47.441   3.415  1.00  0.00     0.008 C 
BRANCH   8   9
HETATM    9  C2  UNL     1      73.645  47.058   2.244  1.00  0.00    -0.004 C 
HETATM   10  C1  UNL     1      73.467  45.581   1.927  1.00  0.00     0.005 C 
ENDBRANCH   8   9
ENDBRANCH   5   8
BRANCH   6  11
HETATM   11  N5  UNL     1      70.244  47.172   4.656  1.00  0.00    -0.073 N 
ATOM     12  H53 UNL     1      69.652  47.603   5.366  1.00  0.00     0.274 HD
ATOM     13  H52 UNL     1      69.648  46.406   4.342  1.00  0.00     0.274 HD
ATOM     14  H51 UNL     1      71.072  46.785   5.106  1.00  0.00     0.274 HD
ENDBRANCH   6  11
ENDBRANCH   1   3
BRANCH   1  15
HETATM   15  C7  UNL     1      69.746  50.286  -0.354  1.00  0.00     0.048 C 
BRANCH  15  16
HETATM   16  C8  UNL     1      69.727  51.521   0.502  1.00  0.00     0.013 C 
BRANCH  16  17
HETATM   17  C9  UNL     1      70.971  52.321   0.356  1.00  0.00     0.020 C 
BRANCH  17  18
HETATM   18  C10 UNL     1      70.749  53.748  -0.046  1.00  0.00     0.122 C 
BRANCH  18  19
HETATM   19  N2  UNL     1      69.564  54.313   0.608  1.00  0.00    -0.367 N 
HETATM   20  C11 UNL     1      69.210  55.544   0.374  1.00  0.00     0.196 C 
HETATM   21  N3  UNL     1      68.068  56.024   1.030  1.00  0.00    -0.067 NA
HETATM   22  N4  UNL     1      69.956  56.365  -0.510  1.00  0.00    -0.067 NA
ATOM     23  H2  UNL     1      69.014  53.739   1.247  1.00  0.00     0.161 HD
ENDBRANCH  18  19
ENDBRANCH  17  18
ENDBRANCH  16  17
ENDBRANCH  15  16
BRANCH  15  24
HETATM   24  C12 UNL     1      68.946  50.433  -1.627  1.00  0.00     0.022 C 
BRANCH  24  25
HETATM   25  C13 UNL     1      68.072  51.677  -1.509  1.00  0.00     0.074 C 
BRANCH  25  26
HETATM   26  S2  UNL     1      68.124  52.666  -3.011  1.00  0.00    -0.173 SA
HETATM   27  C14 UNL     1      67.393  54.285  -2.641  1.00  0.00     0.089 C 
ENDBRANCH  25  26
ENDBRANCH  24  25
ENDBRANCH  15  24
ENDBRANCH   1  15
TORSDOF 12
ENDMDL
MODEL 3
REMARK VINA RESULT: -5.683705524      2.296      5.049
REMARK  12 active torsions:
REMARK  status: ('A' for Active; 'I' for Inactive)
REMARK    1  A    between atoms: C2_2  and  C3_3 
REMARK    2  A    between atoms: C3_3  and  C4_4 
REMARK    3  A    between atoms: N1_6  and  C6_7 
REMARK    4  A    between atoms: C6_7  and  C7_9 
REMARK    5  A    between atoms: C7_9  and  C8_10 
REMARK    6  A    between atoms: C7_9  and  C12_18 
REMARK    7  A    between atoms: C8_10  and  C9_11 
REMARK    8  A    between atoms: C9_11  and  C10_12 
REMARK    9  A    between atoms: C10_12  and  N2_13 
REMARK   10  A    between atoms: C12_18  and  C13_19 
REMARK   11  A    between atoms: C13_19  and  S2_20 
REMARK   12  A    between atoms: C16_23  and  N5_24 
ROOT
HETATM    1  C6  UNL     1      69.446  52.004  -0.141  1.00  0.00     0.080 C 
HETATM    2  S1  UNL     1      68.583  51.821   1.263  1.00  0.00    -0.065 SA
ENDROOT
BRANCH   1   3
HETATM    3  N1  UNL     1      70.713  52.662  -0.089  1.00  0.00    -0.372 N 
HETATM    4  C5  UNL     1      71.447  53.387  -1.068  1.00  0.00     0.130 C 
HETATM    5  C4  UNL     1      72.302  54.400  -0.255  1.00  0.00     0.036 C 
HETATM    6  C16 UNL     1      71.815  54.209   1.145  1.00  0.00     0.207 C 
HETATM    7  C15 UNL     1      71.551  52.695   1.119  1.00  0.00     0.156 C 
BRANCH   5   8
HETATM    8  C3  UNL     1      73.741  54.093  -0.427  1.00  0.00     0.008 C 
BRANCH   8   9
HETATM    9  C2  UNL     1      74.165  53.321  -1.622  1.00  0.00    -0.004 C 
HETATM   10  C1  UNL     1      74.852  52.029  -1.202  1.00  0.00     0.005 C 
ENDBRANCH   8   9
ENDBRANCH   5   8
BRANCH   6  11
HETATM   11  N5  UNL     1      72.682  54.522   2.205  1.00  0.00    -0.073 N 
ATOM     12  H53 UNL     1      72.163  54.479   3.081  1.00  0.00     0.274 HD
ATOM     13  H52 UNL     1      73.343  53.756   2.329  1.00  0.00     0.274 HD
ATOM     14  H51 UNL     1      73.197  55.401   2.168  1.00  0.00     0.274 HD
ENDBRANCH   6  11
ENDBRANCH   1   3
BRANCH   1  15
HETATM   15  C7  UNL     1      68.877  51.483  -1.399  1.00  0.00     0.048 C 
BRANCH  15  16
HETATM   16  C8  UNL     1      67.752  52.311  -1.954  1.00  0.00     0.013 C 
BRANCH  16  17
HETATM   17  C9  UNL     1      68.232  53.315  -2.939  1.00  0.00     0.020 C 
BRANCH  17  18
HETATM   18  C10 UNL     1      68.052  54.741  -2.510  1.00  0.00     0.122 C 
BRANCH  18  19
HETATM   19  N2  UNL     1      67.827  54.844  -1.065  1.00  0.00    -0.367 N 
HETATM   20  C11 UNL     1      68.529  55.675  -0.349  1.00  0.00     0.196 C 
HETATM   21  N3  UNL     1      68.266  55.726   1.027  1.00  0.00    -0.067 NA
HETATM   22  N4  UNL     1      69.522  56.496  -0.944  1.00  0.00    -0.067 NA
ATOM     23  H2  UNL     1      67.118  54.263  -0.618  1.00  0.00     0.161 HD
ENDBRANCH  18  19
ENDBRANCH  17  18
ENDBRANCH  16  17
ENDBRANCH  15  16
BRANCH  15  24
HETATM   24  C12 UNL     1      68.567  50.004  -1.367  1.00  0.00     0.022 C 
BRANCH  24  25
HETATM   25  C13 UNL     1      69.815  49.259  -0.902  1.00  0.00     0.074 C 
BRANCH  25  26
HETATM   26  S2  UNL     1      69.476  48.236   0.538  1.00  0.00    -0.173 SA
HETATM   27  C14 UNL     1      70.658  48.687   1.836  1.00  0.00     0.089 C 
ENDBRANCH  25  26
ENDBRANCH  24  25
ENDBRANCH  15  24
ENDBRANCH   1  15
TORSDOF 12
ENDMDL
MODEL 4
REMARK VINA RESULT: -5.657216165      3.206      5.422
REMARK  12 active torsions:
REMARK  status: ('A' for Active; 'I' for Inactive)
REMARK    1  A    between atoms: C2_2  and  C3_3 
REMARK    2  A    between atoms: C3_3  and  C4_4 
REMARK    3  A    between atoms: N1_6  and  C6_7 
REMARK    4  A    between atoms: C6_7  and  C7_9 
REMARK    5  A    between atoms: C7_9  and  C8_10 
REMARK    6  A    between atoms: C7_9  and  C12_18 
REMARK    7  A    between atoms: C8_10  and  C9_11 
REMARK    8  A    between atoms: C9_11  and  C10_12 
REMARK    9  A    between atoms: C10_12  and  N2_13 
REMARK   10  A    between atoms: C12_18  and  C13_19 
REMARK   11  A    between atoms: C13_19  and  S2_20 
REMARK   12  A    between atoms: C16_23  and  N5_24 
ROOT
HETATM    1  C6  UNL     1      69.375  49.161   0.444  1.00  0.00     0.080 C 
HETATM    2  S1  UNL     1      68.064  48.272  -0.044  1.00  0.00    -0.065 SA
ENDROOT
BRANCH   1   3
HETATM    3  N1  UNL     1      70.104  48.737   1.597  1.00  0.00    -0.372 N 
HETATM    4  C5  UNL     1      69.678  48.259   2.866  1.00  0.00     0.130 C 
HETATM    5  C4  UNL     1      70.831  47.336   3.353  1.00  0.00     0.036 C 
HETATM    6  C16 UNL     1      71.751  47.293   2.174  1.00  0.00     0.207 C 
HETATM    7  C15 UNL     1      71.573  48.729   1.659  1.00  0.00     0.156 C 
BRANCH   5   8
HETATM    8  C3  UNL     1      71.455  47.910   4.567  1.00  0.00     0.008 C 
BRANCH   8   9
HETATM    9  C2  UNL     1      71.428  47.117   5.822  1.00  0.00    -0.004 C 
HETATM   10  C1  UNL     1      72.483  46.021   5.780  1.00  0.00     0.005 C 
ENDBRANCH   8   9
ENDBRANCH   5   8
BRANCH   6  11
HETATM   11  N5  UNL     1      73.112  47.031   2.396  1.00  0.00    -0.073 N 
ATOM     12  H53 UNL     1      73.563  47.883   2.730  1.00  0.00     0.274 HD
ATOM     13  H52 UNL     1      73.204  46.426   3.212  1.00  0.00     0.274 HD
ATOM     14  H51 UNL     1      73.664  46.643   1.632  1.00  0.00     0.274 HD
ENDBRANCH   6  11
ENDBRANCH   1   3
BRANCH   1  15
HETATM   15  C7  UNL     1      69.746  50.364  -0.327  1.00  0.00     0.048 C 
BRANCH  15  16
HETATM   16  C8  UNL     1      69.788  51.627   0.487  1.00  0.00     0.013 C 
BRANCH  16  17
HETATM   17  C9  UNL     1      71.035  52.401   0.252  1.00  0.00     0.020 C 
BRANCH  17  18
HETATM   18  C10 UNL     1      70.817  53.849  -0.065  1.00  0.00     0.122 C 
BRANCH  18  19
HETATM   19  N2  UNL     1      69.619  54.372   0.602  1.00  0.00    -0.367 N 
HETATM   20  C11 UNL     1      69.217  55.588   0.370  1.00  0.00     0.196 C 
HETATM   21  N3  UNL     1      68.066  56.028   1.039  1.00  0.00    -0.067 NA
HETATM   22  N4  UNL     1      69.920  56.434  -0.526  1.00  0.00    -0.067 NA
ATOM     23  H2  UNL     1      69.100  53.780   1.250  1.00  0.00     0.161 HD
ENDBRANCH  18  19
ENDBRANCH  17  18
ENDBRANCH  16  17
ENDBRANCH  15  16
BRANCH  15  24
HETATM   24  C12 UNL     1      68.989  50.518  -1.626  1.00  0.00     0.022 C 
BRANCH  24  25
HETATM   25  C13 UNL     1      68.085  51.742  -1.517  1.00  0.00     0.074 C 
BRANCH  25  26
HETATM   26  S2  UNL     1      68.125  52.729  -3.020  1.00  0.00    -0.173 SA
HETATM   27  C14 UNL     1      67.506  54.386  -2.619  1.00  0.00     0.089 C 
ENDBRANCH  25  26
ENDBRANCH  24  25
ENDBRANCH  15  24
ENDBRANCH   1  15
TORSDOF 12
ENDMDL
MODEL 5
REMARK VINA RESULT: -5.651810997      3.069      5.014
REMARK  12 active torsions:
REMARK  status: ('A' for Active; 'I' for Inactive)
REMARK    1  A    between atoms: C2_2  and  C3_3 
REMARK    2  A    between atoms: C3_3  and  C4_4 
REMARK    3  A    between atoms: N1_6  and  C6_7 
REMARK    4  A    between atoms: C6_7  and  C7_9 
REMARK    5  A    between atoms: C7_9  and  C8_10 
REMARK    6  A    between atoms: C7_9  and  C12_18 
REMARK    7  A    between atoms: C8_10  and  C9_11 
REMARK    8  A    between atoms: C9_11  and  C10_12 
REMARK    9  A    between atoms: C10_12  and  N2_13 
REMARK   10  A    between atoms: C12_18  and  C13_19 
REMARK   11  A    between atoms: C13_19  and  S2_20 
REMARK   12  A    between atoms: C16_23  and  N5_24 
ROOT
HETATM    1  C6  UNL     1      69.615  49.465   0.707  1.00  0.00     0.080 C 
HETATM    2  S1  UNL     1      68.493  48.628  -0.182  1.00  0.00    -0.065 SA
ENDROOT
BRANCH   1   3
HETATM    3  N1  UNL     1      70.245  48.812   1.809  1.00  0.00    -0.372 N 
HETATM    4  C5  UNL     1      69.738  48.343   3.052  1.00  0.00     0.130 C 
HETATM    5  C4  UNL     1      70.672  47.163   3.444  1.00  0.00     0.036 C 
HETATM    6  C16 UNL     1      71.551  47.013   2.244  1.00  0.00     0.207 C 
HETATM    7  C15 UNL     1      71.680  48.489   1.836  1.00  0.00     0.156 C 
BRANCH   5   8
HETATM    8  C3  UNL     1      71.414  47.500   4.681  1.00  0.00     0.008 C 
BRANCH   8   9
HETATM    9  C2  UNL     1      71.314  46.580   5.842  1.00  0.00    -0.004 C 
HETATM   10  C1  UNL     1      72.570  45.727   5.952  1.00  0.00     0.005 C 
ENDBRANCH   8   9
ENDBRANCH   5   8
BRANCH   6  11
HETATM   11  N5  UNL     1      72.827  46.453   2.415  1.00  0.00    -0.073 N 
ATOM     12  H53 UNL     1      73.505  47.006   1.890  1.00  0.00     0.274 HD
ATOM     13  H52 UNL     1      73.136  46.619   3.372  1.00  0.00     0.274 HD
ATOM     14  H51 UNL     1      72.960  45.468   2.190  1.00  0.00     0.274 HD
ENDBRANCH   6  11
ENDBRANCH   1   3
BRANCH   1  15
HETATM   15  C7  UNL     1      69.924  50.859   0.331  1.00  0.00     0.048 C 
BRANCH  15  16
HETATM   16  C8  UNL     1      68.740  51.637  -0.171  1.00  0.00     0.013 C 
BRANCH  16  17
HETATM   17  C9  UNL     1      68.964  52.173  -1.539  1.00  0.00     0.020 C 
BRANCH  17  18
HETATM   18  C10 UNL     1      68.915  53.668  -1.637  1.00  0.00     0.122 C 
BRANCH  18  19
HETATM   19  N2  UNL     1      68.356  54.269  -0.421  1.00  0.00    -0.367 N 
HETATM   20  C11 UNL     1      68.680  55.483  -0.082  1.00  0.00     0.196 C 
HETATM   21  N3  UNL     1      68.112  56.001   1.091  1.00  0.00    -0.067 NA
HETATM   22  N4  UNL     1      69.573  56.251  -0.872  1.00  0.00    -0.067 NA
ATOM     23  H2  UNL     1      67.712  53.734   0.160  1.00  0.00     0.161 HD
ENDBRANCH  18  19
ENDBRANCH  17  18
ENDBRANCH  16  17
ENDBRANCH  15  16
BRANCH  15  24
HETATM   24  C12 UNL     1      71.146  51.002  -0.546  1.00  0.00     0.022 C 
BRANCH  24  25
HETATM   25  C13 UNL     1      72.263  51.630   0.281  1.00  0.00     0.074 C 
BRANCH  25  26
HETATM   26  S2  UNL     1      72.130  53.423   0.319  1.00  0.00    -0.173 SA
HETATM   27  C14 UNL     1      71.371  53.895   1.897  1.00  0.00     0.089 C 
ENDBRANCH  25  26
ENDBRANCH  24  25
ENDBRANCH  15  24
ENDBRANCH   1  15
TORSDOF 12
ENDMDL
