MODEL 1
REMARK VINA RESULT: -5.680924375      0.000      0.000
REMARK  13 active torsions:
REMARK  status: ('A' for Active; 'I' for Inactive)
REMARK    1  A    between atoms: C4_4  and  C5_5 
REMARK    2  A    between atoms: C5_5  and  N1_6 
REMARK    3  A    between atoms: N2_9  and  C8_10 
REMARK    4  A    between atoms: C8_10  and  C9_11 
REMARK    5  A    between atoms: C9_11  and  C10_12 
REMARK    6  A    between atoms: C10_12  and  N3_13 
REMARK    7  A    between atoms: N3_13  and  C11_15 
REMARK    8  A    between atoms: C11_15  and  N4_17 
REMARK    9  A    between atoms: N4_17  and  C12_19 
REMARK   10  A    between atoms: C12_19  and  C13_20 
REMARK   11  A    between atoms: C13_20  and  C14_21 
REMARK   12  A    between atoms: C14_21  and  O1_22 
REMARK   13  A    between atoms: C15_24  and  C16_25 
ROOT
HETATM    1  N1  UNL     1      68.870  50.830  -0.222  1.00  0.00    -0.406 N 
HETATM    2  C6  UNL     1      68.842  51.526   1.012  1.00  0.00     0.137 C 
HETATM    3  C7  UNL     1      69.597  52.816   1.058  1.00  0.00     0.141 C 
HETATM    4  N2  UNL     1      69.782  53.262  -0.305  1.00  0.00    -0.385 N 
HETATM    5  C15 UNL     1      68.660  53.054  -1.105  1.00  0.00     0.105 C 
HETATM    6  C19 UNL     1      68.611  51.542  -1.408  1.00  0.00     0.142 C 
ENDROOT
BRANCH   4   7
HETATM    7  C8  UNL     1      70.682  54.304  -0.470  1.00  0.00     0.060 C 
BRANCH   7   8
HETATM    8  C9  UNL     1      71.653  54.555   0.633  1.00  0.00     0.064 C 
BRANCH   8   9
HETATM    9  C10 UNL     1      72.875  55.306   0.087  1.00  0.00     0.127 C 
BRANCH   9  10
HETATM   10  N3  UNL     1      73.056  54.982  -1.309  1.00  0.00    -0.367 N 
ATOM     11  H3  UNL     1      72.467  55.428  -2.013  1.00  0.00     0.161 HD
BRANCH  10  12
HETATM   12  C11 UNL     1      74.035  54.061  -1.704  1.00  0.00     0.167 C 
HETATM   13  S1  UNL     1      75.555  54.618  -2.018  1.00  0.00    -0.041 SA
BRANCH  12  14
HETATM   14  N4  UNL     1      73.792  52.682  -1.859  1.00  0.00    -0.367 N 
ATOM     15  H4  UNL     1      73.645  52.334  -2.806  1.00  0.00     0.161 HD
BRANCH  14  16
HETATM   16  C12 UNL     1      73.734  51.716  -0.777  1.00  0.00     0.124 C 
BRANCH  16  17
HETATM   17  C13 UNL     1      73.909  50.321  -1.350  1.00  0.00     0.046 C 
BRANCH  17  18
HETATM   18  C14 UNL     1      75.350  50.046  -1.725  1.00  0.00     0.165 C 
BRANCH  18  19
HETATM   19  O1  UNL     1      75.710  50.738  -2.867  1.00  0.00    -0.401 OA
ATOM     20  H1  UNL     1      75.536  51.667  -2.774  1.00  0.00     0.209 HD
ENDBRANCH  18  19
ENDBRANCH  17  18
ENDBRANCH  16  17
ENDBRANCH  14  16
ENDBRANCH  12  14
ENDBRANCH  10  12
ENDBRANCH   9  10
ENDBRANCH   8   9
ENDBRANCH   7   8
ENDBRANCH   4   7
BRANCH   5  21
HETATM   21  C16 UNL     1      68.596  53.832  -2.385  1.00  0.00     0.010 A 
HETATM   22  C17 UNL     1      67.369  54.632  -2.716  1.00  0.00     0.007 A 
HETATM   23  C18 UNL     1      67.721  53.406  -3.500  1.00  0.00     0.007 A 
ENDBRANCH   5  21
BRANCH   1  24
HETATM   24  C5  UNL     1      69.950  49.869  -0.321  1.00  0.00     0.144 C 
BRANCH  24  25
HETATM   25  C4  UNL     1      69.692  48.628   0.410  1.00  0.00    -0.006 C 
HETATM   26  C2  UNL     1      70.496  48.224   1.391  1.00  0.00    -0.090 C 
HETATM   27  C1  UNL     1      70.259  46.968   2.156  1.00  0.00     0.042 C 
HETATM   28  C3  UNL     1      71.713  49.027   1.776  1.00  0.00     0.042 C 
ENDBRANCH  24  25
ENDBRANCH   1  24
TORSDOF 13
ENDMDL
MODEL 2
REMARK VINA RESULT: -5.635635912      0.715      1.000
REMARK  13 active torsions:
REMARK  status: ('A' for Active; 'I' for Inactive)
REMARK    1  A    between atoms: C4_4  and  C5_5 
REMARK    2  A    between atoms: C5_5  and  N1_6 
REMARK    3  A    between atoms: N2_9  and  C8_10 
REMARK    4  A    between atoms: C8_10  and  C9_11 
REMARK    5  A    between atoms: C9_11  and  C10_12 
REMARK    6  A    between atoms: C10_12  and  N3_13 
REMARK    7  A    between atoms: N3_13  and  C11_15 
REMARK    8  A    between atoms: C11_15  and  N4_17 
REMARK    9  A    between atoms: N4_17  and  C12_19 
REMARK   10  A    between atoms: C12_19  and  C13_20 
REMARK   11  A    between atoms: C13_20  and  C14_21 
REMARK   12  A    between atoms: C14_21  and  O1_22 
REMARK   13  A    between atoms: C15_24  and  C16_25 
ROOT
HETATM    1  N1  UNL     1      68.921  51.481  -0.097  1.00  0.00    -0.406 N 
HETATM    2  C6  UNL     1      69.117  52.188   1.116  1.00  0.00     0.137 C 
HETATM    3  C7  UNL     1      69.945  53.430   1.026  1.00  0.00     0.141 C 
HETATM    4  N2  UNL     1      69.951  53.853  -0.356  1.00  0.00    -0.385 N 
HETATM    5  C15 UNL     1      68.713  53.705  -0.978  1.00  0.00     0.105 C 
HETATM    6  C19 UNL     1      68.530  52.197  -1.244  1.00  0.00     0.142 C 
ENDROOT
BRANCH   4   7
HETATM    7  C8  UNL     1      70.876  54.837  -0.671  1.00  0.00     0.060 C 
BRANCH   7   8
HETATM    8  C9  UNL     1      71.881  55.193   0.370  1.00  0.00     0.064 C 
BRANCH   8   9
HETATM    9  C10 UNL     1      73.106  55.839  -0.292  1.00  0.00     0.127 C 
BRANCH   9  10
HETATM   10  N3  UNL     1      73.338  55.226  -1.579  1.00  0.00    -0.367 N 
ATOM     11  H3  UNL     1      72.894  55.614  -2.412  1.00  0.00     0.161 HD
BRANCH  10  12
HETATM   12  C11 UNL     1      74.168  54.104  -1.692  1.00  0.00     0.167 C 
HETATM   13  S1  UNL     1      75.802  54.329  -1.656  1.00  0.00    -0.041 SA
BRANCH  12  14
HETATM   14  N4  UNL     1      73.687  52.788  -1.847  1.00  0.00    -0.367 N 
ATOM     15  H4  UNL     1      73.442  52.486  -2.789  1.00  0.00     0.161 HD
BRANCH  14  16
HETATM   16  C12 UNL     1      73.513  51.830  -0.771  1.00  0.00     0.124 C 
BRANCH  16  17
HETATM   17  C13 UNL     1      73.777  50.434  -1.305  1.00  0.00     0.046 C 
BRANCH  17  18
HETATM   18  C14 UNL     1      75.251  50.201  -1.560  1.00  0.00     0.165 C 
BRANCH  18  19
HETATM   19  O1  UNL     1      75.625  50.679  -2.802  1.00  0.00    -0.401 OA
ATOM     20  H1  UNL     1      74.910  51.143  -3.222  1.00  0.00     0.209 HD
ENDBRANCH  18  19
ENDBRANCH  17  18
ENDBRANCH  16  17
ENDBRANCH  14  16
ENDBRANCH  12  14
ENDBRANCH  10  12
ENDBRANCH   9  10
ENDBRANCH   8   9
ENDBRANCH   7   8
ENDBRANCH   4   7
BRANCH   5  21
HETATM   21  C16 UNL     1      68.504  54.475  -2.248  1.00  0.00     0.010 A 
HETATM   22  C17 UNL     1      67.406  55.497  -2.334  1.00  0.00     0.007 A 
HETATM   23  C18 UNL     1      67.333  54.222  -3.116  1.00  0.00     0.007 A 
ENDBRANCH   5  21
BRANCH   1  24
HETATM   24  C5  UNL     1      69.916  50.456  -0.338  1.00  0.00     0.144 C 
BRANCH  24  25
HETATM   25  C4  UNL     1      70.219  49.651   0.846  1.00  0.00    -0.006 C 
HETATM   26  C2  UNL     1      69.538  48.540   1.120  1.00  0.00    -0.090 C 
HETATM   27  C1  UNL     1      69.824  47.698   2.314  1.00  0.00     0.042 C 
HETATM   28  C3  UNL     1      68.417  48.078   0.224  1.00  0.00     0.042 C 
ENDBRANCH  24  25
ENDBRANCH   1  24
TORSDOF 13
ENDMDL
MODEL 3
REMARK VINA RESULT: -5.437688954      3.397      4.123
REMARK  13 active torsions:
REMARK  status: ('A' for Active; 'I' for Inactive)
REMARK    1  A    between atoms: C4_4  and  C5_5 
REMARK    2  A    between atoms: C5_5  and  N1_6 
REMARK    3  A    between atoms: N2_9  and  C8_10 
REMARK    4  A    between atoms: C8_10  and  C9_11 
REMARK    5  A    between atoms: C9_11  and  C10_12 
REMARK    6  A    between atoms: C10_12  and  N3_13 
REMARK    7  A    between atoms: N3_13  and  C11_15 
REMARK    8  A    between atoms: C11_15  and  N4_17 
REMARK    9  A    between atoms: N4_17  and  C12_19 
REMARK   10  A    between atoms: C12_19  and  C13_20 
REMARK   11  A    between atoms: C13_20  and  C14_21 
REMARK   12  A    between atoms: C14_21  and  O1_22 
REMARK   13  A    between atoms: C15_24  and  C16_25 
ROOT
HETATM    1  N1  UNL     1      68.507  50.160  -0.650  1.00  0.00    -0.406 N 
HETATM    2  C6  UNL     1      68.235  50.661   0.648  1.00  0.00     0.137 C 
HETATM    3  C7  UNL     1      68.997  51.881   1.054  1.00  0.00     0.141 C 
HETATM    4  N2  UNL     1      69.480  52.517  -0.151  1.00  0.00    -0.385 N 
HETATM    5  C15 UNL     1      68.549  52.500  -1.187  1.00  0.00     0.105 C 
HETATM    6  C19 UNL     1      68.525  51.058  -1.734  1.00  0.00     0.142 C 
ENDROOT
BRANCH   4   7
HETATM    7  C8  UNL     1      70.422  53.517   0.043  1.00  0.00     0.060 C 
BRANCH   7   8
HETATM    8  C9  UNL     1      70.493  54.140   1.395  1.00  0.00     0.064 C 
BRANCH   8   9
HETATM    9  C10 UNL     1      71.898  53.945   1.981  1.00  0.00     0.127 C 
BRANCH   9  10
HETATM   10  N3  UNL     1      71.800  53.268   3.254  1.00  0.00    -0.367 N 
ATOM     11  H3  UNL     1      71.303  52.380   3.317  1.00  0.00     0.161 HD
BRANCH  10  12
HETATM   12  C11 UNL     1      72.383  53.823   4.400  1.00  0.00     0.167 C 
HETATM   13  S1  UNL     1      73.076  55.315   4.285  1.00  0.00    -0.041 SA
BRANCH  12  14
HETATM   14  N4  UNL     1      72.422  53.172   5.650  1.00  0.00    -0.367 N 
ATOM     15  H4  UNL     1      71.534  52.875   6.053  1.00  0.00     0.161 HD
BRANCH  14  16
HETATM   16  C12 UNL     1      73.626  52.890   6.409  1.00  0.00     0.124 C 
BRANCH  16  17
HETATM   17  C13 UNL     1      74.141  51.513   6.028  1.00  0.00     0.046 C 
BRANCH  17  18
HETATM   18  C14 UNL     1      73.014  50.508   5.912  1.00  0.00     0.165 C 
BRANCH  18  19
HETATM   19  O1  UNL     1      72.565  50.409   4.609  1.00  0.00    -0.401 OA
ATOM     20  H1  UNL     1      72.428  49.502   4.360  1.00  0.00     0.209 HD
ENDBRANCH  18  19
ENDBRANCH  17  18
ENDBRANCH  16  17
ENDBRANCH  14  16
ENDBRANCH  12  14
ENDBRANCH  10  12
ENDBRANCH   9  10
ENDBRANCH   8   9
ENDBRANCH   7   8
ENDBRANCH   4   7
BRANCH   5  21
HETATM   21  C16 UNL     1      68.778  53.467  -2.311  1.00  0.00     0.010 A 
HETATM   22  C17 UNL     1      67.850  54.632  -2.499  1.00  0.00     0.007 A 
HETATM   23  C18 UNL     1      67.880  53.507  -3.486  1.00  0.00     0.007 A 
ENDBRANCH   5  21
BRANCH   1  24
HETATM   24  C5  UNL     1      69.557  49.162  -0.678  1.00  0.00     0.144 C 
BRANCH  24  25
HETATM   25  C4  UNL     1      69.473  48.199   0.420  1.00  0.00    -0.006 C 
HETATM   26  C2  UNL     1      70.392  48.167   1.384  1.00  0.00    -0.090 C 
HETATM   27  C1  UNL     1      70.332  47.202   2.516  1.00  0.00     0.042 C 
HETATM   28  C3  UNL     1      71.562  49.117   1.370  1.00  0.00     0.042 C 
ENDBRANCH  24  25
ENDBRANCH   1  24
TORSDOF 13
ENDMDL
MODEL 4
REMARK VINA RESULT: -5.435009512      2.493      3.557
REMARK  13 active torsions:
REMARK  status: ('A' for Active; 'I' for Inactive)
REMARK    1  A    between atoms: C4_4  and  C5_5 
REMARK    2  A    between atoms: C5_5  and  N1_6 
REMARK    3  A    between atoms: N2_9  and  C8_10 
REMARK    4  A    between atoms: C8_10  and  C9_11 
REMARK    5  A    between atoms: C9_11  and  C10_12 
REMARK    6  A    between atoms: C10_12  and  N3_13 
REMARK    7  A    between atoms: N3_13  and  C11_15 
REMARK    8  A    between atoms: C11_15  and  N4_17 
REMARK    9  A    between atoms: N4_17  and  C12_19 
REMARK   10  A    between atoms: C12_19  and  C13_20 
REMARK   11  A    between atoms: C13_20  and  C14_21 
REMARK   12  A    between atoms: C14_21  and  O1_22 
REMARK   13  A    between atoms: C15_24  and  C16_25 
ROOT
HETATM    1  N1  UNL     1      68.733  49.953   0.438  1.00  0.00    -0.406 N 
HETATM    2  C6  UNL     1      69.197  50.863   1.421  1.00  0.00     0.137 C 
HETATM    3  C7  UNL     1      70.266  51.813   0.985  1.00  0.00     0.141 C 
HETATM    4  N2  UNL     1      70.232  51.877  -0.459  1.00  0.00    -0.385 N 
HETATM    5  C15 UNL     1      68.937  51.885  -0.974  1.00  0.00     0.105 C 
HETATM    6  C19 UNL     1      68.401  50.445  -0.839  1.00  0.00     0.142 C 
ENDROOT
BRANCH   4   7
HETATM    7  C8  UNL     1      71.316  52.508  -1.050  1.00  0.00     0.060 C 
BRANCH   7   8
HETATM    8  C9  UNL     1      72.648  52.332  -0.406  1.00  0.00     0.064 C 
BRANCH   8   9
HETATM    9  C10 UNL     1      73.701  53.156  -1.159  1.00  0.00     0.127 C 
BRANCH   9  10
HETATM   10  N3  UNL     1      73.108  54.389  -1.623  1.00  0.00    -0.367 N 
ATOM     11  H3  UNL     1      72.510  54.384  -2.449  1.00  0.00     0.161 HD
BRANCH  10  12
HETATM   12  C11 UNL     1      73.348  55.591  -0.945  1.00  0.00     0.167 C 
HETATM   13  S1  UNL     1      74.881  56.199  -0.944  1.00  0.00    -0.041 SA
BRANCH  12  14
HETATM   14  N4  UNL     1      72.353  56.310  -0.252  1.00  0.00    -0.367 N 
ATOM     15  H4  UNL     1      72.398  57.328  -0.288  1.00  0.00     0.161 HD
BRANCH  14  16
HETATM   16  C12 UNL     1      71.270  55.716   0.509  1.00  0.00     0.124 C 
BRANCH  16  17
HETATM   17  C13 UNL     1      69.964  55.935  -0.235  1.00  0.00     0.046 C 
BRANCH  17  18
HETATM   18  C14 UNL     1      68.813  55.210   0.429  1.00  0.00     0.165 C 
BRANCH  18  19
HETATM   19  O1  UNL     1      67.990  56.091   1.105  1.00  0.00    -0.401 OA
ATOM     20  H1  UNL     1      68.158  56.069   2.040  1.00  0.00     0.209 HD
ENDBRANCH  18  19
ENDBRANCH  17  18
ENDBRANCH  16  17
ENDBRANCH  14  16
ENDBRANCH  12  14
ENDBRANCH  10  12
ENDBRANCH   9  10
ENDBRANCH   8   9
ENDBRANCH   7   8
ENDBRANCH   4   7
BRANCH   5  21
HETATM   21  C16 UNL     1      68.782  52.354  -2.390  1.00  0.00     0.010 A 
HETATM   22  C17 UNL     1      68.015  53.611  -2.684  1.00  0.00     0.007 A 
HETATM   23  C18 UNL     1      67.480  52.273  -3.088  1.00  0.00     0.007 A 
ENDBRANCH   5  21
BRANCH   1  24
HETATM   24  C5  UNL     1      69.450  48.693   0.429  1.00  0.00     0.144 C 
BRANCH  24  25
HETATM   25  C4  UNL     1      69.447  48.015   1.726  1.00  0.00    -0.006 C 
HETATM   26  C2  UNL     1      70.569  47.861   2.428  1.00  0.00    -0.090 C 
HETATM   27  C1  UNL     1      70.598  47.179   3.751  1.00  0.00     0.042 C 
HETATM   28  C3  UNL     1      71.887  48.370   1.903  1.00  0.00     0.042 C 
ENDBRANCH  24  25
ENDBRANCH   1  24
TORSDOF 13
ENDMDL
MODEL 5
REMARK VINA RESULT: -5.420440430      1.907      2.669
REMARK  13 active torsions:
REMARK  status: ('A' for Active; 'I' for Inactive)
REMARK    1  A    between atoms: C4_4  and  C5_5 
REMARK    2  A    between atoms: C5_5  and  N1_6 
REMARK    3  A    between atoms: N2_9  and  C8_10 
REMARK    4  A    between atoms: C8_10  and  C9_11 
REMARK    5  A    between atoms: C9_11  and  C10_12 
REMARK    6  A    between atoms: C10_12  and  N3_13 
REMARK    7  A    between atoms: N3_13  and  C11_15 
REMARK    8  A    between atoms: C11_15  and  N4_17 
REMARK    9  A    between atoms: N4_17  and  C12_19 
REMARK   10  A    between atoms: C12_19  and  C13_20 
REMARK   11  A    between atoms: C13_20  and  C14_21 
REMARK   12  A    between atoms: C14_21  and  O1_22 
REMARK   13  A    between atoms: C15_24  and  C16_25 
ROOT
HETATM    1  N1  UNL     1      69.206  51.261   0.144  1.00  0.00    -0.406 N 
HETATM    2  C6  UNL     1      69.109  52.121   1.266  1.00  0.00     0.137 C 
HETATM    3  C7  UNL     1      69.722  53.476   1.111  1.00  0.00     0.141 C 
HETATM    4  N2  UNL     1      69.854  53.738  -0.304  1.00  0.00    -0.385 N 
HETATM    5  C15 UNL     1      68.757  53.299  -1.044  1.00  0.00     0.105 C 
HETATM    6  C19 UNL     1      68.868  51.763  -1.127  1.00  0.00     0.142 C 
ENDROOT
BRANCH   4   7
HETATM    7  C8  UNL     1      70.637  54.834  -0.634  1.00  0.00     0.060 C 
BRANCH   7   8
HETATM    8  C9  UNL     1      72.113  54.691  -0.490  1.00  0.00     0.064 C 
BRANCH   8   9
HETATM    9  C10 UNL     1      72.573  53.378  -1.137  1.00  0.00     0.127 C 
BRANCH   9  10
HETATM   10  N3  UNL     1      73.351  53.670  -2.320  1.00  0.00    -0.367 N 
ATOM     11  H3  UNL     1      73.039  53.325  -3.228  1.00  0.00     0.161 HD
BRANCH  10  12
HETATM   12  C11 UNL     1      74.529  54.421  -2.228  1.00  0.00     0.167 C 
HETATM   13  S1  UNL     1      75.730  53.879  -1.236  1.00  0.00    -0.041 SA
BRANCH  12  14
HETATM   14  N4  UNL     1      74.744  55.625  -2.928  1.00  0.00    -0.367 N 
ATOM     15  H4  UNL     1      74.033  56.352  -2.843  1.00  0.00     0.161 HD
BRANCH  14  16
HETATM   16  C12 UNL     1      75.896  55.914  -3.761  1.00  0.00     0.124 C 
BRANCH  16  17
HETATM   17  C13 UNL     1      75.915  54.947  -4.932  1.00  0.00     0.046 C 
BRANCH  17  18
HETATM   18  C14 UNL     1      74.757  55.189  -5.877  1.00  0.00     0.165 C 
BRANCH  18  19
HETATM   19  O1  UNL     1      73.655  54.433  -5.521  1.00  0.00    -0.401 OA
ATOM     20  H1  UNL     1      73.288  53.986  -6.275  1.00  0.00     0.209 HD
ENDBRANCH  18  19
ENDBRANCH  17  18
ENDBRANCH  16  17
ENDBRANCH  14  16
ENDBRANCH  12  14
ENDBRANCH  10  12
ENDBRANCH   9  10
ENDBRANCH   8   9
ENDBRANCH   7   8
ENDBRANCH   4   7
BRANCH   5  21
HETATM   21  C16 UNL     1      68.605  53.873  -2.421  1.00  0.00     0.010 A 
HETATM   22  C17 UNL     1      67.307  54.508  -2.830  1.00  0.00     0.007 A 
HETATM   23  C18 UNL     1      67.755  53.215  -3.438  1.00  0.00     0.007 A 
ENDBRANCH   5  21
BRANCH   1  24
HETATM   24  C5  UNL     1      70.382  50.414   0.163  1.00  0.00     0.144 C 
BRANCH  24  25
HETATM   25  C4  UNL     1      70.548  49.678   1.417  1.00  0.00    -0.006 C 
HETATM   26  C2  UNL     1      69.912  48.528   1.632  1.00  0.00    -0.090 C 
HETATM   27  C1  UNL     1      70.062  47.754   2.896  1.00  0.00     0.042 C 
HETATM   28  C3  UNL     1      68.985  47.949   0.594  1.00  0.00     0.042 C 
ENDBRANCH  24  25
ENDBRANCH   1  24
TORSDOF 13
ENDMDL
