MODEL 1
REMARK VINA RESULT: -8.164332019      0.000      0.000
REMARK  8 active torsions:
REMARK  status: ('A' for Active; 'I' for Inactive)
REMARK    1  A    between atoms: C2_2  and  C4_4 
REMARK    2  A    between atoms: C4_4  and  C5_5 
REMARK    3  A    between atoms: C5_5  and  C6_6 
REMARK    4  A    between atoms: C8_8  and  C9_9 
REMARK    5  A    between atoms: C9_9  and  C10_10 
REMARK    6  A    between atoms: C11_11  and  C12_12 
REMARK    7  A    between atoms: C14_16  and  O2_17 
REMARK    8  A    between atoms: C15_19  and  O3_20 
ROOT
HETATM    1  C12 UNL     1     -36.949  54.423   8.606  1.00  0.00    -0.023 C 
HETATM    2  C13 UNL     1     -36.040  53.683   8.870  1.00  0.00     0.012 C 
HETATM    3 CL1  UNL     1     -34.725  52.627   9.272  1.00  0.00    -0.023 Cl
ENDROOT
BRANCH   1   4
HETATM    4  C11 UNL     1     -38.045  55.293   8.295  1.00  0.00     0.142 A 
HETATM    5  C10 UNL     1     -38.081  56.384   7.467  1.00  0.00     0.026 A 
HETATM    6  C15 UNL     1     -39.367  56.857   7.526  1.00  0.00     0.134 A 
HETATM    7  C14 UNL     1     -40.084  56.041   8.389  1.00  0.00     0.219 A 
HETATM    8  O1  UNL     1     -39.244  55.128   8.816  1.00  0.00    -0.276 OA
BRANCH   5   9
HETATM    9  C9  UNL     1     -36.985  56.938   6.674  1.00  0.00     0.072 C 
BRANCH   9  10
HETATM   10  C8  UNL     1     -37.125  56.749   5.231  1.00  0.00    -0.020 C 
HETATM   11  C6  UNL     1     -37.254  57.770   4.404  1.00  0.00    -0.087 C 
HETATM   12  C7  UNL     1     -37.289  59.204   4.779  1.00  0.00     0.043 C 
BRANCH  11  13
HETATM   13  C5  UNL     1     -37.396  57.500   2.916  1.00  0.00     0.038 C 
BRANCH  13  14
HETATM   14  C4  UNL     1     -38.037  58.726   2.261  1.00  0.00     0.037 C 
BRANCH  14  15
HETATM   15  C2  UNL     1     -37.232  59.166   1.121  1.00  0.00    -0.093 C 
HETATM   16  C1  UNL     1     -35.996  58.729   0.959  1.00  0.00     0.014 C 
HETATM   17  C3  UNL     1     -37.812  60.112   0.149  1.00  0.00     0.042 C 
ENDBRANCH  14  15
ENDBRANCH  13  14
ENDBRANCH  11  13
ENDBRANCH   9  10
ENDBRANCH   5   9
BRANCH   6  18
HETATM   18  O3  UNL     1     -39.875  57.933   6.864  1.00  0.00    -0.356 OA
ATOM     19  H3  UNL     1     -40.638  57.948   6.298  1.00  0.00     0.218 HD
ENDBRANCH   6  18
BRANCH   7  20
HETATM   20  O2  UNL     1     -41.404  56.098   8.779  1.00  0.00    -0.339 OA
ATOM     21  H2  UNL     1     -41.841  56.904   9.025  1.00  0.00     0.220 HD
ENDBRANCH   7  20
ENDBRANCH   1   4
TORSDOF 8
ENDMDL
MODEL 2
REMARK VINA RESULT: -7.337377069      2.814      6.844
REMARK  8 active torsions:
REMARK  status: ('A' for Active; 'I' for Inactive)
REMARK    1  A    between atoms: C2_2  and  C4_4 
REMARK    2  A    between atoms: C4_4  and  C5_5 
REMARK    3  A    between atoms: C5_5  and  C6_6 
REMARK    4  A    between atoms: C8_8  and  C9_9 
REMARK    5  A    between atoms: C9_9  and  C10_10 
REMARK    6  A    between atoms: C11_11  and  C12_12 
REMARK    7  A    between atoms: C14_16  and  O2_17 
REMARK    8  A    between atoms: C15_19  and  O3_20 
ROOT
HETATM    1  C12 UNL     1     -37.722  57.975   3.798  1.00  0.00    -0.023 C 
HETATM    2  C13 UNL     1     -36.964  58.258   2.910  1.00  0.00     0.012 C 
HETATM    3 CL1  UNL     1     -35.876  58.644   1.617  1.00  0.00    -0.023 Cl
ENDROOT
BRANCH   1   4
HETATM    4  C11 UNL     1     -38.639  57.649   4.851  1.00  0.00     0.142 A 
HETATM    5  C10 UNL     1     -38.412  56.974   6.022  1.00  0.00     0.026 A 
HETATM    6  C15 UNL     1     -39.621  56.933   6.670  1.00  0.00     0.134 A 
HETATM    7  C14 UNL     1     -40.554  57.585   5.877  1.00  0.00     0.219 A 
HETATM    8  O1  UNL     1     -39.911  57.991   4.808  1.00  0.00    -0.276 OA
BRANCH   5   9
HETATM    9  C9  UNL     1     -37.150  56.412   6.497  1.00  0.00     0.072 C 
BRANCH   9  10
HETATM   10  C8  UNL     1     -37.107  54.951   6.522  1.00  0.00    -0.020 C 
HETATM   11  C6  UNL     1     -37.166  54.271   7.652  1.00  0.00    -0.087 C 
HETATM   12  C7  UNL     1     -37.267  54.843   9.016  1.00  0.00     0.043 C 
BRANCH  11  13
HETATM   13  C5  UNL     1     -37.116  52.754   7.603  1.00  0.00     0.038 C 
BRANCH  13  14
HETATM   14  C4  UNL     1     -37.327  52.217   9.020  1.00  0.00     0.037 C 
BRANCH  14  15
HETATM   15  C2  UNL     1     -36.046  51.818   9.604  1.00  0.00    -0.093 C 
HETATM   16  C1  UNL     1     -35.201  51.063   8.924  1.00  0.00     0.014 C 
HETATM   17  C3  UNL     1     -35.702  52.264  10.967  1.00  0.00     0.042 C 
ENDBRANCH  14  15
ENDBRANCH  13  14
ENDBRANCH  11  13
ENDBRANCH   9  10
ENDBRANCH   5   9
BRANCH   6  18
HETATM   18  O3  UNL     1     -39.883  56.361   7.878  1.00  0.00    -0.356 OA
ATOM     19  H3  UNL     1     -39.761  55.450   8.116  1.00  0.00     0.218 HD
ENDBRANCH   6  18
BRANCH   7  20
HETATM   20  O2  UNL     1     -41.897  57.812   6.084  1.00  0.00    -0.339 OA
ATOM     21  H2  UNL     1     -42.286  57.887   6.948  1.00  0.00     0.220 HD
ENDBRANCH   7  20
ENDBRANCH   1   4
TORSDOF 8
ENDMDL
MODEL 3
REMARK VINA RESULT: -7.282013349      1.388      1.712
REMARK  8 active torsions:
REMARK  status: ('A' for Active; 'I' for Inactive)
REMARK    1  A    between atoms: C2_2  and  C4_4 
REMARK    2  A    between atoms: C4_4  and  C5_5 
REMARK    3  A    between atoms: C5_5  and  C6_6 
REMARK    4  A    between atoms: C8_8  and  C9_9 
REMARK    5  A    between atoms: C9_9  and  C10_10 
REMARK    6  A    between atoms: C11_11  and  C12_12 
REMARK    7  A    between atoms: C14_16  and  O2_17 
REMARK    8  A    between atoms: C15_19  and  O3_20 
ROOT
HETATM    1  C12 UNL     1     -36.552  53.531   8.980  1.00  0.00    -0.023 C 
HETATM    2  C13 UNL     1     -35.862  52.548   8.939  1.00  0.00     0.012 C 
HETATM    3 CL1  UNL     1     -34.848  51.144   8.872  1.00  0.00    -0.023 Cl
ENDROOT
BRANCH   1   4
HETATM    4  C11 UNL     1     -37.374  54.704   9.048  1.00  0.00     0.142 A 
HETATM    5  C10 UNL     1     -37.923  55.440   8.030  1.00  0.00     0.026 A 
HETATM    6  C15 UNL     1     -38.616  56.457   8.636  1.00  0.00     0.134 A 
HETATM    7  C14 UNL     1     -38.473  56.315  10.009  1.00  0.00     0.219 A 
HETATM    8  O1  UNL     1     -37.723  55.253  10.194  1.00  0.00    -0.276 OA
BRANCH   5   9
HETATM    9  C9  UNL     1     -37.806  55.201   6.593  1.00  0.00     0.072 C 
BRANCH   9  10
HETATM   10  C8  UNL     1     -36.918  56.128   5.894  1.00  0.00    -0.020 C 
HETATM   11  C6  UNL     1     -37.382  57.164   5.221  1.00  0.00    -0.087 C 
HETATM   12  C7  UNL     1     -38.808  57.536   5.057  1.00  0.00     0.043 C 
BRANCH  11  13
HETATM   13  C5  UNL     1     -36.401  58.087   4.518  1.00  0.00     0.038 C 
BRANCH  13  14
HETATM   14  C4  UNL     1     -37.190  59.224   3.865  1.00  0.00     0.037 C 
BRANCH  14  15
HETATM   15  C2  UNL     1     -37.093  59.132   2.408  1.00  0.00    -0.093 C 
HETATM   16  C1  UNL     1     -36.141  58.413   1.839  1.00  0.00     0.014 C 
HETATM   17  C3  UNL     1     -38.067  59.857   1.571  1.00  0.00     0.042 C 
ENDBRANCH  14  15
ENDBRANCH  13  14
ENDBRANCH  11  13
ENDBRANCH   9  10
ENDBRANCH   5   9
BRANCH   6  18
HETATM   18  O3  UNL     1     -39.328  57.442   8.021  1.00  0.00    -0.356 OA
ATOM     19  H3  UNL     1     -39.713  57.412   7.154  1.00  0.00     0.218 HD
ENDBRANCH   6  18
BRANCH   7  20
HETATM   20  O2  UNL     1     -38.975  57.076  11.041  1.00  0.00    -0.339 OA
ATOM     21  H2  UNL     1     -38.888  56.836  11.956  1.00  0.00     0.220 HD
ENDBRANCH   7  20
ENDBRANCH   1   4
TORSDOF 8
ENDMDL
MODEL 4
REMARK VINA RESULT: -7.107000180      3.737      6.948
REMARK  8 active torsions:
REMARK  status: ('A' for Active; 'I' for Inactive)
REMARK    1  A    between atoms: C2_2  and  C4_4 
REMARK    2  A    between atoms: C4_4  and  C5_5 
REMARK    3  A    between atoms: C5_5  and  C6_6 
REMARK    4  A    between atoms: C8_8  and  C9_9 
REMARK    5  A    between atoms: C9_9  and  C10_10 
REMARK    6  A    between atoms: C11_11  and  C12_12 
REMARK    7  A    between atoms: C14_16  and  O2_17 
REMARK    8  A    between atoms: C15_19  and  O3_20 
ROOT
HETATM    1  C12 UNL     1     -39.213  58.418   3.947  1.00  0.00    -0.023 C 
HETATM    2  C13 UNL     1     -39.957  58.147   4.851  1.00  0.00     0.012 C 
HETATM    3 CL1  UNL     1     -41.041  57.738   6.140  1.00  0.00    -0.023 Cl
ENDROOT
BRANCH   1   4
HETATM    4  C11 UNL     1     -38.311  58.734   2.878  1.00  0.00     0.142 A 
HETATM    5  C10 UNL     1     -36.951  58.582   2.816  1.00  0.00     0.026 A 
HETATM    6  C15 UNL     1     -36.580  59.038   1.576  1.00  0.00     0.134 A 
HETATM    7  C14 UNL     1     -37.725  59.456   0.913  1.00  0.00     0.219 A 
HETATM    8  O1  UNL     1     -38.724  59.251   1.738  1.00  0.00    -0.276 OA
BRANCH   5   9
HETATM    9  C9  UNL     1     -36.065  58.043   3.846  1.00  0.00     0.072 C 
BRANCH   9  10
HETATM   10  C8  UNL     1     -36.703  57.092   4.756  1.00  0.00    -0.020 C 
HETATM   11  C6  UNL     1     -36.957  57.396   6.015  1.00  0.00    -0.087 C 
HETATM   12  C7  UNL     1     -36.645  58.679   6.688  1.00  0.00     0.043 C 
BRANCH  11  13
HETATM   13  C5  UNL     1     -37.621  56.358   6.904  1.00  0.00     0.038 C 
BRANCH  13  14
HETATM   14  C4  UNL     1     -37.184  54.969   6.435  1.00  0.00     0.037 C 
BRANCH  14  15
HETATM   15  C2  UNL     1     -37.295  54.009   7.534  1.00  0.00    -0.093 C 
HETATM   16  C1  UNL     1     -37.690  52.769   7.310  1.00  0.00     0.014 C 
HETATM   17  C3  UNL     1     -36.964  54.439   8.906  1.00  0.00     0.042 C 
ENDBRANCH  14  15
ENDBRANCH  13  14
ENDBRANCH  11  13
ENDBRANCH   9  10
ENDBRANCH   5   9
BRANCH   6  18
HETATM   18  O3  UNL     1     -35.319  59.081   1.063  1.00  0.00    -0.356 OA
ATOM     19  H3  UNL     1     -34.543  59.430   1.485  1.00  0.00     0.218 HD
ENDBRANCH   6  18
BRANCH   7  20
HETATM   20  O2  UNL     1     -37.881  59.988  -0.348  1.00  0.00    -0.339 OA
ATOM     21  H2  UNL     1     -37.495  60.813  -0.617  1.00  0.00     0.220 HD
ENDBRANCH   7  20
ENDBRANCH   1   4
TORSDOF 8
ENDMDL
MODEL 5
REMARK VINA RESULT: -7.083145653      2.857      6.997
REMARK  8 active torsions:
REMARK  status: ('A' for Active; 'I' for Inactive)
REMARK    1  A    between atoms: C2_2  and  C4_4 
REMARK    2  A    between atoms: C4_4  and  C5_5 
REMARK    3  A    between atoms: C5_5  and  C6_6 
REMARK    4  A    between atoms: C8_8  and  C9_9 
REMARK    5  A    between atoms: C9_9  and  C10_10 
REMARK    6  A    between atoms: C11_11  and  C12_12 
REMARK    7  A    between atoms: C14_16  and  O2_17 
REMARK    8  A    between atoms: C15_19  and  O3_20 
ROOT
HETATM    1  C12 UNL     1     -37.555  57.796   3.720  1.00  0.00    -0.023 C 
HETATM    2  C13 UNL     1     -37.115  57.728   2.604  1.00  0.00     0.012 C 
HETATM    3 CL1  UNL     1     -36.496  57.648   0.987  1.00  0.00    -0.023 Cl
ENDROOT
BRANCH   1   4
HETATM    4  C11 UNL     1     -38.066  57.886   5.056  1.00  0.00     0.142 A 
HETATM    5  C10 UNL     1     -37.924  57.011   6.102  1.00  0.00     0.026 A 
HETATM    6  C15 UNL     1     -38.607  57.570   7.152  1.00  0.00     0.134 A 
HETATM    7  C14 UNL     1     -39.149  58.771   6.720  1.00  0.00     0.219 A 
HETATM    8  O1  UNL     1     -38.794  58.906   5.464  1.00  0.00    -0.276 OA
BRANCH   5   9
HETATM    9  C9  UNL     1     -37.193  55.746   6.112  1.00  0.00     0.072 C 
BRANCH   9  10
HETATM   10  C8  UNL     1     -37.260  55.018   7.379  1.00  0.00    -0.020 C 
HETATM   11  C6  UNL     1     -37.419  53.708   7.422  1.00  0.00    -0.087 C 
HETATM   12  C7  UNL     1     -37.562  52.802   6.257  1.00  0.00     0.043 C 
BRANCH  11  13
HETATM   13  C5  UNL     1     -37.480  53.017   8.773  1.00  0.00     0.038 C 
BRANCH  13  14
HETATM   14  C4  UNL     1     -36.243  53.420   9.578  1.00  0.00     0.037 C 
BRANCH  14  15
HETATM   15  C2  UNL     1     -35.476  52.231   9.952  1.00  0.00    -0.093 C 
HETATM   16  C1  UNL     1     -34.172  52.303  10.151  1.00  0.00     0.014 C 
HETATM   17  C3  UNL     1     -36.173  50.939  10.103  1.00  0.00     0.042 C 
ENDBRANCH  14  15
ENDBRANCH  13  14
ENDBRANCH  11  13
ENDBRANCH   9  10
ENDBRANCH   5   9
BRANCH   6  18
HETATM   18  O3  UNL     1     -38.743  57.055   8.406  1.00  0.00    -0.356 OA
ATOM     19  H3  UNL     1     -38.088  56.578   8.902  1.00  0.00     0.218 HD
ENDBRANCH   6  18
BRANCH   7  20
HETATM   20  O2  UNL     1     -39.914  59.698   7.394  1.00  0.00    -0.339 OA
ATOM     21  H2  UNL     1     -40.338  60.433   6.968  1.00  0.00     0.220 HD
ENDBRANCH   7  20
ENDBRANCH   1   4
TORSDOF 8
ENDMDL
