MODEL 1
REMARK VINA RESULT: -8.516319586      0.000      0.000
REMARK  7 active torsions:
REMARK  status: ('A' for Active; 'I' for Inactive)
REMARK    1  A    between atoms: C2_2  and  C5_5 
REMARK    2  A    between atoms: C9_10  and  C10_11 
REMARK    3  A    between atoms: C10_11  and  C11_12 
REMARK    4  A    between atoms: C11_12  and  C12_13 
REMARK    5  A    between atoms: C12_13  and  C13_14 
REMARK    6  A    between atoms: C13_14  and  O2_15 
REMARK    7  A    between atoms: N1_17  and  O3_19 
ROOT
HETATM    1  C5  UNL     1     -37.644  56.795   7.062  1.00  0.00     0.136 C 
HETATM    2  C6  UNL     1     -38.878  57.252   7.768  1.00  0.00     0.111 C 
HETATM    3  C7  UNL     1     -39.575  56.035   8.327  1.00  0.00     0.131 C 
HETATM    4  O1  UNL     1     -40.777  55.979   8.435  1.00  0.00    -0.298 OA
HETATM    5  C8  UNL     1     -38.649  54.938   8.721  1.00  0.00     0.110 C 
HETATM    6  C9  UNL     1     -37.868  54.525   7.504  1.00  0.00     0.129 C 
HETATM    7  O4  UNL     1     -37.704  55.511   6.574  1.00  0.00    -0.379 OA
ENDROOT
BRANCH   6   8
HETATM    8  C10 UNL     1     -36.568  53.912   7.982  1.00  0.00     0.033 C 
BRANCH   8   9
HETATM    9  C11 UNL     1     -36.304  54.151   9.424  1.00  0.00     0.010 C 
BRANCH   9  10
HETATM   10  C12 UNL     1     -35.533  53.120  10.154  1.00  0.00     0.086 C 
BRANCH  10  11
HETATM   11  C13 UNL     1     -36.008  51.735  10.030  1.00  0.00     0.135 C 
HETATM   12  N1  UNL     1     -37.141  51.288  10.425  1.00  0.00    -0.251 N 
ATOM     13  H1  UNL     1     -37.789  51.938  10.870  1.00  0.00     0.196 HD
BRANCH  11  14
HETATM   14  O2  UNL     1     -35.144  50.802   9.422  1.00  0.00    -0.348 OA
ATOM     15  H2  UNL     1     -35.033  49.962   9.852  1.00  0.00     0.219 HD
ENDBRANCH  11  14
BRANCH  12  16
HETATM   16  O3  UNL     1     -37.525  49.986  10.280  1.00  0.00    -0.288 OA
ATOM     17  H3  UNL     1     -37.984  49.660   9.515  1.00  0.00     0.244 HD
ENDBRANCH  12  16
ENDBRANCH  10  11
ENDBRANCH   9  10
ENDBRANCH   8   9
ENDBRANCH   6   8
BRANCH   1  18
HETATM   18  C2  UNL     1     -37.465  57.710   5.857  1.00  0.00    -0.025 C 
HETATM   19  C1  UNL     1     -36.561  58.839   6.304  1.00  0.00     0.017 C 
HETATM   20  C3  UNL     1     -36.864  56.917   4.742  1.00  0.00     0.017 C 
HETATM   21  C4  UNL     1     -38.794  58.348   5.470  1.00  0.00     0.017 C 
ENDBRANCH   1  18
TORSDOF 7
ENDMDL
MODEL 2
REMARK VINA RESULT: -8.171261980      0.384      1.080
REMARK  7 active torsions:
REMARK  status: ('A' for Active; 'I' for Inactive)
REMARK    1  A    between atoms: C2_2  and  C5_5 
REMARK    2  A    between atoms: C9_10  and  C10_11 
REMARK    3  A    between atoms: C10_11  and  C11_12 
REMARK    4  A    between atoms: C11_12  and  C12_13 
REMARK    5  A    between atoms: C12_13  and  C13_14 
REMARK    6  A    between atoms: C13_14  and  O2_15 
REMARK    7  A    between atoms: N1_17  and  O3_19 
ROOT
HETATM    1  C5  UNL     1     -37.600  57.131   6.842  1.00  0.00     0.136 C 
HETATM    2  C6  UNL     1     -38.886  57.604   7.435  1.00  0.00     0.111 C 
HETATM    3  C7  UNL     1     -39.636  56.399   7.950  1.00  0.00     0.131 C 
HETATM    4  O1  UNL     1     -40.843  56.351   7.957  1.00  0.00    -0.298 OA
HETATM    5  C8  UNL     1     -38.753  55.303   8.435  1.00  0.00     0.110 C 
HETATM    6  C9  UNL     1     -37.875  54.869   7.294  1.00  0.00     0.129 C 
HETATM    7  O4  UNL     1     -37.627  55.841   6.368  1.00  0.00    -0.379 OA
ENDROOT
BRANCH   6   8
HETATM    8  C10 UNL     1     -36.624  54.256   7.888  1.00  0.00     0.033 C 
BRANCH   8   9
HETATM    9  C11 UNL     1     -36.644  54.209   9.372  1.00  0.00     0.010 C 
BRANCH   9  10
HETATM   10  C12 UNL     1     -35.702  53.279  10.035  1.00  0.00     0.086 C 
BRANCH  10  11
HETATM   11  C13 UNL     1     -36.075  51.857  10.034  1.00  0.00     0.135 C 
HETATM   12  N1  UNL     1     -37.209  51.375  10.380  1.00  0.00    -0.251 N 
ATOM     13  H1  UNL     1     -37.936  52.021  10.688  1.00  0.00     0.196 HD
BRANCH  11  14
HETATM   14  O2  UNL     1     -35.100  50.928   9.618  1.00  0.00    -0.348 OA
ATOM     15  H2  UNL     1     -34.229  51.258   9.434  1.00  0.00     0.219 HD
ENDBRANCH  11  14
BRANCH  12  16
HETATM   16  O3  UNL     1     -37.495  50.040  10.358  1.00  0.00    -0.288 OA
ATOM     17  H3  UNL     1     -38.121  49.631  10.944  1.00  0.00     0.244 HD
ENDBRANCH  12  16
ENDBRANCH  10  11
ENDBRANCH   9  10
ENDBRANCH   8   9
ENDBRANCH   6   8
BRANCH   1  18
HETATM   18  C2  UNL     1     -37.314  58.028   5.644  1.00  0.00    -0.025 C 
HETATM   19  C1  UNL     1     -38.649  58.583   5.194  1.00  0.00     0.017 C 
HETATM   20  C3  UNL     1     -36.371  59.107   6.070  1.00  0.00     0.017 C 
HETATM   21  C4  UNL     1     -36.774  57.206   4.480  1.00  0.00     0.017 C 
ENDBRANCH   1  18
TORSDOF 7
ENDMDL
MODEL 3
REMARK VINA RESULT: -7.534010332      0.719      1.073
REMARK  7 active torsions:
REMARK  status: ('A' for Active; 'I' for Inactive)
REMARK    1  A    between atoms: C2_2  and  C5_5 
REMARK    2  A    between atoms: C9_10  and  C10_11 
REMARK    3  A    between atoms: C10_11  and  C11_12 
REMARK    4  A    between atoms: C11_12  and  C12_13 
REMARK    5  A    between atoms: C12_13  and  C13_14 
REMARK    6  A    between atoms: C13_14  and  O2_15 
REMARK    7  A    between atoms: N1_17  and  O3_19 
ROOT
HETATM    1  C5  UNL     1     -37.658  56.807   7.139  1.00  0.00     0.136 C 
HETATM    2  C6  UNL     1     -38.928  57.271   7.773  1.00  0.00     0.111 C 
HETATM    3  C7  UNL     1     -39.615  56.070   8.378  1.00  0.00     0.131 C 
HETATM    4  O1  UNL     1     -40.818  55.988   8.447  1.00  0.00    -0.298 OA
HETATM    5  C8  UNL     1     -38.677  55.023   8.868  1.00  0.00     0.110 C 
HETATM    6  C9  UNL     1     -37.842  54.561   7.706  1.00  0.00     0.129 C 
HETATM    7  O4  UNL     1     -37.668  55.496   6.726  1.00  0.00    -0.379 OA
ENDROOT
BRANCH   6   8
HETATM    8  C10 UNL     1     -36.545  54.013   8.265  1.00  0.00     0.033 C 
BRANCH   8   9
HETATM    9  C11 UNL     1     -36.403  54.225   9.728  1.00  0.00     0.010 C 
BRANCH   9  10
HETATM   10  C12 UNL     1     -36.126  53.036  10.564  1.00  0.00     0.086 C 
BRANCH  10  11
HETATM   11  C13 UNL     1     -36.016  51.750   9.860  1.00  0.00     0.135 C 
HETATM   12  N1  UNL     1     -34.997  51.335   9.204  1.00  0.00    -0.251 N 
ATOM     13  H1  UNL     1     -34.176  51.937   9.153  1.00  0.00     0.196 HD
BRANCH  11  14
HETATM   14  O2  UNL     1     -37.128  50.886   9.902  1.00  0.00    -0.348 OA
ATOM     15  H2  UNL     1     -37.952  51.246  10.211  1.00  0.00     0.219 HD
ENDBRANCH  11  14
BRANCH  12  16
HETATM   16  O3  UNL     1     -34.956  50.127   8.570  1.00  0.00    -0.288 OA
ATOM     17  H3  UNL     1     -34.949  49.296   9.030  1.00  0.00     0.244 HD
ENDBRANCH  12  16
ENDBRANCH  10  11
ENDBRANCH   9  10
ENDBRANCH   8   9
ENDBRANCH   6   8
BRANCH   1  18
HETATM   18  C2  UNL     1     -37.457  57.654   5.888  1.00  0.00    -0.025 C 
HETATM   19  C1  UNL     1     -36.564  58.808   6.289  1.00  0.00     0.017 C 
HETATM   20  C3  UNL     1     -36.835  56.802   4.830  1.00  0.00     0.017 C 
HETATM   21  C4  UNL     1     -38.780  58.267   5.443  1.00  0.00     0.017 C 
ENDBRANCH   1  18
TORSDOF 7
ENDMDL
MODEL 4
REMARK VINA RESULT: -7.368891328      4.364      7.420
REMARK  7 active torsions:
REMARK  status: ('A' for Active; 'I' for Inactive)
REMARK    1  A    between atoms: C2_2  and  C5_5 
REMARK    2  A    between atoms: C9_10  and  C10_11 
REMARK    3  A    between atoms: C10_11  and  C11_12 
REMARK    4  A    between atoms: C11_12  and  C12_13 
REMARK    5  A    between atoms: C12_13  and  C13_14 
REMARK    6  A    between atoms: C13_14  and  O2_15 
REMARK    7  A    between atoms: N1_17  and  O3_19 
ROOT
HETATM    1  C5  UNL     1     -38.218  56.206   6.637  1.00  0.00     0.136 C 
HETATM    2  C6  UNL     1     -39.405  57.053   6.960  1.00  0.00     0.111 C 
HETATM    3  C7  UNL     1     -39.066  58.484   6.616  1.00  0.00     0.131 C 
HETATM    4  O1  UNL     1     -39.526  59.416   7.231  1.00  0.00    -0.298 OA
HETATM    5  C8  UNL     1     -38.129  58.622   5.468  1.00  0.00     0.110 C 
HETATM    6  C9  UNL     1     -36.856  57.898   5.813  1.00  0.00     0.129 C 
HETATM    7  O4  UNL     1     -37.012  56.864   6.690  1.00  0.00    -0.379 OA
ENDROOT
BRANCH   6   8
HETATM    8  C10 UNL     1     -36.189  57.503   4.512  1.00  0.00     0.033 C 
BRANCH   8   9
HETATM    9  C11 UNL     1     -37.043  57.741   3.321  1.00  0.00     0.010 C 
BRANCH   9  10
HETATM   10  C12 UNL     1     -36.411  58.391   2.150  1.00  0.00     0.086 C 
BRANCH  10  11
HETATM   11  C13 UNL     1     -37.233  59.364   1.417  1.00  0.00     0.135 C 
HETATM   12  N1  UNL     1     -37.441  59.375   0.154  1.00  0.00    -0.251 N 
ATOM     13  H1  UNL     1     -37.006  58.648  -0.414  1.00  0.00     0.196 HD
BRANCH  11  14
HETATM   14  O2  UNL     1     -37.852  60.387   2.163  1.00  0.00    -0.348 OA
ATOM     15  H2  UNL     1     -38.781  60.528   2.027  1.00  0.00     0.219 HD
ENDBRANCH  11  14
BRANCH  12  16
HETATM   16  O3  UNL     1     -38.217  60.309  -0.470  1.00  0.00    -0.288 OA
ATOM     17  H3  UNL     1     -38.531  60.215  -1.361  1.00  0.00     0.244 HD
ENDBRANCH  12  16
ENDBRANCH  10  11
ENDBRANCH   9  10
ENDBRANCH   8   9
ENDBRANCH   6   8
BRANCH   1  18
HETATM   18  C2  UNL     1     -38.161  55.110   7.695  1.00  0.00    -0.025 C 
HETATM   19  C1  UNL     1     -39.402  55.271   8.547  1.00  0.00     0.017 C 
HETATM   20  C3  UNL     1     -38.120  53.785   7.006  1.00  0.00     0.017 C 
HETATM   21  C4  UNL     1     -36.971  55.325   8.621  1.00  0.00     0.017 C 
ENDBRANCH   1  18
TORSDOF 7
ENDMDL
MODEL 5
REMARK VINA RESULT: -7.362284004      1.836      2.566
REMARK  7 active torsions:
REMARK  status: ('A' for Active; 'I' for Inactive)
REMARK    1  A    between atoms: C2_2  and  C5_5 
REMARK    2  A    between atoms: C9_10  and  C10_11 
REMARK    3  A    between atoms: C10_11  and  C11_12 
REMARK    4  A    between atoms: C11_12  and  C12_13 
REMARK    5  A    between atoms: C12_13  and  C13_14 
REMARK    6  A    between atoms: C13_14  and  O2_15 
REMARK    7  A    between atoms: N1_17  and  O3_19 
ROOT
HETATM    1  C5  UNL     1     -36.977  57.784   4.976  1.00  0.00     0.136 C 
HETATM    2  C6  UNL     1     -37.487  58.983   5.707  1.00  0.00     0.111 C 
HETATM    3  C7  UNL     1     -38.451  58.509   6.767  1.00  0.00     0.131 C 
HETATM    4  O1  UNL     1     -39.397  59.174   7.115  1.00  0.00    -0.298 OA
HETATM    5  C8  UNL     1     -38.122  57.169   7.325  1.00  0.00     0.110 C 
HETATM    6  C9  UNL     1     -38.128  56.177   6.195  1.00  0.00     0.129 C 
HETATM    7  O4  UNL     1     -37.831  56.708   4.973  1.00  0.00    -0.379 OA
ENDROOT
BRANCH   6   8
HETATM    8  C10 UNL     1     -37.233  55.023   6.595  1.00  0.00     0.033 C 
BRANCH   8   9
HETATM    9  C11 UNL     1     -37.238  54.758   8.057  1.00  0.00     0.010 C 
BRANCH   9  10
HETATM   10  C12 UNL     1     -36.396  53.644   8.549  1.00  0.00     0.086 C 
BRANCH  10  11
HETATM   11  C13 UNL     1     -37.104  52.450   9.030  1.00  0.00     0.135 C 
HETATM   12  N1  UNL     1     -36.614  51.533   9.778  1.00  0.00    -0.251 N 
ATOM     13  H1  UNL     1     -35.644  51.622  10.079  1.00  0.00     0.196 HD
BRANCH  11  14
HETATM   14  O2  UNL     1     -38.447  52.285   8.636  1.00  0.00    -0.348 OA
ATOM     15  H2  UNL     1     -38.796  52.897   7.999  1.00  0.00     0.219 HD
ENDBRANCH  11  14
BRANCH  12  16
HETATM   16  O3  UNL     1     -37.325  50.444  10.192  1.00  0.00    -0.288 OA
ATOM     17  H3  UNL     1     -37.878  49.932   9.614  1.00  0.00     0.244 HD
ENDBRANCH  12  16
ENDBRANCH  10  11
ENDBRANCH   9  10
ENDBRANCH   8   9
ENDBRANCH   6   8
BRANCH   1  18
HETATM   18  C2  UNL     1     -36.799  58.202   3.521  1.00  0.00    -0.025 C 
HETATM   19  C1  UNL     1     -37.753  59.353   3.284  1.00  0.00     0.017 C 
HETATM   20  C3  UNL     1     -35.374  58.600   3.310  1.00  0.00     0.017 C 
HETATM   21  C4  UNL     1     -37.237  57.080   2.588  1.00  0.00     0.017 C 
ENDBRANCH   1  18
TORSDOF 7
ENDMDL
