MODEL 1
REMARK VINA RESULT: -5.786568768      0.000      0.000
REMARK  3 active torsions:
REMARK  status: ('A' for Active; 'I' for Inactive)
REMARK    1  A    between atoms: C3_3  and  O1_4 
REMARK    2  A    between atoms: C6_8  and  O2_10 
REMARK    3  A    between atoms: C8_12  and  O3_13 
ROOT
HETATM    1  C1  UNL     1     -15.675  10.288   9.319  1.00  0.00     0.015 C 
HETATM    2  C2  UNL     1     -14.302   9.667   9.508  1.00  0.00     0.042 C 
HETATM    3  C3  UNL     1     -13.806  10.089  10.864  1.00  0.00     0.124 C 
HETATM    4  C4  UNL     1     -12.377   9.755  11.119  1.00  0.00     0.035 C 
HETATM    5  C5  UNL     1     -11.627   9.283   9.913  1.00  0.00     0.042 C 
HETATM    6  C6  UNL     1     -11.963  10.013   8.653  1.00  0.00     0.080 C 
HETATM    7  C7  UNL     1     -11.306  11.383   8.576  1.00  0.00     0.048 C 
HETATM    8  C8  UNL     1     -13.421  10.191   8.407  1.00  0.00     0.158 C 
ENDROOT
BRANCH   6   9
HETATM    9  O2  UNL     1     -11.420   9.261   7.587  1.00  0.00    -0.388 OA
ATOM     10  H2  UNL     1     -12.116   9.139   6.953  1.00  0.00     0.210 HD
ENDBRANCH   6   9
BRANCH   8  11
HETATM   11  O3  UNL     1     -13.844   9.563   7.220  1.00  0.00    -0.392 OA
ATOM     12  H3  UNL     1     -13.319   8.776   7.127  1.00  0.00     0.210 HD
ENDBRANCH   8  11
BRANCH   3  13
HETATM   13  O1  UNL     1     -14.654   9.522  11.829  1.00  0.00    -0.395 OA
ATOM     14  H1  UNL     1     -14.231   9.607  12.676  1.00  0.00     0.210 HD
ENDBRANCH   3  13
TORSDOF 3
ENDMDL
MODEL 2
REMARK VINA RESULT: -5.709506557      1.890      3.450
REMARK  3 active torsions:
REMARK  status: ('A' for Active; 'I' for Inactive)
REMARK    1  A    between atoms: C3_3  and  O1_4 
REMARK    2  A    between atoms: C6_8  and  O2_10 
REMARK    3  A    between atoms: C8_12  and  O3_13 
ROOT
HETATM    1  C1  UNL     1     -10.774  10.364   8.712  1.00  0.00     0.015 C 
HETATM    2  C2  UNL     1     -12.101  11.103   8.713  1.00  0.00     0.042 C 
HETATM    3  C3  UNL     1     -12.265  11.718  10.077  1.00  0.00     0.124 C 
HETATM    4  C4  UNL     1     -13.618  12.290  10.327  1.00  0.00     0.035 C 
HETATM    5  C5  UNL     1     -14.637  11.946   9.286  1.00  0.00     0.042 C 
HETATM    6  C6  UNL     1     -14.551  10.544   8.779  1.00  0.00     0.080 C 
HETATM    7  C7  UNL     1     -15.142   9.532   9.750  1.00  0.00     0.048 C 
HETATM    8  C8  UNL     1     -13.176  10.091   8.428  1.00  0.00     0.158 C 
ENDROOT
BRANCH   6   9
HETATM    9  O2  UNL     1     -15.351  10.478   7.616  1.00  0.00    -0.388 OA
ATOM     10  H2  UNL     1     -16.201  10.149   7.884  1.00  0.00     0.210 HD
ENDBRANCH   6   9
BRANCH   8  11
HETATM   11  O3  UNL     1     -13.056   9.750   7.068  1.00  0.00    -0.392 OA
ATOM     12  H3  UNL     1     -12.800   8.835   7.039  1.00  0.00     0.210 HD
ENDBRANCH   8  11
BRANCH   3  13
HETATM   13  O1  UNL     1     -11.254  12.678  10.242  1.00  0.00    -0.395 OA
ATOM     14  H1  UNL     1     -11.623  13.412  10.720  1.00  0.00     0.210 HD
ENDBRANCH   3  13
TORSDOF 3
ENDMDL
MODEL 3
REMARK VINA RESULT: -5.519766360      2.160      3.224
REMARK  3 active torsions:
REMARK  status: ('A' for Active; 'I' for Inactive)
REMARK    1  A    between atoms: C3_3  and  O1_4 
REMARK    2  A    between atoms: C6_8  and  O2_10 
REMARK    3  A    between atoms: C8_12  and  O3_13 
ROOT
HETATM    1  C1  UNL     1     -14.968  10.983   8.900  1.00  0.00     0.015 C 
HETATM    2  C2  UNL     1     -13.486  11.260   8.717  1.00  0.00     0.042 C 
HETATM    3  C3  UNL     1     -12.847   9.976   8.261  1.00  0.00     0.124 C 
HETATM    4  C4  UNL     1     -11.358  10.008   8.252  1.00  0.00     0.035 C 
HETATM    5  C5  UNL     1     -10.761  11.208   8.917  1.00  0.00     0.042 C 
HETATM    6  C6  UNL     1     -11.465  11.636  10.163  1.00  0.00     0.080 C 
HETATM    7  C7  UNL     1     -11.128  10.757  11.358  1.00  0.00     0.048 C 
HETATM    8  C8  UNL     1     -12.948  11.704  10.049  1.00  0.00     0.158 C 
ENDROOT
BRANCH   6   9
HETATM    9  O2  UNL     1     -10.983  12.926  10.483  1.00  0.00    -0.388 OA
ATOM     10  H2  UNL     1     -11.743  13.478  10.621  1.00  0.00     0.210 HD
ENDBRANCH   6   9
BRANCH   8  11
HETATM   11  O3  UNL     1     -13.443  13.004  10.269  1.00  0.00    -0.392 OA
ATOM     12  H3  UNL     1     -14.337  12.906  10.577  1.00  0.00     0.210 HD
ENDBRANCH   8  11
BRANCH   3  13
HETATM   13  O1  UNL     1     -13.370   9.660   6.996  1.00  0.00    -0.395 OA
ATOM     14  H1  UNL     1     -13.991   8.949   7.106  1.00  0.00     0.210 HD
ENDBRANCH   3  13
TORSDOF 3
ENDMDL
MODEL 4
REMARK VINA RESULT: -5.490800050      7.992      9.736
REMARK  3 active torsions:
REMARK  status: ('A' for Active; 'I' for Inactive)
REMARK    1  A    between atoms: C3_3  and  O1_4 
REMARK    2  A    between atoms: C6_8  and  O2_10 
REMARK    3  A    between atoms: C8_12  and  O3_13 
ROOT
HETATM    1  C1  UNL     1      -4.881  15.457  10.670  1.00  0.00     0.015 C 
HETATM    2  C2  UNL     1      -4.637  13.965  10.818  1.00  0.00     0.042 C 
HETATM    3  C3  UNL     1      -5.849  13.261  10.273  1.00  0.00     0.124 C 
HETATM    4  C4  UNL     1      -5.877  11.797  10.548  1.00  0.00     0.035 C 
HETATM    5  C5  UNL     1      -4.833  11.329  11.512  1.00  0.00     0.042 C 
HETATM    6  C6  UNL     1      -4.594  12.255  12.660  1.00  0.00     0.080 C 
HETATM    7  C7  UNL     1      -5.678  12.160  13.725  1.00  0.00     0.048 C 
HETATM    8  C8  UNL     1      -4.448  13.689  12.284  1.00  0.00     0.158 C 
ENDROOT
BRANCH   6   9
HETATM    9  O2  UNL     1      -3.399  11.834  13.285  1.00  0.00    -0.388 OA
ATOM     10  H2  UNL     1      -3.273  12.392  14.043  1.00  0.00     0.210 HD
ENDBRANCH   6   9
BRANCH   8  11
HETATM   11  O3  UNL     1      -3.186  14.207  12.632  1.00  0.00    -0.392 OA
ATOM     12  H3  UNL     1      -3.113  15.053  12.205  1.00  0.00     0.210 HD
ENDBRANCH   8  11
BRANCH   3  13
HETATM   13  O1  UNL     1      -5.925  13.534   8.897  1.00  0.00    -0.395 OA
ATOM     14  H1  UNL     1      -5.965  12.705   8.436  1.00  0.00     0.210 HD
ENDBRANCH   3  13
TORSDOF 3
ENDMDL
MODEL 5
REMARK VINA RESULT: -5.473583465      7.495      8.850
REMARK  3 active torsions:
REMARK  status: ('A' for Active; 'I' for Inactive)
REMARK    1  A    between atoms: C3_3  and  O1_4 
REMARK    2  A    between atoms: C6_8  and  O2_10 
REMARK    3  A    between atoms: C8_12  and  O3_13 
ROOT
HETATM    1  C1  UNL     1      -4.022  10.486  12.048  1.00  0.00     0.015 C 
HETATM    2  C2  UNL     1      -4.554  11.909  12.036  1.00  0.00     0.042 C 
HETATM    3  C3  UNL     1      -5.631  11.989  13.084  1.00  0.00     0.124 C 
HETATM    4  C4  UNL     1      -6.416  13.254  13.052  1.00  0.00     0.035 C 
HETATM    5  C5  UNL     1      -6.164  14.109  11.850  1.00  0.00     0.042 C 
HETATM    6  C6  UNL     1      -6.006  13.348  10.574  1.00  0.00     0.080 C 
HETATM    7  C7  UNL     1      -7.336  12.872  10.006  1.00  0.00     0.048 C 
HETATM    8  C8  UNL     1      -5.099  12.169  10.660  1.00  0.00     0.158 C 
ENDROOT
BRANCH   6   9
HETATM    9  O2  UNL     1      -5.478  14.248   9.622  1.00  0.00    -0.388 OA
ATOM     10  H2  UNL     1      -4.785  14.732  10.054  1.00  0.00     0.210 HD
ENDBRANCH   6   9
BRANCH   8  11
HETATM   11  O3  UNL     1      -3.988  12.286   9.803  1.00  0.00    -0.392 OA
ATOM     12  H3  UNL     1      -4.307  12.674   8.996  1.00  0.00     0.210 HD
ENDBRANCH   8  11
BRANCH   3  13
HETATM   13  O1  UNL     1      -5.030  11.780  14.337  1.00  0.00    -0.395 OA
ATOM     14  H1  UNL     1      -5.403  10.990  14.711  1.00  0.00     0.210 HD
ENDBRANCH   3  13
TORSDOF 3
ENDMDL
