MODEL 1
REMARK VINA RESULT: -8.386996598      0.000      0.000
REMARK  5 active torsions:
REMARK  status: ('A' for Active; 'I' for Inactive)
REMARK    1  A    between atoms: C7_7  and  C9_9 
REMARK    2  A    between atoms: C9_9  and  O1_10 
REMARK    3  A    between atoms: C12_14  and  O2_15 
REMARK    4  A    between atoms: C16_20  and  C18_22 
REMARK    5  A    between atoms: C18_22  and  O3_23 
ROOT
HETATM    1  C1  UNL     1      20.360 -15.075   4.650  1.00  0.00     0.015 C 
HETATM    2  C2  UNL     1      20.413 -13.855   4.223  1.00  0.00    -0.078 C 
HETATM    3  C3  UNL     1      21.076 -13.624   2.905  1.00  0.00     0.034 C 
HETATM    4  C4  UNL     1      19.861 -13.194   2.109  1.00  0.00     0.010 C 
HETATM    5  C5  UNL     1      19.211 -11.935   2.546  1.00  0.00     0.002 C 
HETATM    6  C6  UNL     1      19.210 -11.656   4.037  1.00  0.00     0.015 C 
HETATM    7  C7  UNL     1      17.844 -11.161   4.375  1.00  0.00    -0.018 C 
HETATM    8  C8  UNL     1      16.731 -12.118   3.932  1.00  0.00     0.018 C 
HETATM    9  C10 UNL     1      17.554  -9.856   3.638  1.00  0.00     0.014 C 
HETATM   10  C11 UNL     1      17.613  -9.768   2.208  1.00  0.00     0.033 C 
HETATM   11  C12 UNL     1      19.064  -9.506   1.817  1.00  0.00     0.126 C 
HETATM   12  C13 UNL     1      19.717 -10.847   1.664  1.00  0.00    -0.018 C 
HETATM   13  C14 UNL     1      19.378 -11.287   0.220  1.00  0.00     0.018 C 
HETATM   14  C15 UNL     1      21.201 -10.630   1.677  1.00  0.00     0.018 C 
HETATM   15  C16 UNL     1      19.931 -12.602   4.882  1.00  0.00     0.005 C 
HETATM   16  C17 UNL     1      19.382 -13.038   6.198  1.00  0.00     0.023 C 
ENDROOT
BRANCH   7  17
HETATM   17  C9  UNL     1      17.569 -10.697   5.781  1.00  0.00     0.173 C 
BRANCH  17  18
HETATM   18  O1  UNL     1      18.353  -9.630   6.152  1.00  0.00    -0.400 OA
ATOM     19  H1  UNL     1      18.449  -9.553   7.094  1.00  0.00     0.209 HD
ENDBRANCH  17  18
ENDBRANCH   7  17
BRANCH  15  20
HETATM   20  C18 UNL     1      21.302 -11.990   5.335  1.00  0.00     0.178 C 
BRANCH  20  21
HETATM   21  O3  UNL     1      21.216 -10.588   5.320  1.00  0.00    -0.400 OA
ATOM     22  H3  UNL     1      22.080 -10.220   5.178  1.00  0.00     0.209 HD
ENDBRANCH  20  21
ENDBRANCH  15  20
BRANCH  11  23
HETATM   23  O2  UNL     1      19.664  -8.649   2.694  1.00  0.00    -0.395 OA
ATOM     24  H2  UNL     1      20.552  -8.924   2.889  1.00  0.00     0.210 HD
ENDBRANCH  11  23
TORSDOF 5
ENDMDL
MODEL 2
REMARK VINA RESULT: -7.427980169      1.349      2.589
REMARK  5 active torsions:
REMARK  status: ('A' for Active; 'I' for Inactive)
REMARK    1  A    between atoms: C7_7  and  C9_9 
REMARK    2  A    between atoms: C9_9  and  O1_10 
REMARK    3  A    between atoms: C12_14  and  O2_15 
REMARK    4  A    between atoms: C16_20  and  C18_22 
REMARK    5  A    between atoms: C18_22  and  O3_23 
ROOT
HETATM    1  C1  UNL     1      21.440 -13.993   1.400  1.00  0.00     0.015 C 
HETATM    2  C2  UNL     1      21.032 -13.028   2.159  1.00  0.00    -0.078 C 
HETATM    3  C3  UNL     1      20.789 -11.706   1.507  1.00  0.00     0.034 C 
HETATM    4  C4  UNL     1      19.285 -11.642   1.669  1.00  0.00     0.010 C 
HETATM    5  C5  UNL     1      18.784 -11.588   3.064  1.00  0.00     0.002 C 
HETATM    6  C6  UNL     1      19.570 -12.373   4.096  1.00  0.00     0.015 C 
HETATM    7  C7  UNL     1      18.567 -13.070   4.952  1.00  0.00    -0.018 C 
HETATM    8  C8  UNL     1      17.584 -13.929   4.149  1.00  0.00     0.018 C 
HETATM    9  C10 UNL     1      17.692 -12.053   5.681  1.00  0.00     0.014 C 
HETATM   10  C11 UNL     1      16.923 -11.073   4.971  1.00  0.00     0.033 C 
HETATM   11  C12 UNL     1      17.834  -9.882   4.688  1.00  0.00     0.126 C 
HETATM   12  C13 UNL     1      18.510 -10.158   3.379  1.00  0.00    -0.018 C 
HETATM   13  C14 UNL     1      17.503  -9.678   2.307  1.00  0.00     0.018 C 
HETATM   14  C15 UNL     1      19.682  -9.228   3.272  1.00  0.00     0.018 C 
HETATM   15  C16 UNL     1      20.792 -13.023   3.634  1.00  0.00     0.005 C 
HETATM   16  C17 UNL     1      21.160 -14.393   4.095  1.00  0.00     0.023 C 
ENDROOT
BRANCH   7  17
HETATM   17  C9  UNL     1      19.051 -13.852   6.145  1.00  0.00     0.173 C 
BRANCH  17  18
HETATM   18  O1  UNL     1      19.751 -13.079   7.041  1.00  0.00    -0.400 OA
ATOM     19  H1  UNL     1      19.947 -12.212   6.705  1.00  0.00     0.209 HD
ENDBRANCH  17  18
ENDBRANCH   7  17
BRANCH  15  20
HETATM   20  C18 UNL     1      22.050 -12.216   4.110  1.00  0.00     0.178 C 
BRANCH  20  21
HETATM   21  O3  UNL     1      21.717 -11.458   5.245  1.00  0.00    -0.400 OA
ATOM     22  H3  UNL     1      22.401 -10.821   5.411  1.00  0.00     0.209 HD
ENDBRANCH  20  21
ENDBRANCH  15  20
BRANCH  11  23
HETATM   23  O2  UNL     1      18.661  -9.633   5.745  1.00  0.00    -0.395 OA
ATOM     24  H2  UNL     1      18.869  -8.708   5.808  1.00  0.00     0.210 HD
ENDBRANCH  11  23
TORSDOF 5
ENDMDL
MODEL 3
REMARK VINA RESULT: -7.415371174      1.616      2.445
REMARK  5 active torsions:
REMARK  status: ('A' for Active; 'I' for Inactive)
REMARK    1  A    between atoms: C7_7  and  C9_9 
REMARK    2  A    between atoms: C9_9  and  O1_10 
REMARK    3  A    between atoms: C12_14  and  O2_15 
REMARK    4  A    between atoms: C16_20  and  C18_22 
REMARK    5  A    between atoms: C18_22  and  O3_23 
ROOT
HETATM    1  C1  UNL     1      18.362 -16.245   5.828  1.00  0.00     0.015 C 
HETATM    2  C2  UNL     1      18.941 -15.091   5.741  1.00  0.00    -0.078 C 
HETATM    3  C3  UNL     1      20.281 -15.051   5.083  1.00  0.00     0.034 C 
HETATM    4  C4  UNL     1      19.907 -14.263   3.846  1.00  0.00     0.010 C 
HETATM    5  C5  UNL     1      19.444 -12.873   4.077  1.00  0.00     0.002 C 
HETATM    6  C6  UNL     1      18.636 -12.629   5.337  1.00  0.00     0.015 C 
HETATM    7  C7  UNL     1      17.496 -11.750   4.947  1.00  0.00    -0.018 C 
HETATM    8  C8  UNL     1      16.667 -12.320   3.790  1.00  0.00     0.018 C 
HETATM    9  C10 UNL     1      18.011 -10.407   4.434  1.00  0.00     0.014 C 
HETATM   10  C11 UNL     1      18.914 -10.320   3.325  1.00  0.00     0.033 C 
HETATM   11  C12 UNL     1      20.331 -10.502   3.862  1.00  0.00     0.126 C 
HETATM   12  C13 UNL     1      20.610 -11.975   3.847  1.00  0.00    -0.018 C 
HETATM   13  C14 UNL     1      21.088 -12.270   2.405  1.00  0.00     0.018 C 
HETATM   14  C15 UNL     1      21.804 -12.216   4.722  1.00  0.00     0.018 C 
HETATM   15  C16 UNL     1      18.477 -13.762   6.244  1.00  0.00     0.005 C 
HETATM   16  C17 UNL     1      17.178 -14.031   6.923  1.00  0.00     0.023 C 
ENDROOT
BRANCH   7  17
HETATM   17  C9  UNL     1      16.569 -11.245   6.021  1.00  0.00     0.173 C 
BRANCH  17  18
HETATM   18  O1  UNL     1      17.228 -10.555   7.012  1.00  0.00    -0.400 OA
ATOM     19  H1  UNL     1      16.648 -10.260   7.703  1.00  0.00     0.209 HD
ENDBRANCH  17  18
ENDBRANCH   7  17
BRANCH  15  20
HETATM   20  C18 UNL     1      19.420 -13.599   7.487  1.00  0.00     0.178 C 
BRANCH  20  21
HETATM   21  O3  UNL     1      18.774 -12.826   8.465  1.00  0.00    -0.400 OA
ATOM     22  H3  UNL     1      19.344 -12.731   9.220  1.00  0.00     0.209 HD
ENDBRANCH  20  21
ENDBRANCH  15  20
BRANCH  11  23
HETATM   23  O2  UNL     1      20.485  -9.879   5.066  1.00  0.00    -0.395 OA
ATOM     24  H2  UNL     1      20.264 -10.461   5.784  1.00  0.00     0.210 HD
ENDBRANCH  11  23
TORSDOF 5
ENDMDL
MODEL 4
REMARK VINA RESULT: -7.342114947      1.509      2.879
REMARK  5 active torsions:
REMARK  status: ('A' for Active; 'I' for Inactive)
REMARK    1  A    between atoms: C7_7  and  C9_9 
REMARK    2  A    between atoms: C9_9  and  O1_10 
REMARK    3  A    between atoms: C12_14  and  O2_15 
REMARK    4  A    between atoms: C16_20  and  C18_22 
REMARK    5  A    between atoms: C18_22  and  O3_23 
ROOT
HETATM    1  C1  UNL     1      15.697 -13.654   4.546  1.00  0.00     0.015 C 
HETATM    2  C2  UNL     1      16.968 -13.448   4.422  1.00  0.00    -0.078 C 
HETATM    3  C3  UNL     1      17.761 -14.497   3.714  1.00  0.00     0.034 C 
HETATM    4  C4  UNL     1      18.141 -13.705   2.481  1.00  0.00     0.010 C 
HETATM    5  C5  UNL     1      19.007 -12.522   2.710  1.00  0.00     0.002 C 
HETATM    6  C6  UNL     1      18.774 -11.753   3.996  1.00  0.00     0.015 C 
HETATM    7  C7  UNL     1      18.809 -10.306   3.637  1.00  0.00    -0.018 C 
HETATM    8  C8  UNL     1      17.825  -9.940   2.520  1.00  0.00     0.018 C 
HETATM    9  C10 UNL     1      20.182  -9.927   3.088  1.00  0.00     0.014 C 
HETATM   10  C11 UNL     1      20.744 -10.584   1.944  1.00  0.00     0.033 C 
HETATM   11  C12 UNL     1      21.441 -11.851   2.430  1.00  0.00     0.126 C 
HETATM   12  C13 UNL     1      20.408 -12.938   2.425  1.00  0.00    -0.018 C 
HETATM   13  C14 UNL     1      20.401 -13.466   0.970  1.00  0.00     0.018 C 
HETATM   14  C15 UNL     1      20.938 -14.068   3.258  1.00  0.00     0.018 C 
HETATM   15  C16 UNL     1      17.792 -12.306   4.923  1.00  0.00     0.005 C 
HETATM   16  C17 UNL     1      16.838 -11.425   5.655  1.00  0.00     0.023 C 
ENDROOT
BRANCH   7  17
HETATM   17  C9  UNL     1      18.713  -9.283   4.738  1.00  0.00     0.173 C 
BRANCH  17  18
HETATM   18  O1  UNL     1      18.687  -7.992   4.266  1.00  0.00    -0.400 OA
ATOM     19  H1  UNL     1      18.212  -7.908   3.448  1.00  0.00     0.209 HD
ENDBRANCH  17  18
ENDBRANCH   7  17
BRANCH  15  20
HETATM   20  C18 UNL     1      18.516 -13.004   6.128  1.00  0.00     0.178 C 
BRANCH  20  21
HETATM   21  O3  UNL     1      19.817 -12.492   6.251  1.00  0.00    -0.400 OA
ATOM     22  H3  UNL     1      20.282 -12.969   6.929  1.00  0.00     0.209 HD
ENDBRANCH  20  21
ENDBRANCH  15  20
BRANCH  11  23
HETATM   23  O2  UNL     1      22.076 -11.640   3.620  1.00  0.00    -0.395 OA
ATOM     24  H2  UNL     1      22.864 -11.123   3.501  1.00  0.00     0.210 HD
ENDBRANCH  11  23
TORSDOF 5
ENDMDL
MODEL 5
REMARK VINA RESULT: -7.303665318      2.553      4.366
REMARK  5 active torsions:
REMARK  status: ('A' for Active; 'I' for Inactive)
REMARK    1  A    between atoms: C7_7  and  C9_9 
REMARK    2  A    between atoms: C9_9  and  O1_10 
REMARK    3  A    between atoms: C12_14  and  O2_15 
REMARK    4  A    between atoms: C16_20  and  C18_22 
REMARK    5  A    between atoms: C18_22  and  O3_23 
ROOT
HETATM    1  C1  UNL     1      16.379 -11.564   5.476  1.00  0.00     0.015 C 
HETATM    2  C2  UNL     1      17.097 -11.984   4.486  1.00  0.00    -0.078 C 
HETATM    3  C3  UNL     1      17.293 -11.044   3.341  1.00  0.00     0.034 C 
HETATM    4  C4  UNL     1      18.776 -10.790   3.502  1.00  0.00     0.010 C 
HETATM    5  C5  UNL     1      19.661 -11.966   3.314  1.00  0.00     0.002 C 
HETATM    6  C6  UNL     1      19.121 -13.301   3.788  1.00  0.00     0.015 C 
HETATM    7  C7  UNL     1      20.240 -13.984   4.498  1.00  0.00    -0.018 C 
HETATM    8  C8  UNL     1      20.844 -13.136   5.624  1.00  0.00     0.018 C 
HETATM    9  C10 UNL     1      21.400 -14.243   3.539  1.00  0.00     0.014 C 
HETATM   10  C11 UNL     1      22.039 -13.178   2.824  1.00  0.00     0.033 C 
HETATM   11  C12 UNL     1      21.230 -12.916   1.557  1.00  0.00     0.126 C 
HETATM   12  C13 UNL     1      20.177 -11.911   1.918  1.00  0.00    -0.018 C 
HETATM   13  C14 UNL     1      20.882 -10.540   1.785  1.00  0.00     0.018 C 
HETATM   14  C15 UNL     1      19.140 -11.935   0.835  1.00  0.00     0.018 C 
HETATM   15  C16 UNL     1      17.751 -13.314   4.290  1.00  0.00     0.005 C 
HETATM   16  C17 UNL     1      17.375 -14.115   5.490  1.00  0.00     0.023 C 
ENDROOT
BRANCH   7  17
HETATM   17  C9  UNL     1      20.034 -15.391   4.993  1.00  0.00     0.173 C 
BRANCH  17  18
HETATM   18  O1  UNL     1      19.691 -16.265   3.988  1.00  0.00    -0.400 OA
ATOM     19  H1  UNL     1      19.053 -15.901   3.386  1.00  0.00     0.209 HD
ENDBRANCH  17  18
ENDBRANCH   7  17
BRANCH  15  20
HETATM   20  C18 UNL     1      16.786 -13.935   3.221  1.00  0.00     0.178 C 
BRANCH  20  21
HETATM   21  O3  UNL     1      17.483 -14.887   2.459  1.00  0.00    -0.400 OA
ATOM     22  H3  UNL     1      18.385 -14.609   2.356  1.00  0.00     0.209 HD
ENDBRANCH  20  21
ENDBRANCH  15  20
BRANCH  11  23
HETATM   23  O2  UNL     1      20.776 -14.082   1.012  1.00  0.00    -0.395 OA
ATOM     24  H2  UNL     1      20.120 -13.917   0.345  1.00  0.00     0.210 HD
ENDBRANCH  11  23
TORSDOF 5
ENDMDL
