MODEL 1
REMARK VINA RESULT: -8.144741339      0.000      0.000
REMARK  10 active torsions:
REMARK  status: ('A' for Active; 'I' for Inactive)
REMARK       I    between atoms: N1_2  and  C2_4 
REMARK       I    between atoms: C2_4  and  N3_9 
REMARK    1  A    between atoms: N2_5  and  O1_7 
REMARK    2  A    between atoms: N3_9  and  C3_11 
REMARK    3  A    between atoms: C6_14  and  N4_15 
REMARK    4  A    between atoms: N4_15  and  N5_17 
REMARK    5  A    between atoms: N5_17  and  C7_19 
REMARK    6  A    between atoms: C9_21  and  O2_22 
REMARK    7  A    between atoms: C11_24  and  O3_25 
REMARK    8  A    between atoms: C13_27  and  O4_28 
REMARK    9  A    between atoms: C14_30  and  N6_31 
REMARK   10  A    between atoms: C15_36  and  S1_37 
ROOT
HETATM    1  C3  UNL     1      47.225 -49.180  75.441  1.00  0.00     0.090 A 
HETATM    2  C4  UNL     1      47.332 -49.488  76.807  1.00  0.00     0.037 A 
HETATM    3  C5  UNL     1      48.240 -50.418  77.247  1.00  0.00     0.052 A 
HETATM    4  C6  UNL     1      49.046 -51.047  76.326  1.00  0.00     0.120 A 
HETATM    5  N7  UNL     1      48.913 -50.727  75.040  1.00  0.00    -0.328 N 
ATOM      6  H7  UNL     1      49.518 -51.203  74.371  1.00  0.00     0.168 HD
HETATM    7  C15 UNL     1      48.041 -49.822  74.553  1.00  0.00     0.179 A 
ENDROOT
BRANCH   4   8
HETATM    8  N4  UNL     1      49.996 -52.021  76.788  1.00  0.00    -0.285 N 
ATOM      9  H4  UNL     1      49.734 -52.759  77.442  1.00  0.00     0.188 HD
BRANCH   8  10
HETATM   10  N5  UNL     1      51.312 -51.902  76.286  1.00  0.00    -0.297 N 
ATOM     11  H5  UNL     1      51.586 -52.298  75.386  1.00  0.00     0.187 HD
BRANCH  10  12
HETATM   12  C7  UNL     1      52.221 -51.207  77.100  1.00  0.00     0.086 A 
HETATM   13  C8  UNL     1      52.974 -51.903  78.011  1.00  0.00     0.073 A 
HETATM   14  C9  UNL     1      53.892 -51.290  78.835  1.00  0.00     0.106 A 
HETATM   15  C11 UNL     1      54.078 -49.902  78.754  1.00  0.00     0.137 A 
HETATM   16  C13 UNL     1      53.319 -49.218  77.838  1.00  0.00     0.137 A 
HETATM   17  C14 UNL     1      52.391 -49.847  77.007  1.00  0.00     0.166 A 
BRANCH  14  18
HETATM   18  O2  UNL     1      54.675 -51.941  79.767  1.00  0.00    -0.353 OA
HETATM   19  C10 UNL     1      55.350 -53.149  79.586  1.00  0.00     0.210 C 
ENDBRANCH  14  18
BRANCH  15  20
HETATM   20  O3  UNL     1      54.993 -49.244  79.567  1.00  0.00    -0.351 OA
HETATM   21  C12 UNL     1      54.503 -48.851  80.856  1.00  0.00     0.210 C 
ENDBRANCH  15  20
BRANCH  16  22
HETATM   22  O4  UNL     1      53.528 -47.826  77.780  1.00  0.00    -0.356 OA
ATOM     23  H4  UNL     1      53.359 -47.345  78.582  1.00  0.00     0.218 HD
ENDBRANCH  16  22
BRANCH  17  24
HETATM   24  N6  UNL     1      51.652 -49.057  76.087  1.00  0.00    -0.110 N 
HETATM   25  O5  UNL     1      51.655 -49.374  74.885  1.00  0.00    -0.532 OA
HETATM   26  O6  UNL     1      50.949 -47.968  76.510  1.00  0.00    -0.532 OA
ENDBRANCH  17  24
ENDBRANCH  10  12
ENDBRANCH   8  10
ENDBRANCH   4   8
BRANCH   7  27
HETATM   27  S1  UNL     1      47.949 -49.518  72.842  1.00  0.00     0.157 S 
HETATM   28  O7  UNL     1      47.380 -48.194  72.483  1.00  0.00    -0.590 OA
HETATM   29  O8  UNL     1      47.064 -50.583  72.185  1.00  0.00    -0.590 OA
HETATM   30  O9  UNL     1      49.465 -49.723  72.140  1.00  0.00    -0.590 OA
ENDBRANCH   7  27
BRANCH   1  31
HETATM   31  N3  UNL     1      46.283 -48.198  75.090  1.00  0.00    -0.187 N 
HETATM   32  C2  UNL     1      44.899 -48.315  75.390  1.00  0.00     0.697 C 
HETATM   33  N1  UNL     1      44.349 -47.864  76.610  1.00  0.00    -0.229 N 
HETATM   34  N2  UNL     1      44.129 -48.849  74.519  1.00  0.00    -0.099 N 
HETATM   35  C1  UNL     1      43.204 -48.571  77.154  1.00  0.00     0.165 C 
ATOM     36  H1  UNL     1      44.747 -47.062  77.097  1.00  0.00     0.177 HD
ATOM     37  H2  UNL     1      43.133 -48.938  74.723  1.00  0.00     0.213 HD
ATOM     38  H3  UNL     1      46.606 -47.365  74.598  1.00  0.00     0.184 HD
BRANCH  34  39
HETATM   39  O1  UNL     1      44.609 -49.309  73.310  1.00  0.00    -0.276 OA
ATOM     40  H1  UNL     1      45.183 -50.064  73.254  1.00  0.00     0.245 HD
ENDBRANCH  34  39
ENDBRANCH   1  31
TORSDOF 10
ENDMDL
MODEL 2
REMARK VINA RESULT: -7.525087811      1.350      1.861
REMARK  10 active torsions:
REMARK  status: ('A' for Active; 'I' for Inactive)
REMARK       I    between atoms: N1_2  and  C2_4 
REMARK       I    between atoms: C2_4  and  N3_9 
REMARK    1  A    between atoms: N2_5  and  O1_7 
REMARK    2  A    between atoms: N3_9  and  C3_11 
REMARK    3  A    between atoms: C6_14  and  N4_15 
REMARK    4  A    between atoms: N4_15  and  N5_17 
REMARK    5  A    between atoms: N5_17  and  C7_19 
REMARK    6  A    between atoms: C9_21  and  O2_22 
REMARK    7  A    between atoms: C11_24  and  O3_25 
REMARK    8  A    between atoms: C13_27  and  O4_28 
REMARK    9  A    between atoms: C14_30  and  N6_31 
REMARK   10  A    between atoms: C15_36  and  S1_37 
ROOT
HETATM    1  C3  UNL     1      47.180 -50.588  74.433  1.00  0.00     0.090 A 
HETATM    2  C4  UNL     1      47.250 -51.930  74.840  1.00  0.00     0.037 A 
HETATM    3  C5  UNL     1      48.265 -52.363  75.656  1.00  0.00     0.052 A 
HETATM    4  C6  UNL     1      49.216 -51.459  76.070  1.00  0.00     0.120 A 
HETATM    5  N7  UNL     1      49.113 -50.195  75.661  1.00  0.00    -0.328 N 
ATOM      6  H7  UNL     1      49.827 -49.539  75.978  1.00  0.00     0.168 HD
HETATM    7  C15 UNL     1      48.140 -49.716  74.863  1.00  0.00     0.179 A 
ENDROOT
BRANCH   4   8
HETATM    8  N4  UNL     1      50.279 -51.913  76.924  1.00  0.00    -0.285 N 
ATOM      9  H4  UNL     1      50.094 -52.337  77.833  1.00  0.00     0.188 HD
BRANCH   8  10
HETATM   10  N5  UNL     1      51.594 -51.741  76.435  1.00  0.00    -0.297 N 
ATOM     11  H5  UNL     1      51.872 -52.060  75.507  1.00  0.00     0.187 HD
BRANCH  10  12
HETATM   12  C7  UNL     1      52.496 -51.106  77.304  1.00  0.00     0.086 A 
HETATM   13  C8  UNL     1      53.184 -51.857  78.223  1.00  0.00     0.073 A 
HETATM   14  C9  UNL     1      54.091 -51.305  79.100  1.00  0.00     0.106 A 
HETATM   15  C11 UNL     1      54.334 -49.924  79.068  1.00  0.00     0.137 A 
HETATM   16  C13 UNL     1      53.639 -49.184  78.145  1.00  0.00     0.137 A 
HETATM   17  C14 UNL     1      52.721 -49.751  77.259  1.00  0.00     0.166 A 
BRANCH  14  18
HETATM   18  O2  UNL     1      54.810 -52.012  80.042  1.00  0.00    -0.353 OA
HETATM   19  C10 UNL     1      55.702 -53.057  79.794  1.00  0.00     0.210 C 
ENDBRANCH  14  18
BRANCH  15  20
HETATM   20  O3  UNL     1      55.240 -49.326  79.936  1.00  0.00    -0.351 OA
HETATM   21  C12 UNL     1      54.689 -48.849  81.171  1.00  0.00     0.210 C 
ENDBRANCH  15  20
BRANCH  16  22
HETATM   22  O4  UNL     1      53.903 -47.801  78.136  1.00  0.00    -0.356 OA
ATOM     23  H4  UNL     1      53.145 -47.231  78.200  1.00  0.00     0.218 HD
ENDBRANCH  16  22
BRANCH  17  24
HETATM   24  N6  UNL     1      52.051 -48.907  76.335  1.00  0.00    -0.110 N 
HETATM   25  O5  UNL     1      51.601 -47.818  76.732  1.00  0.00    -0.532 OA
HETATM   26  O6  UNL     1      51.900 -49.280  75.032  1.00  0.00    -0.532 OA
ENDBRANCH  17  24
ENDBRANCH  10  12
ENDBRANCH   8  10
ENDBRANCH   4   8
BRANCH   7  27
HETATM   27  S1  UNL     1      48.139 -48.044  74.379  1.00  0.00     0.157 S 
HETATM   28  O7  UNL     1      47.494 -47.784  73.068  1.00  0.00    -0.590 OA
HETATM   29  O8  UNL     1      49.585 -47.545  74.278  1.00  0.00    -0.590 OA
HETATM   30  O9  UNL     1      47.438 -47.098  75.583  1.00  0.00    -0.590 OA
ENDBRANCH   7  27
BRANCH   1  31
HETATM   31  N3  UNL     1      46.091 -50.234  73.617  1.00  0.00    -0.187 N 
HETATM   32  C2  UNL     1      44.886 -49.687  74.134  1.00  0.00     0.697 C 
HETATM   33  N1  UNL     1      44.706 -48.300  74.324  1.00  0.00    -0.229 N 
HETATM   34  N2  UNL     1      43.934 -50.487  74.437  1.00  0.00    -0.099 N 
HETATM   35  C1  UNL     1      43.856 -47.856  75.413  1.00  0.00     0.165 C 
ATOM     36  H1  UNL     1      45.162 -47.625  73.710  1.00  0.00     0.177 HD
ATOM     37  H2  UNL     1      43.063 -50.105  74.809  1.00  0.00     0.213 HD
ATOM     38  H3  UNL     1      46.169 -50.377  72.610  1.00  0.00     0.184 HD
BRANCH  34  39
HETATM   39  O1  UNL     1      44.052 -51.852  74.275  1.00  0.00    -0.276 OA
ATOM     40  H1  UNL     1      43.443 -52.459  74.680  1.00  0.00     0.245 HD
ENDBRANCH  34  39
ENDBRANCH   1  31
TORSDOF 10
ENDMDL
MODEL 3
REMARK VINA RESULT: -7.438460415      1.187      1.678
REMARK  10 active torsions:
REMARK  status: ('A' for Active; 'I' for Inactive)
REMARK       I    between atoms: N1_2  and  C2_4 
REMARK       I    between atoms: C2_4  and  N3_9 
REMARK    1  A    between atoms: N2_5  and  O1_7 
REMARK    2  A    between atoms: N3_9  and  C3_11 
REMARK    3  A    between atoms: C6_14  and  N4_15 
REMARK    4  A    between atoms: N4_15  and  N5_17 
REMARK    5  A    between atoms: N5_17  and  C7_19 
REMARK    6  A    between atoms: C9_21  and  O2_22 
REMARK    7  A    between atoms: C11_24  and  O3_25 
REMARK    8  A    between atoms: C13_27  and  O4_28 
REMARK    9  A    between atoms: C14_30  and  N6_31 
REMARK   10  A    between atoms: C15_36  and  S1_37 
ROOT
HETATM    1  C3  UNL     1      46.779 -50.074  75.283  1.00  0.00     0.090 A 
HETATM    2  C4  UNL     1      47.182 -49.731  76.584  1.00  0.00     0.037 A 
HETATM    3  C5  UNL     1      48.220 -50.389  77.194  1.00  0.00     0.052 A 
HETATM    4  C6  UNL     1      48.863 -51.394  76.508  1.00  0.00     0.120 A 
HETATM    5  N7  UNL     1      48.450 -51.689  75.276  1.00  0.00    -0.328 N 
ATOM      6  H7  UNL     1      48.938 -52.438  74.784  1.00  0.00     0.168 HD
HETATM    7  C15 UNL     1      47.439 -51.077  74.630  1.00  0.00     0.179 A 
ENDROOT
BRANCH   4   8
HETATM    8  N4  UNL     1      49.950 -52.083  77.147  1.00  0.00    -0.285 N 
ATOM      9  H4  UNL     1      49.810 -52.647  77.986  1.00  0.00     0.188 HD
BRANCH   8  10
HETATM   10  N5  UNL     1      51.223 -51.938  76.551  1.00  0.00    -0.297 N 
ATOM     11  H5  UNL     1      51.454 -52.369  75.655  1.00  0.00     0.187 HD
BRANCH  10  12
HETATM   12  C7  UNL     1      52.153 -51.164  77.265  1.00  0.00     0.086 A 
HETATM   13  C8  UNL     1      52.962 -51.773  78.191  1.00  0.00     0.073 A 
HETATM   14  C9  UNL     1      53.903 -51.080  78.920  1.00  0.00     0.106 A 
HETATM   15  C11 UNL     1      54.054 -49.700  78.724  1.00  0.00     0.137 A 
HETATM   16  C13 UNL     1      53.239 -49.104  77.795  1.00  0.00     0.137 A 
HETATM   17  C14 UNL     1      52.288 -49.812  77.059  1.00  0.00     0.166 A 
BRANCH  14  18
HETATM   18  O2  UNL     1      54.741 -51.642  79.863  1.00  0.00    -0.353 OA
HETATM   19  C10 UNL     1      55.823 -52.487  79.613  1.00  0.00     0.210 C 
ENDBRANCH  14  18
BRANCH  15  20
HETATM   20  O3  UNL     1      54.991 -48.964  79.439  1.00  0.00    -0.351 OA
HETATM   21  C12 UNL     1      54.553 -48.485  80.718  1.00  0.00     0.210 C 
ENDBRANCH  15  20
BRANCH  16  22
HETATM   22  O4  UNL     1      53.414 -47.717  77.619  1.00  0.00    -0.356 OA
ATOM     23  H4  UNL     1      52.957 -47.158  78.236  1.00  0.00     0.218 HD
ENDBRANCH  16  22
BRANCH  17  24
HETATM   24  N6  UNL     1      51.491 -49.111  76.117  1.00  0.00    -0.110 N 
HETATM   25  O5  UNL     1      50.886 -48.089  76.482  1.00  0.00    -0.532 OA
HETATM   26  O6  UNL     1      51.388 -49.547  74.828  1.00  0.00    -0.532 OA
ENDBRANCH  17  24
ENDBRANCH  10  12
ENDBRANCH   8  10
ENDBRANCH   4   8
BRANCH   7  27
HETATM   27  S1  UNL     1      46.982 -51.580  73.028  1.00  0.00     0.157 S 
HETATM   28  O7  UNL     1      45.586 -52.070  72.913  1.00  0.00    -0.590 OA
HETATM   29  O8  UNL     1      47.900 -52.721  72.575  1.00  0.00    -0.590 OA
HETATM   30  O9  UNL     1      47.267 -50.335  71.932  1.00  0.00    -0.590 OA
ENDBRANCH   7  27
BRANCH   1  31
HETATM   31  N3  UNL     1      45.722 -49.328  74.734  1.00  0.00    -0.187 N 
HETATM   32  C2  UNL     1      45.288 -48.090  75.280  1.00  0.00     0.697 C 
HETATM   33  N1  UNL     1      45.855 -46.854  74.898  1.00  0.00    -0.229 N 
HETATM   34  N2  UNL     1      44.349 -48.102  76.150  1.00  0.00    -0.099 N 
HETATM   35  C1  UNL     1      45.915 -45.788  75.881  1.00  0.00     0.165 C 
ATOM     36  H1  UNL     1      46.214 -46.715  73.954  1.00  0.00     0.177 HD
ATOM     37  H2  UNL     1      44.028 -47.219  76.548  1.00  0.00     0.213 HD
ATOM     38  H3  UNL     1      45.245 -49.691  73.909  1.00  0.00     0.184 HD
BRANCH  34  39
HETATM   39  O1  UNL     1      43.757 -49.278  76.564  1.00  0.00    -0.276 OA
ATOM     40  H1  UNL     1      42.963 -49.608  76.159  1.00  0.00     0.245 HD
ENDBRANCH  34  39
ENDBRANCH   1  31
TORSDOF 10
ENDMDL
MODEL 4
REMARK VINA RESULT: -7.425072339      1.658      2.785
REMARK  10 active torsions:
REMARK  status: ('A' for Active; 'I' for Inactive)
REMARK       I    between atoms: N1_2  and  C2_4 
REMARK       I    between atoms: C2_4  and  N3_9 
REMARK    1  A    between atoms: N2_5  and  O1_7 
REMARK    2  A    between atoms: N3_9  and  C3_11 
REMARK    3  A    between atoms: C6_14  and  N4_15 
REMARK    4  A    between atoms: N4_15  and  N5_17 
REMARK    5  A    between atoms: N5_17  and  C7_19 
REMARK    6  A    between atoms: C9_21  and  O2_22 
REMARK    7  A    between atoms: C11_24  and  O3_25 
REMARK    8  A    between atoms: C13_27  and  O4_28 
REMARK    9  A    between atoms: C14_30  and  N6_31 
REMARK   10  A    between atoms: C15_36  and  S1_37 
ROOT
HETATM    1  C3  UNL     1      47.005 -49.782  75.390  1.00  0.00     0.090 A 
HETATM    2  C4  UNL     1      47.435 -49.698  76.724  1.00  0.00     0.037 A 
HETATM    3  C5  UNL     1      48.713 -49.297  77.025  1.00  0.00     0.052 A 
HETATM    4  C6  UNL     1      49.569 -48.978  75.996  1.00  0.00     0.120 A 
HETATM    5  N7  UNL     1      49.122 -49.072  74.745  1.00  0.00    -0.328 N 
ATOM      6  H7  UNL     1      49.771 -48.832  73.995  1.00  0.00     0.168 HD
HETATM    7  C15 UNL     1      47.881 -49.458  74.392  1.00  0.00     0.179 A 
ENDROOT
BRANCH   4   8
HETATM    8  N4  UNL     1      50.907 -48.559  76.313  1.00  0.00    -0.285 N 
ATOM      9  H4  UNL     1      51.101 -47.647  76.726  1.00  0.00     0.188 HD
BRANCH   8  10
HETATM   10  N5  UNL     1      51.939 -49.480  76.020  1.00  0.00    -0.297 N 
ATOM     11  H5  UNL     1      52.105 -49.824  75.075  1.00  0.00     0.187 HD
BRANCH  10  12
HETATM   12  C7  UNL     1      52.721 -49.895  77.111  1.00  0.00     0.086 A 
HETATM   13  C8  UNL     1      53.357 -48.950  77.877  1.00  0.00     0.073 A 
HETATM   14  C9  UNL     1      54.132 -49.282  78.967  1.00  0.00     0.106 A 
HETATM   15  C11 UNL     1      54.290 -50.629  79.321  1.00  0.00     0.137 A 
HETATM   16  C13 UNL     1      53.649 -51.563  78.547  1.00  0.00     0.137 A 
HETATM   17  C14 UNL     1      52.865 -51.219  77.444  1.00  0.00     0.166 A 
BRANCH  14  18
HETATM   18  O2  UNL     1      54.792 -48.375  79.771  1.00  0.00    -0.353 OA
HETATM   19  C10 UNL     1      54.204 -47.454  80.639  1.00  0.00     0.210 C 
ENDBRANCH  14  18
BRANCH  15  20
HETATM   20  O3  UNL     1      55.063 -51.007  80.412  1.00  0.00    -0.351 OA
HETATM   21  C12 UNL     1      56.458 -51.205  80.141  1.00  0.00     0.210 C 
ENDBRANCH  15  20
BRANCH  16  22
HETATM   22  O4  UNL     1      53.826 -52.908  78.927  1.00  0.00    -0.356 OA
ATOM     23  H4  UNL     1      54.607 -53.335  78.595  1.00  0.00     0.218 HD
ENDBRANCH  16  22
BRANCH  17  24
HETATM   24  N6  UNL     1      52.237 -52.254  76.703  1.00  0.00    -0.110 N 
HETATM   25  O5  UNL     1      52.936 -53.173  76.240  1.00  0.00    -0.532 OA
HETATM   26  O6  UNL     1      50.888 -52.247  76.498  1.00  0.00    -0.532 OA
ENDBRANCH  17  24
ENDBRANCH  10  12
ENDBRANCH   8  10
ENDBRANCH   4   8
BRANCH   7  27
HETATM   27  S1  UNL     1      47.434 -49.565  72.713  1.00  0.00     0.157 S 
HETATM   28  O7  UNL     1      48.549 -49.323  71.763  1.00  0.00    -0.590 OA
HETATM   29  O8  UNL     1      46.350 -48.523  72.411  1.00  0.00    -0.590 OA
HETATM   30  O9  UNL     1      46.703 -51.050  72.406  1.00  0.00    -0.590 OA
ENDBRANCH   7  27
BRANCH   1  31
HETATM   31  N3  UNL     1      45.673 -50.179  75.182  1.00  0.00    -0.187 N 
HETATM   32  C2  UNL     1      44.568 -49.314  75.402  1.00  0.00     0.697 C 
HETATM   33  N1  UNL     1      44.069 -48.454  74.399  1.00  0.00    -0.229 N 
HETATM   34  N2  UNL     1      44.009 -49.319  76.554  1.00  0.00    -0.099 N 
HETATM   35  C1  UNL     1      43.483 -47.189  74.802  1.00  0.00     0.165 C 
ATOM     36  H1  UNL     1      44.118 -48.717  73.415  1.00  0.00     0.177 HD
ATOM     37  H2  UNL     1      43.214 -48.702  76.723  1.00  0.00     0.213 HD
ATOM     38  H3  UNL     1      45.492 -51.130  74.860  1.00  0.00     0.184 HD
BRANCH  34  39
HETATM   39  O1  UNL     1      44.453 -50.136  77.573  1.00  0.00    -0.276 OA
ATOM     40  H1  UNL     1      44.233 -49.966  78.482  1.00  0.00     0.245 HD
ENDBRANCH  34  39
ENDBRANCH   1  31
TORSDOF 10
ENDMDL
MODEL 5
REMARK VINA RESULT: -7.386180117      1.510      2.561
REMARK  10 active torsions:
REMARK  status: ('A' for Active; 'I' for Inactive)
REMARK       I    between atoms: N1_2  and  C2_4 
REMARK       I    between atoms: C2_4  and  N3_9 
REMARK    1  A    between atoms: N2_5  and  O1_7 
REMARK    2  A    between atoms: N3_9  and  C3_11 
REMARK    3  A    between atoms: C6_14  and  N4_15 
REMARK    4  A    between atoms: N4_15  and  N5_17 
REMARK    5  A    between atoms: N5_17  and  C7_19 
REMARK    6  A    between atoms: C9_21  and  O2_22 
REMARK    7  A    between atoms: C11_24  and  O3_25 
REMARK    8  A    between atoms: C13_27  and  O4_28 
REMARK    9  A    between atoms: C14_30  and  N6_31 
REMARK   10  A    between atoms: C15_36  and  S1_37 
ROOT
HETATM    1  C3  UNL     1      46.802 -48.686  74.342  1.00  0.00     0.090 A 
HETATM    2  C4  UNL     1      46.873 -48.191  75.653  1.00  0.00     0.037 A 
HETATM    3  C5  UNL     1      48.072 -48.139  76.320  1.00  0.00     0.052 A 
HETATM    4  C6  UNL     1      49.207 -48.582  75.681  1.00  0.00     0.120 A 
HETATM    5  N7  UNL     1      49.097 -49.045  74.437  1.00  0.00    -0.328 N 
ATOM      6  H7  UNL     1      49.948 -49.370  73.979  1.00  0.00     0.168 HD
HETATM    7  C15 UNL     1      47.948 -49.118  73.736  1.00  0.00     0.179 A 
ENDROOT
BRANCH   4   8
HETATM    8  N4  UNL     1      50.461 -48.528  76.380  1.00  0.00    -0.285 N 
ATOM      9  H4  UNL     1      50.595 -47.937  77.200  1.00  0.00     0.188 HD
BRANCH   8  10
HETATM   10  N5  UNL     1      51.500 -49.339  75.868  1.00  0.00    -0.297 N 
ATOM     11  H5  UNL     1      51.668 -49.435  74.867  1.00  0.00     0.187 HD
BRANCH  10  12
HETATM   12  C7  UNL     1      52.288 -50.005  76.822  1.00  0.00     0.086 A 
HETATM   13  C8  UNL     1      53.172 -49.283  77.583  1.00  0.00     0.073 A 
HETATM   14  C9  UNL     1      53.969 -49.867  78.543  1.00  0.00     0.106 A 
HETATM   15  C11 UNL     1      53.888 -51.249  78.766  1.00  0.00     0.137 A 
HETATM   16  C13 UNL     1      52.999 -51.959  77.997  1.00  0.00     0.137 A 
HETATM   17  C14 UNL     1      52.195 -51.360  77.026  1.00  0.00     0.166 A 
BRANCH  14  18
HETATM   18  O2  UNL     1      54.874 -49.190  79.336  1.00  0.00    -0.353 OA
HETATM   19  C10 UNL     1      54.572 -48.350  80.409  1.00  0.00     0.210 C 
ENDBRANCH  14  18
BRANCH  15  20
HETATM   20  O3  UNL     1      54.673 -51.878  79.724  1.00  0.00    -0.351 OA
HETATM   21  C12 UNL     1      55.935 -52.376  79.257  1.00  0.00     0.210 C 
ENDBRANCH  15  20
BRANCH  16  22
HETATM   22  O4  UNL     1      52.939 -53.344  78.243  1.00  0.00    -0.356 OA
ATOM     23  H4  UNL     1      52.075 -53.700  78.415  1.00  0.00     0.218 HD
ENDBRANCH  16  22
BRANCH  17  24
HETATM   24  N6  UNL     1      51.302 -52.174  76.281  1.00  0.00    -0.110 N 
HETATM   25  O5  UNL     1      51.708 -53.261  75.835  1.00  0.00    -0.532 OA
HETATM   26  O6  UNL     1      50.017 -51.775  76.056  1.00  0.00    -0.532 OA
ENDBRANCH  17  24
ENDBRANCH  10  12
ENDBRANCH   8  10
ENDBRANCH   4   8
BRANCH   7  27
HETATM   27  S1  UNL     1      47.939 -49.773  72.123  1.00  0.00     0.157 S 
HETATM   28  O7  UNL     1      47.389 -48.858  71.092  1.00  0.00    -0.590 OA
HETATM   29  O8  UNL     1      47.085 -51.046  72.099  1.00  0.00    -0.590 OA
HETATM   30  O9  UNL     1      49.487 -50.283  71.701  1.00  0.00    -0.590 OA
ENDBRANCH   7  27
BRANCH   1  31
HETATM   31  N3  UNL     1      45.535 -48.678  73.734  1.00  0.00    -0.187 N 
HETATM   32  C2  UNL     1      44.348 -49.045  74.423  1.00  0.00     0.697 C 
HETATM   33  N1  UNL     1      43.581 -48.114  75.158  1.00  0.00    -0.229 N 
HETATM   34  N2  UNL     1      43.965 -50.265  74.371  1.00  0.00    -0.099 N 
HETATM   35  C1  UNL     1      42.864 -48.582  76.330  1.00  0.00     0.165 C 
ATOM     36  H1  UNL     1      43.533 -47.137  74.873  1.00  0.00     0.177 HD
ATOM     37  H2  UNL     1      43.113 -50.540  74.861  1.00  0.00     0.213 HD
ATOM     38  H3  UNL     1      45.464 -48.397  72.756  1.00  0.00     0.184 HD
BRANCH  34  39
HETATM   39  O1  UNL     1      44.673 -51.220  73.670  1.00  0.00    -0.276 OA
ATOM     40  H1  UNL     1      45.500 -51.019  73.248  1.00  0.00     0.245 HD
ENDBRANCH  34  39
ENDBRANCH   1  31
TORSDOF 10
ENDMDL
