MODEL 1
REMARK VINA RESULT: -6.020716906      0.000      0.000
REMARK  9 active torsions:
REMARK  status: ('A' for Active; 'I' for Inactive)
REMARK    1  A    between atoms: N1_2  and  C2_3 
REMARK    2  A    between atoms: N1_2  and  C4_7 
REMARK    3  A    between atoms: C2_3  and  C3_4 
REMARK    4  A    between atoms: C3_4  and  O1_5 
REMARK    5  A    between atoms: C4_7  and  C5_8 
REMARK    6  A    between atoms: C5_8  and  C6_9 
REMARK    7  A    between atoms: C9_12  and  C10_13 
REMARK    8  A    between atoms: C10_13  and  N2_14 
REMARK    9  A    between atoms: C13_17  and  N3_18 
ROOT
HETATM    1  C6  UNL     1     -18.907  93.013  11.901  1.00  0.00    -0.053 A 
HETATM    2  C7  UNL     1     -17.861  92.135  11.745  1.00  0.00     0.008 A 
HETATM    3  C8  UNL     1     -17.391  91.337  12.796  1.00  0.00     0.009 A 
HETATM    4  C9  UNL     1     -17.999  91.437  14.029  1.00  0.00    -0.040 A 
HETATM    5  C15 UNL     1     -19.065  92.329  14.199  1.00  0.00     0.009 A 
HETATM    6  C16 UNL     1     -19.508  93.102  13.148  1.00  0.00     0.008 A 
ENDROOT
BRANCH   4   7
HETATM    7  C10 UNL     1     -17.623  90.668  15.228  1.00  0.00     0.167 C 
BRANCH   7   8
HETATM    8  N2  UNL     1     -18.612  89.743  15.688  1.00  0.00    -0.349 N 
HETATM    9  C11 UNL     1     -19.315  89.962  16.808  1.00  0.00     0.096 A 
HETATM   10  C12 UNL     1     -20.269  89.086  17.272  1.00  0.00     0.065 A 
HETATM   11  C13 UNL     1     -20.512  87.937  16.555  1.00  0.00     0.100 A 
HETATM   12  N4  UNL     1     -19.798  87.722  15.425  1.00  0.00    -0.339 N 
HETATM   13  C14 UNL     1     -18.879  88.606  15.013  1.00  0.00     0.184 A 
ATOM     14  H4  UNL     1     -19.963  86.876  14.879  1.00  0.00     0.168 HD
BRANCH  11  15
HETATM   15  N3  UNL     1     -21.410  87.096  16.968  1.00  0.00    -0.385 N 
ATOM     16  H32 UNL     1     -21.708  87.063  17.943  1.00  0.00     0.157 HD
ATOM     17  H31 UNL     1     -21.834  86.443  16.310  1.00  0.00     0.157 HD
ENDBRANCH  11  15
ENDBRANCH   7   8
ENDBRANCH   4   7
BRANCH   1  18
HETATM   18  C5  UNL     1     -19.389  93.835  10.799  1.00  0.00     0.082 C 
BRANCH  18  19
HETATM   19  C4  UNL     1     -20.819  94.277  10.935  1.00  0.00     0.062 C 
BRANCH  19  20
HETATM   20  N1  UNL     1     -21.763  93.609  10.131  1.00  0.00    -0.395 N 
HETATM   21  C1  UNL     1     -21.978  94.020   8.807  1.00  0.00     0.148 C 
BRANCH  20  22
HETATM   22  C2  UNL     1     -22.824  92.950  10.809  1.00  0.00     0.147 C 
BRANCH  22  23
HETATM   23  C3  UNL     1     -22.418  91.587  11.310  1.00  0.00     0.183 C 
BRANCH  23  24
HETATM   24  O1  UNL     1     -22.434  90.717  10.223  1.00  0.00    -0.399 OA
ATOM     25  H1  UNL     1     -21.629  90.214  10.245  1.00  0.00     0.209 HD
ENDBRANCH  23  24
ENDBRANCH  22  23
ENDBRANCH  20  22
ENDBRANCH  19  20
ENDBRANCH  18  19
ENDBRANCH   1  18
TORSDOF 9
ENDMDL
MODEL 2
REMARK VINA RESULT: -6.005638197      0.139      1.048
REMARK  9 active torsions:
REMARK  status: ('A' for Active; 'I' for Inactive)
REMARK    1  A    between atoms: N1_2  and  C2_3 
REMARK    2  A    between atoms: N1_2  and  C4_7 
REMARK    3  A    between atoms: C2_3  and  C3_4 
REMARK    4  A    between atoms: C3_4  and  O1_5 
REMARK    5  A    between atoms: C4_7  and  C5_8 
REMARK    6  A    between atoms: C5_8  and  C6_9 
REMARK    7  A    between atoms: C9_12  and  C10_13 
REMARK    8  A    between atoms: C10_13  and  N2_14 
REMARK    9  A    between atoms: C13_17  and  N3_18 
ROOT
HETATM    1  C6  UNL     1     -18.911  93.101  11.878  1.00  0.00    -0.053 A 
HETATM    2  C7  UNL     1     -19.463  93.255  13.128  1.00  0.00     0.008 A 
HETATM    3  C8  UNL     1     -19.073  92.469  14.220  1.00  0.00     0.009 A 
HETATM    4  C9  UNL     1     -18.102  91.508  14.033  1.00  0.00    -0.040 A 
HETATM    5  C15 UNL     1     -17.534  91.343  12.764  1.00  0.00     0.009 A 
HETATM    6  C16 UNL     1     -17.936  92.130  11.707  1.00  0.00     0.008 A 
ENDROOT
BRANCH   4   7
HETATM    7  C10 UNL     1     -17.586  90.607  15.078  1.00  0.00     0.167 C 
BRANCH   7   8
HETATM    8  N2  UNL     1     -18.545  89.692  15.614  1.00  0.00    -0.349 N 
HETATM    9  C11 UNL     1     -19.192  89.940  16.762  1.00  0.00     0.096 A 
HETATM   10  C12 UNL     1     -20.116  89.074  17.299  1.00  0.00     0.065 A 
HETATM   11  C13 UNL     1     -20.388  87.904  16.629  1.00  0.00     0.100 A 
HETATM   12  N4  UNL     1     -19.731  87.658  15.471  1.00  0.00    -0.339 N 
HETATM   13  C14 UNL     1     -18.839  88.534  14.987  1.00  0.00     0.184 A 
ATOM     14  H4  UNL     1     -19.919  86.796  14.960  1.00  0.00     0.168 HD
BRANCH  11  15
HETATM   15  N3  UNL     1     -21.259  87.071  17.112  1.00  0.00    -0.385 N 
ATOM     16  H32 UNL     1     -21.728  87.239  18.002  1.00  0.00     0.157 HD
ATOM     17  H31 UNL     1     -21.486  86.220  16.598  1.00  0.00     0.157 HD
ENDBRANCH  11  15
ENDBRANCH   7   8
ENDBRANCH   4   7
BRANCH   1  18
HETATM   18  C5  UNL     1     -19.324  93.928  10.752  1.00  0.00     0.082 C 
BRANCH  18  19
HETATM   19  C4  UNL     1     -20.752  94.395  10.817  1.00  0.00     0.062 C 
BRANCH  19  20
HETATM   20  N1  UNL     1     -21.681  93.689  10.029  1.00  0.00    -0.395 N 
HETATM   21  C1  UNL     1     -21.894  94.057   8.692  1.00  0.00     0.148 C 
BRANCH  20  22
HETATM   22  C2  UNL     1     -22.737  93.035  10.720  1.00  0.00     0.147 C 
BRANCH  22  23
HETATM   23  C3  UNL     1     -22.313  91.696  11.268  1.00  0.00     0.183 C 
BRANCH  23  24
HETATM   24  O1  UNL     1     -22.424  90.765  10.238  1.00  0.00    -0.399 OA
ATOM     25  H1  UNL     1     -23.237  90.291  10.365  1.00  0.00     0.209 HD
ENDBRANCH  23  24
ENDBRANCH  22  23
ENDBRANCH  20  22
ENDBRANCH  19  20
ENDBRANCH  18  19
ENDBRANCH   1  18
TORSDOF 9
ENDMDL
MODEL 3
REMARK VINA RESULT: -5.919874803      1.150      1.584
REMARK  9 active torsions:
REMARK  status: ('A' for Active; 'I' for Inactive)
REMARK    1  A    between atoms: N1_2  and  C2_3 
REMARK    2  A    between atoms: N1_2  and  C4_7 
REMARK    3  A    between atoms: C2_3  and  C3_4 
REMARK    4  A    between atoms: C3_4  and  O1_5 
REMARK    5  A    between atoms: C4_7  and  C5_8 
REMARK    6  A    between atoms: C5_8  and  C6_9 
REMARK    7  A    between atoms: C9_12  and  C10_13 
REMARK    8  A    between atoms: C10_13  and  N2_14 
REMARK    9  A    between atoms: C13_17  and  N3_18 
ROOT
HETATM    1  C6  UNL     1     -18.672  92.743  12.458  1.00  0.00    -0.053 A 
HETATM    2  C7  UNL     1     -18.686  91.602  11.691  1.00  0.00     0.008 A 
HETATM    3  C8  UNL     1     -18.501  90.328  12.242  1.00  0.00     0.009 A 
HETATM    4  C9  UNL     1     -18.296  90.214  13.600  1.00  0.00    -0.040 A 
HETATM    5  C15 UNL     1     -18.279  91.369  14.391  1.00  0.00     0.009 A 
HETATM    6  C16 UNL     1     -18.464  92.611  13.824  1.00  0.00     0.008 A 
ENDROOT
BRANCH   4   7
HETATM    7  C10 UNL     1     -18.087  88.949  14.326  1.00  0.00     0.167 C 
BRANCH   7   8
HETATM    8  N2  UNL     1     -19.175  88.545  15.161  1.00  0.00    -0.349 N 
HETATM    9  C11 UNL     1     -20.449  88.632  14.751  1.00  0.00     0.096 A 
HETATM   10  C12 UNL     1     -21.512  88.253  15.538  1.00  0.00     0.065 A 
HETATM   11  C13 UNL     1     -21.256  87.763  16.798  1.00  0.00     0.100 A 
HETATM   12  N4  UNL     1     -19.968  87.678  17.206  1.00  0.00    -0.339 N 
HETATM   13  C14 UNL     1     -18.966  88.060  16.402  1.00  0.00     0.184 A 
ATOM     14  H4  UNL     1     -19.759  87.318  18.136  1.00  0.00     0.168 HD
BRANCH  11  15
HETATM   15  N3  UNL     1     -22.241  87.394  17.559  1.00  0.00    -0.385 N 
ATOM     16  H32 UNL     1     -23.084  87.960  17.661  1.00  0.00     0.157 HD
ATOM     17  H31 UNL     1     -22.182  86.517  18.076  1.00  0.00     0.157 HD
ENDBRANCH  11  15
ENDBRANCH   7   8
ENDBRANCH   4   7
BRANCH   1  18
HETATM   18  C5  UNL     1     -18.869  94.062  11.874  1.00  0.00     0.082 C 
BRANCH  18  19
HETATM   19  C4  UNL     1     -19.849  94.093  10.733  1.00  0.00     0.062 C 
BRANCH  19  20
HETATM   20  N1  UNL     1     -21.214  94.105  11.077  1.00  0.00    -0.395 N 
HETATM   21  C1  UNL     1     -21.620  94.571  12.336  1.00  0.00     0.148 C 
BRANCH  20  22
HETATM   22  C2  UNL     1     -22.046  93.166  10.410  1.00  0.00     0.147 C 
BRANCH  22  23
HETATM   23  C3  UNL     1     -22.302  91.938  11.247  1.00  0.00     0.183 C 
BRANCH  23  24
HETATM   24  O1  UNL     1     -22.271  90.835  10.398  1.00  0.00    -0.399 OA
ATOM     25  H1  UNL     1     -22.140  90.062  10.935  1.00  0.00     0.209 HD
ENDBRANCH  23  24
ENDBRANCH  22  23
ENDBRANCH  20  22
ENDBRANCH  19  20
ENDBRANCH  18  19
ENDBRANCH   1  18
TORSDOF 9
ENDMDL
MODEL 4
REMARK VINA RESULT: -5.898725134      1.181      1.776
REMARK  9 active torsions:
REMARK  status: ('A' for Active; 'I' for Inactive)
REMARK    1  A    between atoms: N1_2  and  C2_3 
REMARK    2  A    between atoms: N1_2  and  C4_7 
REMARK    3  A    between atoms: C2_3  and  C3_4 
REMARK    4  A    between atoms: C3_4  and  O1_5 
REMARK    5  A    between atoms: C4_7  and  C5_8 
REMARK    6  A    between atoms: C5_8  and  C6_9 
REMARK    7  A    between atoms: C9_12  and  C10_13 
REMARK    8  A    between atoms: C10_13  and  N2_14 
REMARK    9  A    between atoms: C13_17  and  N3_18 
ROOT
HETATM    1  C6  UNL     1     -18.483  92.752  12.409  1.00  0.00    -0.053 A 
HETATM    2  C7  UNL     1     -18.200  92.701  13.754  1.00  0.00     0.008 A 
HETATM    3  C8  UNL     1     -18.062  91.490  14.443  1.00  0.00     0.009 A 
HETATM    4  C9  UNL     1     -18.214  90.309  13.749  1.00  0.00    -0.040 A 
HETATM    5  C15 UNL     1     -18.502  90.350  12.380  1.00  0.00     0.009 A 
HETATM    6  C16 UNL     1     -18.634  91.555  11.725  1.00  0.00     0.008 A 
ENDROOT
BRANCH   4   7
HETATM    7  C10 UNL     1     -18.098  88.960  14.330  1.00  0.00     0.167 C 
BRANCH   7   8
HETATM    8  N2  UNL     1     -19.187  88.568  15.170  1.00  0.00    -0.349 N 
HETATM    9  C11 UNL     1     -20.463  88.729  14.791  1.00  0.00     0.096 A 
HETATM   10  C12 UNL     1     -21.526  88.363  15.583  1.00  0.00     0.065 A 
HETATM   11  C13 UNL     1     -21.269  87.807  16.815  1.00  0.00     0.100 A 
HETATM   12  N4  UNL     1     -19.979  87.646  17.191  1.00  0.00    -0.339 N 
HETATM   13  C14 UNL     1     -18.975  88.019  16.384  1.00  0.00     0.184 A 
ATOM     14  H4  UNL     1     -19.768  87.236  18.101  1.00  0.00     0.168 HD
BRANCH  11  15
HETATM   15  N3  UNL     1     -22.255  87.448  17.580  1.00  0.00    -0.385 N 
ATOM     16  H32 UNL     1     -22.134  87.307  18.582  1.00  0.00     0.157 HD
ATOM     17  H31 UNL     1     -23.180  87.299  17.178  1.00  0.00     0.157 HD
ENDBRANCH  11  15
ENDBRANCH   7   8
ENDBRANCH   4   7
BRANCH   1  18
HETATM   18  C5  UNL     1     -18.622  94.019  11.703  1.00  0.00     0.082 C 
BRANCH  18  19
HETATM   19  C4  UNL     1     -19.654  94.008  10.610  1.00  0.00     0.062 C 
BRANCH  19  20
HETATM   20  N1  UNL     1     -20.997  94.138  11.012  1.00  0.00    -0.395 N 
HETATM   21  C1  UNL     1     -21.306  94.661  12.276  1.00  0.00     0.148 C 
BRANCH  20  22
HETATM   22  C2  UNL     1     -21.932  93.257  10.404  1.00  0.00     0.147 C 
BRANCH  22  23
HETATM   23  C3  UNL     1     -22.184  92.030  11.242  1.00  0.00     0.183 C 
BRANCH  23  24
HETATM   24  O1  UNL     1     -22.228  90.935  10.382  1.00  0.00    -0.399 OA
ATOM     25  H1  UNL     1     -23.141  90.764  10.181  1.00  0.00     0.209 HD
ENDBRANCH  23  24
ENDBRANCH  22  23
ENDBRANCH  20  22
ENDBRANCH  19  20
ENDBRANCH  18  19
ENDBRANCH   1  18
TORSDOF 9
ENDMDL
MODEL 5
REMARK VINA RESULT: -5.854747026      2.065      3.004
REMARK  9 active torsions:
REMARK  status: ('A' for Active; 'I' for Inactive)
REMARK    1  A    between atoms: N1_2  and  C2_3 
REMARK    2  A    between atoms: N1_2  and  C4_7 
REMARK    3  A    between atoms: C2_3  and  C3_4 
REMARK    4  A    between atoms: C3_4  and  O1_5 
REMARK    5  A    between atoms: C4_7  and  C5_8 
REMARK    6  A    between atoms: C5_8  and  C6_9 
REMARK    7  A    between atoms: C9_12  and  C10_13 
REMARK    8  A    between atoms: C10_13  and  N2_14 
REMARK    9  A    between atoms: C13_17  and  N3_18 
ROOT
HETATM    1  C6  UNL     1     -21.773  92.316  11.760  1.00  0.00    -0.053 A 
HETATM    2  C7  UNL     1     -22.092  91.276  12.600  1.00  0.00     0.008 A 
HETATM    3  C8  UNL     1     -21.238  90.854  13.627  1.00  0.00     0.009 A 
HETATM    4  C9  UNL     1     -20.036  91.506  13.801  1.00  0.00    -0.040 A 
HETATM    5  C15 UNL     1     -19.701  92.567  12.951  1.00  0.00     0.009 A 
HETATM    6  C16 UNL     1     -20.559  92.961  11.948  1.00  0.00     0.008 A 
ENDROOT
BRANCH   4   7
HETATM    7  C10 UNL     1     -19.035  91.183  14.833  1.00  0.00     0.167 C 
BRANCH   7   8
HETATM    8  N2  UNL     1     -18.596  89.823  14.843  1.00  0.00    -0.349 N 
HETATM    9  C11 UNL     1     -18.740  89.044  15.925  1.00  0.00     0.096 A 
HETATM   10  C12 UNL     1     -18.323  87.733  15.960  1.00  0.00     0.065 A 
HETATM   11  C13 UNL     1     -17.734  87.200  14.837  1.00  0.00     0.100 A 
HETATM   12  N4  UNL     1     -17.592  87.991  13.748  1.00  0.00    -0.339 N 
HETATM   13  C14 UNL     1     -18.015  89.263  13.762  1.00  0.00     0.184 A 
ATOM     14  H4  UNL     1     -17.158  87.614  12.906  1.00  0.00     0.168 HD
BRANCH  11  15
HETATM   15  N3  UNL     1     -17.335  85.964  14.842  1.00  0.00    -0.385 N 
ATOM     16  H32 UNL     1     -17.979  85.190  14.679  1.00  0.00     0.157 HD
ATOM     17  H31 UNL     1     -16.354  85.749  15.016  1.00  0.00     0.157 HD
ENDBRANCH  11  15
ENDBRANCH   7   8
ENDBRANCH   4   7
BRANCH   1  18
HETATM   18  C5  UNL     1     -22.671  92.746  10.697  1.00  0.00     0.082 C 
BRANCH  18  19
HETATM   19  C4  UNL     1     -22.235  93.998   9.987  1.00  0.00     0.062 C 
BRANCH  19  20
HETATM   20  N1  UNL     1     -23.155  94.558   9.079  1.00  0.00    -0.395 N 
HETATM   21  C1  UNL     1     -24.533  94.404   9.286  1.00  0.00     0.148 C 
BRANCH  20  22
HETATM   22  C2  UNL     1     -22.695  94.755   7.749  1.00  0.00     0.147 C 
BRANCH  22  23
HETATM   23  C3  UNL     1     -21.255  94.339   7.578  1.00  0.00     0.183 C 
BRANCH  23  24
HETATM   24  O1  UNL     1     -21.241  93.175   6.815  1.00  0.00    -0.399 OA
ATOM     25  H1  UNL     1     -20.647  93.315   6.087  1.00  0.00     0.209 HD
ENDBRANCH  23  24
ENDBRANCH  22  23
ENDBRANCH  20  22
ENDBRANCH  19  20
ENDBRANCH  18  19
ENDBRANCH   1  18
TORSDOF 9
ENDMDL
