MODEL 1
REMARK VINA RESULT: -6.440862043      0.000      0.000
REMARK  6 active torsions:
REMARK  status: ('A' for Active; 'I' for Inactive)
REMARK    1  A    between atoms: N3_4  and  C2_6 
REMARK    2  A    between atoms: C2_6  and  C3_7 
REMARK    3  A    between atoms: C3_7  and  C4_8 
REMARK    4  A    between atoms: C4_8  and  N4_9 
REMARK    5  A    between atoms: N5_12  and  C7_13 
REMARK    6  A    between atoms: C7_13  and  C8_14 
ROOT
HETATM    1  N4  UNL     1     -19.927  93.045  11.689  1.00  0.00     0.091 N 
HETATM    2  C5  UNL     1     -19.939  93.460  13.074  1.00  0.00     0.302 C 
HETATM    3  C6  UNL     1     -18.955  92.662  13.907  1.00  0.00     0.303 C 
HETATM    4  N5  UNL     1     -18.364  91.563  13.217  1.00  0.00     0.096 N 
HETATM    5  C14 UNL     1     -17.839  91.894  11.920  1.00  0.00     0.303 C 
HETATM    6  C15 UNL     1     -18.511  93.062  11.279  1.00  0.00     0.302 C 
ENDROOT
BRANCH   1   7
HETATM    7  C4  UNL     1     -20.680  93.979  10.890  1.00  0.00     0.274 C 
BRANCH   7   8
HETATM    8  C3  UNL     1     -21.988  94.338  11.543  1.00  0.00     0.050 C 
BRANCH   8   9
HETATM    9  C2  UNL     1     -23.097  93.438  11.024  1.00  0.00     0.123 C 
BRANCH   9  10
HETATM   10  N3  UNL     1     -23.387  92.338  11.891  1.00  0.00    -0.367 N 
HETATM   11  C1  UNL     1     -23.102  91.109  11.643  1.00  0.00     0.196 C 
HETATM   12  N1  UNL     1     -22.445  90.815  10.408  1.00  0.00    -0.067 NA
HETATM   13  N2  UNL     1     -23.430  90.059  12.570  1.00  0.00    -0.067 NA
ATOM     14  H3  UNL     1     -23.856  92.544  12.773  1.00  0.00     0.161 HD
ENDBRANCH   9  10
ENDBRANCH   8   9
ENDBRANCH   7   8
ENDBRANCH   1   7
BRANCH   4  15
HETATM   15  C7  UNL     1     -17.268  91.047  14.012  1.00  0.00     0.311 C 
BRANCH  15  16
HETATM   16  C8  UNL     1     -17.639  89.961  14.924  1.00  0.00    -0.030 A 
HETATM   17  C9  UNL     1     -17.821  88.685  14.379  1.00  0.00     0.009 A 
HETATM   18  C10 UNL     1     -18.177  87.658  15.238  1.00  0.00     0.001 A 
HETATM   19  C11 UNL     1     -18.360  87.821  16.574  1.00  0.00     0.000 A 
HETATM   20  C12 UNL     1     -18.178  89.081  17.103  1.00  0.00     0.001 A 
HETATM   21  C13 UNL     1     -17.822  90.136  16.284  1.00  0.00     0.009 A 
ENDBRANCH  15  16
ENDBRANCH   4  15
TORSDOF 6
ENDMDL
MODEL 2
REMARK VINA RESULT: -6.434852573      0.046      1.061
REMARK  6 active torsions:
REMARK  status: ('A' for Active; 'I' for Inactive)
REMARK    1  A    between atoms: N3_4  and  C2_6 
REMARK    2  A    between atoms: C2_6  and  C3_7 
REMARK    3  A    between atoms: C3_7  and  C4_8 
REMARK    4  A    between atoms: C4_8  and  N4_9 
REMARK    5  A    between atoms: N5_12  and  C7_13 
REMARK    6  A    between atoms: C7_13  and  C8_14 
ROOT
HETATM    1  N4  UNL     1     -19.952  93.062  11.681  1.00  0.00     0.091 N 
HETATM    2  C5  UNL     1     -19.968  93.492  13.061  1.00  0.00     0.302 C 
HETATM    3  C6  UNL     1     -18.986  92.702  13.904  1.00  0.00     0.303 C 
HETATM    4  N5  UNL     1     -18.394  91.595  13.228  1.00  0.00     0.096 N 
HETATM    5  C14 UNL     1     -17.866  91.911  11.930  1.00  0.00     0.303 C 
HETATM    6  C15 UNL     1     -18.535  93.072  11.274  1.00  0.00     0.302 C 
ENDROOT
BRANCH   1   7
HETATM    7  C4  UNL     1     -20.702  93.987  10.869  1.00  0.00     0.274 C 
BRANCH   7   8
HETATM    8  C3  UNL     1     -22.016  94.346  11.510  1.00  0.00     0.050 C 
BRANCH   8   9
HETATM    9  C2  UNL     1     -23.116  93.432  10.998  1.00  0.00     0.123 C 
BRANCH   9  10
HETATM   10  N3  UNL     1     -23.398  92.337  11.874  1.00  0.00    -0.367 N 
HETATM   11  C1  UNL     1     -23.105  91.108  11.636  1.00  0.00     0.196 C 
HETATM   12  N1  UNL     1     -22.448  90.808  10.403  1.00  0.00    -0.067 NA
HETATM   13  N2  UNL     1     -23.426  90.064  12.572  1.00  0.00    -0.067 NA
ATOM     14  H3  UNL     1     -23.868  92.548  12.755  1.00  0.00     0.161 HD
ENDBRANCH   9  10
ENDBRANCH   8   9
ENDBRANCH   7   8
ENDBRANCH   1   7
BRANCH   4  15
HETATM   15  C7  UNL     1     -17.301  91.086  14.032  1.00  0.00     0.311 C 
BRANCH  15  16
HETATM   16  C8  UNL     1     -17.648  89.933  14.869  1.00  0.00    -0.030 A 
HETATM   17  C9  UNL     1     -17.815  90.151  16.241  1.00  0.00     0.009 A 
HETATM   18  C10 UNL     1     -18.138  89.062  17.035  1.00  0.00     0.001 A 
HETATM   19  C11 UNL     1     -18.298  87.801  16.557  1.00  0.00     0.000 A 
HETATM   20  C12 UNL     1     -18.132  87.596  15.204  1.00  0.00     0.001 A 
HETATM   21  C13 UNL     1     -17.811  88.652  14.373  1.00  0.00     0.009 A 
ENDBRANCH  15  16
ENDBRANCH   4  15
TORSDOF 6
ENDMDL
MODEL 3
REMARK VINA RESULT: -6.247786850      2.748      3.421
REMARK  6 active torsions:
REMARK  status: ('A' for Active; 'I' for Inactive)
REMARK    1  A    between atoms: N3_4  and  C2_6 
REMARK    2  A    between atoms: C2_6  and  C3_7 
REMARK    3  A    between atoms: C3_7  and  C4_8 
REMARK    4  A    between atoms: C4_8  and  N4_9 
REMARK    5  A    between atoms: N5_12  and  C7_13 
REMARK    6  A    between atoms: C7_13  and  C8_14 
ROOT
HETATM    1  N4  UNL     1     -22.518  92.068  13.094  1.00  0.00     0.091 N 
HETATM    2  C5  UNL     1     -21.496  92.265  12.090  1.00  0.00     0.302 C 
HETATM    3  C6  UNL     1     -20.271  91.416  12.365  1.00  0.00     0.303 C 
HETATM    4  N5  UNL     1     -20.293  90.751  13.627  1.00  0.00     0.096 N 
HETATM    5  C14 UNL     1     -21.516  90.049  13.903  1.00  0.00     0.303 C 
HETATM    6  C15 UNL     1     -22.704  90.609  13.196  1.00  0.00     0.302 C 
ENDROOT
BRANCH   1   7
HETATM    7  C4  UNL     1     -23.748  92.691  12.671  1.00  0.00     0.274 C 
BRANCH   7   8
HETATM    8  C3  UNL     1     -23.869  94.094  13.204  1.00  0.00     0.050 C 
BRANCH   8   9
HETATM    9  C2  UNL     1     -25.286  94.350  13.688  1.00  0.00     0.123 C 
BRANCH   9  10
HETATM   10  N3  UNL     1     -25.630  93.600  14.857  1.00  0.00    -0.367 N 
HETATM   11  C1  UNL     1     -26.677  92.863  14.979  1.00  0.00     0.196 C 
HETATM   12  N1  UNL     1     -27.569  92.786  13.865  1.00  0.00    -0.067 NA
HETATM   13  N2  UNL     1     -26.951  92.141  16.192  1.00  0.00    -0.067 NA
ATOM     14  H3  UNL     1     -24.996  93.653  15.654  1.00  0.00     0.161 HD
ENDBRANCH   9  10
ENDBRANCH   8   9
ENDBRANCH   7   8
ENDBRANCH   1   7
BRANCH   4  15
HETATM   15  C7  UNL     1     -19.216  89.782  13.664  1.00  0.00     0.311 C 
BRANCH  15  16
HETATM   16  C8  UNL     1     -18.788  89.402  15.014  1.00  0.00    -0.030 A 
HETATM   17  C9  UNL     1     -18.470  88.059  15.243  1.00  0.00     0.009 A 
HETATM   18  C10 UNL     1     -18.071  87.695  16.520  1.00  0.00     0.001 A 
HETATM   19  C11 UNL     1     -17.973  88.568  17.556  1.00  0.00     0.000 A 
HETATM   20  C12 UNL     1     -18.287  89.890  17.321  1.00  0.00     0.001 A 
HETATM   21  C13 UNL     1     -18.689  90.298  16.064  1.00  0.00     0.009 A 
ENDBRANCH  15  16
ENDBRANCH   4  15
TORSDOF 6
ENDMDL
MODEL 4
REMARK VINA RESULT: -6.237891158      2.596      3.238
REMARK  6 active torsions:
REMARK  status: ('A' for Active; 'I' for Inactive)
REMARK    1  A    between atoms: N3_4  and  C2_6 
REMARK    2  A    between atoms: C2_6  and  C3_7 
REMARK    3  A    between atoms: C3_7  and  C4_8 
REMARK    4  A    between atoms: C4_8  and  N4_9 
REMARK    5  A    between atoms: N5_12  and  C7_13 
REMARK    6  A    between atoms: C7_13  and  C8_14 
ROOT
HETATM    1  N4  UNL     1     -21.516  92.497  12.909  1.00  0.00     0.091 N 
HETATM    2  C5  UNL     1     -20.436  92.533  11.947  1.00  0.00     0.302 C 
HETATM    3  C6  UNL     1     -19.357  91.522  12.280  1.00  0.00     0.303 C 
HETATM    4  N5  UNL     1     -19.524  90.884  13.544  1.00  0.00     0.096 N 
HETATM    5  C14 UNL     1     -20.845  90.367  13.774  1.00  0.00     0.303 C 
HETATM    6  C15 UNL     1     -21.912  91.081  13.014  1.00  0.00     0.302 C 
ENDROOT
BRANCH   1   7
HETATM    7  C4  UNL     1     -22.626  93.283  12.431  1.00  0.00     0.274 C 
BRANCH   7   8
HETATM    8  C3  UNL     1     -23.945  92.655  12.795  1.00  0.00     0.050 C 
BRANCH   8   9
HETATM    9  C2  UNL     1     -24.830  93.668  13.501  1.00  0.00     0.123 C 
BRANCH   9  10
HETATM   10  N3  UNL     1     -25.406  93.172  14.713  1.00  0.00    -0.367 N 
HETATM   11  C1  UNL     1     -26.634  92.820  14.856  1.00  0.00     0.196 C 
HETATM   12  N1  UNL     1     -27.494  92.933  13.719  1.00  0.00    -0.067 NA
HETATM   13  N2  UNL     1     -27.135  92.331  16.112  1.00  0.00    -0.067 NA
ATOM     14  H3  UNL     1     -24.795  93.090  15.526  1.00  0.00     0.161 HD
ENDBRANCH   9  10
ENDBRANCH   8   9
ENDBRANCH   7   8
ENDBRANCH   1   7
BRANCH   4  15
HETATM   15  C7  UNL     1     -18.598  89.773  13.634  1.00  0.00     0.311 C 
BRANCH  15  16
HETATM   16  C8  UNL     1     -18.369  89.282  14.996  1.00  0.00    -0.030 A 
HETATM   17  C9  UNL     1     -18.178  90.230  16.007  1.00  0.00     0.009 A 
HETATM   18  C10 UNL     1     -17.955  89.769  17.295  1.00  0.00     0.001 A 
HETATM   19  C11 UNL     1     -17.912  88.452  17.627  1.00  0.00     0.000 A 
HETATM   20  C12 UNL     1     -18.102  87.525  16.625  1.00  0.00     0.001 A 
HETATM   21  C13 UNL     1     -18.328  87.939  15.326  1.00  0.00     0.009 A 
ENDBRANCH  15  16
ENDBRANCH   4  15
TORSDOF 6
ENDMDL
MODEL 5
REMARK VINA RESULT: -6.111472896      2.715      3.524
REMARK  6 active torsions:
REMARK  status: ('A' for Active; 'I' for Inactive)
REMARK    1  A    between atoms: N3_4  and  C2_6 
REMARK    2  A    between atoms: C2_6  and  C3_7 
REMARK    3  A    between atoms: C3_7  and  C4_8 
REMARK    4  A    between atoms: C4_8  and  N4_9 
REMARK    5  A    between atoms: N5_12  and  C7_13 
REMARK    6  A    between atoms: C7_13  and  C8_14 
ROOT
HETATM    1  N4  UNL     1     -22.434  92.046  13.025  1.00  0.00     0.091 N 
HETATM    2  C5  UNL     1     -21.397  92.197  12.029  1.00  0.00     0.302 C 
HETATM    3  C6  UNL     1     -20.185  91.345  12.348  1.00  0.00     0.303 C 
HETATM    4  N5  UNL     1     -20.230  90.723  13.631  1.00  0.00     0.096 N 
HETATM    5  C14 UNL     1     -21.465  90.044  13.914  1.00  0.00     0.303 C 
HETATM    6  C15 UNL     1     -22.637  90.593  13.174  1.00  0.00     0.302 C 
ENDROOT
BRANCH   1   7
HETATM    7  C4  UNL     1     -23.651  92.667  12.566  1.00  0.00     0.274 C 
BRANCH   7   8
HETATM    8  C3  UNL     1     -23.807  94.057  13.124  1.00  0.00     0.050 C 
BRANCH   8   9
HETATM    9  C2  UNL     1     -25.007  94.117  14.054  1.00  0.00     0.123 C 
BRANCH   9  10
HETATM   10  N3  UNL     1     -26.179  94.653  13.433  1.00  0.00    -0.367 N 
HETATM   11  C1  UNL     1     -27.301  94.035  13.318  1.00  0.00     0.196 C 
HETATM   12  N1  UNL     1     -27.388  92.711  13.850  1.00  0.00    -0.067 NA
HETATM   13  N2  UNL     1     -28.434  94.646  12.677  1.00  0.00    -0.067 NA
ATOM     14  H3  UNL     1     -26.120  95.597  13.051  1.00  0.00     0.161 HD
ENDBRANCH   9  10
ENDBRANCH   8   9
ENDBRANCH   7   8
ENDBRANCH   1   7
BRANCH   4  15
HETATM   15  C7  UNL     1     -19.165  89.744  13.714  1.00  0.00     0.311 C 
BRANCH  15  16
HETATM   16  C8  UNL     1     -18.776  89.385  15.081  1.00  0.00    -0.030 A 
HETATM   17  C9  UNL     1     -18.451  88.048  15.337  1.00  0.00     0.009 A 
HETATM   18  C10 UNL     1     -18.089  87.704  16.629  1.00  0.00     0.001 A 
HETATM   19  C11 UNL     1     -18.034  88.590  17.658  1.00  0.00     0.000 A 
HETATM   20  C12 UNL     1     -18.356  89.905  17.397  1.00  0.00     0.001 A 
HETATM   21  C13 UNL     1     -18.722  90.294  16.123  1.00  0.00     0.009 A 
ENDBRANCH  15  16
ENDBRANCH   4  15
TORSDOF 6
ENDMDL
