MODEL 1
REMARK VINA RESULT: -4.996115174      0.000      0.000
REMARK  1 active torsions:
REMARK  status: ('A' for Active; 'I' for Inactive)
REMARK    1  A    between atoms: O1_1  and  C1_3 
ROOT
HETATM    1  C1  UNL     1     -19.817 -51.928 -12.593  1.00  0.00     0.062 C 
HETATM    2  C2  UNL     1     -18.931 -53.127 -12.440  1.00  0.00     0.042 C 
HETATM    3  C3  UNL     1     -19.631 -54.423 -12.330  1.00  0.00    -0.009 C 
HETATM    4  C4  UNL     1     -20.025 -55.025 -13.670  1.00  0.00     0.005 C 
HETATM    5  C5  UNL     1     -21.184 -54.311 -14.272  1.00  0.00     0.008 C 
HETATM    6  C6  UNL     1     -21.611 -53.078 -13.554  1.00  0.00     0.028 C 
HETATM    7  C7  UNL     1     -20.627 -51.972 -13.869  1.00  0.00     0.045 C 
HETATM    8  C8  UNL     1     -21.706 -53.198 -12.075  1.00  0.00     0.110 C 
HETATM    9  F1  UNL     1     -22.984 -53.228 -11.602  1.00  0.00    -0.242 F 
HETATM   10  C9  UNL     1     -20.914 -54.366 -11.520  1.00  0.00     0.048 C 
HETATM   11  C10 UNL     1     -20.946 -51.960 -11.572  1.00  0.00     0.081 C 
ENDROOT
BRANCH   1  12
HETATM   12  O1  UNL     1     -19.069 -50.779 -12.512  1.00  0.00    -0.390 OA
ATOM     13  H1  UNL     1     -18.728 -50.676 -11.631  1.00  0.00     0.210 HD
ENDBRANCH   1  12
TORSDOF 1
ENDMDL
MODEL 2
REMARK VINA RESULT: -4.915819842      1.998      2.963
REMARK  1 active torsions:
REMARK  status: ('A' for Active; 'I' for Inactive)
REMARK    1  A    between atoms: O1_1  and  C1_3 
ROOT
HETATM    1  C1  UNL     1     -22.008 -51.083 -12.859  1.00  0.00     0.062 C 
HETATM    2  C2  UNL     1     -22.594 -52.119 -11.948  1.00  0.00     0.042 C 
HETATM    3  C3  UNL     1     -21.993 -53.464 -12.048  1.00  0.00    -0.009 C 
HETATM    4  C4  UNL     1     -20.719 -53.629 -11.232  1.00  0.00     0.005 C 
HETATM    5  C5  UNL     1     -19.567 -52.933 -11.866  1.00  0.00     0.008 C 
HETATM    6  C6  UNL     1     -19.908 -52.091 -13.048  1.00  0.00     0.028 C 
HETATM    7  C7  UNL     1     -20.552 -50.812 -12.558  1.00  0.00     0.045 C 
HETATM    8  C8  UNL     1     -20.827 -52.716 -14.036  1.00  0.00     0.110 C 
HETATM    9  F1  UNL     1     -20.220 -53.092 -15.197  1.00  0.00    -0.242 F 
HETATM   10  C9  UNL     1     -21.622 -53.873 -13.462  1.00  0.00     0.048 C 
HETATM   11  C10 UNL     1     -21.881 -51.623 -14.276  1.00  0.00     0.081 C 
ENDROOT
BRANCH   1  12
HETATM   12  O1  UNL     1     -22.756 -49.932 -12.802  1.00  0.00    -0.390 OA
ATOM     13  H1  UNL     1     -22.295 -49.224 -13.237  1.00  0.00     0.210 HD
ENDBRANCH   1  12
TORSDOF 1
ENDMDL
MODEL 3
REMARK VINA RESULT: -4.913666212      2.049      2.885
REMARK  1 active torsions:
REMARK  status: ('A' for Active; 'I' for Inactive)
REMARK    1  A    between atoms: O1_1  and  C1_3 
ROOT
HETATM    1  C1  UNL     1     -22.739 -51.712 -13.475  1.00  0.00     0.062 C 
HETATM    2  C2  UNL     1     -21.883 -52.326 -14.540  1.00  0.00     0.042 C 
HETATM    3  C3  UNL     1     -20.574 -52.835 -14.086  1.00  0.00    -0.009 C 
HETATM    4  C4  UNL     1     -20.633 -54.232 -13.485  1.00  0.00     0.005 C 
HETATM    5  C5  UNL     1     -21.237 -54.219 -12.126  1.00  0.00     0.008 C 
HETATM    6  C6  UNL     1     -21.808 -52.911 -11.698  1.00  0.00     0.028 C 
HETATM    7  C7  UNL     1     -23.130 -52.708 -12.406  1.00  0.00     0.045 C 
HETATM    8  C8  UNL     1     -20.957 -51.722 -11.968  1.00  0.00     0.110 C 
HETATM    9  F1  UNL     1     -20.382 -51.187 -10.854  1.00  0.00    -0.242 F 
HETATM   10  C9  UNL     1     -19.905 -51.971 -13.032  1.00  0.00     0.048 C 
HETATM   11  C10 UNL     1     -21.931 -50.735 -12.632  1.00  0.00     0.081 C 
ENDROOT
BRANCH   1  12
HETATM   12  O1  UNL     1     -23.844 -51.125 -14.042  1.00  0.00    -0.390 OA
ATOM     13  H1  UNL     1     -24.453 -51.793 -14.334  1.00  0.00     0.210 HD
ENDBRANCH   1  12
TORSDOF 1
ENDMDL
MODEL 4
REMARK VINA RESULT: -4.897514602      1.894      2.501
REMARK  1 active torsions:
REMARK  status: ('A' for Active; 'I' for Inactive)
REMARK    1  A    between atoms: O1_1  and  C1_3 
ROOT
HETATM    1  C1  UNL     1     -20.083 -52.191 -12.830  1.00  0.00     0.062 C 
HETATM    2  C2  UNL     1     -20.830 -53.224 -12.043  1.00  0.00     0.042 C 
HETATM    3  C3  UNL     1     -22.269 -52.957 -11.850  1.00  0.00    -0.009 C 
HETATM    4  C4  UNL     1     -23.136 -53.386 -13.025  1.00  0.00     0.005 C 
HETATM    5  C5  UNL     1     -22.993 -52.459 -14.180  1.00  0.00     0.008 C 
HETATM    6  C6  UNL     1     -21.934 -51.421 -14.033  1.00  0.00     0.028 C 
HETATM    7  C7  UNL     1     -20.586 -52.075 -14.251  1.00  0.00     0.045 C 
HETATM    8  C8  UNL     1     -21.897 -50.725 -12.719  1.00  0.00     0.110 C 
HETATM    9  F1  UNL     1     -22.348 -49.440 -12.760  1.00  0.00    -0.242 F 
HETATM   10  C9  UNL     1     -22.601 -51.494 -11.617  1.00  0.00     0.048 C 
HETATM   11  C10 UNL     1     -20.412 -50.791 -12.327  1.00  0.00     0.081 C 
ENDROOT
BRANCH   1  12
HETATM   12  O1  UNL     1     -18.736 -52.457 -12.794  1.00  0.00    -0.390 OA
ATOM     13  H1  UNL     1     -18.453 -52.809 -13.630  1.00  0.00     0.210 HD
ENDBRANCH   1  12
TORSDOF 1
ENDMDL
MODEL 5
REMARK VINA RESULT: -4.863174313      1.719      2.300
REMARK  1 active torsions:
REMARK  status: ('A' for Active; 'I' for Inactive)
REMARK    1  A    between atoms: O1_1  and  C1_3 
ROOT
HETATM    1  C1  UNL     1     -20.818 -52.162 -14.086  1.00  0.00     0.062 C 
HETATM    2  C2  UNL     1     -20.524 -53.567 -13.660  1.00  0.00     0.042 C 
HETATM    3  C3  UNL     1     -20.915 -53.906 -12.277  1.00  0.00    -0.009 C 
HETATM    4  C4  UNL     1     -22.381 -54.288 -12.130  1.00  0.00     0.005 C 
HETATM    5  C5  UNL     1     -23.270 -53.098 -12.221  1.00  0.00     0.008 C 
HETATM    6  C6  UNL     1     -22.590 -51.827 -12.599  1.00  0.00     0.028 C 
HETATM    7  C7  UNL     1     -22.299 -51.859 -14.083  1.00  0.00     0.045 C 
HETATM    8  C8  UNL     1     -21.312 -51.548 -11.889  1.00  0.00     0.110 C 
HETATM    9  F1  UNL     1     -21.401 -50.556 -10.958  1.00  0.00    -0.242 F 
HETATM   10  C9  UNL     1     -20.688 -52.787 -11.277  1.00  0.00     0.048 C 
HETATM   11  C10 UNL     1     -20.352 -51.171 -13.028  1.00  0.00     0.081 C 
ENDROOT
BRANCH   1  12
HETATM   12  O1  UNL     1     -20.257 -51.917 -15.316  1.00  0.00    -0.390 OA
ATOM     13  H1  UNL     1     -20.671 -52.462 -15.975  1.00  0.00     0.210 HD
ENDBRANCH   1  12
TORSDOF 1
ENDMDL
