MODEL 1
REMARK VINA RESULT: -5.057139125      0.000      0.000
REMARK  0 active torsions:
REMARK  status: ('A' for Active; 'I' for Inactive)
ROOT
HETATM    1  C1  UNL     1     -21.559 -54.984 -13.964  1.00  0.00     0.015 C 
HETATM    2  C2  UNL     1     -21.914 -54.174 -12.712  1.00  0.00    -0.040 C 
HETATM    3  C3  UNL     1     -23.342 -54.566 -12.379  1.00  0.00     0.015 C 
HETATM    4  C4  UNL     1     -20.990 -54.496 -11.588  1.00  0.00     0.046 C 
HETATM    5  C5  UNL     1     -20.041 -53.465 -11.165  1.00  0.00     0.171 C 
HETATM    6  F1  UNL     1     -18.772 -53.654 -11.737  1.00  0.00    -0.249 F 
HETATM    7  C6  UNL     1     -20.408 -52.047 -11.399  1.00  0.00     0.044 C 
HETATM    8  C7  UNL     1     -21.829 -51.918 -11.833  1.00  0.00     0.020 C 
HETATM    9  C8  UNL     1     -22.199 -50.580 -12.386  1.00  0.00     0.237 C 
HETATM   10  N1  UNL     1     -23.081 -50.800 -13.514  1.00  0.00    -0.074 N 
ATOM     11  H11 UNL     1     -22.784 -50.309 -14.357  1.00  0.00     0.277 HD
ATOM     12  H12 UNL     1     -23.987 -50.342 -13.409  1.00  0.00     0.277 HD
HETATM   13  C9  UNL     1     -23.186 -52.237 -13.696  1.00  0.00     0.238 C 
HETATM   14  C10 UNL     1     -21.909 -52.742 -13.130  1.00  0.00     0.025 C 
ENDROOT
TORSDOF 0
ENDMDL
MODEL 2
REMARK VINA RESULT: -4.852302661      2.163      3.295
REMARK  0 active torsions:
REMARK  status: ('A' for Active; 'I' for Inactive)
ROOT
HETATM    1  C1  UNL     1     -23.058 -51.879 -13.905  1.00  0.00     0.015 C 
HETATM    2  C2  UNL     1     -22.441 -52.386 -12.598  1.00  0.00    -0.040 C 
HETATM    3  C3  UNL     1     -22.528 -51.213 -11.638  1.00  0.00     0.015 C 
HETATM    4  C4  UNL     1     -23.187 -53.566 -12.076  1.00  0.00     0.046 C 
HETATM    5  C5  UNL     1     -22.519 -54.868 -12.110  1.00  0.00     0.171 C 
HETATM    6  F1  UNL     1     -22.899 -55.624 -13.232  1.00  0.00    -0.249 F 
HETATM    7  C6  UNL     1     -21.037 -54.888 -12.064  1.00  0.00     0.044 C 
HETATM    8  C7  UNL     1     -20.485 -53.538 -11.751  1.00  0.00     0.020 C 
HETATM    9  C8  UNL     1     -19.016 -53.389 -11.987  1.00  0.00     0.237 C 
HETATM   10  N1  UNL     1     -18.795 -52.077 -12.559  1.00  0.00    -0.074 N 
ATOM     11  H11 UNL     1     -18.240 -52.101 -13.415  1.00  0.00     0.277 HD
ATOM     12  H12 UNL     1     -18.159 -51.501 -12.008  1.00  0.00     0.277 HD
HETATM   13  C9  UNL     1     -20.101 -51.468 -12.744  1.00  0.00     0.238 C 
HETATM   14  C10 UNL     1     -21.000 -52.641 -12.890  1.00  0.00     0.025 C 
ENDROOT
TORSDOF 0
ENDMDL
MODEL 3
REMARK VINA RESULT: -4.734958724      1.069      1.180
REMARK  0 active torsions:
REMARK  status: ('A' for Active; 'I' for Inactive)
ROOT
HETATM    1  C1  UNL     1     -20.367 -53.550 -15.177  1.00  0.00     0.015 C 
HETATM    2  C2  UNL     1     -21.107 -53.604 -13.836  1.00  0.00    -0.040 C 
HETATM    3  C3  UNL     1     -22.455 -54.226 -14.153  1.00  0.00     0.015 C 
HETATM    4  C4  UNL     1     -20.355 -54.422 -12.843  1.00  0.00     0.046 C 
HETATM    5  C5  UNL     1     -19.741 -53.728 -11.710  1.00  0.00     0.171 C 
HETATM    6  F1  UNL     1     -18.379 -53.466 -11.931  1.00  0.00    -0.249 F 
HETATM    7  C6  UNL     1     -20.354 -52.454 -11.261  1.00  0.00     0.044 C 
HETATM    8  C7  UNL     1     -21.667 -52.219 -11.929  1.00  0.00     0.020 C 
HETATM    9  C8  UNL     1     -22.208 -50.833 -11.782  1.00  0.00     0.237 C 
HETATM   10  N1  UNL     1     -22.804 -50.459 -13.048  1.00  0.00    -0.074 N 
ATOM     11  H11 UNL     1     -22.471 -49.561 -13.398  1.00  0.00     0.277 HD
ATOM     12  H12 UNL     1     -23.790 -50.210 -12.969  1.00  0.00     0.277 HD
HETATM   13  C9  UNL     1     -22.564 -51.555 -13.971  1.00  0.00     0.238 C 
HETATM   14  C10 UNL     1     -21.333 -52.186 -13.430  1.00  0.00     0.025 C 
ENDROOT
TORSDOF 0
ENDMDL
MODEL 4
REMARK VINA RESULT: -4.718761066      1.782      2.505
REMARK  0 active torsions:
REMARK  status: ('A' for Active; 'I' for Inactive)
ROOT
HETATM    1  C1  UNL     1     -22.952 -51.847 -14.228  1.00  0.00     0.015 C 
HETATM    2  C2  UNL     1     -22.242 -52.050 -12.885  1.00  0.00    -0.040 C 
HETATM    3  C3  UNL     1     -23.336 -51.941 -11.838  1.00  0.00     0.015 C 
HETATM    4  C4  UNL     1     -21.574 -53.381 -12.830  1.00  0.00     0.046 C 
HETATM    5  C5  UNL     1     -20.111 -53.414 -12.843  1.00  0.00     0.171 C 
HETATM    6  F1  UNL     1     -19.603 -53.655 -14.130  1.00  0.00    -0.249 F 
HETATM    7  C6  UNL     1     -19.386 -52.233 -12.313  1.00  0.00     0.044 C 
HETATM    8  C7  UNL     1     -20.315 -51.287 -11.629  1.00  0.00     0.020 C 
HETATM    9  C8  UNL     1     -19.739 -49.939 -11.340  1.00  0.00     0.237 C 
HETATM   10  N1  UNL     1     -20.774 -48.956 -11.596  1.00  0.00    -0.074 N 
ATOM     11  H11 UNL     1     -20.468 -48.203 -12.212  1.00  0.00     0.277 HD
ATOM     12  H12 UNL     1     -20.988 -48.379 -10.782  1.00  0.00     0.277 HD
HETATM   13  C9  UNL     1     -21.927 -49.677 -12.104  1.00  0.00     0.238 C 
HETATM   14  C10 UNL     1     -21.324 -50.886 -12.721  1.00  0.00     0.025 C 
ENDROOT
TORSDOF 0
ENDMDL
MODEL 5
REMARK VINA RESULT: -4.675270417      2.410      3.545
REMARK  0 active torsions:
REMARK  status: ('A' for Active; 'I' for Inactive)
ROOT
HETATM    1  C1  UNL     1     -23.579 -52.167 -11.854  1.00  0.00     0.015 C 
HETATM    2  C2  UNL     1     -22.316 -51.866 -12.667  1.00  0.00    -0.040 C 
HETATM    3  C3  UNL     1     -22.568 -52.479 -14.033  1.00  0.00     0.015 C 
HETATM    4  C4  UNL     1     -22.083 -50.397 -12.771  1.00  0.00     0.046 C 
HETATM    5  C5  UNL     1     -20.941 -49.833 -12.051  1.00  0.00     0.171 C 
HETATM    6  F1  UNL     1     -21.319 -49.284 -10.814  1.00  0.00    -0.249 F 
HETATM    7  C6  UNL     1     -19.780 -50.718 -11.788  1.00  0.00     0.044 C 
HETATM    8  C7  UNL     1     -19.900 -52.006 -12.531  1.00  0.00     0.020 C 
HETATM    9  C8  UNL     1     -18.951 -53.075 -12.095  1.00  0.00     0.237 C 
HETATM   10  N1  UNL     1     -19.671 -54.332 -12.108  1.00  0.00    -0.074 N 
ATOM     11  H11 UNL     1     -19.589 -54.850 -11.233  1.00  0.00     0.277 HD
ATOM     12  H12 UNL     1     -19.243 -55.033 -12.714  1.00  0.00     0.277 HD
HETATM   13  C9  UNL     1     -21.046 -54.030 -12.466  1.00  0.00     0.238 C 
HETATM   14  C10 UNL     1     -21.210 -52.625 -12.014  1.00  0.00     0.025 C 
ENDROOT
TORSDOF 0
ENDMDL
