MODEL 1
REMARK VINA RESULT: -5.391569308      0.000      0.000
REMARK  2 active torsions:
REMARK  status: ('A' for Active; 'I' for Inactive)
REMARK    1  A    between atoms: C1_4  and  N2_5 
REMARK    2  A    between atoms: C1_4  and  C2_8 
ROOT
HETATM    1  C2  UNL     1     -20.998 -50.481 -11.586  1.00  0.00     0.058 C 
HETATM    2  C3  UNL     1     -22.069 -50.181 -12.608  1.00  0.00     0.020 C 
HETATM    3  C4  UNL     1     -22.138 -51.531 -13.326  1.00  0.00     0.021 C 
HETATM    4  C5  UNL     1     -20.624 -51.714 -13.548  1.00  0.00     0.013 C 
HETATM    5  C6  UNL     1     -20.273 -51.723 -12.055  1.00  0.00    -0.000 C 
HETATM    6  C7  UNL     1     -21.109 -52.900 -11.608  1.00  0.00     0.043 C 
HETATM    7  C8  UNL     1     -22.405 -52.663 -12.386  1.00  0.00     0.174 C 
HETATM    8  F1  UNL     1     -23.469 -52.443 -11.548  1.00  0.00    -0.249 F 
ENDROOT
BRANCH   1   9
HETATM    9  C1  UNL     1     -20.027 -49.399 -11.373  1.00  0.00     0.086 C 
HETATM   10  N1  UNL     1     -18.837 -49.520 -10.917  1.00  0.00    -0.388 N 
ATOM     11  H12 UNL     1     -18.163 -48.769 -10.769  1.00  0.00     0.157 HD
ATOM     12  H11 UNL     1     -18.531 -50.463 -10.676  1.00  0.00     0.157 HD
BRANCH   9  13
HETATM   13  N2  UNL     1     -20.454 -48.082 -11.710  1.00  0.00    -0.309 N 
HETATM   14  S1  UNL     1     -19.464 -46.831 -11.801  1.00  0.00     0.043 SA
ATOM     15  H2  UNL     1     -21.445 -47.930 -11.904  1.00  0.00     0.176 HD
ENDBRANCH   9  13
ENDBRANCH   1   9
TORSDOF 2
ENDMDL
MODEL 2
REMARK VINA RESULT: -5.302700446      1.746      2.468
REMARK  2 active torsions:
REMARK  status: ('A' for Active; 'I' for Inactive)
REMARK    1  A    between atoms: C1_4  and  N2_5 
REMARK    2  A    between atoms: C1_4  and  C2_8 
ROOT
HETATM    1  C2  UNL     1     -21.262 -50.302 -12.583  1.00  0.00     0.058 C 
HETATM    2  C3  UNL     1     -20.025 -51.165 -12.511  1.00  0.00     0.020 C 
HETATM    3  C4  UNL     1     -20.616 -52.515 -12.921  1.00  0.00     0.021 C 
HETATM    4  C5  UNL     1     -21.830 -52.496 -11.970  1.00  0.00     0.013 C 
HETATM    5  C6  UNL     1     -22.453 -51.234 -12.581  1.00  0.00    -0.000 C 
HETATM    6  C7  UNL     1     -22.630 -51.706 -14.005  1.00  0.00     0.043 C 
HETATM    7  C8  UNL     1     -21.316 -52.454 -14.241  1.00  0.00     0.174 C 
HETATM    8  F1  UNL     1     -20.568 -51.870 -15.233  1.00  0.00    -0.249 F 
ENDROOT
BRANCH   1   9
HETATM    9  C1  UNL     1     -21.400 -49.328 -11.493  1.00  0.00     0.086 C 
HETATM   10  N1  UNL     1     -22.492 -48.949 -10.942  1.00  0.00    -0.388 N 
ATOM     11  H12 UNL     1     -22.588 -48.272 -10.184  1.00  0.00     0.157 HD
ATOM     12  H11 UNL     1     -23.354 -49.364 -11.297  1.00  0.00     0.157 HD
BRANCH   9  13
HETATM   13  N2  UNL     1     -20.196 -48.749 -10.996  1.00  0.00    -0.309 N 
HETATM   14  S1  UNL     1     -19.483 -47.487 -11.669  1.00  0.00     0.043 SA
ATOM     15  H2  UNL     1     -19.766 -49.162 -10.168  1.00  0.00     0.176 HD
ENDBRANCH   9  13
ENDBRANCH   1   9
TORSDOF 2
ENDMDL
MODEL 3
REMARK VINA RESULT: -5.255570780      1.327      1.711
REMARK  2 active torsions:
REMARK  status: ('A' for Active; 'I' for Inactive)
REMARK    1  A    between atoms: C1_4  and  N2_5 
REMARK    2  A    between atoms: C1_4  and  C2_8 
ROOT
HETATM    1  C2  UNL     1     -20.695 -51.025 -11.400  1.00  0.00     0.058 C 
HETATM    2  C3  UNL     1     -22.042 -51.617 -11.743  1.00  0.00     0.020 C 
HETATM    3  C4  UNL     1     -21.621 -52.658 -12.782  1.00  0.00     0.021 C 
HETATM    4  C5  UNL     1     -20.734 -51.733 -13.639  1.00  0.00     0.013 C 
HETATM    5  C6  UNL     1     -19.744 -51.419 -12.509  1.00  0.00    -0.000 C 
HETATM    6  C7  UNL     1     -19.274 -52.819 -12.191  1.00  0.00     0.043 C 
HETATM    7  C8  UNL     1     -20.587 -53.601 -12.257  1.00  0.00     0.174 C 
HETATM    8  F1  UNL     1     -20.912 -54.154 -11.043  1.00  0.00    -0.249 F 
ENDROOT
BRANCH   1   9
HETATM    9  C1  UNL     1     -20.685 -49.566 -11.242  1.00  0.00     0.086 C 
HETATM   10  N1  UNL     1     -21.707 -48.802 -11.128  1.00  0.00    -0.388 N 
ATOM     11  H12 UNL     1     -21.699 -47.788 -11.018  1.00  0.00     0.157 HD
ATOM     12  H11 UNL     1     -22.621 -49.254 -11.151  1.00  0.00     0.157 HD
BRANCH   9  13
HETATM   13  N2  UNL     1     -19.407 -48.936 -11.210  1.00  0.00    -0.309 N 
HETATM   14  S1  UNL     1     -19.155 -47.430 -11.682  1.00  0.00     0.043 SA
ATOM     15  H2  UNL     1     -18.610 -49.475 -10.867  1.00  0.00     0.176 HD
ENDBRANCH   9  13
ENDBRANCH   1   9
TORSDOF 2
ENDMDL
MODEL 4
REMARK VINA RESULT: -5.245704055      1.742      2.443
REMARK  2 active torsions:
REMARK  status: ('A' for Active; 'I' for Inactive)
REMARK    1  A    between atoms: C1_4  and  N2_5 
REMARK    2  A    between atoms: C1_4  and  C2_8 
ROOT
HETATM    1  C2  UNL     1     -21.197 -50.291 -12.287  1.00  0.00     0.058 C 
HETATM    2  C3  UNL     1     -20.668 -51.317 -11.314  1.00  0.00     0.020 C 
HETATM    3  C4  UNL     1     -21.276 -52.589 -11.909  1.00  0.00     0.021 C 
HETATM    4  C5  UNL     1     -22.717 -52.065 -12.061  1.00  0.00     0.013 C 
HETATM    5  C6  UNL     1     -22.344 -50.938 -13.032  1.00  0.00    -0.000 C 
HETATM    6  C7  UNL     1     -21.726 -51.755 -14.142  1.00  0.00     0.043 C 
HETATM    7  C8  UNL     1     -20.910 -52.776 -13.346  1.00  0.00     0.174 C 
HETATM    8  F1  UNL     1     -19.565 -52.656 -13.592  1.00  0.00    -0.249 F 
ENDROOT
BRANCH   1   9
HETATM    9  C1  UNL     1     -21.655 -49.038 -11.675  1.00  0.00     0.086 C 
HETATM   10  N1  UNL     1     -22.652 -48.895 -10.883  1.00  0.00    -0.388 N 
ATOM     11  H12 UNL     1     -22.971 -48.024 -10.458  1.00  0.00     0.157 HD
ATOM     12  H11 UNL     1     -23.182 -49.736 -10.655  1.00  0.00     0.157 HD
BRANCH   9  13
HETATM   13  N2  UNL     1     -20.915 -47.862 -11.993  1.00  0.00    -0.309 N 
HETATM   14  S1  UNL     1     -19.373 -47.665 -11.622  1.00  0.00     0.043 SA
ATOM     15  H2  UNL     1     -21.394 -47.107 -12.483  1.00  0.00     0.176 HD
ENDBRANCH   9  13
ENDBRANCH   1   9
TORSDOF 2
ENDMDL
MODEL 5
REMARK VINA RESULT: -5.228915961      1.372      2.027
REMARK  2 active torsions:
REMARK  status: ('A' for Active; 'I' for Inactive)
REMARK    1  A    between atoms: C1_4  and  N2_5 
REMARK    2  A    between atoms: C1_4  and  C2_8 
ROOT
HETATM    1  C2  UNL     1     -19.998 -50.530 -12.155  1.00  0.00     0.058 C 
HETATM    2  C3  UNL     1     -20.023 -51.738 -11.250  1.00  0.00     0.020 C 
HETATM    3  C4  UNL     1     -21.353 -52.364 -11.676  1.00  0.00     0.021 C 
HETATM    4  C5  UNL     1     -22.208 -51.084 -11.592  1.00  0.00     0.013 C 
HETATM    5  C6  UNL     1     -21.410 -50.323 -12.658  1.00  0.00    -0.000 C 
HETATM    6  C7  UNL     1     -21.589 -51.264 -13.826  1.00  0.00     0.043 C 
HETATM    7  C8  UNL     1     -21.415 -52.625 -13.147  1.00  0.00     0.174 C 
HETATM    8  F1  UNL     1     -20.323 -53.300 -13.633  1.00  0.00    -0.249 F 
ENDROOT
BRANCH   1   9
HETATM    9  C1  UNL     1     -19.518 -49.295 -11.522  1.00  0.00     0.086 C 
HETATM   10  N1  UNL     1     -18.429 -49.147 -10.865  1.00  0.00    -0.388 N 
ATOM     11  H12 UNL     1     -18.096 -48.289 -10.425  1.00  0.00     0.157 HD
ATOM     12  H11 UNL     1     -17.834 -49.970 -10.770  1.00  0.00     0.157 HD
BRANCH   9  13
HETATM   13  N2  UNL     1     -20.349 -48.144 -11.655  1.00  0.00    -0.309 N 
HETATM   14  S1  UNL     1     -19.779 -46.665 -11.860  1.00  0.00     0.043 SA
ATOM     15  H2  UNL     1     -21.361 -48.271 -11.616  1.00  0.00     0.176 HD
ENDBRANCH   9  13
ENDBRANCH   1   9
TORSDOF 2
ENDMDL
