MODEL 1
REMARK VINA RESULT: -4.964854395      0.000      0.000
REMARK  2 active torsions:
REMARK  status: ('A' for Active; 'I' for Inactive)
REMARK    1  A    between atoms: O1_1  and  C1_3 
REMARK    2  A    between atoms: C8_11  and  O2_12 
ROOT
HETATM    1  C1  UNL     1      51.454  19.879  11.827  1.00  0.00     0.157 C 
HETATM    2  C2  UNL     1      52.928  19.600  12.004  1.00  0.00     0.035 C 
HETATM    3  C3  UNL     1      53.780  20.295  10.973  1.00  0.00     0.003 C 
HETATM    4  C4  UNL     1      55.104  20.721  11.540  1.00  0.00     0.000 C 
HETATM    5  C5  UNL     1      54.996  21.783  12.589  1.00  0.00     0.001 C 
HETATM    6  C6  UNL     1      54.341  23.039  12.137  1.00  0.00     0.010 C 
HETATM    7  C7  UNL     1      53.029  23.297  12.888  1.00  0.00     0.076 C 
HETATM    8  S1  UNL     1      51.615  22.606  12.023  1.00  0.00    -0.135 SA
HETATM    9  C8  UNL     1      51.054  21.055  12.712  1.00  0.00     0.208 C 
ENDROOT
BRANCH   1  10
HETATM   10  O1  UNL     1      50.727  18.776  12.325  1.00  0.00    -0.392 OA
ATOM     11  H1  UNL     1      50.545  18.185  11.604  1.00  0.00     0.210 HD
ENDBRANCH   1  10
BRANCH   9  12
HETATM   12  O2  UNL     1      51.562  20.819  13.994  1.00  0.00    -0.383 OA
ATOM     13  H2  UNL     1      51.128  21.414  14.594  1.00  0.00     0.211 HD
ENDBRANCH   9  12
TORSDOF 2
ENDMDL
MODEL 2
REMARK VINA RESULT: -4.896003672      1.180      1.541
REMARK  2 active torsions:
REMARK  status: ('A' for Active; 'I' for Inactive)
REMARK    1  A    between atoms: O1_1  and  C1_3 
REMARK    2  A    between atoms: C8_11  and  O2_12 
ROOT
HETATM    1  C1  UNL     1      52.912  19.310  12.188  1.00  0.00     0.157 C 
HETATM    2  C2  UNL     1      54.122  20.105  12.620  1.00  0.00     0.035 C 
HETATM    3  C3  UNL     1      54.550  21.120  11.591  1.00  0.00     0.003 C 
HETATM    4  C4  UNL     1      55.103  22.361  12.230  1.00  0.00     0.000 C 
HETATM    5  C5  UNL     1      54.091  23.144  13.004  1.00  0.00     0.001 C 
HETATM    6  C6  UNL     1      52.919  23.601  12.211  1.00  0.00     0.010 C 
HETATM    7  C7  UNL     1      51.614  22.963  12.704  1.00  0.00     0.076 C 
HETATM    8  S1  UNL     1      51.237  21.445  11.820  1.00  0.00    -0.135 SA
HETATM    9  C8  UNL     1      51.653  19.970  12.740  1.00  0.00     0.208 C 
ENDROOT
BRANCH   1  10
HETATM   10  O1  UNL     1      52.967  18.042  12.805  1.00  0.00    -0.392 OA
ATOM     11  H1  UNL     1      52.104  17.834  13.144  1.00  0.00     0.210 HD
ENDBRANCH   1  10
BRANCH   9  12
HETATM   12  O2  UNL     1      51.863  20.223  14.100  1.00  0.00    -0.383 OA
ATOM     13  H2  UNL     1      51.670  21.139  14.259  1.00  0.00     0.211 HD
ENDBRANCH   9  12
TORSDOF 2
ENDMDL
MODEL 3
REMARK VINA RESULT: -4.763172236      2.160      4.323
REMARK  2 active torsions:
REMARK  status: ('A' for Active; 'I' for Inactive)
REMARK    1  A    between atoms: O1_1  and  C1_3 
REMARK    2  A    between atoms: C8_11  and  O2_12 
ROOT
HETATM    1  C1  UNL     1      52.828  21.924  13.093  1.00  0.00     0.157 C 
HETATM    2  C2  UNL     1      51.534  22.702  13.156  1.00  0.00     0.035 C 
HETATM    3  C3  UNL     1      50.933  22.943  11.794  1.00  0.00     0.003 C 
HETATM    4  C4  UNL     1      49.432  22.927  11.838  1.00  0.00     0.000 C 
HETATM    5  C5  UNL     1      48.853  21.590  12.177  1.00  0.00     0.001 C 
HETATM    6  C6  UNL     1      49.229  20.495  11.244  1.00  0.00     0.010 C 
HETATM    7  C7  UNL     1      50.060  19.412  11.944  1.00  0.00     0.076 C 
HETATM    8  S1  UNL     1      51.823  19.727  11.804  1.00  0.00    -0.135 SA
HETATM    9  C8  UNL     1      52.533  20.441  13.281  1.00  0.00     0.208 C 
ENDROOT
BRANCH   1  10
HETATM   10  O1  UNL     1      53.622  22.288  14.202  1.00  0.00    -0.392 OA
ATOM     11  H1  UNL     1      54.073  23.099  13.996  1.00  0.00     0.210 HD
ENDBRANCH   1  10
BRANCH   9  12
HETATM   12  O2  UNL     1      51.701  20.307  14.399  1.00  0.00    -0.383 OA
ATOM     13  H2  UNL     1      51.072  19.620  14.213  1.00  0.00     0.211 HD
ENDBRANCH   9  12
TORSDOF 2
ENDMDL
MODEL 4
REMARK VINA RESULT: -4.619991955      2.505      3.957
REMARK  2 active torsions:
REMARK  status: ('A' for Active; 'I' for Inactive)
REMARK    1  A    between atoms: O1_1  and  C1_3 
REMARK    2  A    between atoms: C8_11  and  O2_12 
ROOT
HETATM    1  C1  UNL     1      53.566  24.499  13.349  1.00  0.00     0.157 C 
HETATM    2  C2  UNL     1      53.438  23.576  12.160  1.00  0.00     0.035 C 
HETATM    3  C3  UNL     1      54.437  22.446  12.190  1.00  0.00     0.003 C 
HETATM    4  C4  UNL     1      53.868  21.185  11.606  1.00  0.00     0.000 C 
HETATM    5  C5  UNL     1      52.749  20.600  12.407  1.00  0.00     0.001 C 
HETATM    6  C6  UNL     1      53.101  20.258  13.811  1.00  0.00     0.010 C 
HETATM    7  C7  UNL     1      52.308  21.101  14.818  1.00  0.00     0.076 C 
HETATM    8  S1  UNL     1      53.190  22.595  15.281  1.00  0.00    -0.135 SA
HETATM    9  C8  UNL     1      52.596  24.056  14.438  1.00  0.00     0.208 C 
ENDROOT
BRANCH   1  10
HETATM   10  O1  UNL     1      53.129  25.785  12.965  1.00  0.00    -0.392 OA
ATOM     11  H1  UNL     1      53.522  26.424  13.549  1.00  0.00     0.210 HD
ENDBRANCH   1  10
BRANCH   9  12
HETATM   12  O2  UNL     1      51.343  23.865  13.845  1.00  0.00    -0.383 OA
ATOM     13  H2  UNL     1      51.386  24.203  12.959  1.00  0.00     0.211 HD
ENDBRANCH   9  12
TORSDOF 2
ENDMDL
MODEL 5
REMARK VINA RESULT: -4.531967352      1.878      3.513
REMARK  2 active torsions:
REMARK  status: ('A' for Active; 'I' for Inactive)
REMARK    1  A    between atoms: O1_1  and  C1_3 
REMARK    2  A    between atoms: C8_11  and  O2_12 
ROOT
HETATM    1  C1  UNL     1      53.028  23.726  13.298  1.00  0.00     0.157 C 
HETATM    2  C2  UNL     1      53.966  23.217  12.229  1.00  0.00     0.035 C 
HETATM    3  C3  UNL     1      54.808  22.057  12.698  1.00  0.00     0.003 C 
HETATM    4  C4  UNL     1      55.074  21.079  11.591  1.00  0.00     0.000 C 
HETATM    5  C5  UNL     1      53.849  20.368  11.107  1.00  0.00     0.001 C 
HETATM    6  C6  UNL     1      53.127  19.593  12.150  1.00  0.00     0.010 C 
HETATM    7  C7  UNL     1      51.721  20.151  12.402  1.00  0.00     0.076 C 
HETATM    8  S1  UNL     1      51.710  21.364  13.727  1.00  0.00    -0.135 SA
HETATM    9  C8  UNL     1      51.670  23.052  13.140  1.00  0.00     0.208 C 
ENDROOT
BRANCH   1  10
HETATM   10  O1  UNL     1      52.790  25.098  13.067  1.00  0.00    -0.392 OA
ATOM     11  H1  UNL     1      52.355  25.462  13.830  1.00  0.00     0.210 HD
ENDBRANCH   1  10
BRANCH   9  12
HETATM   12  O2  UNL     1      51.298  23.146  11.794  1.00  0.00    -0.383 OA
ATOM     13  H2  UNL     1      51.687  22.413  11.332  1.00  0.00     0.211 HD
ENDBRANCH   9  12
TORSDOF 2
ENDMDL
