MODEL 1
REMARK VINA RESULT: -8.495028086      0.000      0.000
REMARK  11 active torsions:
REMARK  status: ('A' for Active; 'I' for Inactive)
REMARK    1  A    between atoms: C2_2  and  O1_3 
REMARK    2  A    between atoms: C2_2  and  C3_5 
REMARK    3  A    between atoms: C3_5  and  C4_6 
REMARK    4  A    between atoms: C3_5  and  C19_23 
REMARK    5  A    between atoms: C5_7  and  C6_8 
REMARK    6  A    between atoms: C6_8  and  C8_10 
REMARK    7  A    between atoms: C19_23  and  C21_25 
REMARK    8  A    between atoms: C21_25  and  C22_29 
REMARK    9  A    between atoms: C28_35  and  O4_36 
REMARK   10  A    between atoms: C29_38  and  O5_39 
REMARK   11  A    between atoms: C30_41  and  O6_42 
ROOT
HETATM    1  C3  UNL     1     -24.637 -54.338 -14.184  1.00  0.00     0.094 C 
ENDROOT
BRANCH   1   2
HETATM    2  C2  UNL     1     -24.617 -52.909 -14.010  1.00  0.00     0.045 C 
HETATM    3  C1  UNL     1     -24.025 -52.019 -14.727  1.00  0.00     0.047 C 
BRANCH   2   4
HETATM    4  O1  UNL     1     -25.347 -52.397 -12.901  1.00  0.00    -0.365 OA
ATOM      5  H1  UNL     1     -25.309 -52.931 -12.115  1.00  0.00     0.217 HD
ENDBRANCH   2   4
ENDBRANCH   1   2
BRANCH   1   6
HETATM    6  C4  UNL     1     -23.200 -54.771 -14.376  1.00  0.00    -0.015 C 
HETATM    7  C5  UNL     1     -22.383 -54.989 -13.378  1.00  0.00    -0.025 C 
BRANCH   7   8
HETATM    8  C6  UNL     1     -20.969 -55.411 -13.459  1.00  0.00     0.008 C 
HETATM    9  C7  UNL     1     -20.737 -56.651 -12.623  1.00  0.00     0.014 C 
BRANCH   8  10
HETATM   10  C8  UNL     1     -19.955 -54.354 -13.260  1.00  0.00    -0.004 C 
HETATM   11  C9  UNL     1     -20.005 -53.197 -14.203  1.00  0.00     0.008 C 
HETATM   12  C10 UNL     1     -20.639 -52.067 -13.421  1.00  0.00     0.039 C 
HETATM   13  C11 UNL     1     -20.482 -52.398 -11.973  1.00  0.00     0.071 C 
HETATM   14  C12 UNL     1     -19.455 -51.466 -11.387  1.00  0.00     0.043 C 
HETATM   15  O3  UNL     1     -21.748 -52.261 -11.331  1.00  0.00    -0.306 OA
HETATM   16  C18 UNL     1     -19.970 -53.803 -11.884  1.00  0.00     0.044 C 
HETATM   17  C13 UNL     1     -19.978 -50.117 -11.026  1.00  0.00     0.047 C 
HETATM   18  C14 UNL     1     -21.373 -49.870 -11.461  1.00  0.00     0.013 C 
HETATM   19  C15 UNL     1     -21.785 -48.712 -11.938  1.00  0.00    -0.018 C 
HETATM   20  C17 UNL     1     -22.308 -50.992 -11.342  1.00  0.00     0.289 C 
HETATM   21  C16 UNL     1     -20.779 -47.604 -12.035  1.00  0.00     0.036 C 
HETATM   22  O2  UNL     1     -23.551 -50.787 -11.254  1.00  0.00    -0.260 OA
ENDBRANCH   8  10
ENDBRANCH   7   8
ENDBRANCH   1   6
BRANCH   1  23
HETATM   23  C19 UNL     1     -25.505 -54.959 -15.241  1.00  0.00    -0.047 C 
HETATM   24  C20 UNL     1     -25.711 -54.146 -16.467  1.00  0.00     0.046 C 
BRANCH  23  25
HETATM   25  C21 UNL     1     -26.615 -55.741 -14.735  1.00  0.00     0.011 C 
HETATM   26  N1  UNL     1     -26.541 -57.046 -14.923  1.00  0.00    -0.402 N 
ATOM     27  H12 UNL     1     -25.688 -57.304 -15.419  1.00  0.00     0.156 HD
ATOM     28  H11 UNL     1     -27.322 -57.596 -14.567  1.00  0.00     0.156 HD
BRANCH  25  29
HETATM   29  C22 UNL     1     -27.836 -55.371 -14.024  1.00  0.00     0.051 A 
HETATM   30  C23 UNL     1     -28.747 -56.167 -13.254  1.00  0.00     0.004 A 
HETATM   31  C24 UNL     1     -30.177 -55.656 -13.092  1.00  0.00     0.011 C 
HETATM   32  C25 UNL     1     -27.723 -55.406 -12.505  1.00  0.00     0.002 A 
HETATM   33  C26 UNL     1     -26.638 -56.186 -11.842  1.00  0.00     0.016 C 
HETATM   34  C30 UNL     1     -28.174 -54.218 -11.693  1.00  0.00     0.159 C 
HETATM   35  C27 UNL     1     -27.066 -56.592 -10.446  1.00  0.00     0.035 C 
HETATM   36  C28 UNL     1     -27.327 -55.367  -9.611  1.00  0.00     0.149 C 
HETATM   37  C29 UNL     1     -27.449 -54.101 -10.394  1.00  0.00     0.176 C 
BRANCH  36  38
HETATM   38  O4  UNL     1     -26.274 -55.199  -8.683  1.00  0.00    -0.393 OA
ATOM     39  H4  UNL     1     -25.459 -55.486  -9.076  1.00  0.00     0.210 HD
ENDBRANCH  36  38
BRANCH  37  40
HETATM   40  O5  UNL     1     -28.189 -53.202  -9.593  1.00  0.00    -0.390 OA
ATOM     41  H5  UNL     1     -29.107 -53.374  -9.769  1.00  0.00     0.210 HD
ENDBRANCH  37  40
BRANCH  34  42
HETATM   42  O6  UNL     1     -27.921 -53.062 -12.433  1.00  0.00    -0.392 OA
ATOM     43  H6  UNL     1     -28.746 -52.749 -12.786  1.00  0.00     0.210 HD
ENDBRANCH  34  42
ENDBRANCH  25  29
ENDBRANCH  23  25
ENDBRANCH   1  23
TORSDOF 11
ENDMDL
MODEL 2
REMARK VINA RESULT: -8.205227075      3.380      8.199
REMARK  11 active torsions:
REMARK  status: ('A' for Active; 'I' for Inactive)
REMARK    1  A    between atoms: C2_2  and  O1_3 
REMARK    2  A    between atoms: C2_2  and  C3_5 
REMARK    3  A    between atoms: C3_5  and  C4_6 
REMARK    4  A    between atoms: C3_5  and  C19_23 
REMARK    5  A    between atoms: C5_7  and  C6_8 
REMARK    6  A    between atoms: C6_8  and  C8_10 
REMARK    7  A    between atoms: C19_23  and  C21_25 
REMARK    8  A    between atoms: C21_25  and  C22_29 
REMARK    9  A    between atoms: C28_35  and  O4_36 
REMARK   10  A    between atoms: C29_38  and  O5_39 
REMARK   11  A    between atoms: C30_41  and  O6_42 
ROOT
HETATM    1  C3  UNL     1     -20.979 -51.741 -13.444  1.00  0.00     0.094 C 
ENDROOT
BRANCH   1   2
HETATM    2  C2  UNL     1     -21.224 -50.525 -12.713  1.00  0.00     0.045 C 
HETATM    3  C1  UNL     1     -22.348 -49.948 -12.465  1.00  0.00     0.047 C 
BRANCH   2   4
HETATM    4  O1  UNL     1     -20.080 -49.861 -12.187  1.00  0.00    -0.365 OA
ATOM      5  H1  UNL     1     -19.413 -49.643 -12.828  1.00  0.00     0.217 HD
ENDBRANCH   2   4
ENDBRANCH   1   2
BRANCH   1   6
HETATM    6  C4  UNL     1     -22.170 -51.949 -14.352  1.00  0.00    -0.015 C 
HETATM    7  C5  UNL     1     -22.345 -53.035 -15.060  1.00  0.00    -0.025 C 
BRANCH   7   8
HETATM    8  C6  UNL     1     -23.469 -53.333 -15.972  1.00  0.00     0.008 C 
HETATM    9  C7  UNL     1     -24.252 -52.074 -16.278  1.00  0.00     0.014 C 
BRANCH   8  10
HETATM   10  C8  UNL     1     -24.313 -54.494 -15.620  1.00  0.00    -0.004 C 
HETATM   11  C9  UNL     1     -23.757 -55.436 -14.603  1.00  0.00     0.008 C 
HETATM   12  C10 UNL     1     -24.490 -55.121 -13.317  1.00  0.00     0.039 C 
HETATM   13  C11 UNL     1     -25.746 -54.407 -13.696  1.00  0.00     0.071 C 
HETATM   14  C12 UNL     1     -26.906 -55.338 -13.460  1.00  0.00     0.043 C 
HETATM   15  O3  UNL     1     -25.853 -53.220 -12.913  1.00  0.00    -0.306 OA
HETATM   16  C18 UNL     1     -25.664 -54.095 -15.159  1.00  0.00     0.044 C 
HETATM   17  C13 UNL     1     -27.366 -55.406 -12.043  1.00  0.00     0.047 C 
HETATM   18  C14 UNL     1     -26.499 -54.677 -11.088  1.00  0.00     0.013 C 
HETATM   19  C15 UNL     1     -26.214 -55.130  -9.882  1.00  0.00    -0.018 C 
HETATM   20  C17 UNL     1     -25.951 -53.396 -11.541  1.00  0.00     0.289 C 
HETATM   21  C16 UNL     1     -26.806 -56.447  -9.479  1.00  0.00     0.036 C 
HETATM   22  O2  UNL     1     -25.594 -52.517 -10.707  1.00  0.00    -0.260 OA
ENDBRANCH   8  10
ENDBRANCH   7   8
ENDBRANCH   1   6
BRANCH   1  23
HETATM   23  C19 UNL     1     -20.664 -53.013 -12.711  1.00  0.00    -0.047 C 
HETATM   24  C20 UNL     1     -21.381 -53.211 -11.425  1.00  0.00     0.046 C 
BRANCH  23  25
HETATM   25  C21 UNL     1     -19.285 -53.447 -12.808  1.00  0.00     0.011 C 
HETATM   26  N1  UNL     1     -18.368 -52.520 -12.600  1.00  0.00    -0.402 N 
ATOM     27  H12 UNL     1     -18.791 -51.613 -12.404  1.00  0.00     0.156 HD
ATOM     28  H11 UNL     1     -17.397 -52.825 -12.669  1.00  0.00     0.156 HD
BRANCH  25  29
HETATM   29  C22 UNL     1     -18.679 -54.746 -13.089  1.00  0.00     0.051 A 
HETATM   30  C23 UNL     1     -19.265 -55.968 -13.560  1.00  0.00     0.004 A 
HETATM   31  C24 UNL     1     -18.534 -57.273 -13.250  1.00  0.00     0.011 C 
HETATM   32  C25 UNL     1     -18.605 -55.108 -14.568  1.00  0.00     0.002 A 
HETATM   33  C26 UNL     1     -19.481 -54.422 -15.561  1.00  0.00     0.016 C 
HETATM   34  C30 UNL     1     -17.300 -55.578 -15.159  1.00  0.00     0.159 C 
HETATM   35  C27 UNL     1     -19.702 -55.314 -16.766  1.00  0.00     0.035 C 
HETATM   36  C28 UNL     1     -18.387 -55.608 -17.437  1.00  0.00     0.149 C 
HETATM   37  C29 UNL     1     -17.186 -55.272 -16.615  1.00  0.00     0.176 C 
BRANCH  36  38
HETATM   38  O4  UNL     1     -18.302 -54.874 -18.643  1.00  0.00    -0.393 OA
ATOM     39  H4  UNL     1     -17.468 -54.422 -18.678  1.00  0.00     0.210 HD
ENDBRANCH  36  38
BRANCH  37  40
HETATM   40  O5  UNL     1     -16.123 -56.060 -17.115  1.00  0.00    -0.390 OA
ATOM     41  H5  UNL     1     -15.359 -55.845 -16.593  1.00  0.00     0.210 HD
ENDBRANCH  37  40
BRANCH  34  42
HETATM   42  O6  UNL     1     -16.260 -54.922 -14.498  1.00  0.00    -0.392 OA
ATOM     43  H6  UNL     1     -15.813 -54.367 -15.126  1.00  0.00     0.210 HD
ENDBRANCH  34  42
ENDBRANCH  25  29
ENDBRANCH  23  25
ENDBRANCH   1  23
TORSDOF 11
ENDMDL
MODEL 3
REMARK VINA RESULT: -8.142752290      1.652      2.035
REMARK  11 active torsions:
REMARK  status: ('A' for Active; 'I' for Inactive)
REMARK    1  A    between atoms: C2_2  and  O1_3 
REMARK    2  A    between atoms: C2_2  and  C3_5 
REMARK    3  A    between atoms: C3_5  and  C4_6 
REMARK    4  A    between atoms: C3_5  and  C19_23 
REMARK    5  A    between atoms: C5_7  and  C6_8 
REMARK    6  A    between atoms: C6_8  and  C8_10 
REMARK    7  A    between atoms: C19_23  and  C21_25 
REMARK    8  A    between atoms: C21_25  and  C22_29 
REMARK    9  A    between atoms: C28_35  and  O4_36 
REMARK   10  A    between atoms: C29_38  and  O5_39 
REMARK   11  A    between atoms: C30_41  and  O6_42 
ROOT
HETATM    1  C3  UNL     1     -24.649 -54.664 -16.445  1.00  0.00     0.094 C 
ENDROOT
BRANCH   1   2
HETATM    2  C2  UNL     1     -24.410 -53.860 -17.616  1.00  0.00     0.045 C 
HETATM    3  C1  UNL     1     -23.315 -53.704 -18.275  1.00  0.00     0.047 C 
BRANCH   2   4
HETATM    4  O1  UNL     1     -25.524 -53.136 -18.124  1.00  0.00    -0.365 OA
ATOM      5  H1  UNL     1     -26.289 -53.130 -17.560  1.00  0.00     0.217 HD
ENDBRANCH   2   4
ENDBRANCH   1   2
BRANCH   1   6
HETATM    6  C4  UNL     1     -23.304 -55.193 -16.001  1.00  0.00    -0.015 C 
HETATM    7  C5  UNL     1     -22.748 -54.861 -14.864  1.00  0.00    -0.025 C 
BRANCH   7   8
HETATM    8  C6  UNL     1     -21.444 -55.320 -14.342  1.00  0.00     0.008 C 
HETATM    9  C7  UNL     1     -21.639 -56.185 -13.116  1.00  0.00     0.014 C 
BRANCH   8  10
HETATM   10  C8  UNL     1     -20.397 -54.288 -14.187  1.00  0.00    -0.004 C 
HETATM   11  C9  UNL     1     -20.607 -53.010 -14.933  1.00  0.00     0.008 C 
HETATM   12  C10 UNL     1     -21.071 -52.010 -13.897  1.00  0.00     0.039 C 
HETATM   13  C11 UNL     1     -20.654 -52.538 -12.564  1.00  0.00     0.071 C 
HETATM   14  C12 UNL     1     -19.524 -51.684 -12.052  1.00  0.00     0.043 C 
HETATM   15  O3  UNL     1     -21.778 -52.510 -11.686  1.00  0.00    -0.306 OA
HETATM   16  C18 UNL     1     -20.152 -53.934 -12.769  1.00  0.00     0.044 C 
HETATM   17  C13 UNL     1     -19.956 -50.405 -11.416  1.00  0.00     0.047 C 
HETATM   18  C14 UNL     1     -21.404 -50.120 -11.547  1.00  0.00     0.013 C 
HETATM   19  C15 UNL     1     -21.883 -48.912 -11.772  1.00  0.00    -0.018 C 
HETATM   20  C17 UNL     1     -22.315 -51.260 -11.416  1.00  0.00     0.289 C 
HETATM   21  C16 UNL     1     -20.899 -47.788 -11.897  1.00  0.00     0.036 C 
HETATM   22  O2  UNL     1     -23.518 -51.087 -11.072  1.00  0.00    -0.260 OA
ENDBRANCH   8  10
ENDBRANCH   7   8
ENDBRANCH   1   6
BRANCH   1  23
HETATM   23  C19 UNL     1     -25.651 -55.782 -16.489  1.00  0.00    -0.047 C 
HETATM   24  C20 UNL     1     -25.709 -56.548 -17.761  1.00  0.00     0.046 C 
BRANCH  23  25
HETATM   25  C21 UNL     1     -26.888 -55.518 -15.783  1.00  0.00     0.011 C 
HETATM   26  N1  UNL     1     -27.698 -54.635 -16.339  1.00  0.00    -0.402 N 
ATOM     27  H12 UNL     1     -27.306 -54.262 -17.204  1.00  0.00     0.156 HD
ATOM     28  H11 UNL     1     -28.569 -54.449 -15.843  1.00  0.00     0.156 HD
BRANCH  25  29
HETATM   29  C22 UNL     1     -27.449 -56.054 -14.545  1.00  0.00     0.051 A 
HETATM   30  C23 UNL     1     -26.825 -56.766 -13.468  1.00  0.00     0.004 A 
HETATM   31  C24 UNL     1     -27.710 -57.655 -12.597  1.00  0.00     0.011 C 
HETATM   32  C25 UNL     1     -27.028 -55.312 -13.282  1.00  0.00     0.002 A 
HETATM   33  C26 UNL     1     -25.813 -54.446 -13.281  1.00  0.00     0.016 C 
HETATM   34  C30 UNL     1     -28.074 -54.860 -12.295  1.00  0.00     0.159 C 
HETATM   35  C27 UNL     1     -25.250 -54.340 -11.878  1.00  0.00     0.035 C 
HETATM   36  C28 UNL     1     -26.264 -53.710 -10.962  1.00  0.00     0.149 C 
HETATM   37  C29 UNL     1     -27.650 -53.658 -11.518  1.00  0.00     0.176 C 
BRANCH  36  38
HETATM   38  O4  UNL     1     -25.870 -52.385 -10.665  1.00  0.00    -0.393 OA
ATOM     39  H4  UNL     1     -25.595 -52.334  -9.758  1.00  0.00     0.210 HD
ENDBRANCH  36  38
BRANCH  37  40
HETATM   40  O5  UNL     1     -28.525 -53.559 -10.411  1.00  0.00    -0.390 OA
ATOM     41  H5  UNL     1     -28.898 -54.422 -10.283  1.00  0.00     0.210 HD
ENDBRANCH  37  40
BRANCH  34  42
HETATM   42  O6  UNL     1     -29.230 -54.528 -13.004  1.00  0.00    -0.392 OA
ATOM     43  H6  UNL     1     -29.615 -53.759 -12.601  1.00  0.00     0.210 HD
ENDBRANCH  34  42
ENDBRANCH  25  29
ENDBRANCH  23  25
ENDBRANCH   1  23
TORSDOF 11
ENDMDL
MODEL 4
REMARK VINA RESULT: -7.908657159      1.476      1.870
REMARK  11 active torsions:
REMARK  status: ('A' for Active; 'I' for Inactive)
REMARK    1  A    between atoms: C2_2  and  O1_3 
REMARK    2  A    between atoms: C2_2  and  C3_5 
REMARK    3  A    between atoms: C3_5  and  C4_6 
REMARK    4  A    between atoms: C3_5  and  C19_23 
REMARK    5  A    between atoms: C5_7  and  C6_8 
REMARK    6  A    between atoms: C6_8  and  C8_10 
REMARK    7  A    between atoms: C19_23  and  C21_25 
REMARK    8  A    between atoms: C21_25  and  C22_29 
REMARK    9  A    between atoms: C28_35  and  O4_36 
REMARK   10  A    between atoms: C29_38  and  O5_39 
REMARK   11  A    between atoms: C30_41  and  O6_42 
ROOT
HETATM    1  C3  UNL     1     -24.922 -54.327 -12.793  1.00  0.00     0.094 C 
ENDROOT
BRANCH   1   2
HETATM    2  C2  UNL     1     -24.933 -52.888 -12.732  1.00  0.00     0.045 C 
HETATM    3  C1  UNL     1     -24.597 -52.041 -13.642  1.00  0.00     0.047 C 
BRANCH   2   4
HETATM    4  O1  UNL     1     -25.372 -52.311 -11.508  1.00  0.00    -0.365 OA
ATOM      5  H1  UNL     1     -25.014 -51.452 -11.318  1.00  0.00     0.217 HD
ENDBRANCH   2   4
ENDBRANCH   1   2
BRANCH   1   6
HETATM    6  C4  UNL     1     -23.628 -54.722 -13.468  1.00  0.00    -0.015 C 
HETATM    7  C5  UNL     1     -22.485 -54.788 -12.834  1.00  0.00    -0.025 C 
BRANCH   7   8
HETATM    8  C6  UNL     1     -21.172 -55.160 -13.400  1.00  0.00     0.008 C 
HETATM    9  C7  UNL     1     -20.730 -56.509 -12.874  1.00  0.00     0.014 C 
BRANCH   8  10
HETATM   10  C8  UNL     1     -20.118 -54.125 -13.354  1.00  0.00    -0.004 C 
HETATM   11  C9  UNL     1     -20.267 -52.981 -14.303  1.00  0.00     0.008 C 
HETATM   12  C10 UNL     1     -20.770 -51.825 -13.467  1.00  0.00     0.039 C 
HETATM   13  C11 UNL     1     -20.432 -52.137 -12.046  1.00  0.00     0.071 C 
HETATM   14  C12 UNL     1     -19.318 -51.220 -11.615  1.00  0.00     0.043 C 
HETATM   15  O3  UNL     1     -21.600 -51.961 -11.247  1.00  0.00    -0.306 OA
HETATM   16  C18 UNL     1     -19.942 -53.551 -11.999  1.00  0.00     0.044 C 
HETATM   17  C13 UNL     1     -19.762 -49.853 -11.214  1.00  0.00     0.047 C 
HETATM   18  C14 UNL     1     -21.196 -49.582 -11.468  1.00  0.00     0.013 C 
HETATM   19  C15 UNL     1     -21.643 -48.421 -11.908  1.00  0.00    -0.018 C 
HETATM   20  C17 UNL     1     -22.130 -50.680 -11.207  1.00  0.00     0.289 C 
HETATM   21  C16 UNL     1     -20.636 -47.339 -12.156  1.00  0.00     0.036 C 
HETATM   22  O2  UNL     1     -23.347 -50.445 -10.962  1.00  0.00    -0.260 OA
ENDBRANCH   8  10
ENDBRANCH   7   8
ENDBRANCH   1   6
BRANCH   1  23
HETATM   23  C19 UNL     1     -26.072 -55.066 -13.417  1.00  0.00    -0.047 C 
HETATM   24  C20 UNL     1     -26.112 -55.063 -14.902  1.00  0.00     0.046 C 
BRANCH  23  25
HETATM   25  C21 UNL     1     -27.322 -54.969 -12.691  1.00  0.00     0.011 C 
HETATM   26  N1  UNL     1     -27.871 -53.770 -12.634  1.00  0.00    -0.402 N 
ATOM     27  H12 UNL     1     -27.304 -53.076 -13.122  1.00  0.00     0.156 HD
ATOM     28  H11 UNL     1     -28.751 -53.702 -12.123  1.00  0.00     0.156 HD
BRANCH  25  29
HETATM   29  C22 UNL     1     -28.134 -55.963 -11.993  1.00  0.00     0.051 A 
HETATM   30  C23 UNL     1     -27.790 -57.257 -11.479  1.00  0.00     0.004 A 
HETATM   31  C24 UNL     1     -28.916 -58.273 -11.297  1.00  0.00     0.011 C 
HETATM   32  C25 UNL     1     -27.801 -56.133 -10.516  1.00  0.00     0.002 A 
HETATM   33  C26 UNL     1     -26.487 -55.680  -9.977  1.00  0.00     0.016 C 
HETATM   34  C30 UNL     1     -28.905 -56.088  -9.490  1.00  0.00     0.159 C 
HETATM   35  C27 UNL     1     -26.130 -56.473  -8.736  1.00  0.00     0.035 C 
HETATM   36  C28 UNL     1     -27.166 -56.251  -7.667  1.00  0.00     0.149 C 
HETATM   37  C29 UNL     1     -28.430 -55.621  -8.154  1.00  0.00     0.176 C 
BRANCH  36  38
HETATM   38  O4  UNL     1     -26.629 -55.415  -6.661  1.00  0.00    -0.393 OA
ATOM     39  H4  UNL     1     -26.710 -55.846  -5.818  1.00  0.00     0.210 HD
ENDBRANCH  36  38
BRANCH  37  40
HETATM   40  O5  UNL     1     -29.436 -55.962  -7.221  1.00  0.00    -0.390 OA
ATOM     41  H5  UNL     1     -29.636 -55.169  -6.738  1.00  0.00     0.210 HD
ENDBRANCH  37  40
BRANCH  34  42
HETATM   42  O6  UNL     1     -29.880 -55.195  -9.937  1.00  0.00    -0.392 OA
ATOM     43  H6  UNL     1     -30.703 -55.665 -10.008  1.00  0.00     0.210 HD
ENDBRANCH  34  42
ENDBRANCH  25  29
ENDBRANCH  23  25
ENDBRANCH   1  23
TORSDOF 11
ENDMDL
MODEL 5
REMARK VINA RESULT: -7.875563282      3.784      9.169
REMARK  11 active torsions:
REMARK  status: ('A' for Active; 'I' for Inactive)
REMARK    1  A    between atoms: C2_2  and  O1_3 
REMARK    2  A    between atoms: C2_2  and  C3_5 
REMARK    3  A    between atoms: C3_5  and  C4_6 
REMARK    4  A    between atoms: C3_5  and  C19_23 
REMARK    5  A    between atoms: C5_7  and  C6_8 
REMARK    6  A    between atoms: C6_8  and  C8_10 
REMARK    7  A    between atoms: C19_23  and  C21_25 
REMARK    8  A    between atoms: C21_25  and  C22_29 
REMARK    9  A    between atoms: C28_35  and  O4_36 
REMARK   10  A    between atoms: C29_38  and  O5_39 
REMARK   11  A    between atoms: C30_41  and  O6_42 
ROOT
HETATM    1  C3  UNL     1     -21.066 -51.536 -13.251  1.00  0.00     0.094 C 
ENDROOT
BRANCH   1   2
HETATM    2  C2  UNL     1     -21.047 -50.293 -12.523  1.00  0.00     0.045 C 
HETATM    3  C1  UNL     1     -22.038 -49.545 -12.184  1.00  0.00     0.047 C 
BRANCH   2   4
HETATM    4  O1  UNL     1     -19.769 -49.817 -12.119  1.00  0.00    -0.365 OA
ATOM      5  H1  UNL     1     -19.650 -49.735 -11.180  1.00  0.00     0.217 HD
ENDBRANCH   2   4
ENDBRANCH   1   2
BRANCH   1   6
HETATM    6  C4  UNL     1     -22.427 -51.637 -13.901  1.00  0.00    -0.015 C 
HETATM    7  C5  UNL     1     -22.746 -52.588 -14.742  1.00  0.00    -0.025 C 
BRANCH   7   8
HETATM    8  C6  UNL     1     -24.041 -52.773 -15.428  1.00  0.00     0.008 C 
HETATM    9  C7  UNL     1     -25.038 -53.443 -14.508  1.00  0.00     0.014 C 
BRANCH   8  10
HETATM   10  C8  UNL     1     -23.990 -53.358 -16.785  1.00  0.00    -0.004 C 
HETATM   11  C9  UNL     1     -23.620 -54.803 -16.873  1.00  0.00     0.008 C 
HETATM   12  C10 UNL     1     -24.918 -55.538 -17.126  1.00  0.00     0.039 C 
HETATM   13  C11 UNL     1     -25.886 -54.537 -17.666  1.00  0.00     0.071 C 
HETATM   14  C12 UNL     1     -26.098 -54.830 -19.128  1.00  0.00     0.043 C 
HETATM   15  O3  UNL     1     -27.102 -54.629 -16.927  1.00  0.00    -0.306 OA
HETATM   16  C18 UNL     1     -25.260 -53.183 -17.528  1.00  0.00     0.044 C 
HETATM   17  C13 UNL     1     -27.071 -55.927 -19.404  1.00  0.00     0.047 C 
HETATM   18  C14 UNL     1     -27.531 -56.649 -18.195  1.00  0.00     0.013 C 
HETATM   19  C15 UNL     1     -27.721 -57.954 -18.163  1.00  0.00    -0.018 C 
HETATM   20  C17 UNL     1     -27.774 -55.840 -16.997  1.00  0.00     0.289 C 
HETATM   21  C16 UNL     1     -27.454 -58.724 -19.420  1.00  0.00     0.036 C 
HETATM   22  O2  UNL     1     -28.558 -56.246 -16.094  1.00  0.00    -0.260 OA
ENDBRANCH   8  10
ENDBRANCH   7   8
ENDBRANCH   1   6
BRANCH   1  23
HETATM   23  C19 UNL     1     -20.733 -52.825 -12.554  1.00  0.00    -0.047 C 
HETATM   24  C20 UNL     1     -21.326 -53.000 -11.203  1.00  0.00     0.046 C 
BRANCH  23  25
HETATM   25  C21 UNL     1     -19.390 -53.314 -12.788  1.00  0.00     0.011 C 
HETATM   26  N1  UNL     1     -18.412 -52.451 -12.580  1.00  0.00    -0.402 N 
ATOM     27  H12 UNL     1     -18.771 -51.544 -12.285  1.00  0.00     0.156 HD
ATOM     28  H11 UNL     1     -17.466 -52.795 -12.746  1.00  0.00     0.156 HD
BRANCH  25  29
HETATM   29  C22 UNL     1     -18.875 -54.614 -13.212  1.00  0.00     0.051 A 
HETATM   30  C23 UNL     1     -19.539 -55.724 -13.831  1.00  0.00     0.004 A 
HETATM   31  C24 UNL     1     -18.914 -57.108 -13.667  1.00  0.00     0.011 C 
HETATM   32  C25 UNL     1     -18.795 -54.805 -14.722  1.00  0.00     0.002 A 
HETATM   33  C26 UNL     1     -19.596 -53.944 -15.639  1.00  0.00     0.016 C 
HETATM   34  C30 UNL     1     -17.516 -55.301 -15.347  1.00  0.00     0.159 C 
HETATM   35  C27 UNL     1     -19.855 -54.671 -16.943  1.00  0.00     0.035 C 
HETATM   36  C28 UNL     1     -18.552 -54.983 -17.627  1.00  0.00     0.149 C 
HETATM   37  C29 UNL     1     -17.347 -54.838 -16.755  1.00  0.00     0.176 C 
BRANCH  36  38
HETATM   38  O4  UNL     1     -18.386 -54.123 -18.736  1.00  0.00    -0.393 OA
ATOM     39  H4  UNL     1     -19.121 -54.229 -19.329  1.00  0.00     0.210 HD
ENDBRANCH  36  38
BRANCH  37  40
HETATM   40  O5  UNL     1     -16.335 -55.640 -17.330  1.00  0.00    -0.390 OA
ATOM     41  H5  UNL     1     -16.704 -56.509 -17.434  1.00  0.00     0.210 HD
ENDBRANCH  37  40
BRANCH  34  42
HETATM   42  O6  UNL     1     -16.445 -54.808 -14.600  1.00  0.00    -0.392 OA
ATOM     43  H6  UNL     1     -16.790 -54.215 -13.942  1.00  0.00     0.210 HD
ENDBRANCH  34  42
ENDBRANCH  25  29
ENDBRANCH  23  25
ENDBRANCH   1  23
TORSDOF 11
ENDMDL
