MODEL 1
REMARK VINA RESULT: -7.059966872      0.000      0.000
REMARK  9 active torsions:
REMARK  status: ('A' for Active; 'I' for Inactive)
REMARK    1  A    between atoms: C2_2  and  C4_4 
REMARK    2  A    between atoms: C4_4  and  C5_5 
REMARK    3  A    between atoms: C5_5  and  C6_6 
REMARK    4  A    between atoms: C21_25  and  C22_26 
REMARK    5  A    between atoms: C22_26  and  C23_27 
REMARK    6  A    between atoms: C23_27  and  C24_28 
REMARK    7  A    between atoms: C24_28  and  N1_29 
REMARK    8  A    between atoms: C26_34  and  O4_36 
REMARK    9  A    between atoms: C28_38  and  O5_39 
ROOT
HETATM    1  C5  UNL     1      53.446  21.856  13.623  1.00  0.00     0.104 C 
HETATM    2  C7  UNL     1      54.213  21.250  14.827  1.00  0.00    -0.036 A 
HETATM    3  C8  UNL     1      55.492  21.650  15.145  1.00  0.00     0.011 A 
HETATM    4  C9  UNL     1      56.177  21.132  16.271  1.00  0.00     0.037 A 
HETATM    5  C10 UNL     1      55.635  20.215  17.113  1.00  0.00     0.068 A 
HETATM    6  C11 UNL     1      54.368  19.806  16.802  1.00  0.00     0.037 A 
HETATM    7  C12 UNL     1      53.660  20.311  15.677  1.00  0.00     0.011 A 
HETATM    8  O3  UNL     1      56.347  19.733  18.241  1.00  0.00    -0.351 OA
HETATM    9  C13 UNL     1      56.209  20.401  19.524  1.00  0.00     0.175 C 
HETATM   10  C14 UNL     1      56.869  21.749  19.380  1.00  0.00     0.027 C 
HETATM   11  C15 UNL     1      55.835  22.875  19.251  1.00  0.00     0.002 C 
HETATM   12  C16 UNL     1      56.415  24.158  18.859  1.00  0.00     0.002 C 
HETATM   13  C17 UNL     1      56.103  24.763  17.536  1.00  0.00     0.021 C 
HETATM   14  C18 UNL     1      54.645  24.823  17.288  1.00  0.00     0.090 C 
HETATM   15 CL1  UNL     1      53.966  25.391  18.877  1.00  0.00    -0.124 Cl
HETATM   16  C19 UNL     1      54.136  25.808  16.261  1.00  0.00     0.032 C 
HETATM   17  C20 UNL     1      55.134  26.977  16.408  1.00  0.00     0.016 C 
HETATM   18  C21 UNL     1      54.074  25.336  14.851  1.00  0.00    -0.042 C 
HETATM   19  C26 UNL     1      53.008  24.312  14.483  1.00  0.00     0.105 C 
HETATM   20  C27 UNL     1      52.137  23.896  15.596  1.00  0.00     0.053 C 
HETATM   21  C28 UNL     1      53.531  23.354  13.514  1.00  0.00     0.180 C 
ENDROOT
BRANCH  18  22
HETATM   22  C22 UNL     1      54.266  26.406  13.832  1.00  0.00    -0.019 C 
BRANCH  22  23
HETATM   23  C23 UNL     1      55.529  26.578  13.103  1.00  0.00     0.047 C 
BRANCH  23  24
HETATM   24  C24 UNL     1      55.156  26.728  11.591  1.00  0.00     0.126 C 
BRANCH  24  25
HETATM   25  N1  UNL     1      54.059  25.812  11.343  1.00  0.00    -0.367 N 
HETATM   26  C25 UNL     1      53.023  26.110  10.667  1.00  0.00     0.196 C 
HETATM   27  N2  UNL     1      52.011  25.134  10.489  1.00  0.00    -0.067 NA
HETATM   28  N3  UNL     1      52.853  27.386  10.087  1.00  0.00    -0.067 NA
ATOM     29  H1  UNL     1      54.122  24.873  11.736  1.00  0.00     0.161 HD
ENDBRANCH  24  25
ENDBRANCH  23  24
ENDBRANCH  22  23
ENDBRANCH  18  22
BRANCH  19  30
HETATM   30  O4  UNL     1      52.071  25.169  13.776  1.00  0.00    -0.383 OA
ATOM     31  H4  UNL     1      52.579  25.356  12.995  1.00  0.00     0.211 HD
ENDBRANCH  19  30
BRANCH  21  32
HETATM   32  O5  UNL     1      54.873  23.628  13.129  1.00  0.00    -0.391 OA
ATOM     33  H5  UNL     1      55.070  24.483  13.494  1.00  0.00     0.210 HD
ENDBRANCH  21  32
BRANCH   1  34
HETATM   34  C4  UNL     1      54.154  21.195  12.468  1.00  0.00     0.032 C 
BRANCH  34  35
HETATM   35  C2  UNL     1      54.469  19.823  12.311  1.00  0.00    -0.021 C 
HETATM   36  C1  UNL     1      53.870  19.389  10.912  1.00  0.00     0.009 C 
HETATM   37  C3  UNL     1      55.947  19.540  12.053  1.00  0.00     0.009 C 
ENDBRANCH  34  35
ENDBRANCH   1  34
BRANCH   1  38
HETATM   38  C6  UNL     1      52.063  21.464  13.446  1.00  0.00     0.189 C 
HETATM   39  O1  UNL     1      51.562  20.408  13.841  1.00  0.00    -0.647 OA
HETATM   40  O2  UNL     1      51.097  22.263  12.780  1.00  0.00    -0.647 OA
ENDBRANCH   1  38
TORSDOF 9
ENDMDL
MODEL 2
REMARK VINA RESULT: -6.950093242      6.914     10.203
REMARK  9 active torsions:
REMARK  status: ('A' for Active; 'I' for Inactive)
REMARK    1  A    between atoms: C2_2  and  C4_4 
REMARK    2  A    between atoms: C4_4  and  C5_5 
REMARK    3  A    between atoms: C5_5  and  C6_6 
REMARK    4  A    between atoms: C21_25  and  C22_26 
REMARK    5  A    between atoms: C22_26  and  C23_27 
REMARK    6  A    between atoms: C23_27  and  C24_28 
REMARK    7  A    between atoms: C24_28  and  N1_29 
REMARK    8  A    between atoms: C26_34  and  O4_36 
REMARK    9  A    between atoms: C28_38  and  O5_39 
ROOT
HETATM    1  C5  UNL     1      58.044  29.034   9.294  1.00  0.00     0.104 C 
HETATM    2  C7  UNL     1      58.784  30.393   9.192  1.00  0.00    -0.036 A 
HETATM    3  C8  UNL     1      58.137  31.588   9.422  1.00  0.00     0.011 A 
HETATM    4  C9  UNL     1      58.822  32.827   9.375  1.00  0.00     0.037 A 
HETATM    5  C10 UNL     1      60.148  32.934   9.104  1.00  0.00     0.068 A 
HETATM    6  C11 UNL     1      60.797  31.754   8.867  1.00  0.00     0.037 A 
HETATM    7  C12 UNL     1      60.133  30.497   8.908  1.00  0.00     0.011 A 
HETATM    8  O3  UNL     1      60.801  34.192   9.083  1.00  0.00    -0.351 OA
HETATM    9  C13 UNL     1      61.416  34.709  10.294  1.00  0.00     0.175 C 
HETATM   10  C14 UNL     1      60.290  35.037  11.242  1.00  0.00     0.027 C 
HETATM   11  C15 UNL     1      60.164  33.989  12.356  1.00  0.00     0.002 C 
HETATM   12  C16 UNL     1      58.942  34.122  13.146  1.00  0.00     0.002 C 
HETATM   13  C17 UNL     1      57.885  33.076  13.097  1.00  0.00     0.021 C 
HETATM   14  C18 UNL     1      58.438  31.722  13.330  1.00  0.00     0.090 C 
HETATM   15 CL1  UNL     1      59.595  31.968  14.712  1.00  0.00    -0.124 Cl
HETATM   16  C19 UNL     1      57.495  30.635  13.787  1.00  0.00     0.032 C 
HETATM   17  C20 UNL     1      56.485  31.422  14.651  1.00  0.00     0.016 C 
HETATM   18  C21 UNL     1      56.796  29.862  12.724  1.00  0.00    -0.042 C 
HETATM   19  C26 UNL     1      57.615  28.883  11.893  1.00  0.00     0.105 C 
HETATM   20  C27 UNL     1      59.043  28.811  12.246  1.00  0.00     0.053 C 
HETATM   21  C28 UNL     1      57.164  28.888  10.504  1.00  0.00     0.180 C 
ENDROOT
BRANCH  18  22
HETATM   22  C22 UNL     1      55.450  29.351  13.114  1.00  0.00    -0.019 C 
BRANCH  22  23
HETATM   23  C23 UNL     1      54.211  29.881  12.531  1.00  0.00     0.047 C 
BRANCH  23  24
HETATM   24  C24 UNL     1      53.266  28.656  12.301  1.00  0.00     0.126 C 
BRANCH  24  25
HETATM   25  N1  UNL     1      54.027  27.684  11.540  1.00  0.00    -0.367 N 
HETATM   26  C25 UNL     1      53.626  27.163  10.450  1.00  0.00     0.196 C 
HETATM   27  N2  UNL     1      54.453  26.221   9.790  1.00  0.00    -0.067 NA
HETATM   28  N3  UNL     1      52.378  27.497   9.879  1.00  0.00    -0.067 NA
ATOM     29  H1  UNL     1      54.938  27.401  11.899  1.00  0.00     0.161 HD
ENDBRANCH  24  25
ENDBRANCH  23  24
ENDBRANCH  22  23
ENDBRANCH  18  22
BRANCH  19  30
HETATM   30  O4  UNL     1      57.177  27.628  12.481  1.00  0.00    -0.383 OA
ATOM     31  H4  UNL     1      57.722  27.613  13.259  1.00  0.00     0.211 HD
ENDBRANCH  19  30
BRANCH  21  32
HETATM   32  O5  UNL     1      56.066  29.763  10.279  1.00  0.00    -0.391 OA
ATOM     33  H5  UNL     1      56.435  30.639  10.290  1.00  0.00     0.210 HD
ENDBRANCH  21  32
BRANCH   1  34
HETATM   34  C4  UNL     1      57.219  29.060   8.032  1.00  0.00     0.032 C 
BRANCH  34  35
HETATM   35  C2  UNL     1      56.515  27.988   7.431  1.00  0.00    -0.021 C 
HETATM   36  C1  UNL     1      55.106  28.569   7.006  1.00  0.00     0.009 C 
HETATM   37  C3  UNL     1      57.044  27.576   6.060  1.00  0.00     0.009 C 
ENDBRANCH  34  35
ENDBRANCH   1  34
BRANCH   1  38
HETATM   38  C6  UNL     1      58.837  27.830   9.159  1.00  0.00     0.189 C 
HETATM   39  O1  UNL     1      59.869  27.722   8.489  1.00  0.00    -0.647 OA
HETATM   40  O2  UNL     1      58.517  26.600   9.791  1.00  0.00    -0.647 OA
ENDBRANCH   1  38
TORSDOF 9
ENDMDL
MODEL 3
REMARK VINA RESULT: -6.646756477      3.812      6.781
REMARK  9 active torsions:
REMARK  status: ('A' for Active; 'I' for Inactive)
REMARK    1  A    between atoms: C2_2  and  C4_4 
REMARK    2  A    between atoms: C4_4  and  C5_5 
REMARK    3  A    between atoms: C5_5  and  C6_6 
REMARK    4  A    between atoms: C21_25  and  C22_26 
REMARK    5  A    between atoms: C22_26  and  C23_27 
REMARK    6  A    between atoms: C23_27  and  C24_28 
REMARK    7  A    between atoms: C24_28  and  N1_29 
REMARK    8  A    between atoms: C26_34  and  O4_36 
REMARK    9  A    between atoms: C28_38  and  O5_39 
ROOT
HETATM    1  C5  UNL     1      52.343  20.842  12.493  1.00  0.00     0.104 C 
HETATM    2  C7  UNL     1      52.441  22.389  12.513  1.00  0.00    -0.036 A 
HETATM    3  C8  UNL     1      52.181  23.116  13.654  1.00  0.00     0.011 A 
HETATM    4  C9  UNL     1      52.315  24.526  13.687  1.00  0.00     0.037 A 
HETATM    5  C10 UNL     1      52.704  25.261  12.614  1.00  0.00     0.068 A 
HETATM    6  C11 UNL     1      52.957  24.549  11.474  1.00  0.00     0.037 A 
HETATM    7  C12 UNL     1      52.829  23.134  11.415  1.00  0.00     0.011 A 
HETATM    8  O3  UNL     1      52.842  26.670  12.691  1.00  0.00    -0.351 OA
HETATM    9  C13 UNL     1      54.125  27.252  13.049  1.00  0.00     0.175 C 
HETATM   10  C14 UNL     1      54.366  26.906  14.496  1.00  0.00     0.027 C 
HETATM   11  C15 UNL     1      55.402  25.784  14.645  1.00  0.00     0.002 C 
HETATM   12  C16 UNL     1      55.485  25.242  15.999  1.00  0.00     0.002 C 
HETATM   13  C17 UNL     1      55.065  23.845  16.288  1.00  0.00     0.021 C 
HETATM   14  C18 UNL     1      55.702  22.877  15.366  1.00  0.00     0.090 C 
HETATM   15 CL1  UNL     1      57.427  23.447  15.276  1.00  0.00    -0.124 Cl
HETATM   16  C19 UNL     1      55.780  21.430  15.794  1.00  0.00     0.032 C 
HETATM   17  C20 UNL     1      55.948  21.551  17.324  1.00  0.00     0.016 C 
HETATM   18  C21 UNL     1      54.618  20.565  15.453  1.00  0.00    -0.042 C 
HETATM   19  C26 UNL     1      54.412  20.183  13.992  1.00  0.00     0.105 C 
HETATM   20  C27 UNL     1      55.414  20.728  13.061  1.00  0.00     0.053 C 
HETATM   21  C28 UNL     1      52.989  20.157  13.666  1.00  0.00     0.180 C 
ENDROOT
BRANCH  18  22
HETATM   22  C22 UNL     1      54.374  19.451  16.413  1.00  0.00    -0.019 C 
BRANCH  22  23
HETATM   23  C23 UNL     1      53.199  19.417  17.293  1.00  0.00     0.047 C 
BRANCH  23  24
HETATM   24  C24 UNL     1      53.237  18.042  18.037  1.00  0.00     0.126 C 
BRANCH  24  25
HETATM   25  N1  UNL     1      54.483  17.403  17.661  1.00  0.00    -0.367 N 
HETATM   26  C25 UNL     1      55.562  17.498  18.330  1.00  0.00     0.196 C 
HETATM   27  N2  UNL     1      56.722  16.830  17.866  1.00  0.00    -0.067 NA
HETATM   28  N3  UNL     1      55.635  18.251  19.522  1.00  0.00    -0.067 NA
ATOM     29  H1  UNL     1      54.496  16.844  16.808  1.00  0.00     0.161 HD
ENDBRANCH  24  25
ENDBRANCH  23  24
ENDBRANCH  22  23
ENDBRANCH  18  22
BRANCH  19  30
HETATM   30  O4  UNL     1      54.868  18.803  14.028  1.00  0.00    -0.383 OA
ATOM     31  H4  UNL     1      55.802  18.943  14.131  1.00  0.00     0.211 HD
ENDBRANCH  19  30
BRANCH  21  32
HETATM   32  O5  UNL     1      52.157  20.454  14.781  1.00  0.00    -0.391 OA
ATOM     33  H5  UNL     1      51.469  19.798  14.763  1.00  0.00     0.210 HD
ENDBRANCH  21  32
BRANCH   1  34
HETATM   34  C4  UNL     1      50.848  20.647  12.517  1.00  0.00     0.032 C 
BRANCH  34  35
HETATM   35  C2  UNL     1      49.904  21.039  11.537  1.00  0.00    -0.021 C 
HETATM   36  C1  UNL     1      48.952  19.794  11.320  1.00  0.00     0.009 C 
HETATM   37  C3  UNL     1      48.879  22.061  12.021  1.00  0.00     0.009 C 
ENDBRANCH  34  35
ENDBRANCH   1  34
BRANCH   1  38
HETATM   38  C6  UNL     1      52.757  20.162  11.283  1.00  0.00     0.189 C 
HETATM   39  O1  UNL     1      52.729  20.641  10.146  1.00  0.00    -0.647 OA
HETATM   40  O2  UNL     1      53.253  18.832  11.257  1.00  0.00    -0.647 OA
ENDBRANCH   1  38
TORSDOF 9
ENDMDL
MODEL 4
REMARK VINA RESULT: -6.621339687      3.451      5.174
REMARK  9 active torsions:
REMARK  status: ('A' for Active; 'I' for Inactive)
REMARK    1  A    between atoms: C2_2  and  C4_4 
REMARK    2  A    between atoms: C4_4  and  C5_5 
REMARK    3  A    between atoms: C5_5  and  C6_6 
REMARK    4  A    between atoms: C21_25  and  C22_26 
REMARK    5  A    between atoms: C22_26  and  C23_27 
REMARK    6  A    between atoms: C23_27  and  C24_28 
REMARK    7  A    between atoms: C24_28  and  N1_29 
REMARK    8  A    between atoms: C26_34  and  O4_36 
REMARK    9  A    between atoms: C28_38  and  O5_39 
ROOT
HETATM    1  C5  UNL     1      53.652  24.790  12.219  1.00  0.00     0.104 C 
HETATM    2  C7  UNL     1      54.123  25.030  13.677  1.00  0.00    -0.036 A 
HETATM    3  C8  UNL     1      55.458  25.159  13.993  1.00  0.00     0.011 A 
HETATM    4  C9  UNL     1      55.888  25.424  15.317  1.00  0.00     0.037 A 
HETATM    5  C10 UNL     1      55.033  25.571  16.361  1.00  0.00     0.068 A 
HETATM    6  C11 UNL     1      53.706  25.438  16.058  1.00  0.00     0.037 A 
HETATM    7  C12 UNL     1      53.249  25.171  14.738  1.00  0.00     0.011 A 
HETATM    8  O3  UNL     1      55.501  25.853  17.669  1.00  0.00    -0.351 OA
HETATM    9  C13 UNL     1      55.639  27.232  18.106  1.00  0.00     0.175 C 
HETATM   10  C14 UNL     1      56.773  27.826  17.310  1.00  0.00     0.027 C 
HETATM   11  C15 UNL     1      56.262  28.757  16.203  1.00  0.00     0.002 C 
HETATM   12  C16 UNL     1      57.296  29.156  15.251  1.00  0.00     0.002 C 
HETATM   13  C17 UNL     1      57.243  28.704  13.835  1.00  0.00     0.021 C 
HETATM   14  C18 UNL     1      55.924  28.975  13.220  1.00  0.00     0.090 C 
HETATM   15 CL1  UNL     1      55.524  30.655  13.792  1.00  0.00    -0.124 Cl
HETATM   16  C19 UNL     1      55.838  29.035  11.713  1.00  0.00     0.032 C 
HETATM   17  C20 UNL     1      57.215  29.623  11.331  1.00  0.00     0.016 C 
HETATM   18  C21 UNL     1      55.594  27.750  11.002  1.00  0.00    -0.042 C 
HETATM   19  C26 UNL     1      54.211  27.120  11.114  1.00  0.00     0.105 C 
HETATM   20  C27 UNL     1      53.249  27.876  11.934  1.00  0.00     0.053 C 
HETATM   21  C28 UNL     1      54.316  25.666  11.192  1.00  0.00     0.180 C 
ENDROOT
BRANCH  18  22
HETATM   22  C22 UNL     1      56.187  27.676   9.637  1.00  0.00    -0.019 C 
BRANCH  22  23
HETATM   23  C23 UNL     1      57.326  26.804   9.323  1.00  0.00     0.047 C 
BRANCH  23  24
HETATM   24  C24 UNL     1      56.970  26.065   7.991  1.00  0.00     0.126 C 
BRANCH  24  25
HETATM   25  N1  UNL     1      58.074  26.297   7.081  1.00  0.00    -0.367 N 
HETATM   26  C25 UNL     1      58.086  27.211   6.196  1.00  0.00     0.196 C 
HETATM   27  N2  UNL     1      59.221  27.346   5.358  1.00  0.00    -0.067 NA
HETATM   28  N3  UNL     1      56.999  28.095   6.024  1.00  0.00    -0.067 NA
ATOM     29  H1  UNL     1      58.891  25.690   7.154  1.00  0.00     0.161 HD
ENDBRANCH  24  25
ENDBRANCH  23  24
ENDBRANCH  22  23
ENDBRANCH  18  22
BRANCH  19  30
HETATM   30  O4  UNL     1      53.683  27.441   9.799  1.00  0.00    -0.383 OA
ATOM     31  H4  UNL     1      52.770  27.215   9.930  1.00  0.00     0.211 HD
ENDBRANCH  19  30
BRANCH  21  32
HETATM   32  O5  UNL     1      55.657  25.199  11.110  1.00  0.00    -0.391 OA
ATOM     33  H5  UNL     1      55.733  24.802  10.250  1.00  0.00     0.210 HD
ENDBRANCH  21  32
BRANCH   1  34
HETATM   34  C4  UNL     1      54.043  23.347  12.024  1.00  0.00     0.032 C 
BRANCH  34  35
HETATM   35  C2  UNL     1      53.568  22.214  12.730  1.00  0.00    -0.021 C 
HETATM   36  C1  UNL     1      52.889  21.275  11.652  1.00  0.00     0.009 C 
HETATM   37  C3  UNL     1      54.665  21.277  13.229  1.00  0.00     0.009 C 
ENDBRANCH  34  35
ENDBRANCH   1  34
BRANCH   1  38
HETATM   38  C6  UNL     1      52.225  24.796  11.969  1.00  0.00     0.189 C 
HETATM   39  O1  UNL     1      51.346  24.796  12.835  1.00  0.00    -0.647 OA
HETATM   40  O2  UNL     1      51.653  24.796  10.670  1.00  0.00    -0.647 OA
ENDBRANCH   1  38
TORSDOF 9
ENDMDL
MODEL 5
REMARK VINA RESULT: -6.591323616      3.025      4.508
REMARK  9 active torsions:
REMARK  status: ('A' for Active; 'I' for Inactive)
REMARK    1  A    between atoms: C2_2  and  C4_4 
REMARK    2  A    between atoms: C4_4  and  C5_5 
REMARK    3  A    between atoms: C5_5  and  C6_6 
REMARK    4  A    between atoms: C21_25  and  C22_26 
REMARK    5  A    between atoms: C22_26  and  C23_27 
REMARK    6  A    between atoms: C23_27  and  C24_28 
REMARK    7  A    between atoms: C24_28  and  N1_29 
REMARK    8  A    between atoms: C26_34  and  O4_36 
REMARK    9  A    between atoms: C28_38  and  O5_39 
ROOT
HETATM    1  C5  UNL     1      53.828  24.681  12.379  1.00  0.00     0.104 C 
HETATM    2  C7  UNL     1      53.991  24.773  13.918  1.00  0.00    -0.036 A 
HETATM    3  C8  UNL     1      55.230  24.734  14.518  1.00  0.00     0.011 A 
HETATM    4  C9  UNL     1      55.384  24.863  15.920  1.00  0.00     0.037 A 
HETATM    5  C10 UNL     1      54.340  25.036  16.770  1.00  0.00     0.068 A 
HETATM    6  C11 UNL     1      53.104  25.069  16.184  1.00  0.00     0.037 A 
HETATM    7  C12 UNL     1      52.923  24.940  14.780  1.00  0.00     0.011 A 
HETATM    8  O3  UNL     1      54.536  25.180  18.167  1.00  0.00    -0.351 OA
HETATM    9  C13 UNL     1      54.703  26.504  18.741  1.00  0.00     0.175 C 
HETATM   10  C14 UNL     1      56.034  27.020  18.256  1.00  0.00     0.027 C 
HETATM   11  C15 UNL     1      55.865  28.072  17.151  1.00  0.00     0.002 C 
HETATM   12  C16 UNL     1      57.115  28.415  16.476  1.00  0.00     0.002 C 
HETATM   13  C17 UNL     1      57.330  28.064  15.046  1.00  0.00     0.021 C 
HETATM   14  C18 UNL     1      56.207  28.517  14.193  1.00  0.00     0.090 C 
HETATM   15 CL1  UNL     1      55.851  30.190  14.812  1.00  0.00    -0.124 Cl
HETATM   16  C19 UNL     1      56.458  28.684  12.713  1.00  0.00     0.032 C 
HETATM   17  C20 UNL     1      57.933  29.140  12.682  1.00  0.00     0.016 C 
HETATM   18  C21 UNL     1      56.256  27.482  11.858  1.00  0.00    -0.042 C 
HETATM   19  C26 UNL     1      54.829  27.002  11.622  1.00  0.00     0.105 C 
HETATM   20  C27 UNL     1      53.786  27.804  12.284  1.00  0.00     0.053 C 
HETATM   21  C28 UNL     1      54.778  25.543  11.594  1.00  0.00     0.180 C 
ENDROOT
BRANCH  18  22
HETATM   22  C22 UNL     1      57.123  27.431  10.647  1.00  0.00    -0.019 C 
BRANCH  22  23
HETATM   23  C23 UNL     1      58.392  26.694  10.621  1.00  0.00     0.047 C 
BRANCH  23  24
HETATM   24  C24 UNL     1      58.378  25.825   9.320  1.00  0.00     0.126 C 
BRANCH  24  25
HETATM   25  N1  UNL     1      57.046  25.943   8.759  1.00  0.00    -0.367 N 
HETATM   26  C25 UNL     1      56.809  26.301   7.561  1.00  0.00     0.196 C 
HETATM   27  N2  UNL     1      55.465  26.384   7.119  1.00  0.00    -0.067 NA
HETATM   28  N3  UNL     1      57.848  26.620   6.659  1.00  0.00    -0.067 NA
ATOM     29  H1  UNL     1      56.251  25.727   9.360  1.00  0.00     0.161 HD
ENDBRANCH  24  25
ENDBRANCH  23  24
ENDBRANCH  22  23
ENDBRANCH  18  22
BRANCH  19  30
HETATM   30  O4  UNL     1      54.633  27.463  10.258  1.00  0.00    -0.383 OA
ATOM     31  H4  UNL     1      54.377  26.647   9.845  1.00  0.00     0.211 HD
ENDBRANCH  19  30
BRANCH  21  32
HETATM   32  O5  UNL     1      56.056  24.938  11.756  1.00  0.00    -0.391 OA
ATOM     33  H5  UNL     1      56.618  25.365  11.120  1.00  0.00     0.210 HD
ENDBRANCH  21  32
BRANCH   1  34
HETATM   34  C4  UNL     1      54.115  23.219  12.146  1.00  0.00     0.032 C 
BRANCH  34  35
HETATM   35  C2  UNL     1      53.541  22.104  12.804  1.00  0.00    -0.021 C 
HETATM   36  C1  UNL     1      52.865  21.225  11.675  1.00  0.00     0.009 C 
HETATM   37  C3  UNL     1      54.556  21.095  13.337  1.00  0.00     0.009 C 
ENDBRANCH  34  35
ENDBRANCH   1  34
BRANCH   1  38
HETATM   38  C6  UNL     1      52.497  24.859  11.836  1.00  0.00     0.189 C 
HETATM   39  O1  UNL     1      51.444  24.562  12.408  1.00  0.00    -0.647 OA
HETATM   40  O2  UNL     1      52.236  25.404  10.552  1.00  0.00    -0.647 OA
ENDBRANCH   1  38
TORSDOF 9
ENDMDL
