MODEL 1
REMARK VINA RESULT: -7.344448435      0.000      0.000
REMARK  3 active torsions:
REMARK  status: ('A' for Active; 'I' for Inactive)
REMARK    1  A    between atoms: C3_5  and  N2_6 
REMARK       I    between atoms: N2_6  and  C4_8 
REMARK    2  A    between atoms: C18_28  and  C19_29 
REMARK    3  A    between atoms: C25_35  and  O4_36 
ROOT
HETATM    1  C1  UNL     1       1.057  20.056  -9.173  1.00  0.00     0.161 C 
HETATM    2  N1  UNL     1       1.226  18.885  -8.246  1.00  0.00    -0.303 N 
HETATM    3  C2  UNL     1       2.051  17.870  -8.801  1.00  0.00     0.248 C 
HETATM    4  O1  UNL     1       3.032  18.279  -9.539  1.00  0.00    -0.271 OA
HETATM    5  C3  UNL     1       1.979  16.407  -8.681  1.00  0.00     0.178 C 
HETATM    6  C5  UNL     1       1.689  15.852 -10.066  1.00  0.00     0.035 C 
HETATM    7  C6  UNL     1       0.219  15.595 -10.275  1.00  0.00     0.002 C 
HETATM    8  C7  UNL     1      -0.335  14.710  -9.178  1.00  0.00     0.000 C 
HETATM    9  C8  UNL     1      -1.317  13.720  -9.723  1.00  0.00     0.000 C 
HETATM   10  C9  UNL     1      -1.782  12.894  -8.513  1.00  0.00     0.002 C 
HETATM   11  C10 UNL     1      -2.374  13.795  -7.453  1.00  0.00     0.030 C 
HETATM   12  C11 UNL     1      -1.437  13.972  -6.264  1.00  0.00     0.273 C 
HETATM   13  N4  UNL     1      -1.779  15.161  -5.507  1.00  0.00     0.102 N 
HETATM   14  C12 UNL     1      -2.717  14.801  -4.516  1.00  0.00     0.273 C 
HETATM   15  C13 UNL     1      -2.269  14.800  -3.103  1.00  0.00     0.030 C 
HETATM   16  C14 UNL     1      -0.839  14.321  -3.071  1.00  0.00     0.004 C 
HETATM   17  C15 UNL     1      -0.004  15.306  -3.813  1.00  0.00     0.046 C 
HETATM   18  C16 UNL     1      -0.606  15.839  -5.079  1.00  0.00     0.314 C 
HETATM   19  C17 UNL     1      -0.902  17.278  -4.882  1.00  0.00     0.252 C 
HETATM   20  O3  UNL     1      -2.172  17.516  -4.829  1.00  0.00    -0.271 OA
HETATM   21  N5  UNL     1      -0.058  18.362  -4.749  1.00  0.00    -0.347 N 
ATOM     22  H5  UNL     1      -0.196  18.891  -3.887  1.00  0.00     0.163 HD
HETATM   23  C18 UNL     1       0.992  18.893  -5.610  1.00  0.00     0.163 C 
HETATM   24  C25 UNL     1       0.585  18.928  -7.014  1.00  0.00     0.143 C 
ENDROOT
BRANCH  23  25
HETATM   25  C19 UNL     1       2.324  18.298  -5.278  1.00  0.00     0.016 C 
HETATM   26  C20 UNL     1       3.495  19.193  -5.619  1.00  0.00     0.007 C 
HETATM   27  C21 UNL     1       4.160  19.760  -4.343  1.00  0.00     0.000 C 
HETATM   28  C22 UNL     1       4.789  18.677  -3.512  1.00  0.00     0.000 C 
HETATM   29  C23 UNL     1       3.857  17.490  -3.555  1.00  0.00     0.000 C 
HETATM   30  C24 UNL     1       2.451  18.024  -3.779  1.00  0.00     0.007 C 
ENDBRANCH  23  25
BRANCH  24  31
HETATM   31  O4  UNL     1      -0.715  19.027  -7.142  1.00  0.00    -0.348 OA
ATOM     32  H4  UNL     1      -1.155  19.020  -6.301  1.00  0.00     0.219 HD
ENDBRANCH  24  31
BRANCH   5  33
HETATM   33  N2  UNL     1       3.334  15.942  -8.371  1.00  0.00    -0.332 N 
HETATM   34  C4  UNL     1       3.692  15.310  -7.162  1.00  0.00     0.329 C 
HETATM   35  N3  UNL     1       5.023  14.890  -6.933  1.00  0.00    -0.040 NA
HETATM   36  O2  UNL     1       2.826  15.115  -6.278  1.00  0.00    -0.251 OA
ATOM     37  H2  UNL     1       4.062  16.086  -9.070  1.00  0.00     0.164 HD
ENDBRANCH   5  33
TORSDOF 3
ENDMDL
MODEL 2
REMARK VINA RESULT: -7.050456858      2.660      5.555
REMARK  3 active torsions:
REMARK  status: ('A' for Active; 'I' for Inactive)
REMARK    1  A    between atoms: C3_5  and  N2_6 
REMARK       I    between atoms: N2_6  and  C4_8 
REMARK    2  A    between atoms: C18_28  and  C19_29 
REMARK    3  A    between atoms: C25_35  and  O4_36 
ROOT
HETATM    1  C1  UNL     1      -2.376  19.908  -2.868  1.00  0.00     0.161 C 
HETATM    2  N1  UNL     1      -1.522  18.680  -3.024  1.00  0.00    -0.303 N 
HETATM    3  C2  UNL     1      -0.147  18.942  -2.776  1.00  0.00     0.248 C 
HETATM    4  O1  UNL     1       0.105  19.812  -1.852  1.00  0.00    -0.271 OA
HETATM    5  C3  UNL     1       1.060  18.385  -3.401  1.00  0.00     0.178 C 
HETATM    6  C5  UNL     1       1.768  19.525  -4.115  1.00  0.00     0.035 C 
HETATM    7  C6  UNL     1       1.414  19.580  -5.579  1.00  0.00     0.002 C 
HETATM    8  C7  UNL     1       1.666  18.244  -6.246  1.00  0.00     0.000 C 
HETATM    9  C8  UNL     1       2.242  18.420  -7.616  1.00  0.00     0.000 C 
HETATM   10  C9  UNL     1       2.454  16.999  -8.160  1.00  0.00     0.002 C 
HETATM   11  C10 UNL     1       1.151  16.232  -8.158  1.00  0.00     0.030 C 
HETATM   12  C11 UNL     1       1.098  15.195  -7.043  1.00  0.00     0.273 C 
HETATM   13  N4  UNL     1      -0.271  14.816  -6.753  1.00  0.00     0.102 N 
HETATM   14  C12 UNL     1      -0.612  13.721  -7.575  1.00  0.00     0.273 C 
HETATM   15  C13 UNL     1      -0.776  12.395  -6.934  1.00  0.00     0.030 C 
HETATM   16  C14 UNL     1       0.244  12.285  -5.828  1.00  0.00     0.004 C 
HETATM   17  C15 UNL     1      -0.065  13.326  -4.808  1.00  0.00     0.046 C 
HETATM   18  C16 UNL     1      -0.465  14.665  -5.353  1.00  0.00     0.314 C 
HETATM   19  C17 UNL     1      -1.890  14.896  -5.017  1.00  0.00     0.252 C 
HETATM   20  O3  UNL     1      -2.654  14.858  -6.058  1.00  0.00    -0.271 OA
HETATM   21  N5  UNL     1      -2.503  15.133  -3.802  1.00  0.00    -0.347 N 
ATOM     22  H5  UNL     1      -3.239  14.464  -3.571  1.00  0.00     0.163 HD
HETATM   23  C18 UNL     1      -2.296  16.160  -2.788  1.00  0.00     0.163 C 
HETATM   24  C25 UNL     1      -2.145  17.490  -3.378  1.00  0.00     0.143 C 
ENDROOT
BRANCH  23  25
HETATM   25  C19 UNL     1      -1.292  15.726  -1.767  1.00  0.00     0.016 C 
HETATM   26  C20 UNL     1      -1.476  16.379  -0.415  1.00  0.00     0.007 C 
HETATM   27  C21 UNL     1      -2.008  15.370   0.629  1.00  0.00     0.000 C 
HETATM   28  C22 UNL     1      -1.013  14.280   0.910  1.00  0.00     0.000 C 
HETATM   29  C23 UNL     1      -0.376  13.913  -0.408  1.00  0.00     0.000 C 
HETATM   30  C24 UNL     1      -1.386  14.223  -1.503  1.00  0.00     0.007 C 
ENDBRANCH  23  25
BRANCH  24  31
HETATM   31  O4  UNL     1      -2.756  17.582  -4.534  1.00  0.00    -0.348 OA
ATOM     32  H4  UNL     1      -3.676  17.795  -4.432  1.00  0.00     0.219 HD
ENDBRANCH  24  31
BRANCH   5  33
HETATM   33  N2  UNL     1       1.965  18.012  -2.310  1.00  0.00    -0.332 N 
HETATM   34  C4  UNL     1       2.409  16.694  -2.071  1.00  0.00     0.329 C 
HETATM   35  N3  UNL     1       3.283  16.410  -0.996  1.00  0.00    -0.040 NA
HETATM   36  O2  UNL     1       2.029  15.762  -2.816  1.00  0.00    -0.251 OA
ATOM     37  H2  UNL     1       2.294  18.748  -1.686  1.00  0.00     0.164 HD
ENDBRANCH   5  33
TORSDOF 3
ENDMDL
MODEL 3
REMARK VINA RESULT: -6.515411506      2.789      7.124
REMARK  3 active torsions:
REMARK  status: ('A' for Active; 'I' for Inactive)
REMARK    1  A    between atoms: C3_5  and  N2_6 
REMARK       I    between atoms: N2_6  and  C4_8 
REMARK    2  A    between atoms: C18_28  and  C19_29 
REMARK    3  A    between atoms: C25_35  and  O4_36 
ROOT
HETATM    1  C1  UNL     1       0.762  18.877  -9.437  1.00  0.00     0.161 C 
HETATM    2  N1  UNL     1       1.647  18.527  -8.273  1.00  0.00    -0.303 N 
HETATM    3  C2  UNL     1       1.481  19.420  -7.180  1.00  0.00     0.248 C 
HETATM    4  O1  UNL     1       0.282  19.866  -6.991  1.00  0.00    -0.271 OA
HETATM    5  C3  UNL     1       2.459  19.935  -6.210  1.00  0.00     0.178 C 
HETATM    6  C5  UNL     1       2.558  21.438  -6.422  1.00  0.00     0.035 C 
HETATM    7  C6  UNL     1       3.716  21.806  -7.313  1.00  0.00     0.002 C 
HETATM    8  C7  UNL     1       5.009  21.217  -6.790  1.00  0.00     0.000 C 
HETATM    9  C8  UNL     1       6.147  22.176  -6.946  1.00  0.00     0.000 C 
HETATM   10  C9  UNL     1       7.375  21.455  -6.370  1.00  0.00     0.002 C 
HETATM   11  C10 UNL     1       7.603  20.143  -7.085  1.00  0.00     0.030 C 
HETATM   12  C11 UNL     1       7.198  18.948  -6.232  1.00  0.00     0.273 C 
HETATM   13  N4  UNL     1       6.972  17.776  -7.055  1.00  0.00     0.102 N 
HETATM   14  C12 UNL     1       8.192  17.077  -7.177  1.00  0.00     0.273 C 
HETATM   15  C13 UNL     1       8.322  15.779  -6.475  1.00  0.00     0.030 C 
HETATM   16  C14 UNL     1       7.582  15.884  -5.165  1.00  0.00     0.004 C 
HETATM   17  C15 UNL     1       6.138  16.096  -5.465  1.00  0.00     0.046 C 
HETATM   18  C16 UNL     1       5.846  17.045  -6.589  1.00  0.00     0.314 C 
HETATM   19  C17 UNL     1       5.254  16.270  -7.706  1.00  0.00     0.252 C 
HETATM   20  O3  UNL     1       6.051  16.182  -8.720  1.00  0.00    -0.271 OA
HETATM   21  N5  UNL     1       4.027  15.649  -7.823  1.00  0.00    -0.347 N 
ATOM     22  H5  UNL     1       4.085  14.652  -8.032  1.00  0.00     0.163 HD
HETATM   23  C18 UNL     1       2.663  16.151  -7.702  1.00  0.00     0.163 C 
HETATM   24  C25 UNL     1       2.485  17.426  -8.396  1.00  0.00     0.143 C 
ENDROOT
BRANCH  23  25
HETATM   25  C19 UNL     1       2.161  16.039  -6.297  1.00  0.00     0.016 C 
HETATM   26  C20 UNL     1       0.678  15.758  -6.199  1.00  0.00     0.007 C 
HETATM   27  C21 UNL     1       0.410  14.313  -5.719  1.00  0.00     0.000 C 
HETATM   28  C22 UNL     1       0.892  14.093  -4.312  1.00  0.00     0.000 C 
HETATM   29  C23 UNL     1       2.204  14.827  -4.175  1.00  0.00     0.000 C 
HETATM   30  C24 UNL     1       2.839  14.886  -5.557  1.00  0.00     0.007 C 
ENDBRANCH  23  25
BRANCH  24  31
HETATM   31  O4  UNL     1       3.330  17.562  -9.388  1.00  0.00    -0.348 OA
ATOM     32  H4  UNL     1       3.987  16.876  -9.391  1.00  0.00     0.219 HD
ENDBRANCH  24  31
BRANCH   5  33
HETATM   33  N2  UNL     1       1.853  19.786  -4.884  1.00  0.00    -0.332 N 
HETATM   34  C4  UNL     1       2.400  18.992  -3.854  1.00  0.00     0.329 C 
HETATM   35  N3  UNL     1       1.757  18.895  -2.598  1.00  0.00    -0.040 NA
HETATM   36  O2  UNL     1       3.465  18.363  -4.049  1.00  0.00    -0.251 OA
ATOM     37  H2  UNL     1       0.985  20.287  -4.694  1.00  0.00     0.164 HD
ENDBRANCH   5  33
TORSDOF 3
ENDMDL
MODEL 4
REMARK VINA RESULT: -6.435324635      4.498      8.243
REMARK  3 active torsions:
REMARK  status: ('A' for Active; 'I' for Inactive)
REMARK    1  A    between atoms: C3_5  and  N2_6 
REMARK       I    between atoms: N2_6  and  C4_8 
REMARK    2  A    between atoms: C18_28  and  C19_29 
REMARK    3  A    between atoms: C25_35  and  O4_36 
ROOT
HETATM    1  C1  UNL     1      -3.268  13.035  -1.173  1.00  0.00     0.161 C 
HETATM    2  N1  UNL     1      -2.353  14.228  -1.173  1.00  0.00    -0.303 N 
HETATM    3  C2  UNL     1      -1.473  14.234  -0.056  1.00  0.00     0.248 C 
HETATM    4  O1  UNL     1      -1.055  13.077   0.341  1.00  0.00    -0.271 OA
HETATM    5  C3  UNL     1      -0.949  15.353   0.741  1.00  0.00     0.178 C 
HETATM    6  C5  UNL     1      -1.495  15.198   2.151  1.00  0.00     0.035 C 
HETATM    7  C6  UNL     1      -2.733  16.031   2.371  1.00  0.00     0.002 C 
HETATM    8  C7  UNL     1      -2.480  17.480   2.012  1.00  0.00     0.000 C 
HETATM    9  C8  UNL     1      -3.149  18.405   2.979  1.00  0.00     0.000 C 
HETATM   10  C9  UNL     1      -2.801  19.823   2.501  1.00  0.00     0.002 C 
HETATM   11  C10 UNL     1      -3.255  20.027   1.074  1.00  0.00     0.030 C 
HETATM   12  C11 UNL     1      -2.087  20.014   0.094  1.00  0.00     0.273 C 
HETATM   13  N4  UNL     1      -2.545  19.737  -1.254  1.00  0.00     0.102 N 
HETATM   14  C12 UNL     1      -2.852  20.964  -1.878  1.00  0.00     0.273 C 
HETATM   15  C13 UNL     1      -1.955  21.438  -2.959  1.00  0.00     0.030 C 
HETATM   16  C14 UNL     1      -0.544  21.053  -2.591  1.00  0.00     0.004 C 
HETATM   17  C15 UNL     1      -0.465  19.566  -2.553  1.00  0.00     0.046 C 
HETATM   18  C16 UNL     1      -1.638  18.874  -1.925  1.00  0.00     0.314 C 
HETATM   19  C17 UNL     1      -2.352  18.120  -2.983  1.00  0.00     0.252 C 
HETATM   20  O3  UNL     1      -3.506  18.634  -3.259  1.00  0.00    -0.271 OA
HETATM   21  N5  UNL     1      -1.985  16.995  -3.694  1.00  0.00    -0.347 N 
ATOM     22  H5  UNL     1      -1.985  17.126  -4.706  1.00  0.00     0.163 HD
HETATM   23  C18 UNL     1      -1.597  15.655  -3.269  1.00  0.00     0.163 C 
HETATM   24  C25 UNL     1      -2.468  15.141  -2.213  1.00  0.00     0.143 C 
ENDROOT
BRANCH  23  25
HETATM   25  C19 UNL     1      -0.117  15.551  -3.073  1.00  0.00     0.016 C 
HETATM   26  C20 UNL     1       0.432  14.160  -3.301  1.00  0.00     0.007 C 
HETATM   27  C21 UNL     1       1.256  14.087  -4.607  1.00  0.00     0.000 C 
HETATM   28  C22 UNL     1       2.495  14.935  -4.533  1.00  0.00     0.000 C 
HETATM   29  C23 UNL     1       2.119  16.205  -3.811  1.00  0.00     0.000 C 
HETATM   30  C24 UNL     1       0.637  16.446  -4.057  1.00  0.00     0.007 C 
ENDBRANCH  23  25
BRANCH  24  31
HETATM   31  O4  UNL     1      -3.662  15.677  -2.264  1.00  0.00    -0.348 OA
ATOM     32  H4  UNL     1      -3.624  16.625  -2.303  1.00  0.00     0.219 HD
ENDBRANCH  24  31
BRANCH   5  33
HETATM   33  N2  UNL     1       0.494  15.134   0.875  1.00  0.00    -0.332 N 
HETATM   34  C4  UNL     1       1.474  16.034   0.406  1.00  0.00     0.329 C 
HETATM   35  N3  UNL     1       2.850  15.753   0.570  1.00  0.00    -0.040 NA
HETATM   36  O2  UNL     1       1.127  17.094  -0.163  1.00  0.00    -0.251 OA
ATOM     37  H2  UNL     1       0.808  14.280   1.335  1.00  0.00     0.164 HD
ENDBRANCH   5  33
TORSDOF 3
ENDMDL
MODEL 5
REMARK VINA RESULT: -6.415006094      1.774      2.364
REMARK  3 active torsions:
REMARK  status: ('A' for Active; 'I' for Inactive)
REMARK    1  A    between atoms: C3_5  and  N2_6 
REMARK       I    between atoms: N2_6  and  C4_8 
REMARK    2  A    between atoms: C18_28  and  C19_29 
REMARK    3  A    between atoms: C25_35  and  O4_36 
ROOT
HETATM    1  C1  UNL     1       0.892  21.271  -6.626  1.00  0.00     0.161 C 
HETATM    2  N1  UNL     1       1.368  19.847  -6.533  1.00  0.00    -0.303 N 
HETATM    3  C2  UNL     1       2.468  19.588  -7.395  1.00  0.00     0.248 C 
HETATM    4  O1  UNL     1       3.308  20.561  -7.548  1.00  0.00    -0.271 OA
HETATM    5  C3  UNL     1       2.822  18.383  -8.158  1.00  0.00     0.178 C 
HETATM    6  C5  UNL     1       2.745  18.742  -9.633  1.00  0.00     0.035 C 
HETATM    7  C6  UNL     1       1.420  18.358 -10.239  1.00  0.00     0.002 C 
HETATM    8  C7  UNL     1       1.116  16.896  -9.991  1.00  0.00     0.000 C 
HETATM    9  C8  UNL     1       0.482  16.261 -11.189  1.00  0.00     0.000 C 
HETATM   10  C9  UNL     1       0.243  14.794 -10.800  1.00  0.00     0.002 C 
HETATM   11  C10 UNL     1      -0.615  14.708  -9.558  1.00  0.00     0.030 C 
HETATM   12  C11 UNL     1       0.196  14.319  -8.328  1.00  0.00     0.273 C 
HETATM   13  N4  UNL     1      -0.499  14.692  -7.111  1.00  0.00     0.102 N 
HETATM   14  C12 UNL     1      -1.319  13.612  -6.720  1.00  0.00     0.273 C 
HETATM   15  C13 UNL     1      -0.930  12.846  -5.512  1.00  0.00     0.030 C 
HETATM   16  C14 UNL     1       0.576  12.767  -5.478  1.00  0.00     0.004 C 
HETATM   17  C15 UNL     1       1.109  14.150  -5.331  1.00  0.00     0.046 C 
HETATM   18  C16 UNL     1       0.414  15.200  -6.147  1.00  0.00     0.314 C 
HETATM   19  C17 UNL     1      -0.294  16.114  -5.220  1.00  0.00     0.252 C 
HETATM   20  O3  UNL     1      -1.579  15.991  -5.292  1.00  0.00    -0.271 OA
HETATM   21  N5  UNL     1       0.193  17.041  -4.320  1.00  0.00    -0.347 N 
ATOM     22  H5  UNL     1      -0.116  16.890  -3.360  1.00  0.00     0.163 HD
HETATM   23  C18 UNL     1       1.068  18.196  -4.487  1.00  0.00     0.163 C 
HETATM   24  C25 UNL     1       0.708  18.992  -5.660  1.00  0.00     0.143 C 
ENDROOT
BRANCH  23  25
HETATM   25  C19 UNL     1       2.506  17.825  -4.302  1.00  0.00     0.016 C 
HETATM   26  C20 UNL     1       3.379  18.974  -3.848  1.00  0.00     0.007 C 
HETATM   27  C21 UNL     1       3.820  18.797  -2.377  1.00  0.00     0.000 C 
HETATM   28  C22 UNL     1       4.712  17.600  -2.201  1.00  0.00     0.000 C 
HETATM   29  C23 UNL     1       4.161  16.506  -3.081  1.00  0.00     0.000 C 
HETATM   30  C24 UNL     1       2.666  16.749  -3.228  1.00  0.00     0.007 C 
ENDBRANCH  23  25
BRANCH  24  31
HETATM   31  O4  UNL     1      -0.561  18.867  -5.963  1.00  0.00    -0.348 OA
ATOM     32  H4  UNL     1      -1.049  18.436  -5.272  1.00  0.00     0.219 HD
ENDBRANCH  24  31
BRANCH   5  33
HETATM   33  N2  UNL     1       4.244  18.130  -7.910  1.00  0.00    -0.332 N 
HETATM   34  C4  UNL     1       4.864  16.876  -8.093  1.00  0.00     0.329 C 
HETATM   35  N3  UNL     1       6.244  16.708  -7.831  1.00  0.00    -0.040 NA
HETATM   36  O2  UNL     1       4.191  15.898  -8.490  1.00  0.00    -0.251 OA
ATOM     37  H2  UNL     1       4.820  18.907  -7.586  1.00  0.00     0.164 HD
ENDBRANCH   5  33
TORSDOF 3
ENDMDL
