MODEL 1
REMARK VINA RESULT: -6.647310906      0.000      0.000
REMARK  8 active torsions:
REMARK  status: ('A' for Active; 'I' for Inactive)
REMARK    1  A    between atoms: N1_2  and  C2_4 
REMARK    2  A    between atoms: C3_7  and  N3_8 
REMARK    3  A    between atoms: N3_8  and  C4_10 
REMARK    4  A    between atoms: C10_19  and  O1_20 
REMARK    5  A    between atoms: C12_24  and  N6_25 
REMARK    6  A    between atoms: N8_31  and  C14_32 
REMARK    7  A    between atoms: C14_32  and  C15_33 
REMARK    8  A    between atoms: C15_33  and  C16_34 
ROOT
HETATM    1  C2  UNL     1      -1.448  11.006  11.568  1.00  0.00     0.679 A 
HETATM    2  N2  UNL     1      -2.582  10.998  12.293  1.00  0.00    -0.175 N 
ATOM      3  H2  UNL     1      -2.644  11.594  13.118  1.00  0.00     0.186 HD
HETATM    4  C3  UNL     1      -3.634  10.231  11.967  1.00  0.00     0.149 A 
HETATM    5  C7  UNL     1      -3.497   9.415  10.804  1.00  0.00     0.109 A 
HETATM    6  C8  UNL     1      -2.310   9.442  10.071  1.00  0.00     0.098 A 
HETATM    7  N4  UNL     1      -1.319  10.244  10.482  1.00  0.00    -0.188 N 
ATOM      8  H4  UNL     1      -0.448  10.273   9.953  1.00  0.00     0.184 HD
HETATM    9  C9  UNL     1      -2.443   8.576   9.001  1.00  0.00     0.090 A 
HETATM   10  C10 UNL     1      -1.640   8.209   7.987  1.00  0.00     0.173 A 
HETATM   11  N5  UNL     1      -2.085   7.311   7.064  1.00  0.00    -0.170 N 
ATOM     12  H5  UNL     1      -1.483   7.028   6.290  1.00  0.00     0.186 HD
HETATM   13  C12 UNL     1      -3.318   6.803   7.182  1.00  0.00     0.679 A 
HETATM   14  N7  UNL     1      -4.114   7.171   8.197  1.00  0.00    -0.176 N 
ATOM     15  H7  UNL     1      -5.051   6.774   8.271  1.00  0.00     0.186 HD
HETATM   16  C13 UNL     1      -3.697   8.055   9.116  1.00  0.00     0.141 A 
HETATM   17  N8  UNL     1      -4.332   8.578  10.228  1.00  0.00    -0.327 N 
ENDROOT
BRANCH   4  18
HETATM   18  N3  UNL     1      -4.716  10.141  12.549  1.00  0.00    -0.339 N 
ATOM     19  H3  UNL     1      -4.930   9.163  12.745  1.00  0.00     0.164 HD
BRANCH  18  20
HETATM   20  C4  UNL     1      -5.720  10.943  13.016  1.00  0.00     0.170 C 
HETATM   21  C5  UNL     1      -6.648  11.476  11.902  1.00  0.00     0.076 C 
HETATM   22  C6  UNL     1      -5.424  12.171  13.850  1.00  0.00     0.076 C 
HETATM   23  F1  UNL     1      -6.589  10.159  13.810  1.00  0.00    -0.220 F 
ENDBRANCH  18  20
ENDBRANCH   4  18
BRANCH   1  24
HETATM   24  N1  UNL     1      -0.461  11.786  11.954  1.00  0.00    -0.230 N 
HETATM   25  C1  UNL     1      -0.659  13.237  11.992  1.00  0.00     0.165 C 
ATOM     26  H1  UNL     1       0.436  11.383  12.226  1.00  0.00     0.177 HD
ENDBRANCH   1  24
BRANCH  17  27
HETATM   27  C14 UNL     1      -5.656   8.184  10.578  1.00  0.00     0.131 C 
BRANCH  27  28
HETATM   28  C15 UNL     1      -5.700   6.820  11.211  1.00  0.00     0.024 C 
BRANCH  28  29
HETATM   29  C16 UNL     1      -6.858   6.726  12.154  1.00  0.00    -0.021 C 
HETATM   30  C17 UNL     1      -7.598   5.455  12.071  1.00  0.00     0.009 C 
HETATM   31  C18 UNL     1      -7.825   7.890  11.963  1.00  0.00     0.009 C 
ENDBRANCH  28  29
ENDBRANCH  27  28
ENDBRANCH  17  27
BRANCH  10  32
HETATM   32  O1  UNL     1      -0.364   8.711   7.839  1.00  0.00    -0.340 OA
HETATM   33  C11 UNL     1       0.733   8.123   8.552  1.00  0.00     0.211 C 
ENDBRANCH  10  32
BRANCH  13  34
HETATM   34  N6  UNL     1      -3.786   5.950   6.336  1.00  0.00    -0.234 N 
ATOM     35  H62 UNL     1      -4.792   5.783   6.342  1.00  0.00     0.174 HD
ATOM     36  H61 UNL     1      -3.181   5.456   5.680  1.00  0.00     0.174 HD
ENDBRANCH  13  34
TORSDOF 8
ENDMDL
MODEL 2
REMARK VINA RESULT: -6.642104692      1.138      1.485
REMARK  8 active torsions:
REMARK  status: ('A' for Active; 'I' for Inactive)
REMARK    1  A    between atoms: N1_2  and  C2_4 
REMARK    2  A    between atoms: C3_7  and  N3_8 
REMARK    3  A    between atoms: N3_8  and  C4_10 
REMARK    4  A    between atoms: C10_19  and  O1_20 
REMARK    5  A    between atoms: C12_24  and  N6_25 
REMARK    6  A    between atoms: N8_31  and  C14_32 
REMARK    7  A    between atoms: C14_32  and  C15_33 
REMARK    8  A    between atoms: C15_33  and  C16_34 
ROOT
HETATM    1  C2  UNL     1      -1.340  10.683  11.775  1.00  0.00     0.679 A 
HETATM    2  N2  UNL     1      -2.426  10.571  12.562  1.00  0.00    -0.175 N 
ATOM      3  H2  UNL     1      -2.456  11.092  13.438  1.00  0.00     0.186 HD
HETATM    4  C3  UNL     1      -3.470   9.796  12.233  1.00  0.00     0.149 A 
HETATM    5  C7  UNL     1      -3.380   9.087  10.997  1.00  0.00     0.109 A 
HETATM    6  C8  UNL     1      -2.241   9.221  10.200  1.00  0.00     0.098 A 
HETATM    7  N4  UNL     1      -1.254  10.021  10.621  1.00  0.00    -0.188 N 
ATOM      8  H4  UNL     1      -0.418  10.127  10.046  1.00  0.00     0.184 HD
HETATM    9  C9  UNL     1      -2.413   8.444   9.069  1.00  0.00     0.090 A 
HETATM   10  C10 UNL     1      -1.663   8.195   7.982  1.00  0.00     0.173 A 
HETATM   11  N5  UNL     1      -2.134   7.362   7.012  1.00  0.00    -0.170 N 
ATOM     12  H5  UNL     1      -1.573   7.168   6.182  1.00  0.00     0.186 HD
HETATM   13  C12 UNL     1      -3.341   6.800   7.158  1.00  0.00     0.679 A 
HETATM   14  N7  UNL     1      -4.084   7.051   8.246  1.00  0.00    -0.176 N 
ATOM     15  H7  UNL     1      -5.002   6.614   8.340  1.00  0.00     0.186 HD
HETATM   16  C13 UNL     1      -3.640   7.868   9.213  1.00  0.00     0.141 A 
HETATM   17  N8  UNL     1      -4.221   8.272  10.401  1.00  0.00    -0.327 N 
ENDROOT
BRANCH   4  18
HETATM   18  N3  UNL     1      -4.512   9.617  12.868  1.00  0.00    -0.339 N 
ATOM     19  H3  UNL     1      -5.321   9.763  12.263  1.00  0.00     0.164 HD
BRANCH  18  20
HETATM   20  C4  UNL     1      -4.921   9.285  14.129  1.00  0.00     0.170 C 
HETATM   21  C5  UNL     1      -4.398   7.911  14.602  1.00  0.00     0.076 C 
HETATM   22  C6  UNL     1      -6.389   9.252  14.497  1.00  0.00     0.076 C 
HETATM   23  F1  UNL     1      -4.331  10.187  15.045  1.00  0.00    -0.220 F 
ENDBRANCH  18  20
ENDBRANCH   4  18
BRANCH   1  24
HETATM   24  N1  UNL     1      -0.356  11.463  12.169  1.00  0.00    -0.230 N 
HETATM   25  C1  UNL     1      -0.485  12.915  12.026  1.00  0.00     0.165 C 
ATOM     26  H1  UNL     1       0.490  11.060  12.570  1.00  0.00     0.177 HD
ENDBRANCH   1  24
BRANCH  17  27
HETATM   27  C14 UNL     1      -5.508   7.800  10.792  1.00  0.00     0.131 C 
BRANCH  27  28
HETATM   28  C15 UNL     1      -5.458   6.416  11.380  1.00  0.00     0.024 C 
BRANCH  28  29
HETATM   29  C16 UNL     1      -6.811   6.018  11.879  1.00  0.00    -0.021 C 
HETATM   30  C17 UNL     1      -7.751   7.141  12.025  1.00  0.00     0.009 C 
HETATM   31  C18 UNL     1      -6.714   5.262  13.201  1.00  0.00     0.009 C 
ENDBRANCH  28  29
ENDBRANCH  27  28
ENDBRANCH  17  27
BRANCH  10  32
HETATM   32  O1  UNL     1      -0.415   8.754   7.804  1.00  0.00    -0.340 OA
HETATM   33  C11 UNL     1       0.729   8.202   8.471  1.00  0.00     0.211 C 
ENDBRANCH  10  32
BRANCH  13  34
HETATM   34  N6  UNL     1      -3.833   6.005   6.270  1.00  0.00    -0.234 N 
ATOM     35  H62 UNL     1      -3.439   6.046   5.330  1.00  0.00     0.174 HD
ATOM     36  H61 UNL     1      -4.587   5.354   6.490  1.00  0.00     0.174 HD
ENDBRANCH  13  34
TORSDOF 8
ENDMDL
MODEL 3
REMARK VINA RESULT: -6.542303538      1.263      1.685
REMARK  8 active torsions:
REMARK  status: ('A' for Active; 'I' for Inactive)
REMARK    1  A    between atoms: N1_2  and  C2_4 
REMARK    2  A    between atoms: C3_7  and  N3_8 
REMARK    3  A    between atoms: N3_8  and  C4_10 
REMARK    4  A    between atoms: C10_19  and  O1_20 
REMARK    5  A    between atoms: C12_24  and  N6_25 
REMARK    6  A    between atoms: N8_31  and  C14_32 
REMARK    7  A    between atoms: C14_32  and  C15_33 
REMARK    8  A    between atoms: C15_33  and  C16_34 
ROOT
HETATM    1  C2  UNL     1      -0.871  10.699  11.851  1.00  0.00     0.679 A 
HETATM    2  N2  UNL     1      -1.966  10.706  12.633  1.00  0.00    -0.175 N 
ATOM      3  H2  UNL     1      -1.950  11.246  13.499  1.00  0.00     0.186 HD
HETATM    4  C3  UNL     1      -3.078  10.027  12.313  1.00  0.00     0.149 A 
HETATM    5  C7  UNL     1      -3.049   9.288  11.092  1.00  0.00     0.109 A 
HETATM    6  C8  UNL     1      -1.899   9.297  10.300  1.00  0.00     0.098 A 
HETATM    7  N4  UNL     1      -0.842  10.010  10.711  1.00  0.00    -0.188 N 
ATOM      8  H4  UNL     1       0.002  10.025  10.140  1.00  0.00     0.184 HD
HETATM    9  C9  UNL     1      -2.138   8.517   9.183  1.00  0.00     0.090 A 
HETATM   10  C10 UNL     1      -1.410   8.177   8.105  1.00  0.00     0.173 A 
HETATM   11  N5  UNL     1      -1.954   7.373   7.149  1.00  0.00    -0.170 N 
ATOM     12  H5  UNL     1      -1.410   7.110   6.327  1.00  0.00     0.186 HD
HETATM   13  C12 UNL     1      -3.209   6.930   7.299  1.00  0.00     0.679 A 
HETATM   14  N7  UNL     1      -3.930   7.272   8.377  1.00  0.00    -0.176 N 
ATOM     15  H7  UNL     1      -4.885   6.926   8.474  1.00  0.00     0.186 HD
HETATM   16  C13 UNL     1      -3.415   8.063   9.330  1.00  0.00     0.141 A 
HETATM   17  N8  UNL     1      -3.961   8.544  10.507  1.00  0.00    -0.327 N 
ENDROOT
BRANCH   4  18
HETATM   18  N3  UNL     1      -4.134   9.960  12.945  1.00  0.00    -0.339 N 
ATOM     19  H3  UNL     1      -4.922  10.177  12.334  1.00  0.00     0.164 HD
BRANCH  18  20
HETATM   20  C4  UNL     1      -4.579   9.685  14.207  1.00  0.00     0.170 C 
HETATM   21  C5  UNL     1      -4.762   8.176  14.479  1.00  0.00     0.076 C 
HETATM   22  C6  UNL     1      -5.853  10.301  14.744  1.00  0.00     0.076 C 
HETATM   23  F1  UNL     1      -3.573  10.058  15.129  1.00  0.00    -0.220 F 
ENDBRANCH  18  20
ENDBRANCH   4  18
BRANCH   1  24
HETATM   24  N1  UNL     1       0.180  11.392  12.236  1.00  0.00    -0.230 N 
HETATM   25  C1  UNL     1       0.205  12.842  12.030  1.00  0.00     0.165 C 
ATOM     26  H1  UNL     1       0.972  10.921  12.674  1.00  0.00     0.177 HD
ENDBRANCH   1  24
BRANCH  17  27
HETATM   27  C14 UNL     1      -5.288   8.203  10.899  1.00  0.00     0.131 C 
BRANCH  27  28
HETATM   28  C15 UNL     1      -6.311   9.161  10.352  1.00  0.00     0.024 C 
BRANCH  28  29
HETATM   29  C16 UNL     1      -7.255   9.581  11.435  1.00  0.00    -0.021 C 
HETATM   30  C17 UNL     1      -7.951   8.462  12.091  1.00  0.00     0.009 C 
HETATM   31  C18 UNL     1      -8.283  10.584  10.917  1.00  0.00     0.009 C 
ENDBRANCH  28  29
ENDBRANCH  27  28
ENDBRANCH  17  27
BRANCH  10  32
HETATM   32  O1  UNL     1      -0.114   8.613   7.924  1.00  0.00    -0.340 OA
HETATM   33  C11 UNL     1       0.966   7.989   8.634  1.00  0.00     0.211 C 
ENDBRANCH  10  32
BRANCH  13  34
HETATM   34  N6  UNL     1      -3.769   6.168   6.424  1.00  0.00    -0.234 N 
ATOM     35  H62 UNL     1      -4.353   5.405   6.767  1.00  0.00     0.174 HD
ATOM     36  H61 UNL     1      -3.641   6.313   5.422  1.00  0.00     0.174 HD
ENDBRANCH  13  34
TORSDOF 8
ENDMDL
MODEL 4
REMARK VINA RESULT: -6.430154452      1.224      1.669
REMARK  8 active torsions:
REMARK  status: ('A' for Active; 'I' for Inactive)
REMARK    1  A    between atoms: N1_2  and  C2_4 
REMARK    2  A    between atoms: C3_7  and  N3_8 
REMARK    3  A    between atoms: N3_8  and  C4_10 
REMARK    4  A    between atoms: C10_19  and  O1_20 
REMARK    5  A    between atoms: C12_24  and  N6_25 
REMARK    6  A    between atoms: N8_31  and  C14_32 
REMARK    7  A    between atoms: C14_32  and  C15_33 
REMARK    8  A    between atoms: C15_33  and  C16_34 
ROOT
HETATM    1  C2  UNL     1      -0.545  10.921  11.786  1.00  0.00     0.679 A 
HETATM    2  N2  UNL     1      -1.659  11.075  12.524  1.00  0.00    -0.175 N 
ATOM      3  H2  UNL     1      -1.619  11.658  13.360  1.00  0.00     0.186 HD
HETATM    4  C3  UNL     1      -2.820  10.488  12.198  1.00  0.00     0.149 A 
HETATM    5  C7  UNL     1      -2.823   9.682  11.019  1.00  0.00     0.109 A 
HETATM    6  C8  UNL     1      -1.653   9.538  10.272  1.00  0.00     0.098 A 
HETATM    7  N4  UNL     1      -0.546  10.169  10.685  1.00  0.00    -0.188 N 
ATOM      8  H4  UNL     1       0.315  10.072  10.146  1.00  0.00     0.184 HD
HETATM    9  C9  UNL     1      -1.930   8.723   9.190  1.00  0.00     0.090 A 
HETATM   10  C10 UNL     1      -1.203   8.256   8.160  1.00  0.00     0.173 A 
HETATM   11  N5  UNL     1      -1.791   7.455   7.227  1.00  0.00    -0.170 N 
ATOM     12  H5  UNL     1      -1.248   7.096   6.441  1.00  0.00     0.186 HD
HETATM   13  C12 UNL     1      -3.087   7.142   7.352  1.00  0.00     0.679 A 
HETATM   14  N7  UNL     1      -3.806   7.611   8.383  1.00  0.00    -0.176 N 
ATOM     15  H7  UNL     1      -4.793   7.363   8.461  1.00  0.00     0.186 HD
HETATM   16  C13 UNL     1      -3.249   8.402   9.312  1.00  0.00     0.141 A 
HETATM   17  N8  UNL     1      -3.783   8.997  10.440  1.00  0.00    -0.327 N 
ENDROOT
BRANCH   4  18
HETATM   18  N3  UNL     1      -3.898  10.557  12.792  1.00  0.00    -0.339 N 
ATOM     19  H3  UNL     1      -4.332   9.635  12.839  1.00  0.00     0.164 HD
BRANCH  18  20
HETATM   20  C4  UNL     1      -4.693  11.483  13.407  1.00  0.00     0.170 C 
HETATM   21  C5  UNL     1      -5.065  12.674  12.499  1.00  0.00     0.076 C 
HETATM   22  C6  UNL     1      -4.275  12.141  14.704  1.00  0.00     0.076 C 
HETATM   23  F1  UNL     1      -5.945  10.886  13.685  1.00  0.00    -0.220 F 
ENDBRANCH  18  20
ENDBRANCH   4  18
BRANCH   1  24
HETATM   24  N1  UNL     1       0.556  11.530  12.173  1.00  0.00    -0.230 N 
HETATM   25  C1  UNL     1       0.672  12.000  13.556  1.00  0.00     0.165 C 
ATOM     26  H1  UNL     1       1.321  11.675  11.515  1.00  0.00     0.177 HD
ENDBRANCH   1  24
BRANCH  17  27
HETATM   27  C14 UNL     1      -5.150   8.806  10.799  1.00  0.00     0.131 C 
BRANCH  27  28
HETATM   28  C15 UNL     1      -6.042   9.887  10.253  1.00  0.00     0.024 C 
BRANCH  28  29
HETATM   29  C16 UNL     1      -7.444   9.695  10.741  1.00  0.00    -0.021 C 
HETATM   30  C17 UNL     1      -8.112  10.942  11.151  1.00  0.00     0.009 C 
HETATM   31  C18 UNL     1      -7.499   8.689  11.886  1.00  0.00     0.009 C 
ENDBRANCH  28  29
ENDBRANCH  27  28
ENDBRANCH  17  27
BRANCH  10  32
HETATM   32  O1  UNL     1       0.134   8.556   8.005  1.00  0.00    -0.340 OA
HETATM   33  C11 UNL     1       1.128   7.846   8.759  1.00  0.00     0.211 C 
ENDBRANCH  10  32
BRANCH  13  34
HETATM   34  N6  UNL     1      -3.690   6.389   6.498  1.00  0.00    -0.234 N 
ATOM     35  H62 UNL     1      -3.389   6.444   5.525  1.00  0.00     0.174 HD
ATOM     36  H61 UNL     1      -4.441   5.756   6.774  1.00  0.00     0.174 HD
ENDBRANCH  13  34
TORSDOF 8
ENDMDL
MODEL 5
REMARK VINA RESULT: -6.304337053      1.888      2.277
REMARK  8 active torsions:
REMARK  status: ('A' for Active; 'I' for Inactive)
REMARK    1  A    between atoms: N1_2  and  C2_4 
REMARK    2  A    between atoms: C3_7  and  N3_8 
REMARK    3  A    between atoms: N3_8  and  C4_10 
REMARK    4  A    between atoms: C10_19  and  O1_20 
REMARK    5  A    between atoms: C12_24  and  N6_25 
REMARK    6  A    between atoms: N8_31  and  C14_32 
REMARK    7  A    between atoms: C14_32  and  C15_33 
REMARK    8  A    between atoms: C15_33  and  C16_34 
ROOT
HETATM    1  C2  UNL     1      -1.486   9.883  12.430  1.00  0.00     0.679 A 
HETATM    2  N2  UNL     1      -2.416   9.405  13.278  1.00  0.00    -0.175 N 
ATOM      3  H2  UNL     1      -2.412   9.726  14.246  1.00  0.00     0.186 HD
HETATM    4  C3  UNL     1      -3.348   8.521  12.892  1.00  0.00     0.149 A 
HETATM    5  C7  UNL     1      -3.312   8.104  11.527  1.00  0.00     0.109 A 
HETATM    6  C8  UNL     1      -2.336   8.615  10.670  1.00  0.00     0.098 A 
HETATM    7  N4  UNL     1      -1.451   9.495  11.156  1.00  0.00    -0.188 N 
ATOM      8  H4  UNL     1      -0.734   9.876  10.538  1.00  0.00     0.184 HD
HETATM    9  C9  UNL     1      -2.528   8.061   9.417  1.00  0.00     0.090 A 
HETATM   10  C10 UNL     1      -1.907   8.186   8.232  1.00  0.00     0.173 A 
HETATM   11  N5  UNL     1      -2.360   7.487   7.154  1.00  0.00    -0.170 N 
ATOM     12  H5  UNL     1      -1.895   7.576   6.250  1.00  0.00     0.186 HD
HETATM   13  C12 UNL     1      -3.420   6.680   7.292  1.00  0.00     0.679 A 
HETATM   14  N7  UNL     1      -4.035   6.558   8.478  1.00  0.00    -0.176 N 
ATOM     15  H7  UNL     1      -4.842   5.939   8.565  1.00  0.00     0.186 HD
HETATM   16  C13 UNL     1      -3.607   7.238   9.552  1.00  0.00     0.141 A 
HETATM   17  N8  UNL     1      -4.076   7.274  10.853  1.00  0.00    -0.327 N 
ENDROOT
BRANCH   4  18
HETATM   18  N3  UNL     1      -4.244   8.018  13.573  1.00  0.00    -0.339 N 
ATOM     19  H3  UNL     1      -5.151   8.178  13.133  1.00  0.00     0.164 HD
BRANCH  18  20
HETATM   20  C4  UNL     1      -4.402   7.312  14.732  1.00  0.00     0.170 C 
HETATM   21  C5  UNL     1      -3.977   5.832  14.614  1.00  0.00     0.076 C 
HETATM   22  C6  UNL     1      -5.741   7.242  15.435  1.00  0.00     0.076 C 
HETATM   23  F1  UNL     1      -3.506   7.828  15.698  1.00  0.00    -0.220 F 
ENDBRANCH  18  20
ENDBRANCH   4  18
BRANCH   1  24
HETATM   24  N1  UNL     1      -0.606  10.748  12.887  1.00  0.00    -0.230 N 
HETATM   25  C1  UNL     1       0.149  11.577  11.944  1.00  0.00     0.165 C 
ATOM     26  H1  UNL     1      -0.450  10.841  13.891  1.00  0.00     0.177 HD
ENDBRANCH   1  24
BRANCH  17  27
HETATM   27  C14 UNL     1      -5.195   6.490  11.257  1.00  0.00     0.131 C 
BRANCH  27  28
HETATM   28  C15 UNL     1      -6.478   7.276  11.255  1.00  0.00     0.024 C 
BRANCH  28  29
HETATM   29  C16 UNL     1      -7.427   6.718  12.269  1.00  0.00    -0.021 C 
HETATM   30  C17 UNL     1      -7.778   5.305  12.047  1.00  0.00     0.009 C 
HETATM   31  C18 UNL     1      -8.703   7.551  12.352  1.00  0.00     0.009 C 
ENDBRANCH  28  29
ENDBRANCH  27  28
ENDBRANCH  17  27
BRANCH  10  32
HETATM   32  O1  UNL     1      -0.810   9.005   8.058  1.00  0.00    -0.340 OA
HETATM   33  C11 UNL     1       0.497   8.557   8.443  1.00  0.00     0.211 C 
ENDBRANCH  10  32
BRANCH  13  34
HETATM   34  N6  UNL     1      -3.887   5.997   6.305  1.00  0.00    -0.234 N 
ATOM     35  H62 UNL     1      -4.727   6.347   5.844  1.00  0.00     0.174 HD
ATOM     36  H61 UNL     1      -3.441   5.136   5.987  1.00  0.00     0.174 HD
ENDBRANCH  13  34
TORSDOF 8
ENDMDL
