MODEL 1
REMARK VINA RESULT: -6.312762442      0.000      0.000
REMARK  8 active torsions:
REMARK  status: ('A' for Active; 'I' for Inactive)
REMARK    1  A    between atoms: O1_2  and  C2_3 
REMARK    2  A    between atoms: C3_4  and  C5_6 
REMARK    3  A    between atoms: C6_7  and  O2_8 
REMARK    4  A    between atoms: C7_10  and  O3_11 
REMARK    5  A    between atoms: C8_13  and  O4_15 
REMARK    6  A    between atoms: C10_17  and  O5_18 
REMARK    7  A    between atoms: C10_17  and  N1_20 
REMARK    8  A    between atoms: N1_20  and  O6_21 
ROOT
HETATM    1  C5  UNL     1       1.058   3.563  54.366  1.00  0.00     0.104 C 
HETATM    2  C6  UNL     1       1.950   2.659  53.546  1.00  0.00     0.162 C 
HETATM    3  C7  UNL     1       1.229   1.343  53.570  1.00  0.00     0.186 C 
HETATM    4  C8  UNL     1       0.079   1.486  54.520  1.00  0.00     0.131 C 
HETATM    5  C9  UNL     1      -0.274   0.260  55.269  1.00  0.00     0.053 C 
HETATM    6  C10 UNL     1       0.560   2.625  55.427  1.00  0.00     0.197 C 
ENDROOT
BRANCH   1   7
HETATM    7  C3  UNL     1       1.790   4.744  54.861  1.00  0.00    -0.051 C 
HETATM    8  C2  UNL     1       1.600   5.419  55.948  1.00  0.00     0.137 C 
HETATM    9  C4  UNL     1       2.901   5.226  53.954  1.00  0.00     0.046 C 
BRANCH   8  10
HETATM   10  O1  UNL     1       2.388   6.515  56.224  1.00  0.00    -0.368 OA
HETATM   11  C1  UNL     1       1.752   7.759  56.516  1.00  0.00     0.208 C 
ENDBRANCH   8  10
ENDBRANCH   1   7
BRANCH   2  12
HETATM   12  O2  UNL     1       3.191   2.605  54.159  1.00  0.00    -0.392 OA
ATOM     13  H2  UNL     1       3.060   2.667  55.097  1.00  0.00     0.210 HD
ENDBRANCH   2  12
BRANCH   6  14
HETATM   14  O5  UNL     1       1.520   2.092  56.245  1.00  0.00    -0.369 OA
ATOM     15  H5  UNL     1       1.216   1.437  56.863  1.00  0.00     0.212 HD
ENDBRANCH   6  14
BRANCH   6  16
HETATM   16  N1  UNL     1      -0.577   3.200  56.115  1.00  0.00    -0.060 NA
BRANCH  16  17
HETATM   17  O6  UNL     1      -0.499   3.105  57.425  1.00  0.00    -0.293 OA
ATOM     18  H6  UNL     1      -0.866   3.854  57.881  1.00  0.00     0.238 HD
ENDBRANCH  16  17
ENDBRANCH   6  16
BRANCH   3  19
HETATM   19  O3  UNL     1       0.790   1.025  52.265  1.00  0.00    -0.390 OA
ATOM     20  H3  UNL     1       1.211   1.604  51.641  1.00  0.00     0.210 HD
ENDBRANCH   3  19
BRANCH   4  21
HETATM   21  O4  UNL     1      -1.025   1.947  53.811  1.00  0.00    -0.383 OA
ATOM     22  H4  UNL     1      -1.773   1.965  54.396  1.00  0.00     0.210 HD
ENDBRANCH   4  21
TORSDOF 8
ENDMDL
MODEL 2
REMARK VINA RESULT: -6.089328279      1.995      4.048
REMARK  8 active torsions:
REMARK  status: ('A' for Active; 'I' for Inactive)
REMARK    1  A    between atoms: O1_2  and  C2_3 
REMARK    2  A    between atoms: C3_4  and  C5_6 
REMARK    3  A    between atoms: C6_7  and  O2_8 
REMARK    4  A    between atoms: C7_10  and  O3_11 
REMARK    5  A    between atoms: C8_13  and  O4_15 
REMARK    6  A    between atoms: C10_17  and  O5_18 
REMARK    7  A    between atoms: C10_17  and  N1_20 
REMARK    8  A    between atoms: N1_20  and  O6_21 
ROOT
HETATM    1  C5  UNL     1       0.949   1.641  55.144  1.00  0.00     0.104 C 
HETATM    2  C6  UNL     1       0.651   1.027  53.795  1.00  0.00     0.162 C 
HETATM    3  C7  UNL     1       1.513   1.820  52.855  1.00  0.00     0.186 C 
HETATM    4  C8  UNL     1       2.117   2.939  53.646  1.00  0.00     0.131 C 
HETATM    5  C9  UNL     1       2.331   4.196  52.896  1.00  0.00     0.053 C 
HETATM    6  C10 UNL     1       1.112   3.091  54.795  1.00  0.00     0.197 C 
ENDROOT
BRANCH   1   7
HETATM    7  C3  UNL     1      -0.114   1.343  56.123  1.00  0.00    -0.051 C 
HETATM    8  C2  UNL     1      -0.962   2.152  56.670  1.00  0.00     0.137 C 
HETATM    9  C4  UNL     1      -0.199  -0.109  56.542  1.00  0.00     0.046 C 
BRANCH   8  10
HETATM   10  O1  UNL     1      -1.876   1.675  57.585  1.00  0.00    -0.368 OA
HETATM   11  C1  UNL     1      -2.322   2.546  58.624  1.00  0.00     0.208 C 
ENDBRANCH   8  10
ENDBRANCH   1   7
BRANCH   2  12
HETATM   12  O2  UNL     1      -0.702   1.176  53.542  1.00  0.00    -0.392 OA
ATOM     13  H2  UNL     1      -1.155   0.424  53.904  1.00  0.00     0.210 HD
ENDBRANCH   2  12
BRANCH   6  14
HETATM   14  O5  UNL     1       0.007   3.702  54.268  1.00  0.00    -0.369 OA
ATOM     15  H5  UNL     1       0.178   4.453  53.711  1.00  0.00     0.212 HD
ENDBRANCH   6  14
BRANCH   6  16
HETATM   16  N1  UNL     1       1.741   3.806  55.888  1.00  0.00    -0.060 NA
BRANCH  16  17
HETATM   17  O6  UNL     1       1.159   4.952  56.166  1.00  0.00    -0.293 OA
ATOM     18  H6  UNL     1       0.462   5.178  55.561  1.00  0.00     0.238 HD
ENDBRANCH  16  17
ENDBRANCH   6  16
BRANCH   3  19
HETATM   19  O3  UNL     1       2.503   0.977  52.303  1.00  0.00    -0.390 OA
ATOM     20  H3  UNL     1       3.342   1.422  52.323  1.00  0.00     0.210 HD
ENDBRANCH   3  19
BRANCH   4  21
HETATM   21  O4  UNL     1       3.318   2.497  54.190  1.00  0.00    -0.383 OA
ATOM     22  H4  UNL     1       4.030   2.815  53.646  1.00  0.00     0.210 HD
ENDBRANCH   4  21
TORSDOF 8
ENDMDL
MODEL 3
REMARK VINA RESULT: -6.028480926      2.220      3.798
REMARK  8 active torsions:
REMARK  status: ('A' for Active; 'I' for Inactive)
REMARK    1  A    between atoms: O1_2  and  C2_3 
REMARK    2  A    between atoms: C3_4  and  C5_6 
REMARK    3  A    between atoms: C6_7  and  O2_8 
REMARK    4  A    between atoms: C7_10  and  O3_11 
REMARK    5  A    between atoms: C8_13  and  O4_15 
REMARK    6  A    between atoms: C10_17  and  O5_18 
REMARK    7  A    between atoms: C10_17  and  N1_20 
REMARK    8  A    between atoms: N1_20  and  O6_21 
ROOT
HETATM    1  C5  UNL     1       1.893   1.839  53.926  1.00  0.00     0.104 C 
HETATM    2  C6  UNL     1       0.851   1.265  52.994  1.00  0.00     0.162 C 
HETATM    3  C7  UNL     1       1.660   0.769  51.831  1.00  0.00     0.186 C 
HETATM    4  C8  UNL     1       3.071   1.223  52.048  1.00  0.00     0.131 C 
HETATM    5  C9  UNL     1       3.827   1.541  50.817  1.00  0.00     0.053 C 
HETATM    6  C10 UNL     1       2.874   2.439  52.961  1.00  0.00     0.197 C 
ENDROOT
BRANCH   1   7
HETATM    7  C3  UNL     1       1.298   2.784  54.890  1.00  0.00    -0.051 C 
HETATM    8  C2  UNL     1       1.509   4.053  55.018  1.00  0.00     0.137 C 
HETATM    9  C4  UNL     1       0.320   2.162  55.864  1.00  0.00     0.046 C 
BRANCH   8  10
HETATM   10  O1  UNL     1       0.860   4.764  56.004  1.00  0.00    -0.368 OA
HETATM   11  C1  UNL     1       1.471   5.953  56.505  1.00  0.00     0.208 C 
ENDBRANCH   8  10
ENDBRANCH   1   7
BRANCH   2  12
HETATM   12  O2  UNL     1      -0.025   2.280  52.648  1.00  0.00    -0.392 OA
ATOM     13  H2  UNL     1      -0.616   1.947  51.983  1.00  0.00     0.210 HD
ENDBRANCH   2  12
BRANCH   6  14
HETATM   14  O5  UNL     1       2.388   3.445  52.170  1.00  0.00    -0.369 OA
ATOM     15  H5  UNL     1       2.615   3.390  51.250  1.00  0.00     0.212 HD
ENDBRANCH   6  14
BRANCH   6  16
HETATM   16  N1  UNL     1       4.122   2.739  53.632  1.00  0.00    -0.060 NA
BRANCH  16  17
HETATM   17  O6  UNL     1       4.607   3.924  53.328  1.00  0.00    -0.293 OA
ATOM     18  H6  UNL     1       5.557   3.951  53.317  1.00  0.00     0.238 HD
ENDBRANCH  16  17
ENDBRANCH   6  16
BRANCH   3  19
HETATM   19  O3  UNL     1       1.569  -0.638  51.762  1.00  0.00    -0.390 OA
ATOM     20  H3  UNL     1       2.045  -0.949  51.001  1.00  0.00     0.210 HD
ENDBRANCH   3  19
BRANCH   4  21
HETATM   21  O4  UNL     1       3.740   0.248  52.780  1.00  0.00    -0.383 OA
ATOM     22  H4  UNL     1       4.292   0.679  53.422  1.00  0.00     0.210 HD
ENDBRANCH   4  21
TORSDOF 8
ENDMDL
MODEL 4
REMARK VINA RESULT: -5.849831359      2.442      4.214
REMARK  8 active torsions:
REMARK  status: ('A' for Active; 'I' for Inactive)
REMARK    1  A    between atoms: O1_2  and  C2_3 
REMARK    2  A    between atoms: C3_4  and  C5_6 
REMARK    3  A    between atoms: C6_7  and  O2_8 
REMARK    4  A    between atoms: C7_10  and  O3_11 
REMARK    5  A    between atoms: C8_13  and  O4_15 
REMARK    6  A    between atoms: C10_17  and  O5_18 
REMARK    7  A    between atoms: C10_17  and  N1_20 
REMARK    8  A    between atoms: N1_20  and  O6_21 
ROOT
HETATM    1  C5  UNL     1       1.832   1.884  53.900  1.00  0.00     0.104 C 
HETATM    2  C6  UNL     1       1.620   1.028  52.672  1.00  0.00     0.162 C 
HETATM    3  C7  UNL     1       2.889   1.216  51.893  1.00  0.00     0.186 C 
HETATM    4  C8  UNL     1       3.683   2.277  52.590  1.00  0.00     0.131 C 
HETATM    5  C9  UNL     1       4.498   3.138  51.705  1.00  0.00     0.053 C 
HETATM    6  C10 UNL     1       2.589   3.051  53.335  1.00  0.00     0.197 C 
ENDROOT
BRANCH   1   7
HETATM    7  C3  UNL     1       0.555   2.218  54.557  1.00  0.00    -0.051 C 
HETATM    8  C2  UNL     1       0.341   2.570  55.783  1.00  0.00     0.137 C 
HETATM    9  C4  UNL     1      -0.662   2.115  53.663  1.00  0.00     0.046 C 
BRANCH   8  10
HETATM   10  O1  UNL     1      -0.943   2.826  56.212  1.00  0.00    -0.368 OA
HETATM   11  C1  UNL     1      -1.302   2.471  57.547  1.00  0.00     0.208 C 
ENDBRANCH   8  10
ENDBRANCH   1   7
BRANCH   2  12
HETATM   12  O2  UNL     1       0.502   1.500  52.005  1.00  0.00    -0.392 OA
ATOM     13  H2  UNL     1      -0.175   0.836  52.053  1.00  0.00     0.210 HD
ENDBRANCH   2  12
BRANCH   6  14
HETATM   14  O5  UNL     1       1.923   3.789  52.393  1.00  0.00    -0.369 OA
ATOM     15  H5  UNL     1       1.672   3.320  51.607  1.00  0.00     0.212 HD
ENDBRANCH   6  14
BRANCH   6  16
HETATM   16  N1  UNL     1       3.192   3.824  54.402  1.00  0.00    -0.060 NA
BRANCH  16  17
HETATM   17  O6  UNL     1       3.156   5.122  54.191  1.00  0.00    -0.293 OA
ATOM     18  H6  UNL     1       3.633   5.624  54.842  1.00  0.00     0.238 HD
ENDBRANCH  16  17
ENDBRANCH   6  16
BRANCH   3  19
HETATM   19  O3  UNL     1       3.591  -0.009  51.838  1.00  0.00    -0.390 OA
ATOM     20  H3  UNL     1       3.209  -0.561  51.165  1.00  0.00     0.210 HD
ENDBRANCH   3  19
BRANCH   4  21
HETATM   21  O4  UNL     1       4.494   1.668  53.542  1.00  0.00    -0.383 OA
ATOM     22  H4  UNL     1       4.902   2.346  54.068  1.00  0.00     0.210 HD
ENDBRANCH   4  21
TORSDOF 8
ENDMDL
MODEL 5
REMARK VINA RESULT: -5.829210488      2.379      3.700
REMARK  8 active torsions:
REMARK  status: ('A' for Active; 'I' for Inactive)
REMARK    1  A    between atoms: O1_2  and  C2_3 
REMARK    2  A    between atoms: C3_4  and  C5_6 
REMARK    3  A    between atoms: C6_7  and  O2_8 
REMARK    4  A    between atoms: C7_10  and  O3_11 
REMARK    5  A    between atoms: C8_13  and  O4_15 
REMARK    6  A    between atoms: C10_17  and  O5_18 
REMARK    7  A    between atoms: C10_17  and  N1_20 
REMARK    8  A    between atoms: N1_20  and  O6_21 
ROOT
HETATM    1  C5  UNL     1      -0.991   1.931  55.936  1.00  0.00     0.104 C 
HETATM    2  C6  UNL     1      -1.054   0.422  55.880  1.00  0.00     0.162 C 
HETATM    3  C7  UNL     1      -1.965   0.068  57.019  1.00  0.00     0.186 C 
HETATM    4  C8  UNL     1      -2.242   1.333  57.774  1.00  0.00     0.131 C 
HETATM    5  C9  UNL     1      -2.424   1.169  59.232  1.00  0.00     0.053 C 
HETATM    6  C10 UNL     1      -1.019   2.187  57.415  1.00  0.00     0.197 C 
ENDROOT
BRANCH   1   7
HETATM    7  C3  UNL     1       0.193   2.452  55.228  1.00  0.00    -0.051 C 
HETATM    8  C2  UNL     1       1.185   3.135  55.699  1.00  0.00     0.137 C 
HETATM    9  C4  UNL     1       0.226   2.150  53.745  1.00  0.00     0.046 C 
BRANCH   8  10
HETATM   10  O1  UNL     1       2.196   3.548  54.860  1.00  0.00    -0.368 OA
HETATM   11  C1  UNL     1       2.400   4.948  54.671  1.00  0.00     0.208 C 
ENDBRANCH   8  10
ENDBRANCH   1   7
BRANCH   2  12
HETATM   12  O2  UNL     1       0.230  -0.070  56.045  1.00  0.00    -0.392 OA
ATOM     13  H2  UNL     1       0.836   0.543  55.645  1.00  0.00     0.210 HD
ENDBRANCH   2  12
BRANCH   6  14
HETATM   14  O5  UNL     1       0.035   1.676  58.125  1.00  0.00    -0.369 OA
ATOM     15  H5  UNL     1       0.870   2.107  57.989  1.00  0.00     0.212 HD
ENDBRANCH   6  14
BRANCH   6  16
HETATM   16  N1  UNL     1      -1.315   3.580  57.681  1.00  0.00    -0.060 NA
BRANCH  16  17
HETATM   17  O6  UNL     1      -0.572   4.099  58.634  1.00  0.00    -0.293 OA
ATOM     18  H6  UNL     1      -1.027   4.753  59.153  1.00  0.00     0.238 HD
ENDBRANCH  16  17
ENDBRANCH   6  16
BRANCH   3  19
HETATM   19  O3  UNL     1      -3.152  -0.504  56.510  1.00  0.00    -0.390 OA
ATOM     20  H3  UNL     1      -3.863  -0.354  57.122  1.00  0.00     0.210 HD
ENDBRANCH   3  19
BRANCH   4  21
HETATM   21  O4  UNL     1      -3.361   1.943  57.218  1.00  0.00    -0.383 OA
ATOM     22  H4  UNL     1      -3.589   2.696  57.750  1.00  0.00     0.210 HD
ENDBRANCH   4  21
TORSDOF 8
ENDMDL
