MODEL 1
REMARK VINA RESULT: -6.768401683      0.000      0.000
REMARK  7 active torsions:
REMARK  status: ('A' for Active; 'I' for Inactive)
REMARK    1  A    between atoms: O1_1  and  C1_3 
REMARK    2  A    between atoms: C1_3  and  C2_4 
REMARK    3  A    between atoms: C3_6  and  C4_7 
REMARK    4  A    between atoms: C7_10  and  O3_11 
REMARK    5  A    between atoms: C8_13  and  O4_14 
REMARK    6  A    between atoms: C9_16  and  O5_17 
REMARK    7  A    between atoms: C10_19  and  O6_20 
ROOT
HETATM    1  C2  UNL     1      -0.646   0.685  55.903  1.00  0.00     0.176 C 
HETATM    2  O2  UNL     1      -0.039   0.663  54.661  1.00  0.00    -0.373 OA
HETATM    3  C3  UNL     1       0.878   1.702  54.624  1.00  0.00     0.160 C 
HETATM    4  C9  UNL     1       0.126   2.821  55.333  1.00  0.00     0.178 C 
HETATM    5  C10 UNL     1      -0.493   2.051  56.481  1.00  0.00     0.180 C 
ENDROOT
BRANCH   3   6
HETATM    6  C4  UNL     1       1.175   2.074  53.182  1.00  0.00     0.049 C 
HETATM    7  C5  UNL     1       1.085   0.782  52.379  1.00  0.00     0.012 C 
HETATM    8  C6  UNL     1       2.459   0.579  51.771  1.00  0.00     0.035 C 
HETATM    9  C7  UNL     1       2.955   2.006  51.652  1.00  0.00     0.147 C 
HETATM   10  C8  UNL     1       2.606   2.537  53.044  1.00  0.00     0.153 C 
BRANCH   9  11
HETATM   11  O3  UNL     1       4.313   2.077  51.419  1.00  0.00    -0.393 OA
ATOM     12  H3  UNL     1       4.616   2.969  51.296  1.00  0.00     0.210 HD
ENDBRANCH   9  11
BRANCH  10  13
HETATM   13  O4  UNL     1       2.742   3.905  53.119  1.00  0.00    -0.393 OA
ATOM     14  H4  UNL     1       3.616   4.206  52.900  1.00  0.00     0.210 HD
ENDBRANCH  10  13
ENDBRANCH   3   6
BRANCH   4  15
HETATM   15  O5  UNL     1       0.955   3.834  55.755  1.00  0.00    -0.390 OA
ATOM     16  H5  UNL     1       1.004   3.898  56.702  1.00  0.00     0.210 HD
ENDBRANCH   4  15
BRANCH   1  17
HETATM   17  C1  UNL     1      -2.101   0.298  55.746  1.00  0.00     0.198 C 
BRANCH  17  18
HETATM   18  O1  UNL     1      -2.707   0.899  54.664  1.00  0.00    -0.398 OA
ATOM     19  H1  UNL     1      -3.186   1.687  54.894  1.00  0.00     0.209 HD
ENDBRANCH  17  18
ENDBRANCH   1  17
BRANCH   5  20
HETATM   20  O6  UNL     1      -1.715   2.606  56.872  1.00  0.00    -0.390 OA
ATOM     21  H6  UNL     1      -1.630   3.182  57.622  1.00  0.00     0.210 HD
ENDBRANCH   5  20
TORSDOF 7
ENDMDL
MODEL 2
REMARK VINA RESULT: -6.673687193      1.293      5.161
REMARK  7 active torsions:
REMARK  status: ('A' for Active; 'I' for Inactive)
REMARK    1  A    between atoms: O1_1  and  C1_3 
REMARK    2  A    between atoms: C1_3  and  C2_4 
REMARK    3  A    between atoms: C3_6  and  C4_7 
REMARK    4  A    between atoms: C7_10  and  O3_11 
REMARK    5  A    between atoms: C8_13  and  O4_14 
REMARK    6  A    between atoms: C9_16  and  O5_17 
REMARK    7  A    between atoms: C10_19  and  O6_20 
ROOT
HETATM    1  C2  UNL     1       2.111   1.643  52.056  1.00  0.00     0.176 C 
HETATM    2  O2  UNL     1       1.298   1.289  53.117  1.00  0.00    -0.373 OA
HETATM    3  C3  UNL     1       1.254   2.366  53.989  1.00  0.00     0.160 C 
HETATM    4  C9  UNL     1       2.697   2.853  53.973  1.00  0.00     0.178 C 
HETATM    5  C10 UNL     1       3.004   2.753  52.494  1.00  0.00     0.180 C 
ENDROOT
BRANCH   3   6
HETATM    6  C4  UNL     1       0.855   1.890  55.374  1.00  0.00     0.049 C 
HETATM    7  C5  UNL     1       0.015   0.635  55.170  1.00  0.00     0.012 C 
HETATM    8  C6  UNL     1      -1.346   0.950  55.760  1.00  0.00     0.035 C 
HETATM    9  C7  UNL     1      -0.991   1.967  56.824  1.00  0.00     0.147 C 
HETATM   10  C8  UNL     1      -0.068   2.892  56.027  1.00  0.00     0.153 C 
BRANCH   9  11
HETATM   11  O3  UNL     1      -2.094   2.650  57.294  1.00  0.00    -0.393 OA
ATOM     12  H3  UNL     1      -2.628   3.005  56.593  1.00  0.00     0.210 HD
ENDBRANCH   9  11
BRANCH  10  13
HETATM   13  O4  UNL     1       0.592   3.785  56.842  1.00  0.00    -0.393 OA
ATOM     14  H4  UNL     1       0.642   4.659  56.474  1.00  0.00     0.210 HD
ENDBRANCH  10  13
ENDBRANCH   3   6
BRANCH   4  15
HETATM   15  O5  UNL     1       2.833   4.131  54.461  1.00  0.00    -0.390 OA
ATOM     16  H5  UNL     1       1.999   4.570  54.579  1.00  0.00     0.210 HD
ENDBRANCH   4  15
BRANCH   1  17
HETATM   17  C1  UNL     1       2.897   0.427  51.613  1.00  0.00     0.198 C 
BRANCH  17  18
HETATM   18  O1  UNL     1       3.576   0.625  50.429  1.00  0.00    -0.398 OA
ATOM     19  H1  UNL     1       4.318   0.040  50.323  1.00  0.00     0.209 HD
ENDBRANCH  17  18
ENDBRANCH   1  17
BRANCH   5  20
HETATM   20  O6  UNL     1       4.355   2.473  52.267  1.00  0.00    -0.390 OA
ATOM     21  H6  UNL     1       4.674   2.854  51.457  1.00  0.00     0.210 HD
ENDBRANCH   5  20
TORSDOF 7
ENDMDL
MODEL 3
REMARK VINA RESULT: -6.506873086      1.870      5.778
REMARK  7 active torsions:
REMARK  status: ('A' for Active; 'I' for Inactive)
REMARK    1  A    between atoms: O1_1  and  C1_3 
REMARK    2  A    between atoms: C1_3  and  C2_4 
REMARK    3  A    between atoms: C3_6  and  C4_7 
REMARK    4  A    between atoms: C7_10  and  O3_11 
REMARK    5  A    between atoms: C8_13  and  O4_14 
REMARK    6  A    between atoms: C9_16  and  O5_17 
REMARK    7  A    between atoms: C10_19  and  O6_20 
ROOT
HETATM    1  C2  UNL     1       3.807   2.557  53.321  1.00  0.00     0.176 C 
HETATM    2  O2  UNL     1       3.084   3.305  54.231  1.00  0.00    -0.373 OA
HETATM    3  C3  UNL     1       1.886   2.645  54.458  1.00  0.00     0.160 C 
HETATM    4  C9  UNL     1       1.513   2.164  53.062  1.00  0.00     0.178 C 
HETATM    5  C10 UNL     1       2.861   1.684  52.568  1.00  0.00     0.180 C 
ENDROOT
BRANCH   3   6
HETATM    6  C4  UNL     1       0.854   3.623  54.991  1.00  0.00     0.049 C 
HETATM    7  C5  UNL     1       1.591   4.935  55.232  1.00  0.00     0.012 C 
HETATM    8  C6  UNL     1       1.453   5.219  56.715  1.00  0.00     0.035 C 
HETATM    9  C7  UNL     1       0.144   4.528  57.039  1.00  0.00     0.147 C 
HETATM   10  C8  UNL     1       0.364   3.179  56.350  1.00  0.00     0.153 C 
BRANCH   9  11
HETATM   11  O3  UNL     1      -0.049   4.368  58.396  1.00  0.00    -0.393 OA
ATOM     12  H3  UNL     1      -0.816   4.831  58.712  1.00  0.00     0.210 HD
ENDBRANCH   9  11
BRANCH  10  13
HETATM   13  O4  UNL     1      -0.795   2.438  56.292  1.00  0.00    -0.393 OA
ATOM     14  H4  UNL     1      -0.866   1.802  56.994  1.00  0.00     0.210 HD
ENDBRANCH  10  13
ENDBRANCH   3   6
BRANCH   4  15
HETATM   15  O5  UNL     1       0.565   1.168  53.078  1.00  0.00    -0.390 OA
ATOM     16  H5  UNL     1       0.008   1.179  52.308  1.00  0.00     0.210 HD
ENDBRANCH   4  15
BRANCH   1  17
HETATM   17  C1  UNL     1       4.561   3.496  52.402  1.00  0.00     0.198 C 
BRANCH  17  18
HETATM   18  O1  UNL     1       5.465   2.847  51.590  1.00  0.00    -0.398 OA
ATOM     19  H1  UNL     1       5.622   3.300  50.769  1.00  0.00     0.209 HD
ENDBRANCH  17  18
ENDBRANCH   1  17
BRANCH   5  20
HETATM   20  O6  UNL     1       2.984   1.832  51.183  1.00  0.00    -0.390 OA
ATOM     21  H6  UNL     1       3.574   1.193  50.800  1.00  0.00     0.210 HD
ENDBRANCH   5  20
TORSDOF 7
ENDMDL
MODEL 4
REMARK VINA RESULT: -6.318178278      1.739      5.215
REMARK  7 active torsions:
REMARK  status: ('A' for Active; 'I' for Inactive)
REMARK    1  A    between atoms: O1_1  and  C1_3 
REMARK    2  A    between atoms: C1_3  and  C2_4 
REMARK    3  A    between atoms: C3_6  and  C4_7 
REMARK    4  A    between atoms: C7_10  and  O3_11 
REMARK    5  A    between atoms: C8_13  and  O4_14 
REMARK    6  A    between atoms: C9_16  and  O5_17 
REMARK    7  A    between atoms: C10_19  and  O6_20 
ROOT
HETATM    1  C2  UNL     1       2.548   3.069  52.787  1.00  0.00     0.176 C 
HETATM    2  O2  UNL     1       1.840   2.175  53.568  1.00  0.00    -0.373 OA
HETATM    3  C3  UNL     1       1.040   2.911  54.429  1.00  0.00     0.160 C 
HETATM    4  C9  UNL     1       1.963   4.053  54.830  1.00  0.00     0.178 C 
HETATM    5  C10 UNL     1       2.591   4.383  53.492  1.00  0.00     0.180 C 
ENDROOT
BRANCH   3   6
HETATM    6  C4  UNL     1       0.665   2.065  55.632  1.00  0.00     0.049 C 
HETATM    7  C5  UNL     1       0.177   0.730  55.082  1.00  0.00     0.012 C 
HETATM    8  C6  UNL     1      -1.261   0.595  55.544  1.00  0.00     0.035 C 
HETATM    9  C7  UNL     1      -1.249   1.407  56.823  1.00  0.00     0.147 C 
HETATM   10  C8  UNL     1      -0.523   2.666  56.345  1.00  0.00     0.153 C 
BRANCH   9  11
HETATM   11  O3  UNL     1      -2.519   1.705  57.273  1.00  0.00    -0.393 OA
ATOM     12  H3  UNL     1      -2.704   2.637  57.253  1.00  0.00     0.210 HD
ENDBRANCH   9  11
BRANCH  10  13
HETATM   13  O4  UNL     1      -0.168   3.483  57.396  1.00  0.00    -0.393 OA
ATOM     14  H4  UNL     1      -0.887   4.017  57.713  1.00  0.00     0.210 HD
ENDBRANCH  10  13
ENDBRANCH   3   6
BRANCH   4  15
HETATM   15  O5  UNL     1       1.286   5.118  55.378  1.00  0.00    -0.390 OA
ATOM     16  H5  UNL     1       0.452   5.280  54.953  1.00  0.00     0.210 HD
ENDBRANCH   4  15
BRANCH   1  17
HETATM   17  C1  UNL     1       3.936   2.516  52.540  1.00  0.00     0.198 C 
BRANCH  17  18
HETATM   18  O1  UNL     1       4.575   2.124  53.697  1.00  0.00    -0.398 OA
ATOM     19  H1  UNL     1       5.523   2.139  53.623  1.00  0.00     0.209 HD
ENDBRANCH  17  18
ENDBRANCH   1  17
BRANCH   5  20
HETATM   20  O6  UNL     1       3.894   4.867  53.640  1.00  0.00    -0.390 OA
ATOM     21  H6  UNL     1       4.547   4.261  53.311  1.00  0.00     0.210 HD
ENDBRANCH   5  20
TORSDOF 7
ENDMDL
MODEL 5
REMARK VINA RESULT: -6.191799056      1.449      5.170
REMARK  7 active torsions:
REMARK  status: ('A' for Active; 'I' for Inactive)
REMARK    1  A    between atoms: O1_1  and  C1_3 
REMARK    2  A    between atoms: C1_3  and  C2_4 
REMARK    3  A    between atoms: C3_6  and  C4_7 
REMARK    4  A    between atoms: C7_10  and  O3_11 
REMARK    5  A    between atoms: C8_13  and  O4_14 
REMARK    6  A    between atoms: C9_16  and  O5_17 
REMARK    7  A    between atoms: C10_19  and  O6_20 
ROOT
HETATM    1  C2  UNL     1       0.941   1.338  52.651  1.00  0.00     0.176 C 
HETATM    2  O2  UNL     1       0.537   0.811  53.863  1.00  0.00    -0.373 OA
HETATM    3  C3  UNL     1       0.150   1.869  54.671  1.00  0.00     0.160 C 
HETATM    4  C9  UNL     1       1.207   2.919  54.357  1.00  0.00     0.178 C 
HETATM    5  C10 UNL     1       1.304   2.770  52.853  1.00  0.00     0.180 C 
ENDROOT
BRANCH   3   6
HETATM    6  C4  UNL     1       0.213   1.451  56.130  1.00  0.00     0.049 C 
HETATM    7  C5  UNL     1      -0.146  -0.029  56.168  1.00  0.00     0.012 C 
HETATM    8  C6  UNL     1      -1.394  -0.130  57.022  1.00  0.00     0.035 C 
HETATM    9  C7  UNL     1      -1.233   1.066  57.939  1.00  0.00     0.147 C 
HETATM   10  C8  UNL     1      -0.868   2.149  56.922  1.00  0.00     0.153 C 
BRANCH   9  11
HETATM   11  O3  UNL     1      -2.400   1.382  58.606  1.00  0.00    -0.393 OA
ATOM     12  H3  UNL     1      -3.149   1.434  58.024  1.00  0.00     0.210 HD
ENDBRANCH   9  11
BRANCH  10  13
HETATM   13  O4  UNL     1      -0.432   3.302  57.535  1.00  0.00    -0.393 OA
ATOM     14  H4  UNL     1      -0.481   3.262  58.483  1.00  0.00     0.210 HD
ENDBRANCH  10  13
ENDBRANCH   3   6
BRANCH   4  15
HETATM   15  O5  UNL     1       0.832   4.184  54.745  1.00  0.00    -0.390 OA
ATOM     16  H5  UNL     1      -0.092   4.352  54.606  1.00  0.00     0.210 HD
ENDBRANCH   4  15
BRANCH   1  17
HETATM   17  C1  UNL     1       2.110   0.529  52.129  1.00  0.00     0.198 C 
BRANCH  17  18
HETATM   18  O1  UNL     1       2.394   0.781  50.803  1.00  0.00    -0.398 OA
ATOM     19  H1  UNL     1       3.266   0.501  50.549  1.00  0.00     0.209 HD
ENDBRANCH  17  18
ENDBRANCH   1  17
BRANCH   5  20
HETATM   20  O6  UNL     1       2.588   3.067  52.389  1.00  0.00    -0.390 OA
ATOM     21  H6  UNL     1       2.614   3.865  51.874  1.00  0.00     0.210 HD
ENDBRANCH   5  20
TORSDOF 7
ENDMDL
