MODEL 1
REMARK VINA RESULT: -5.543465559      0.000      0.000
REMARK  2 active torsions:
REMARK  status: ('A' for Active; 'I' for Inactive)
REMARK    1  A    between atoms: N1_2  and  N2_3 
REMARK       I    between atoms: N1_2  and  C3_8 
REMARK       I    between atoms: C3_8  and  N5_10 
REMARK    2  A    between atoms: N5_10  and  N6_12 
ROOT
HETATM    1  C1  UNL     1      98.907  10.654   5.801  1.00  0.00     0.183 C 
HETATM    2  N1  UNL     1      99.506  11.760   6.518  1.00  0.00    -0.244 N 
HETATM    3  C3  UNL     1     100.757  12.299   6.111  1.00  0.00     0.354 C 
HETATM    4  O1  UNL     1     101.280  13.259   6.735  1.00  0.00    -0.244 OA
HETATM    5  N5  UNL     1     101.477  11.793   4.997  1.00  0.00    -0.257 N 
ATOM      6  H5  UNL     1     101.076  11.013   4.475  1.00  0.00     0.191 HD
ENDROOT
BRANCH   2   7
HETATM    7  N2  UNL     1      98.834  12.282   7.614  1.00  0.00    -0.270 N 
HETATM    8  C2  UNL     1      98.030  13.266   7.580  1.00  0.00     0.215 C 
HETATM    9  N3  UNL     1      97.729  13.951   6.371  1.00  0.00    -0.065 NA
HETATM   10  N4  UNL     1      97.412  13.694   8.788  1.00  0.00    -0.065 NA
ATOM     11  H2  UNL     1      98.998  11.841   8.519  1.00  0.00     0.189 HD
ENDBRANCH   2   7
BRANCH   5  12
HETATM   12  N6  UNL     1     102.702  12.305   4.580  1.00  0.00    -0.341 N 
ATOM     13  H62 UNL     1     103.469  12.284   5.251  1.00  0.00     0.177 HD
ATOM     14  H61 UNL     1     102.861  12.692   3.650  1.00  0.00     0.177 HD
ENDBRANCH   5  12
TORSDOF 2
ENDMDL
MODEL 2
REMARK VINA RESULT: -5.472970008      1.817      2.209
REMARK  2 active torsions:
REMARK  status: ('A' for Active; 'I' for Inactive)
REMARK    1  A    between atoms: N1_2  and  N2_3 
REMARK       I    between atoms: N1_2  and  C3_8 
REMARK       I    between atoms: C3_8  and  N5_10 
REMARK    2  A    between atoms: N5_10  and  N6_12 
ROOT
HETATM    1  C1  UNL     1      98.294  10.824   5.696  1.00  0.00     0.183 C 
HETATM    2  N1  UNL     1      98.925  12.058   6.114  1.00  0.00    -0.244 N 
HETATM    3  C3  UNL     1     100.061  12.040   6.969  1.00  0.00     0.354 C 
HETATM    4  O1  UNL     1     100.611  13.112   7.334  1.00  0.00    -0.244 OA
HETATM    5  N5  UNL     1     100.631  10.833   7.453  1.00  0.00    -0.257 N 
ATOM      6  H5  UNL     1     100.203   9.950   7.173  1.00  0.00     0.191 HD
ENDROOT
BRANCH   2   7
HETATM    7  N2  UNL     1      98.398  13.260   5.663  1.00  0.00    -0.270 N 
HETATM    8  C2  UNL     1      97.594  13.997   6.315  1.00  0.00     0.215 C 
HETATM    9  N3  UNL     1      97.140  13.651   7.617  1.00  0.00    -0.065 NA
HETATM   10  N4  UNL     1      97.133  15.206   5.723  1.00  0.00    -0.065 NA
ATOM     11  H2  UNL     1      98.679  13.576   4.735  1.00  0.00     0.189 HD
ENDBRANCH   2   7
BRANCH   5  12
HETATM   12  N6  UNL     1     101.742  10.792   8.289  1.00  0.00    -0.341 N 
ATOM     13  H62 UNL     1     102.558  11.335   8.008  1.00  0.00     0.177 HD
ATOM     14  H61 UNL     1     101.774  10.252   9.154  1.00  0.00     0.177 HD
ENDBRANCH   5  12
TORSDOF 2
ENDMDL
MODEL 3
REMARK VINA RESULT: -5.020404042      1.297      4.283
REMARK  2 active torsions:
REMARK  status: ('A' for Active; 'I' for Inactive)
REMARK    1  A    between atoms: N1_2  and  N2_3 
REMARK       I    between atoms: N1_2  and  C3_8 
REMARK       I    between atoms: C3_8  and  N5_10 
REMARK    2  A    between atoms: N5_10  and  N6_12 
ROOT
HETATM    1  C1  UNL     1      98.955  10.287   6.080  1.00  0.00     0.183 C 
HETATM    2  N1  UNL     1      99.571  11.573   6.333  1.00  0.00    -0.244 N 
HETATM    3  C3  UNL     1      99.050  12.446   7.326  1.00  0.00     0.354 C 
HETATM    4  O1  UNL     1      99.584  13.564   7.547  1.00  0.00    -0.244 OA
HETATM    5  N5  UNL     1      97.916  12.113   8.113  1.00  0.00    -0.257 N 
ATOM      6  H5  UNL     1      97.463  11.213   7.953  1.00  0.00     0.191 HD
ENDROOT
BRANCH   2   7
HETATM    7  N2  UNL     1     100.681  11.935   5.584  1.00  0.00    -0.270 N 
HETATM    8  C2  UNL     1     101.890  11.729   5.918  1.00  0.00     0.215 C 
HETATM    9  N3  UNL     1     102.235  11.080   7.136  1.00  0.00    -0.065 NA
HETATM   10  N4  UNL     1     102.929  12.158   5.047  1.00  0.00    -0.065 NA
ATOM     11  H2  UNL     1     100.514  12.405   4.694  1.00  0.00     0.189 HD
ENDBRANCH   2   7
BRANCH   5  12
HETATM   12  N6  UNL     1      97.389  12.952   9.090  1.00  0.00    -0.341 N 
ATOM     13  H62 UNL     1      97.643  13.938   9.046  1.00  0.00     0.177 HD
ATOM     14  H61 UNL     1      96.772  12.627   9.835  1.00  0.00     0.177 HD
ENDBRANCH   5  12
TORSDOF 2
ENDMDL
MODEL 4
REMARK VINA RESULT: -5.013418569      1.954      3.644
REMARK  2 active torsions:
REMARK  status: ('A' for Active; 'I' for Inactive)
REMARK    1  A    between atoms: N1_2  and  N2_3 
REMARK       I    between atoms: N1_2  and  C3_8 
REMARK       I    between atoms: C3_8  and  N5_10 
REMARK    2  A    between atoms: N5_10  and  N6_12 
ROOT
HETATM    1  C1  UNL     1      98.772  10.215   5.724  1.00  0.00     0.183 C 
HETATM    2  N1  UNL     1      99.182  11.151   6.750  1.00  0.00    -0.244 N 
HETATM    3  C3  UNL     1      98.843  12.528   6.655  1.00  0.00     0.354 C 
HETATM    4  O1  UNL     1      99.199  13.343   7.546  1.00  0.00    -0.244 OA
HETATM    5  N5  UNL     1      98.095  13.055   5.570  1.00  0.00    -0.257 N 
ATOM      6  H5  UNL     1      97.795  12.416   4.834  1.00  0.00     0.191 HD
ENDROOT
BRANCH   2   7
HETATM    7  N2  UNL     1      99.916  10.675   7.828  1.00  0.00    -0.270 N 
HETATM    8  C2  UNL     1     101.184  10.614   7.881  1.00  0.00     0.215 C 
HETATM    9  N3  UNL     1     102.005  11.045   6.803  1.00  0.00    -0.065 NA
HETATM   10  N4  UNL     1     101.800  10.100   9.056  1.00  0.00    -0.065 NA
ATOM     11  H2  UNL     1      99.395  10.349   8.642  1.00  0.00     0.189 HD
ENDBRANCH   2   7
BRANCH   5  12
HETATM   12  N6  UNL     1      97.751  14.398   5.457  1.00  0.00    -0.341 N 
ATOM     13  H62 UNL     1      96.817  14.668   5.763  1.00  0.00     0.177 HD
ATOM     14  H61 UNL     1      98.383  15.111   5.089  1.00  0.00     0.177 HD
ENDBRANCH   5  12
TORSDOF 2
ENDMDL
MODEL 5
REMARK VINA RESULT: -4.955687143      3.321      4.491
REMARK  2 active torsions:
REMARK  status: ('A' for Active; 'I' for Inactive)
REMARK    1  A    between atoms: N1_2  and  N2_3 
REMARK       I    between atoms: N1_2  and  C3_8 
REMARK       I    between atoms: C3_8  and  N5_10 
REMARK    2  A    between atoms: N5_10  and  N6_12 
ROOT
HETATM    1  C1  UNL     1     101.666  11.893   7.605  1.00  0.00     0.183 C 
HETATM    2  N1  UNL     1     100.727  10.791   7.595  1.00  0.00    -0.244 N 
HETATM    3  C3  UNL     1      99.795  10.638   6.532  1.00  0.00     0.354 C 
HETATM    4  O1  UNL     1      98.978   9.681   6.523  1.00  0.00    -0.244 OA
HETATM    5  N5  UNL     1      99.734  11.541   5.438  1.00  0.00    -0.257 N 
ATOM      6  H5  UNL     1     100.385  12.326   5.422  1.00  0.00     0.191 HD
ENDROOT
BRANCH   2   7
HETATM    7  N2  UNL     1     100.754   9.886   8.647  1.00  0.00    -0.270 N 
HETATM    8  C2  UNL     1     101.777   9.235   9.027  1.00  0.00     0.215 C 
HETATM    9  N3  UNL     1     103.040   9.375   8.388  1.00  0.00    -0.065 NA
HETATM   10  N4  UNL     1     101.655   8.338  10.124  1.00  0.00    -0.065 NA
ATOM     11  H2  UNL     1      99.883   9.733   9.157  1.00  0.00     0.189 HD
ENDBRANCH   2   7
BRANCH   5  12
HETATM   12  N6  UNL     1      98.832  11.411   4.387  1.00  0.00    -0.341 N 
ATOM     13  H62 UNL     1      97.860  11.215   4.628  1.00  0.00     0.177 HD
ATOM     14  H61 UNL     1      99.096  11.502   3.406  1.00  0.00     0.177 HD
ENDBRANCH   5  12
TORSDOF 2
ENDMDL
