MODEL 1
REMARK VINA RESULT: -7.153420329      0.000      0.000
REMARK  6 active torsions:
REMARK  status: ('A' for Active; 'I' for Inactive)
REMARK    1  A    between atoms: C2_2  and  S1_4 
REMARK    2  A    between atoms: S1_4  and  C4_5 
REMARK    3  A    between atoms: N1_12  and  C11_13 
REMARK    4  A    between atoms: C11_13  and  C12_14 
REMARK    5  A    between atoms: C12_14  and  O1_15 
REMARK    6  A    between atoms: C17_22  and  O3_24 
ROOT
HETATM    1  C4  UNL     1       3.569   6.862  24.501  1.00  0.00     0.086 C 
HETATM    2  C5  UNL     1       3.177   7.628  25.640  1.00  0.00     0.010 C 
HETATM    3  C6  UNL     1       3.028   7.153  27.024  1.00  0.00     0.010 C 
HETATM    4  C7  UNL     1       2.145   8.319  27.566  1.00  0.00     0.043 C 
HETATM    5  C8  UNL     1       1.489   8.915  26.371  1.00  0.00     0.085 C 
HETATM    6  C9  UNL     1       0.106   9.291  26.462  1.00  0.00     0.028 C 
HETATM    7  C10 UNL     1      -0.512  10.230  25.738  1.00  0.00     0.084 C 
HETATM    8  N1  UNL     1       0.034  11.067  24.726  1.00  0.00    -0.386 N 
HETATM    9  C13 UNL     1       1.159  10.790  23.842  1.00  0.00     0.154 C 
HETATM   10  C14 UNL     1       2.092   9.728  24.350  1.00  0.00     0.148 C 
HETATM   11  O2  UNL     1       2.197   9.905  25.714  1.00  0.00    -0.368 OA
HETATM   12  C15 UNL     1       1.660   8.332  24.064  1.00  0.00     0.059 C 
HETATM   13  C16 UNL     1       1.641   7.766  25.408  1.00  0.00     0.039 C 
HETATM   14  C17 UNL     1       2.641   7.426  23.393  1.00  0.00     0.073 C 
HETATM   15  C18 UNL     1       1.835   6.226  22.880  1.00  0.00     0.047 C 
ENDROOT
BRANCH   1  16
HETATM   16  S1  UNL     1       5.224   7.312  23.951  1.00  0.00    -0.157 SA
BRANCH  16  17
HETATM   17  C2  UNL     1       6.578   6.381  24.578  1.00  0.00     0.039 C 
HETATM   18  C1  UNL     1       6.198   5.436  25.717  1.00  0.00     0.021 C 
HETATM   19  C3  UNL     1       7.755   7.194  24.967  1.00  0.00     0.021 C 
ENDBRANCH  16  17
ENDBRANCH   1  16
BRANCH  14  20
HETATM   20  O3  UNL     1       3.315   8.010  22.364  1.00  0.00    -0.389 OA
ATOM     21  H3  UNL     1       2.825   8.028  21.551  1.00  0.00     0.210 HD
ENDBRANCH  14  20
BRANCH   8  22
HETATM   22  C11 UNL     1      -0.529  12.355  24.481  1.00  0.00     0.148 C 
BRANCH  22  23
HETATM   23  C12 UNL     1      -1.178  12.443  23.143  1.00  0.00     0.183 C 
BRANCH  23  24
HETATM   24  O1  UNL     1      -2.355  11.693  23.092  1.00  0.00    -0.399 OA
ATOM     25  H1  UNL     1      -2.175  10.762  23.029  1.00  0.00     0.209 HD
ENDBRANCH  23  24
ENDBRANCH  22  23
ENDBRANCH   8  22
TORSDOF 6
ENDMDL
MODEL 2
REMARK VINA RESULT: -7.075984524      1.675      2.859
REMARK  6 active torsions:
REMARK  status: ('A' for Active; 'I' for Inactive)
REMARK    1  A    between atoms: C2_2  and  S1_4 
REMARK    2  A    between atoms: S1_4  and  C4_5 
REMARK    3  A    between atoms: N1_12  and  C11_13 
REMARK    4  A    between atoms: C11_13  and  C12_14 
REMARK    5  A    between atoms: C12_14  and  O1_15 
REMARK    6  A    between atoms: C17_22  and  O3_24 
ROOT
HETATM    1  C4  UNL     1       3.744   7.668  25.715  1.00  0.00     0.086 C 
HETATM    2  C5  UNL     1       3.705   8.644  24.675  1.00  0.00     0.010 C 
HETATM    3  C6  UNL     1       4.820   9.467  24.184  1.00  0.00     0.010 C 
HETATM    4  C7  UNL     1       3.984  10.572  23.468  1.00  0.00     0.043 C 
HETATM    5  C8  UNL     1       2.642  10.540  24.110  1.00  0.00     0.085 C 
HETATM    6  C9  UNL     1       1.992  11.785  24.406  1.00  0.00     0.028 C 
HETATM    7  C10 UNL     1       0.674  11.988  24.515  1.00  0.00     0.084 C 
HETATM    8  N1  UNL     1      -0.380  11.045  24.367  1.00  0.00    -0.386 N 
HETATM    9  C13 UNL     1      -0.342   9.609  24.613  1.00  0.00     0.154 C 
HETATM   10  C14 UNL     1       1.039   9.018  24.584  1.00  0.00     0.148 C 
HETATM   11  O2  UNL     1       1.726   9.654  23.571  1.00  0.00    -0.368 OA
HETATM   12  C15 UNL     1       1.800   9.150  25.858  1.00  0.00     0.059 C 
HETATM   13  C16 UNL     1       3.000   9.836  25.393  1.00  0.00     0.039 C 
HETATM   14  C17 UNL     1       2.394   7.910  26.442  1.00  0.00     0.073 C 
HETATM   15  C18 UNL     1       2.762   8.253  27.891  1.00  0.00     0.047 C 
ENDROOT
BRANCH   1  16
HETATM   16  S1  UNL     1       3.586   6.001  25.052  1.00  0.00    -0.157 SA
BRANCH  16  17
HETATM   17  C2  UNL     1       4.681   4.768  25.663  1.00  0.00     0.039 C 
HETATM   18  C1  UNL     1       4.735   4.697  27.188  1.00  0.00     0.021 C 
HETATM   19  C3  UNL     1       6.055   4.838  25.111  1.00  0.00     0.021 C 
ENDBRANCH  16  17
ENDBRANCH   1  16
BRANCH  14  20
HETATM   20  O3  UNL     1       1.560   6.834  26.413  1.00  0.00    -0.389 OA
ATOM     21  H3  UNL     1       0.650   7.064  26.268  1.00  0.00     0.210 HD
ENDBRANCH  14  20
BRANCH   8  22
HETATM   22  C11 UNL     1      -1.668  11.473  23.925  1.00  0.00     0.148 C 
BRANCH  22  23
HETATM   23  C12 UNL     1      -1.583  12.496  22.845  1.00  0.00     0.183 C 
BRANCH  23  24
HETATM   24  O1  UNL     1      -2.342  12.132  21.732  1.00  0.00    -0.399 OA
ATOM     25  H1  UNL     1      -2.083  12.618  20.957  1.00  0.00     0.209 HD
ENDBRANCH  23  24
ENDBRANCH  22  23
ENDBRANCH   8  22
TORSDOF 6
ENDMDL
MODEL 3
REMARK VINA RESULT: -7.037424476      2.521      3.107
REMARK  6 active torsions:
REMARK  status: ('A' for Active; 'I' for Inactive)
REMARK    1  A    between atoms: C2_2  and  S1_4 
REMARK    2  A    between atoms: S1_4  and  C4_5 
REMARK    3  A    between atoms: N1_12  and  C11_13 
REMARK    4  A    between atoms: C11_13  and  C12_14 
REMARK    5  A    between atoms: C12_14  and  O1_15 
REMARK    6  A    between atoms: C17_22  and  O3_24 
ROOT
HETATM    1  C4  UNL     1       1.128   7.428  26.520  1.00  0.00     0.086 C 
HETATM    2  C5  UNL     1       0.543   8.651  26.968  1.00  0.00     0.010 C 
HETATM    3  C6  UNL     1      -0.434   8.826  28.053  1.00  0.00     0.010 C 
HETATM    4  C7  UNL     1      -0.962  10.238  27.653  1.00  0.00     0.043 C 
HETATM    5  C8  UNL     1      -0.666  10.381  26.202  1.00  0.00     0.085 C 
HETATM    6  C9  UNL     1      -1.659  10.980  25.355  1.00  0.00     0.028 C 
HETATM    7  C10 UNL     1      -1.438  11.619  24.201  1.00  0.00     0.084 C 
HETATM    8  N1  UNL     1      -0.199  11.858  23.546  1.00  0.00    -0.386 N 
HETATM    9  C13 UNL     1       1.019  11.060  23.610  1.00  0.00     0.154 C 
HETATM   10  C14 UNL     1       1.107  10.169  24.816  1.00  0.00     0.148 C 
HETATM   11  O2  UNL     1       0.583  10.878  25.877  1.00  0.00    -0.368 OA
HETATM   12  C15 UNL     1       0.389   8.872  24.685  1.00  0.00     0.059 C 
HETATM   13  C16 UNL     1      -0.499   8.928  25.840  1.00  0.00     0.039 C 
HETATM   14  C17 UNL     1       1.154   7.623  24.981  1.00  0.00     0.073 C 
HETATM   15  C18 UNL     1       0.327   6.466  24.405  1.00  0.00     0.047 C 
ENDROOT
BRANCH   1  16
HETATM   16  S1  UNL     1       2.868   7.333  26.975  1.00  0.00    -0.157 SA
BRANCH  16  17
HETATM   17  C2  UNL     1       3.260   6.879  28.628  1.00  0.00     0.039 C 
HETATM   18  C1  UNL     1       2.539   5.619  29.105  1.00  0.00     0.021 C 
HETATM   19  C3  UNL     1       3.088   7.966  29.621  1.00  0.00     0.021 C 
ENDBRANCH  16  17
ENDBRANCH   1  16
BRANCH  14  20
HETATM   20  O3  UNL     1       2.409   7.608  24.452  1.00  0.00    -0.389 OA
ATOM     21  H3  UNL     1       2.583   8.337  23.868  1.00  0.00     0.210 HD
ENDBRANCH  14  20
BRANCH   8  22
HETATM   22  C11 UNL     1      -0.041  13.001  22.705  1.00  0.00     0.148 C 
BRANCH  22  23
HETATM   23  C12 UNL     1      -0.597  12.779  21.341  1.00  0.00     0.183 C 
BRANCH  23  24
HETATM   24  O1  UNL     1      -1.992  12.825  21.341  1.00  0.00    -0.399 OA
ATOM     25  H1  UNL     1      -2.353  12.509  22.161  1.00  0.00     0.209 HD
ENDBRANCH  23  24
ENDBRANCH  22  23
ENDBRANCH   8  22
TORSDOF 6
ENDMDL
MODEL 4
REMARK VINA RESULT: -6.976306952      1.845      3.032
REMARK  6 active torsions:
REMARK  status: ('A' for Active; 'I' for Inactive)
REMARK    1  A    between atoms: C2_2  and  S1_4 
REMARK    2  A    between atoms: S1_4  and  C4_5 
REMARK    3  A    between atoms: N1_12  and  C11_13 
REMARK    4  A    between atoms: C11_13  and  C12_14 
REMARK    5  A    between atoms: C12_14  and  O1_15 
REMARK    6  A    between atoms: C17_22  and  O3_24 
ROOT
HETATM    1  C4  UNL     1       3.642   7.739  25.407  1.00  0.00     0.086 C 
HETATM    2  C5  UNL     1       3.984   8.743  24.452  1.00  0.00     0.010 C 
HETATM    3  C6  UNL     1       5.319   9.298  24.181  1.00  0.00     0.010 C 
HETATM    4  C7  UNL     1       4.875  10.602  23.450  1.00  0.00     0.043 C 
HETATM    5  C8  UNL     1       3.481  10.861  23.901  1.00  0.00     0.085 C 
HETATM    6  C9  UNL     1       3.098  12.211  24.205  1.00  0.00     0.028 C 
HETATM    7  C10 UNL     1       1.860  12.717  24.151  1.00  0.00     0.084 C 
HETATM    8  N1  UNL     1       0.652  12.060  23.789  1.00  0.00    -0.386 N 
HETATM    9  C13 UNL     1       0.323  10.647  23.924  1.00  0.00     0.154 C 
HETATM   10  C14 UNL     1       1.519   9.746  24.034  1.00  0.00     0.148 C 
HETATM   11  O2  UNL     1       2.477  10.245  23.176  1.00  0.00    -0.368 OA
HETATM   12  C15 UNL     1       2.091   9.635  25.404  1.00  0.00     0.059 C 
HETATM   13  C16 UNL     1       3.473  10.035  25.161  1.00  0.00     0.039 C 
HETATM   14  C17 UNL     1       2.292   8.263  25.963  1.00  0.00     0.073 C 
HETATM   15  C18 UNL     1       2.508   8.442  27.471  1.00  0.00     0.047 C 
ENDROOT
BRANCH   1  16
HETATM   16  S1  UNL     1       3.207   6.190  24.598  1.00  0.00    -0.157 SA
BRANCH  16  17
HETATM   17  C2  UNL     1       4.491   5.292  23.800  1.00  0.00     0.039 C 
HETATM   18  C1  UNL     1       5.842   5.397  24.505  1.00  0.00     0.021 C 
HETATM   19  C3  UNL     1       4.649   5.597  22.358  1.00  0.00     0.021 C 
ENDBRANCH  16  17
ENDBRANCH   1  16
BRANCH  14  20
HETATM   20  O3  UNL     1       1.247   7.419  25.737  1.00  0.00    -0.389 OA
ATOM     21  H3  UNL     1       1.451   6.717  25.131  1.00  0.00     0.210 HD
ENDBRANCH  14  20
BRANCH   8  22
HETATM   22  C11 UNL     1      -0.422  12.803  23.214  1.00  0.00     0.148 C 
BRANCH  22  23
HETATM   23  C12 UNL     1      -1.707  12.049  23.240  1.00  0.00     0.183 C 
BRANCH  23  24
HETATM   24  O1  UNL     1      -2.326  12.044  21.988  1.00  0.00    -0.399 OA
ATOM     25  H1  UNL     1      -3.271  12.112  22.064  1.00  0.00     0.209 HD
ENDBRANCH  23  24
ENDBRANCH  22  23
ENDBRANCH   8  22
TORSDOF 6
ENDMDL
MODEL 5
REMARK VINA RESULT: -6.893154864      0.903      1.124
REMARK  6 active torsions:
REMARK  status: ('A' for Active; 'I' for Inactive)
REMARK    1  A    between atoms: C2_2  and  S1_4 
REMARK    2  A    between atoms: S1_4  and  C4_5 
REMARK    3  A    between atoms: N1_12  and  C11_13 
REMARK    4  A    between atoms: C11_13  and  C12_14 
REMARK    5  A    between atoms: C12_14  and  O1_15 
REMARK    6  A    between atoms: C17_22  and  O3_24 
ROOT
HETATM    1  C4  UNL     1       3.576   6.614  24.393  1.00  0.00     0.086 C 
HETATM    2  C5  UNL     1       3.293   7.408  25.545  1.00  0.00     0.010 C 
HETATM    3  C6  UNL     1       3.259   6.963  26.946  1.00  0.00     0.010 C 
HETATM    4  C7  UNL     1       2.439   8.151  27.537  1.00  0.00     0.043 C 
HETATM    5  C8  UNL     1       1.689   8.732  26.391  1.00  0.00     0.085 C 
HETATM    6  C9  UNL     1       0.324   9.127  26.593  1.00  0.00     0.028 C 
HETATM    7  C10 UNL     1      -0.345  10.059  25.905  1.00  0.00     0.084 C 
HETATM    8  N1  UNL     1       0.120  10.868  24.832  1.00  0.00    -0.386 N 
HETATM    9  C13 UNL     1       1.161  10.559  23.860  1.00  0.00     0.154 C 
HETATM   10  C14 UNL     1       2.123   9.495  24.308  1.00  0.00     0.148 C 
HETATM   11  O2  UNL     1       2.348   9.699  25.654  1.00  0.00    -0.368 OA
HETATM   12  C15 UNL     1       1.652   8.099  24.091  1.00  0.00     0.059 C 
HETATM   13  C16 UNL     1       1.744   7.562  25.443  1.00  0.00     0.039 C 
HETATM   14  C17 UNL     1       2.562   7.167  23.357  1.00  0.00     0.073 C 
HETATM   15  C18 UNL     1       1.701   5.967  22.942  1.00  0.00     0.047 C 
ENDROOT
BRANCH   1  16
HETATM   16  S1  UNL     1       5.182   7.031  23.692  1.00  0.00    -0.157 SA
BRANCH  16  17
HETATM   17  C2  UNL     1       6.080   8.353  24.427  1.00  0.00     0.039 C 
HETATM   18  C1  UNL     1       5.720   9.727  23.862  1.00  0.00     0.021 C 
HETATM   19  C3  UNL     1       7.551   8.175  24.423  1.00  0.00     0.021 C 
ENDBRANCH  16  17
ENDBRANCH   1  16
BRANCH  14  20
HETATM   20  O3  UNL     1       3.151   7.722  22.262  1.00  0.00    -0.389 OA
ATOM     21  H3  UNL     1       3.210   8.669  22.302  1.00  0.00     0.210 HD
ENDBRANCH  14  20
BRANCH   8  22
HETATM   22  C11 UNL     1      -0.447  12.158  24.609  1.00  0.00     0.148 C 
BRANCH  22  23
HETATM   23  C12 UNL     1      -1.032  12.290  23.245  1.00  0.00     0.183 C 
BRANCH  23  24
HETATM   24  O1  UNL     1      -2.300  11.711  23.171  1.00  0.00    -0.399 OA
ATOM     25  H1  UNL     1      -2.864  12.178  22.565  1.00  0.00     0.209 HD
ENDBRANCH  23  24
ENDBRANCH  22  23
ENDBRANCH   8  22
TORSDOF 6
ENDMDL
