MODEL 1
REMARK VINA RESULT: -7.400682069      0.000      0.000
REMARK  4 active torsions:
REMARK  status: ('A' for Active; 'I' for Inactive)
REMARK    1  A    between atoms: C1_2  and  C2_4 
REMARK    2  A    between atoms: C5_8  and  C6_9 
REMARK    3  A    between atoms: C6_9  and  O3_10 
REMARK    4  A    between atoms: C14_22  and  O4_23 
ROOT
HETATM    1  C2  UNL     1       3.236  12.221  24.775  1.00  0.00     0.091 A 
HETATM    2  S1  UNL     1       3.155  13.879  25.274  1.00  0.00    -0.084 SA
HETATM    3  C3  UNL     1       4.757  14.210  25.470  1.00  0.00     0.019 A 
HETATM    4  C4  UNL     1       5.425  12.995  25.138  1.00  0.00    -0.032 A 
HETATM    5  C5  UNL     1       4.618  11.977  24.779  1.00  0.00     0.007 A 
HETATM    6  C11 UNL     1       6.903  13.314  25.313  1.00  0.00     0.040 C 
HETATM    7  C12 UNL     1       7.032  13.690  26.810  1.00  0.00     0.007 C 
HETATM    8  C13 UNL     1       6.596  15.122  26.909  1.00  0.00     0.037 C 
HETATM    9  C14 UNL     1       5.564  15.402  25.882  1.00  0.00     0.158 C 
ENDROOT
BRANCH   5  10
HETATM   10  C6  UNL     1       5.071  10.623  24.275  1.00  0.00     0.090 C 
HETATM   11  C7  UNL     1       4.633  10.300  22.909  1.00  0.00     0.070 C 
HETATM   12  C8  UNL     1       5.438   9.095  22.367  1.00  0.00     0.235 C 
HETATM   13  N1  UNL     1       6.795   9.426  22.087  1.00  0.00    -0.075 N 
HETATM   14  C9  UNL     1       7.198  10.541  22.916  1.00  0.00     0.235 C 
ATOM     15  H12 UNL     1       7.416   8.625  22.190  1.00  0.00     0.277 HD
ATOM     16  H11 UNL     1       6.952   9.606  21.095  1.00  0.00     0.277 HD
HETATM   17  C10 UNL     1       6.577  10.375  24.277  1.00  0.00     0.070 C 
BRANCH  10  18
HETATM   18  O3  UNL     1       4.573   9.702  25.246  1.00  0.00    -0.385 OA
ATOM     19  H3  UNL     1       5.277   9.073  25.355  1.00  0.00     0.211 HD
ENDBRANCH  10  18
ENDBRANCH   5  10
BRANCH   1  20
HETATM   20  C1  UNL     1       2.059  11.418  24.501  1.00  0.00     0.217 C 
HETATM   21  O1  UNL     1       1.443  11.688  23.377  1.00  0.00    -0.643 OA
HETATM   22  O2  UNL     1       1.461  10.432  25.197  1.00  0.00    -0.643 OA
ENDBRANCH   1  20
BRANCH   9  23
HETATM   23  O4  UNL     1       4.675  16.349  26.446  1.00  0.00    -0.390 OA
ATOM     24  H4  UNL     1       4.785  17.166  25.973  1.00  0.00     0.210 HD
ENDBRANCH   9  23
TORSDOF 4
ENDMDL
MODEL 2
REMARK VINA RESULT: -7.247408364      1.007      1.185
REMARK  4 active torsions:
REMARK  status: ('A' for Active; 'I' for Inactive)
REMARK    1  A    between atoms: C1_2  and  C2_4 
REMARK    2  A    between atoms: C5_8  and  C6_9 
REMARK    3  A    between atoms: C6_9  and  O3_10 
REMARK    4  A    between atoms: C14_22  and  O4_23 
ROOT
HETATM    1  C2  UNL     1       3.582  12.065  24.553  1.00  0.00     0.091 A 
HETATM    2  S1  UNL     1       3.404  13.616  25.307  1.00  0.00    -0.084 SA
HETATM    3  C3  UNL     1       4.982  14.069  25.433  1.00  0.00     0.019 A 
HETATM    4  C4  UNL     1       5.721  12.987  24.870  1.00  0.00    -0.032 A 
HETATM    5  C5  UNL     1       4.975  11.959  24.419  1.00  0.00     0.007 A 
HETATM    6  C11 UNL     1       7.175  13.419  24.984  1.00  0.00     0.040 C 
HETATM    7  C12 UNL     1       7.402  13.582  26.507  1.00  0.00     0.007 C 
HETATM    8  C13 UNL     1       6.855  14.934  26.857  1.00  0.00     0.037 C 
HETATM    9  C14 UNL     1       5.718  15.260  25.964  1.00  0.00     0.158 C 
ENDROOT
BRANCH   5  10
HETATM   10  C6  UNL     1       5.496  10.745  23.679  1.00  0.00     0.090 C 
HETATM   11  C7  UNL     1       6.711  10.983  22.887  1.00  0.00     0.070 C 
HETATM   12  C8  UNL     1       7.355   9.634  22.487  1.00  0.00     0.235 C 
HETATM   13  N1  UNL     1       7.946   8.962  23.594  1.00  0.00    -0.075 N 
HETATM   14  C9  UNL     1       7.288   9.374  24.814  1.00  0.00     0.235 C 
ATOM     15  H12 UNL     1       7.942   7.949  23.476  1.00  0.00     0.277 HD
ATOM     16  H11 UNL     1       8.956   9.100  23.635  1.00  0.00     0.277 HD
HETATM   17  C10 UNL     1       5.816   9.523  24.537  1.00  0.00     0.070 C 
BRANCH  10  18
HETATM   18  O3  UNL     1       4.392  10.319  22.880  1.00  0.00    -0.385 OA
ATOM     19  H3  UNL     1       3.642  10.386  23.460  1.00  0.00     0.211 HD
ENDBRANCH  10  18
ENDBRANCH   5  10
BRANCH   1  20
HETATM   20  C1  UNL     1       2.459  11.200  24.246  1.00  0.00     0.217 C 
HETATM   21  O1  UNL     1       1.701  11.593  23.251  1.00  0.00    -0.643 OA
HETATM   22  O2  UNL     1       2.031  10.050  24.800  1.00  0.00    -0.643 OA
ENDBRANCH   1  20
BRANCH   9  23
HETATM   23  O4  UNL     1       4.803  16.022  26.732  1.00  0.00    -0.390 OA
ATOM     24  H4  UNL     1       5.307  16.542  27.348  1.00  0.00     0.210 HD
ENDBRANCH   9  23
TORSDOF 4
ENDMDL
MODEL 3
REMARK VINA RESULT: -7.149932811      2.467      3.903
REMARK  4 active torsions:
REMARK  status: ('A' for Active; 'I' for Inactive)
REMARK    1  A    between atoms: C1_2  and  C2_4 
REMARK    2  A    between atoms: C5_8  and  C6_9 
REMARK    3  A    between atoms: C6_9  and  O3_10 
REMARK    4  A    between atoms: C14_22  and  O4_23 
ROOT
HETATM    1  C2  UNL     1       6.160  11.405  24.075  1.00  0.00     0.091 A 
HETATM    2  S1  UNL     1       7.270  12.515  24.811  1.00  0.00    -0.084 SA
HETATM    3  C3  UNL     1       6.222  13.480  25.638  1.00  0.00     0.019 A 
HETATM    4  C4  UNL     1       4.931  12.946  25.356  1.00  0.00    -0.032 A 
HETATM    5  C5  UNL     1       4.922  11.870  24.545  1.00  0.00     0.007 A 
HETATM    6  C11 UNL     1       3.973  13.838  26.131  1.00  0.00     0.040 C 
HETATM    7  C12 UNL     1       4.194  15.246  25.524  1.00  0.00     0.007 C 
HETATM    8  C13 UNL     1       5.421  15.789  26.195  1.00  0.00     0.037 C 
HETATM    9  C14 UNL     1       6.342  14.677  26.530  1.00  0.00     0.158 C 
ENDROOT
BRANCH   5  10
HETATM   10  C6  UNL     1       3.705  11.047  24.179  1.00  0.00     0.090 C 
HETATM   11  C7  UNL     1       3.226  10.152  25.243  1.00  0.00     0.070 C 
HETATM   12  C8  UNL     1       1.800   9.651  24.911  1.00  0.00     0.235 C 
HETATM   13  N1  UNL     1       0.819  10.676  25.033  1.00  0.00    -0.075 N 
HETATM   14  C9  UNL     1       1.443  11.965  24.829  1.00  0.00     0.235 C 
ATOM     15  H12 UNL     1       0.027  10.527  24.408  1.00  0.00     0.277 HD
ATOM     16  H11 UNL     1       0.317  10.626  25.919  1.00  0.00     0.277 HD
HETATM   17  C10 UNL     1       2.471  11.832  23.737  1.00  0.00     0.070 C 
BRANCH  10  18
HETATM   18  O3  UNL     1       4.098  10.342  23.001  1.00  0.00    -0.385 OA
ATOM     19  H3  UNL     1       3.281  10.174  22.545  1.00  0.00     0.211 HD
ENDBRANCH  10  18
ENDBRANCH   5  10
BRANCH   1  20
HETATM   20  C1  UNL     1       6.579  10.341  23.182  1.00  0.00     0.217 C 
HETATM   21  O1  UNL     1       6.642   9.148  23.720  1.00  0.00    -0.643 OA
HETATM   22  O2  UNL     1       6.928  10.344  21.882  1.00  0.00    -0.643 OA
ENDBRANCH   1  20
BRANCH   9  23
HETATM   23  O4  UNL     1       7.657  15.183  26.396  1.00  0.00    -0.390 OA
ATOM     24  H4  UNL     1       7.607  15.989  25.894  1.00  0.00     0.210 HD
ENDBRANCH   9  23
TORSDOF 4
ENDMDL
MODEL 4
REMARK VINA RESULT: -7.107866773      1.508      2.059
REMARK  4 active torsions:
REMARK  status: ('A' for Active; 'I' for Inactive)
REMARK    1  A    between atoms: C1_2  and  C2_4 
REMARK    2  A    between atoms: C5_8  and  C6_9 
REMARK    3  A    between atoms: C6_9  and  O3_10 
REMARK    4  A    between atoms: C14_22  and  O4_23 
ROOT
HETATM    1  C2  UNL     1       4.741  11.342  24.552  1.00  0.00     0.091 A 
HETATM    2  S1  UNL     1       3.732  12.660  25.054  1.00  0.00    -0.084 SA
HETATM    3  C3  UNL     1       4.875  13.795  25.398  1.00  0.00     0.019 A 
HETATM    4  C4  UNL     1       6.120  13.158  25.121  1.00  0.00    -0.032 A 
HETATM    5  C5  UNL     1       6.027  11.887  24.683  1.00  0.00     0.007 A 
HETATM    6  C11 UNL     1       7.167  14.217  25.433  1.00  0.00     0.040 C 
HETATM    7  C12 UNL     1       6.960  14.518  26.938  1.00  0.00     0.007 C 
HETATM    8  C13 UNL     1       5.808  15.477  27.006  1.00  0.00     0.037 C 
HETATM    9  C14 UNL     1       4.869  15.209  25.890  1.00  0.00     0.158 C 
ENDROOT
BRANCH   5  10
HETATM   10  C6  UNL     1       7.180  11.025  24.213  1.00  0.00     0.090 C 
HETATM   11  C7  UNL     1       7.074   9.605  24.578  1.00  0.00     0.070 C 
HETATM   12  C8  UNL     1       8.081   8.770  23.752  1.00  0.00     0.235 C 
HETATM   13  N1  UNL     1       7.712   8.669  22.381  1.00  0.00    -0.075 N 
HETATM   14  C9  UNL     1       6.903   9.811  22.016  1.00  0.00     0.235 C 
ATOM     15  H12 UNL     1       8.522   8.559  21.771  1.00  0.00     0.277 HD
ATOM     16  H11 UNL     1       7.250   7.785  22.169  1.00  0.00     0.277 HD
HETATM   17  C10 UNL     1       7.452  11.029  22.710  1.00  0.00     0.070 C 
BRANCH  10  18
HETATM   18  O3  UNL     1       8.337  11.652  24.768  1.00  0.00    -0.385 OA
ATOM     19  H3  UNL     1       9.062  11.284  24.276  1.00  0.00     0.211 HD
ENDBRANCH  10  18
ENDBRANCH   5  10
BRANCH   1  20
HETATM   20  C1  UNL     1       4.215  10.045  24.167  1.00  0.00     0.217 C 
HETATM   21  O1  UNL     1       3.787   9.957  22.931  1.00  0.00    -0.643 OA
HETATM   22  O2  UNL     1       4.074   8.893  24.849  1.00  0.00    -0.643 OA
ENDBRANCH   1  20
BRANCH   9  23
HETATM   23  O4  UNL     1       3.569  15.489  26.377  1.00  0.00    -0.390 OA
ATOM     24  H4  UNL     1       3.230  16.229  25.885  1.00  0.00     0.210 HD
ENDBRANCH   9  23
TORSDOF 4
ENDMDL
MODEL 5
REMARK VINA RESULT: -6.849071223      2.367      5.030
REMARK  4 active torsions:
REMARK  status: ('A' for Active; 'I' for Inactive)
REMARK    1  A    between atoms: C1_2  and  C2_4 
REMARK    2  A    between atoms: C5_8  and  C6_9 
REMARK    3  A    between atoms: C6_9  and  O3_10 
REMARK    4  A    between atoms: C14_22  and  O4_23 
ROOT
HETATM    1  C2  UNL     1       4.456  13.425  25.297  1.00  0.00     0.091 A 
HETATM    2  S1  UNL     1       3.657  12.137  24.455  1.00  0.00    -0.084 SA
HETATM    3  C3  UNL     1       4.930  11.131  24.172  1.00  0.00     0.019 A 
HETATM    4  C4  UNL     1       6.054  11.792  24.748  1.00  0.00    -0.032 A 
HETATM    5  C5  UNL     1       5.786  12.979  25.327  1.00  0.00     0.007 A 
HETATM    6  C11 UNL     1       7.222  10.851  24.489  1.00  0.00     0.040 C 
HETATM    7  C12 UNL     1       7.296  10.758  22.945  1.00  0.00     0.007 C 
HETATM    8  C13 UNL     1       6.253   9.756  22.547  1.00  0.00     0.037 C 
HETATM    9  C14 UNL     1       5.122   9.805  23.504  1.00  0.00     0.158 C 
ENDROOT
BRANCH   5  10
HETATM   10  C6  UNL     1       6.770  13.828  26.103  1.00  0.00     0.090 C 
HETATM   11  C7  UNL     1       8.110  13.240  26.246  1.00  0.00     0.070 C 
HETATM   12  C8  UNL     1       9.114  14.319  26.715  1.00  0.00     0.235 C 
HETATM   13  N1  UNL     1       9.404  15.274  25.699  1.00  0.00    -0.075 N 
HETATM   14  C9  UNL     1       8.290  15.350  24.780  1.00  0.00     0.235 C 
ATOM     15  H12 UNL     1       9.649  16.185  26.085  1.00  0.00     0.277 HD
ATOM     16  H11 UNL     1      10.284  15.076  25.223  1.00  0.00     0.277 HD
HETATM   17  C10 UNL     1       7.011  15.237  25.567  1.00  0.00     0.070 C 
BRANCH  10  18
HETATM   18  O3  UNL     1       6.129  14.049  27.360  1.00  0.00    -0.385 OA
ATOM     19  H3  UNL     1       6.654  14.722  27.777  1.00  0.00     0.211 HD
ENDBRANCH  10  18
ENDBRANCH   5  10
BRANCH   1  20
HETATM   20  C1  UNL     1       3.770  14.620  25.751  1.00  0.00     0.217 C 
HETATM   21  O1  UNL     1       2.520  14.729  25.372  1.00  0.00    -0.643 OA
HETATM   22  O2  UNL     1       4.178  15.663  26.499  1.00  0.00    -0.643 OA
ENDBRANCH   1  20
BRANCH   9  23
HETATM   23  O4  UNL     1       3.949   9.525  22.761  1.00  0.00    -0.390 OA
ATOM     24  H4  UNL     1       4.029   8.643  22.417  1.00  0.00     0.210 HD
ENDBRANCH   9  23
TORSDOF 4
ENDMDL
