MODEL 1
REMARK VINA RESULT: -9.523110831      0.000      0.000
REMARK  5 active torsions:
REMARK  status: ('A' for Active; 'I' for Inactive)
REMARK    1  A    between atoms: C1_2  and  C2_4 
REMARK    2  A    between atoms: C8_13  and  S1_14 
REMARK    3  A    between atoms: S1_14  and  S2_15 
REMARK    4  A    between atoms: S2_15  and  C9_16 
REMARK    5  A    between atoms: C14_28  and  O4_29 
ROOT
HETATM    1  C2  UNL     1       4.716   9.726  23.598  1.00  0.00     0.118 C 
HETATM    2  C3  UNL     1       4.535  11.214  23.936  1.00  0.00     0.044 C 
HETATM    3  C4  UNL     1       5.867  11.835  23.600  1.00  0.00     0.109 C 
HETATM    4  C5  UNL     1       6.787  10.681  23.948  1.00  0.00     0.131 C 
HETATM    5  C6  UNL     1       8.127  11.119  23.524  1.00  0.00     0.232 C 
HETATM    6  O3  UNL     1       8.856  10.602  22.670  1.00  0.00    -0.273 OA
HETATM    7  N1  UNL     1       8.569  12.296  24.235  1.00  0.00    -0.310 N 
ATOM      8  H1  UNL     1       9.555  12.464  24.436  1.00  0.00     0.170 HD
HETATM    9  C7  UNL     1       7.554  13.211  24.642  1.00  0.00     0.146 A 
HETATM   10  C8  UNL     1       7.686  14.372  25.366  1.00  0.00     0.126 A 
HETATM   11  N3  UNL     1       6.411  14.851  25.533  1.00  0.00    -0.343 N 
ATOM     12  H3  UNL     1       6.149  15.702  26.030  1.00  0.00     0.167 HD
HETATM   13  C13 UNL     1       5.584  14.012  24.936  1.00  0.00     0.186 A 
HETATM   14  N4  UNL     1       6.243  12.969  24.362  1.00  0.00    -0.321 N 
HETATM   15  C14 UNL     1       6.166   9.594  23.111  1.00  0.00     0.147 C 
ENDROOT
BRANCH  10  16
HETATM   16  S1  UNL     1       9.084  15.233  26.007  1.00  0.00    -0.034 SA
BRANCH  16  17
HETATM   17  S2  UNL     1      10.618  14.099  26.794  1.00  0.00    -0.057 SA
BRANCH  17  18
HETATM   18  C9  UNL     1      12.209  14.852  26.516  1.00  0.00     0.260 C 
HETATM   19  C10 UNL     1      13.079  14.209  25.476  1.00  0.00     0.048 C 
HETATM   20  C11 UNL     1      14.501  14.501  26.040  1.00  0.00     0.052 C 
HETATM   21  C12 UNL     1      14.247  14.214  27.485  1.00  0.00     0.282 C 
HETATM   22 CL1  UNL     1      15.425  15.048  28.542  1.00  0.00    -0.095 Cl
HETATM   23  N2  UNL     1      12.965  14.802  27.761  1.00  0.00    -0.044 N 
ATOM     24  H22 UNL     1      13.039  15.713  28.213  1.00  0.00     0.280 HD
ATOM     25  H21 UNL     1      12.463  14.319  28.506  1.00  0.00     0.280 HD
ENDBRANCH  17  18
ENDBRANCH  16  17
ENDBRANCH  10  16
BRANCH  15  26
HETATM   26  O4  UNL     1       6.727   8.384  23.491  1.00  0.00    -0.394 OA
ATOM     27  H4  UNL     1       6.870   7.814  22.745  1.00  0.00     0.210 HD
ENDBRANCH  15  26
BRANCH   1  28
HETATM   28  C1  UNL     1       3.728   9.220  22.656  1.00  0.00     0.179 C 
HETATM   29  O1  UNL     1       3.985   9.253  21.405  1.00  0.00    -0.648 OA
HETATM   30  O2  UNL     1       2.514   8.700  23.040  1.00  0.00    -0.648 OA
ENDBRANCH   1  28
TORSDOF 5
ENDMDL
MODEL 2
REMARK VINA RESULT: -9.094205437      5.530      9.268
REMARK  5 active torsions:
REMARK  status: ('A' for Active; 'I' for Inactive)
REMARK    1  A    between atoms: C1_2  and  C2_4 
REMARK    2  A    between atoms: C8_13  and  S1_14 
REMARK    3  A    between atoms: S1_14  and  S2_15 
REMARK    4  A    between atoms: S2_15  and  C9_16 
REMARK    5  A    between atoms: C14_28  and  O4_29 
ROOT
HETATM    1  C2  UNL     1       9.208  14.308  26.335  1.00  0.00     0.118 C 
HETATM    2  C3  UNL     1       9.074  13.251  25.229  1.00  0.00     0.044 C 
HETATM    3  C4  UNL     1       7.721  13.518  24.623  1.00  0.00     0.109 C 
HETATM    4  C5  UNL     1       6.974  13.996  25.853  1.00  0.00     0.131 C 
HETATM    5  C6  UNL     1       5.658  14.430  25.356  1.00  0.00     0.232 C 
HETATM    6  O3  UNL     1       5.167  15.563  25.407  1.00  0.00    -0.273 OA
HETATM    7  N1  UNL     1       4.915  13.347  24.754  1.00  0.00    -0.310 N 
ATOM      8  H1  UNL     1       3.896  13.311  24.785  1.00  0.00     0.170 HD
HETATM    9  C7  UNL     1       5.682  12.331  24.111  1.00  0.00     0.146 A 
HETATM   10  C8  UNL     1       5.243  11.177  23.507  1.00  0.00     0.126 A 
HETATM   11  N3  UNL     1       6.374  10.521  23.094  1.00  0.00    -0.343 N 
ATOM     12  H3  UNL     1       6.406   9.626  22.608  1.00  0.00     0.167 HD
HETATM   13  C13 UNL     1       7.415  11.257  23.440  1.00  0.00     0.186 A 
HETATM   14  N4  UNL     1       7.042  12.399  24.078  1.00  0.00    -0.321 N 
HETATM   15  C14 UNL     1       7.893  15.101  26.300  1.00  0.00     0.147 C 
ENDROOT
BRANCH  10  16
HETATM   16  S1  UNL     1       3.635  10.519  23.206  1.00  0.00    -0.034 SA
BRANCH  16  17
HETATM   17  S2  UNL     1       2.028  11.790  23.449  1.00  0.00    -0.057 SA
BRANCH  17  18
HETATM   18  C9  UNL     1       0.581  10.927  24.027  1.00  0.00     0.260 C 
HETATM   19  C10 UNL     1      -0.724  11.660  23.915  1.00  0.00     0.048 C 
HETATM   20  C11 UNL     1      -1.503  11.093  25.137  1.00  0.00     0.052 C 
HETATM   21  C12 UNL     1      -0.402  11.108  26.149  1.00  0.00     0.282 C 
HETATM   22 CL1  UNL     1      -0.704   9.943  27.473  1.00  0.00    -0.095 Cl
HETATM   23  N2  UNL     1       0.757  10.633  25.444  1.00  0.00    -0.044 N 
ATOM     24  H22 UNL     1       0.947   9.647  25.621  1.00  0.00     0.280 HD
ATOM     25  H21 UNL     1       1.627  11.011  25.819  1.00  0.00     0.280 HD
ENDBRANCH  17  18
ENDBRANCH  16  17
ENDBRANCH  10  16
BRANCH  15  26
HETATM   26  O4  UNL     1       7.501  15.501  27.568  1.00  0.00    -0.394 OA
ATOM     27  H4  UNL     1       6.569  15.382  27.701  1.00  0.00     0.210 HD
ENDBRANCH  15  26
BRANCH   1  28
HETATM   28  C1  UNL     1      10.400  15.135  26.207  1.00  0.00     0.179 C 
HETATM   29  O1  UNL     1      10.358  16.353  26.592  1.00  0.00    -0.648 OA
HETATM   30  O2  UNL     1      11.588  14.675  25.688  1.00  0.00    -0.648 OA
ENDBRANCH   1  28
TORSDOF 5
ENDMDL
MODEL 3
REMARK VINA RESULT: -9.047725071      5.783      9.500
REMARK  5 active torsions:
REMARK  status: ('A' for Active; 'I' for Inactive)
REMARK    1  A    between atoms: C1_2  and  C2_4 
REMARK    2  A    between atoms: C8_13  and  S1_14 
REMARK    3  A    between atoms: S1_14  and  S2_15 
REMARK    4  A    between atoms: S2_15  and  C9_16 
REMARK    5  A    between atoms: C14_28  and  O4_29 
ROOT
HETATM    1  C2  UNL     1       9.082  14.286  26.339  1.00  0.00     0.118 C 
HETATM    2  C3  UNL     1       8.821  13.266  25.220  1.00  0.00     0.044 C 
HETATM    3  C4  UNL     1       7.467  13.647  24.679  1.00  0.00     0.109 C 
HETATM    4  C5  UNL     1       6.812  14.152  25.951  1.00  0.00     0.131 C 
HETATM    5  C6  UNL     1       5.513  14.694  25.521  1.00  0.00     0.232 C 
HETATM    6  O3  UNL     1       5.111  15.859  25.616  1.00  0.00    -0.273 OA
HETATM    7  N1  UNL     1       4.665  13.683  24.932  1.00  0.00    -0.310 N 
ATOM      8  H1  UNL     1       3.648  13.723  25.008  1.00  0.00     0.170 HD
HETATM    9  C7  UNL     1       5.325  12.628  24.237  1.00  0.00     0.146 A 
HETATM   10  C8  UNL     1       4.774  11.524  23.631  1.00  0.00     0.126 A 
HETATM   11  N3  UNL     1       5.834  10.795  23.155  1.00  0.00    -0.343 N 
ATOM     12  H3  UNL     1       5.777   9.910  22.651  1.00  0.00     0.167 HD
HETATM   13  C13 UNL     1       6.942  11.442  23.468  1.00  0.00     0.186 A 
HETATM   14  N4  UNL     1       6.683  12.595  24.144  1.00  0.00    -0.321 N 
HETATM   15  C14 UNL     1       7.831  15.175  26.378  1.00  0.00     0.147 C 
ENDROOT
BRANCH  10  16
HETATM   16  S1  UNL     1       3.110  10.994  23.389  1.00  0.00    -0.034 SA
BRANCH  16  17
HETATM   17  S2  UNL     1       2.045  10.419  25.061  1.00  0.00    -0.057 SA
BRANCH  17  18
HETATM   18  C9  UNL     1       0.507  11.307  25.205  1.00  0.00     0.260 C 
HETATM   19  C10 UNL     1      -0.688  10.506  25.633  1.00  0.00     0.048 C 
HETATM   20  C11 UNL     1      -1.839  11.251  24.895  1.00  0.00     0.052 C 
HETATM   21  C12 UNL     1      -1.172  11.471  23.575  1.00  0.00     0.282 C 
HETATM   22 CL1  UNL     1      -1.898  12.842  22.686  1.00  0.00    -0.095 Cl
HETATM   23  N2  UNL     1       0.173  11.861  23.899  1.00  0.00    -0.044 N 
ATOM     24  H22 UNL     1       0.311  12.871  23.854  1.00  0.00     0.280 HD
ATOM     25  H21 UNL     1       0.844  11.598  23.177  1.00  0.00     0.280 HD
ENDBRANCH  17  18
ENDBRANCH  16  17
ENDBRANCH  10  16
BRANCH  15  26
HETATM   26  O4  UNL     1       7.525  15.575  27.669  1.00  0.00    -0.394 OA
ATOM     27  H4  UNL     1       6.619  15.393  27.888  1.00  0.00     0.210 HD
ENDBRANCH  15  26
BRANCH   1  28
HETATM   28  C1  UNL     1      10.327  15.024  26.174  1.00  0.00     0.179 C 
HETATM   29  O1  UNL     1      10.377  16.249  26.535  1.00  0.00    -0.648 OA
HETATM   30  O2  UNL     1      11.469  14.472  25.644  1.00  0.00    -0.648 OA
ENDBRANCH   1  28
TORSDOF 5
ENDMDL
MODEL 4
REMARK VINA RESULT: -8.838620443      5.478      8.700
REMARK  5 active torsions:
REMARK  status: ('A' for Active; 'I' for Inactive)
REMARK    1  A    between atoms: C1_2  and  C2_4 
REMARK    2  A    between atoms: C8_13  and  S1_14 
REMARK    3  A    between atoms: S1_14  and  S2_15 
REMARK    4  A    between atoms: S2_15  and  C9_16 
REMARK    5  A    between atoms: C14_28  and  O4_29 
ROOT
HETATM    1  C2  UNL     1       7.279  14.600  24.939  1.00  0.00     0.118 C 
HETATM    2  C3  UNL     1       5.851  15.066  25.263  1.00  0.00     0.044 C 
HETATM    3  C4  UNL     1       5.026  13.807  25.203  1.00  0.00     0.109 C 
HETATM    4  C5  UNL     1       5.772  13.058  24.115  1.00  0.00     0.131 C 
HETATM    5  C6  UNL     1       5.138  11.731  24.061  1.00  0.00     0.232 C 
HETATM    6  O3  UNL     1       5.663  10.634  24.283  1.00  0.00    -0.273 OA
HETATM    7  N1  UNL     1       3.742  11.804  23.700  1.00  0.00    -0.310 N 
ATOM      8  H1  UNL     1       3.282  11.059  23.177  1.00  0.00     0.170 HD
HETATM    9  C7  UNL     1       3.040  12.975  24.113  1.00  0.00     0.146 A 
HETATM   10  C8  UNL     1       1.734  13.324  23.866  1.00  0.00     0.126 A 
HETATM   11  N3  UNL     1       1.567  14.562  24.433  1.00  0.00    -0.343 N 
ATOM     12  H3  UNL     1       0.709  15.113  24.431  1.00  0.00     0.167 HD
HETATM   13  C13 UNL     1       2.717  14.912  24.981  1.00  0.00     0.186 A 
HETATM   14  N4  UNL     1       3.672  13.958  24.812  1.00  0.00    -0.321 N 
HETATM   15  C14 UNL     1       7.164  13.088  24.689  1.00  0.00     0.147 C 
ENDROOT
BRANCH  10  16
HETATM   16  S1  UNL     1       0.406  12.499  23.049  1.00  0.00    -0.034 SA
BRANCH  16  17
HETATM   17  S2  UNL     1      -1.060  11.659  24.232  1.00  0.00    -0.057 SA
BRANCH  17  18
HETATM   18  C9  UNL     1      -0.481  10.193  25.063  1.00  0.00     0.260 C 
HETATM   19  C10 UNL     1      -0.431  10.251  26.562  1.00  0.00     0.048 C 
HETATM   20  C11 UNL     1       0.774   9.314  26.867  1.00  0.00     0.052 C 
HETATM   21  C12 UNL     1       1.708   9.769  25.791  1.00  0.00     0.282 C 
HETATM   22 CL1  UNL     1       2.920   8.516  25.392  1.00  0.00    -0.095 Cl
HETATM   23  N2  UNL     1       0.883   9.924  24.625  1.00  0.00    -0.044 N 
ATOM     24  H22 UNL     1       0.942   9.127  23.992  1.00  0.00     0.280 HD
ATOM     25  H21 UNL     1       1.236  10.635  23.984  1.00  0.00     0.280 HD
ENDBRANCH  17  18
ENDBRANCH  16  17
ENDBRANCH  10  16
BRANCH  15  26
HETATM   26  O4  UNL     1       8.044  12.664  23.706  1.00  0.00    -0.394 OA
ATOM     27  H4  UNL     1       7.808  13.005  22.851  1.00  0.00     0.210 HD
ENDBRANCH  15  26
BRANCH   1  28
HETATM   28  C1  UNL     1       8.252  14.957  25.961  1.00  0.00     0.179 C 
HETATM   29  O1  UNL     1       9.497  14.917  25.676  1.00  0.00    -0.648 OA
HETATM   30  O2  UNL     1       7.906  15.340  27.236  1.00  0.00    -0.648 OA
ENDBRANCH   1  28
TORSDOF 5
ENDMDL
MODEL 5
REMARK VINA RESULT: -8.811016879      5.563      9.073
REMARK  5 active torsions:
REMARK  status: ('A' for Active; 'I' for Inactive)
REMARK    1  A    between atoms: C1_2  and  C2_4 
REMARK    2  A    between atoms: C8_13  and  S1_14 
REMARK    3  A    between atoms: S1_14  and  S2_15 
REMARK    4  A    between atoms: S2_15  and  C9_16 
REMARK    5  A    between atoms: C14_28  and  O4_29 
ROOT
HETATM    1  C2  UNL     1       9.209  14.285  26.289  1.00  0.00     0.118 C 
HETATM    2  C3  UNL     1       9.329  13.174  25.234  1.00  0.00     0.044 C 
HETATM    3  C4  UNL     1       8.025  13.236  24.480  1.00  0.00     0.109 C 
HETATM    4  C5  UNL     1       7.096  13.663  25.601  1.00  0.00     0.131 C 
HETATM    5  C6  UNL     1       5.797  13.900  24.951  1.00  0.00     0.232 C 
HETATM    6  O3  UNL     1       5.165  14.960  24.890  1.00  0.00    -0.273 OA
HETATM    7  N1  UNL     1       5.266  12.705  24.337  1.00  0.00    -0.310 N 
ATOM      8  H1  UNL     1       4.262  12.537  24.267  1.00  0.00     0.170 HD
HETATM    9  C7  UNL     1       6.219  11.773  23.832  1.00  0.00     0.146 A 
HETATM   10  C8  UNL     1       5.996  10.547  23.250  1.00  0.00     0.126 A 
HETATM   11  N3  UNL     1       7.239  10.029  22.990  1.00  0.00    -0.343 N 
ATOM     12  H3  UNL     1       7.435   9.126  22.559  1.00  0.00     0.167 HD
HETATM   13  C13 UNL     1       8.136  10.908  23.398  1.00  0.00     0.186 A 
HETATM   14  N4  UNL     1       7.555  12.017  23.932  1.00  0.00    -0.321 N 
HETATM   15  C14 UNL     1       7.816  14.897  26.077  1.00  0.00     0.147 C 
ENDROOT
BRANCH  10  16
HETATM   16  S1  UNL     1       4.525   9.672  22.825  1.00  0.00    -0.034 SA
BRANCH  16  17
HETATM   17  S2  UNL     1       2.956   9.747  24.163  1.00  0.00    -0.057 SA
BRANCH  17  18
HETATM   18  C9  UNL     1       1.598  10.716  23.537  1.00  0.00     0.260 C 
HETATM   19  C10 UNL     1       1.713  12.205  23.690  1.00  0.00     0.048 C 
HETATM   20  C11 UNL     1       0.220  12.615  23.851  1.00  0.00     0.052 C 
HETATM   21  C12 UNL     1      -0.230  11.522  24.767  1.00  0.00     0.282 C 
HETATM   22 CL1  UNL     1      -1.996  11.259  24.666  1.00  0.00    -0.095 Cl
HETATM   23  N2  UNL     1       0.390  10.330  24.254  1.00  0.00    -0.044 N 
ATOM     24  H22 UNL     1      -0.245   9.771  23.684  1.00  0.00     0.280 HD
ATOM     25  H21 UNL     1       0.568   9.636  24.981  1.00  0.00     0.280 HD
ENDBRANCH  17  18
ENDBRANCH  16  17
ENDBRANCH  10  16
BRANCH  15  26
HETATM   26  O4  UNL     1       7.244  15.294  27.275  1.00  0.00    -0.394 OA
ATOM     27  H4  UNL     1       7.494  14.722  27.992  1.00  0.00     0.210 HD
ENDBRANCH  15  26
BRANCH   1  28
HETATM   28  C1  UNL     1      10.294  15.255  26.236  1.00  0.00     0.179 C 
HETATM   29  O1  UNL     1      10.090  16.441  26.665  1.00  0.00    -0.648 OA
HETATM   30  O2  UNL     1      11.546  14.964  25.745  1.00  0.00    -0.648 OA
ENDBRANCH   1  28
TORSDOF 5
ENDMDL
