MODEL 1
REMARK VINA RESULT: -9.434893783      0.000      0.000
REMARK  7 active torsions:
REMARK  status: ('A' for Active; 'I' for Inactive)
REMARK    1  A    between atoms: C2_2  and  N1_3 
REMARK       I    between atoms: N1_3  and  C3_5 
REMARK       I    between atoms: C3_5  and  N2_7 
REMARK    2  A    between atoms: N2_7  and  C4_9 
REMARK    3  A    between atoms: C7_12  and  N3_13 
REMARK    4  A    between atoms: N3_13  and  C8_15 
REMARK    5  A    between atoms: C9_18  and  O2_19 
REMARK    6  A    between atoms: O2_19  and  C10_20 
REMARK    7  A    between atoms: C13_23  and  O3_24 
ROOT
HETATM    1  C8  UNL     1       4.448  11.987  24.174  1.00  0.00     0.164 A 
HETATM    2  N4  UNL     1       3.239  11.825  24.691  1.00  0.00    -0.301 N 
ATOM      3  H4  UNL     1       2.753  12.616  25.115  1.00  0.00     0.171 HD
HETATM    4  C9  UNL     1       2.678  10.661  24.655  1.00  0.00     0.232 A 
HETATM    5  N5  UNL     1       3.357   9.653  24.088  1.00  0.00    -0.289 N 
ATOM      6  H5  UNL     1       3.079   8.679  23.971  1.00  0.00     0.178 HD
HETATM    7  S1  UNL     1       4.788  10.409  23.620  1.00  0.00     0.025 SA
ENDROOT
BRANCH   1   8
HETATM    8  N3  UNL     1       5.127  13.098  24.141  1.00  0.00    -0.365 N 
ATOM      9  H3  UNL     1       4.785  13.857  23.553  1.00  0.00     0.162 HD
BRANCH   8  10
HETATM   10  C7  UNL     1       6.328  13.303  24.886  1.00  0.00     0.083 C 
HETATM   11  C6  UNL     1       7.599  13.016  24.129  1.00  0.00     0.027 C 
HETATM   12  C5  UNL     1       8.732  13.012  25.132  1.00  0.00     0.027 C 
HETATM   13  C4  UNL     1       8.777  14.290  25.896  1.00  0.00     0.086 C 
HETATM   14  C17 UNL     1       7.757  15.250  25.351  1.00  0.00     0.027 C 
HETATM   15  C16 UNL     1       6.351  14.702  25.414  1.00  0.00     0.027 C 
BRANCH  13  16
HETATM   16  N2  UNL     1      10.089  14.891  25.843  1.00  0.00    -0.339 N 
HETATM   17  C3  UNL     1      11.126  14.543  26.722  1.00  0.00     0.316 C 
HETATM   18  N1  UNL     1      12.407  15.164  26.631  1.00  0.00    -0.343 N 
HETATM   19  O1  UNL     1      10.960  13.675  27.612  1.00  0.00    -0.247 OA
ATOM     20  H1  UNL     1      12.564  15.873  25.914  1.00  0.00     0.164 HD
ATOM     21  H2  UNL     1      10.270  15.601  25.134  1.00  0.00     0.164 HD
BRANCH  18  22
HETATM   22  C2  UNL     1      13.488  14.816  27.528  1.00  0.00     0.120 C 
HETATM   23  C1  UNL     1      14.790  14.570  26.799  1.00  0.00     0.026 C 
ENDBRANCH  18  22
ENDBRANCH  13  16
ENDBRANCH   8  10
ENDBRANCH   1   8
BRANCH   4  24
HETATM   24  O2  UNL     1       1.388  10.409  25.185  1.00  0.00    -0.316 OA
BRANCH  24  25
HETATM   25  C10 UNL     1       0.312  11.184  24.770  1.00  0.00     0.135 C 
HETATM   26  C11 UNL     1      -0.998  10.401  24.758  1.00  0.00     0.035 C 
HETATM   27  C12 UNL     1      -2.100  11.340  24.386  1.00  0.00     0.037 C 
HETATM   28  C13 UNL     1      -1.840  11.949  23.024  1.00  0.00     0.152 C 
HETATM   29  C14 UNL     1      -0.541  12.746  23.103  1.00  0.00     0.201 C 
HETATM   30  F1  UNL     1      -0.335  13.386  21.899  1.00  0.00    -0.247 F 
HETATM   31  C15 UNL     1       0.559  11.736  23.356  1.00  0.00     0.072 C 
BRANCH  28  32
HETATM   32  O3  UNL     1      -2.844  12.817  22.668  1.00  0.00    -0.393 OA
ATOM     33  H3  UNL     1      -3.038  12.756  21.739  1.00  0.00     0.210 HD
ENDBRANCH  28  32
ENDBRANCH  24  25
ENDBRANCH   4  24
TORSDOF 7
ENDMDL
MODEL 2
REMARK VINA RESULT: -9.165572062      2.011      2.437
REMARK  7 active torsions:
REMARK  status: ('A' for Active; 'I' for Inactive)
REMARK    1  A    between atoms: C2_2  and  N1_3 
REMARK       I    between atoms: N1_3  and  C3_5 
REMARK       I    between atoms: C3_5  and  N2_7 
REMARK    2  A    between atoms: N2_7  and  C4_9 
REMARK    3  A    between atoms: C7_12  and  N3_13 
REMARK    4  A    between atoms: N3_13  and  C8_15 
REMARK    5  A    between atoms: C9_18  and  O2_19 
REMARK    6  A    between atoms: O2_19  and  C10_20 
REMARK    7  A    between atoms: C13_23  and  O3_24 
ROOT
HETATM    1  C8  UNL     1       4.329  11.837  23.921  1.00  0.00     0.164 A 
HETATM    2  N4  UNL     1       3.060  11.513  23.717  1.00  0.00    -0.301 N 
ATOM      3  H4  UNL     1       2.334  12.228  23.769  1.00  0.00     0.171 HD
HETATM    4  C9  UNL     1       2.747  10.287  23.452  1.00  0.00     0.232 A 
HETATM    5  N5  UNL     1       3.737   9.384  23.397  1.00  0.00    -0.289 N 
ATOM      6  H5  UNL     1       3.683   8.384  23.205  1.00  0.00     0.178 HD
HETATM    7  S1  UNL     1       5.094  10.325  23.726  1.00  0.00     0.025 SA
ENDROOT
BRANCH   1   8
HETATM    8  N3  UNL     1       4.783  13.027  24.193  1.00  0.00    -0.365 N 
ATOM      9  H3  UNL     1       4.242  13.834  23.887  1.00  0.00     0.162 HD
BRANCH   8  10
HETATM   10  C7  UNL     1       6.003  13.255  24.899  1.00  0.00     0.083 C 
HETATM   11  C6  UNL     1       7.254  13.040  24.086  1.00  0.00     0.027 C 
HETATM   12  C5  UNL     1       8.424  13.048  25.045  1.00  0.00     0.027 C 
HETATM   13  C4  UNL     1       8.452  14.303  25.847  1.00  0.00     0.086 C 
HETATM   14  C17 UNL     1       7.377  15.239  25.372  1.00  0.00     0.027 C 
HETATM   15  C16 UNL     1       5.996  14.637  25.470  1.00  0.00     0.027 C 
BRANCH  13  16
HETATM   16  N2  UNL     1       9.738  14.955  25.764  1.00  0.00    -0.339 N 
HETATM   17  C3  UNL     1      10.852  14.547  26.514  1.00  0.00     0.316 C 
HETATM   18  N1  UNL     1      12.103  15.222  26.398  1.00  0.00    -0.343 N 
HETATM   19  O1  UNL     1      10.782  13.578  27.306  1.00  0.00    -0.247 OA
ATOM     20  H1  UNL     1      12.182  16.014  25.759  1.00  0.00     0.164 HD
ATOM     21  H2  UNL     1       9.841  15.747  25.131  1.00  0.00     0.164 HD
BRANCH  18  22
HETATM   22  C2  UNL     1      13.263  14.813  27.163  1.00  0.00     0.120 C 
HETATM   23  C1  UNL     1      14.462  14.526  26.288  1.00  0.00     0.026 C 
ENDBRANCH  18  22
ENDBRANCH  13  16
ENDBRANCH   8  10
ENDBRANCH   1   8
BRANCH   4  24
HETATM   24  O2  UNL     1       1.415   9.862  23.222  1.00  0.00    -0.316 OA
BRANCH  24  25
HETATM   25  C10 UNL     1       0.517   9.814  24.281  1.00  0.00     0.135 C 
HETATM   26  C11 UNL     1      -0.261  11.118  24.443  1.00  0.00     0.035 C 
HETATM   27  C12 UNL     1      -1.254  10.934  25.545  1.00  0.00     0.037 C 
HETATM   28  C13 UNL     1      -0.553  10.577  26.838  1.00  0.00     0.152 C 
HETATM   29  C14 UNL     1       0.177   9.253  26.630  1.00  0.00     0.201 C 
HETATM   30  F1  UNL     1       0.746   8.863  27.825  1.00  0.00    -0.247 F 
HETATM   31  C15 UNL     1       1.254   9.523  25.599  1.00  0.00     0.072 C 
BRANCH  28  32
HETATM   32  O3  UNL     1      -1.454  10.403  27.861  1.00  0.00    -0.393 OA
ATOM     33  H3  UNL     1      -2.320  10.203  27.526  1.00  0.00     0.210 HD
ENDBRANCH  28  32
ENDBRANCH  24  25
ENDBRANCH   4  24
TORSDOF 7
ENDMDL
MODEL 3
REMARK VINA RESULT: -9.078378620      1.074      1.367
REMARK  7 active torsions:
REMARK  status: ('A' for Active; 'I' for Inactive)
REMARK    1  A    between atoms: C2_2  and  N1_3 
REMARK       I    between atoms: N1_3  and  C3_5 
REMARK       I    between atoms: C3_5  and  N2_7 
REMARK    2  A    between atoms: N2_7  and  C4_9 
REMARK    3  A    between atoms: C7_12  and  N3_13 
REMARK    4  A    between atoms: N3_13  and  C8_15 
REMARK    5  A    between atoms: C9_18  and  O2_19 
REMARK    6  A    between atoms: O2_19  and  C10_20 
REMARK    7  A    between atoms: C13_23  and  O3_24 
ROOT
HETATM    1  C8  UNL     1       4.650  13.082  24.577  1.00  0.00     0.164 A 
HETATM    2  N4  UNL     1       3.454  12.587  24.861  1.00  0.00    -0.301 N 
ATOM      3  H4  UNL     1       2.724  13.194  25.235  1.00  0.00     0.171 HD
HETATM    4  C9  UNL     1       3.217  11.332  24.662  1.00  0.00     0.232 A 
HETATM    5  N5  UNL     1       4.209  10.575  24.170  1.00  0.00    -0.289 N 
ATOM      6  H5  UNL     1       4.208   9.579  23.952  1.00  0.00     0.178 HD
HETATM    7  S1  UNL     1       5.459  11.692  24.005  1.00  0.00     0.025 SA
ENDROOT
BRANCH   1   8
HETATM    8  N3  UNL     1       5.024  14.321  24.725  1.00  0.00    -0.365 N 
ATOM      9  H3  UNL     1       4.406  15.058  24.387  1.00  0.00     0.162 HD
BRANCH   8  10
HETATM   10  C7  UNL     1       6.258  14.697  25.337  1.00  0.00     0.083 C 
HETATM   11  C6  UNL     1       6.400  14.285  26.780  1.00  0.00     0.027 C 
HETATM   12  C5  UNL     1       7.614  14.994  27.337  1.00  0.00     0.027 C 
HETATM   13  C4  UNL     1       8.826  14.704  26.520  1.00  0.00     0.086 C 
HETATM   14  C17 UNL     1       8.499  13.691  25.459  1.00  0.00     0.027 C 
HETATM   15  C16 UNL     1       7.397  14.151  24.536  1.00  0.00     0.027 C 
BRANCH  13  16
HETATM   16  N2  UNL     1       9.911  14.219  27.340  1.00  0.00    -0.339 N 
HETATM   17  C3  UNL     1      11.209  14.752  27.285  1.00  0.00     0.316 C 
HETATM   18  N1  UNL     1      12.249  14.239  28.115  1.00  0.00    -0.343 N 
HETATM   19  O1  UNL     1      11.492  15.693  26.507  1.00  0.00    -0.247 OA
ATOM     20  H1  UNL     1      12.041  13.473  28.755  1.00  0.00     0.164 HD
ATOM     21  H2  UNL     1       9.726  13.455  27.989  1.00  0.00     0.164 HD
BRANCH  18  22
HETATM   22  C2  UNL     1      13.593  14.778  28.072  1.00  0.00     0.120 C 
HETATM   23  C1  UNL     1      14.357  14.333  26.846  1.00  0.00     0.026 C 
ENDBRANCH  18  22
ENDBRANCH  13  16
ENDBRANCH   8  10
ENDBRANCH   1   8
BRANCH   4  24
HETATM   24  O2  UNL     1       1.965  10.729  24.941  1.00  0.00    -0.316 OA
BRANCH  24  25
HETATM   25  C10 UNL     1       0.793  11.405  24.627  1.00  0.00     0.135 C 
HETATM   26  C11 UNL     1      -0.449  10.541  24.829  1.00  0.00     0.035 C 
HETATM   27  C12 UNL     1      -1.653  11.381  24.551  1.00  0.00     0.037 C 
HETATM   28  C13 UNL     1      -1.611  11.918  23.136  1.00  0.00     0.152 C 
HETATM   29  C14 UNL     1      -0.373  12.799  23.002  1.00  0.00     0.201 C 
HETATM   30  F1  UNL     1      -0.366  13.373  21.747  1.00  0.00    -0.247 F 
HETATM   31  C15 UNL     1       0.820  11.880  23.165  1.00  0.00     0.072 C 
BRANCH  28  32
HETATM   32  O3  UNL     1      -2.711  12.695  22.865  1.00  0.00    -0.393 OA
ATOM     33  H3  UNL     1      -2.527  13.615  23.011  1.00  0.00     0.210 HD
ENDBRANCH  28  32
ENDBRANCH  24  25
ENDBRANCH   4  24
TORSDOF 7
ENDMDL
MODEL 4
REMARK VINA RESULT: -9.074605540      1.092      1.445
REMARK  7 active torsions:
REMARK  status: ('A' for Active; 'I' for Inactive)
REMARK    1  A    between atoms: C2_2  and  N1_3 
REMARK       I    between atoms: N1_3  and  C3_5 
REMARK       I    between atoms: C3_5  and  N2_7 
REMARK    2  A    between atoms: N2_7  and  C4_9 
REMARK    3  A    between atoms: C7_12  and  N3_13 
REMARK    4  A    between atoms: N3_13  and  C8_15 
REMARK    5  A    between atoms: C9_18  and  O2_19 
REMARK    6  A    between atoms: O2_19  and  C10_20 
REMARK    7  A    between atoms: C13_23  and  O3_24 
ROOT
HETATM    1  C8  UNL     1       4.936  12.365  24.200  1.00  0.00     0.164 A 
HETATM    2  N4  UNL     1       3.687  12.271  24.634  1.00  0.00    -0.301 N 
ATOM      3  H4  UNL     1       3.218  13.088  25.025  1.00  0.00     0.171 HD
HETATM    4  C9  UNL     1       3.067  11.139  24.559  1.00  0.00     0.232 A 
HETATM    5  N5  UNL     1       3.727  10.094  24.038  1.00  0.00    -0.289 N 
ATOM      6  H5  UNL     1       3.405   9.136  23.901  1.00  0.00     0.178 HD
HETATM    7  S1  UNL     1       5.225  10.769  23.669  1.00  0.00     0.025 SA
ENDROOT
BRANCH   1   8
HETATM    8  N3  UNL     1       5.675  13.437  24.214  1.00  0.00    -0.365 N 
ATOM      9  H3  UNL     1       5.411  14.216  23.611  1.00  0.00     0.162 HD
BRANCH   8  10
HETATM   10  C7  UNL     1       6.837  13.575  25.032  1.00  0.00     0.083 C 
HETATM   11  C6  UNL     1       8.112  13.066  24.411  1.00  0.00     0.027 C 
HETATM   12  C5  UNL     1       9.164  13.032  25.498  1.00  0.00     0.027 C 
HETATM   13  C4  UNL     1       9.314  14.367  26.142  1.00  0.00     0.086 C 
HETATM   14  C17 UNL     1       8.461  15.378  25.429  1.00  0.00     0.027 C 
HETATM   15  C16 UNL     1       6.998  15.009  25.428  1.00  0.00     0.027 C 
BRANCH  13  16
HETATM   16  N2  UNL     1      10.691  14.801  26.140  1.00  0.00    -0.339 N 
HETATM   17  C3  UNL     1      11.607  14.444  27.142  1.00  0.00     0.316 C 
HETATM   18  N1  UNL     1      12.958  14.898  27.097  1.00  0.00    -0.343 N 
HETATM   19  O1  UNL     1      11.267  13.716  28.103  1.00  0.00    -0.247 OA
ATOM     20  H1  UNL     1      13.257  15.493  26.323  1.00  0.00     0.164 HD
ATOM     21  H2  UNL     1      11.012  15.394  25.376  1.00  0.00     0.164 HD
BRANCH  18  22
HETATM   22  C2  UNL     1      13.917  14.538  28.121  1.00  0.00     0.120 C 
HETATM   23  C1  UNL     1      15.227  15.279  27.974  1.00  0.00     0.026 C 
ENDBRANCH  18  22
ENDBRANCH  13  16
ENDBRANCH   8  10
ENDBRANCH   1   8
BRANCH   4  24
HETATM   24  O2  UNL     1       1.732  10.959  25.001  1.00  0.00    -0.316 OA
BRANCH  24  25
HETATM   25  C10 UNL     1       0.681  11.231  24.135  1.00  0.00     0.135 C 
HETATM   26  C11 UNL     1       0.735  12.654  23.584  1.00  0.00     0.035 C 
HETATM   27  C12 UNL     1      -0.381  12.817  22.603  1.00  0.00     0.037 C 
HETATM   28  C13 UNL     1      -1.716  12.562  23.270  1.00  0.00     0.152 C 
HETATM   29  C14 UNL     1      -1.727  11.120  23.769  1.00  0.00     0.201 C 
HETATM   30  F1  UNL     1      -2.971  10.840  24.297  1.00  0.00    -0.247 F 
HETATM   31  C15 UNL     1      -0.668  11.039  24.848  1.00  0.00     0.072 C 
BRANCH  28  32
HETATM   32  O3  UNL     1      -2.752  12.707  22.379  1.00  0.00    -0.393 OA
ATOM     33  H3  UNL     1      -3.430  13.273  22.730  1.00  0.00     0.210 HD
ENDBRANCH  28  32
ENDBRANCH  24  25
ENDBRANCH   4  24
TORSDOF 7
ENDMDL
MODEL 5
REMARK VINA RESULT: -9.021888726      3.043      3.958
REMARK  7 active torsions:
REMARK  status: ('A' for Active; 'I' for Inactive)
REMARK    1  A    between atoms: C2_2  and  N1_3 
REMARK       I    between atoms: N1_3  and  C3_5 
REMARK       I    between atoms: C3_5  and  N2_7 
REMARK    2  A    between atoms: N2_7  and  C4_9 
REMARK    3  A    between atoms: C7_12  and  N3_13 
REMARK    4  A    between atoms: N3_13  and  C8_15 
REMARK    5  A    between atoms: C9_18  and  O2_19 
REMARK    6  A    between atoms: O2_19  and  C10_20 
REMARK    7  A    between atoms: C13_23  and  O3_24 
ROOT
HETATM    1  C8  UNL     1       3.590  12.328  24.244  1.00  0.00     0.164 A 
HETATM    2  N4  UNL     1       3.798  11.218  24.938  1.00  0.00    -0.301 N 
ATOM      3  H4  UNL     1       4.573  11.166  25.600  1.00  0.00     0.171 HD
HETATM    4  C9  UNL     1       3.016  10.203  24.772  1.00  0.00     0.232 A 
HETATM    5  N5  UNL     1       2.012  10.320  23.889  1.00  0.00    -0.289 N 
ATOM      6  H5  UNL     1       1.305   9.634  23.628  1.00  0.00     0.178 HD
HETATM    7  S1  UNL     1       2.222  11.892  23.321  1.00  0.00     0.025 SA
ENDROOT
BRANCH   1   8
HETATM    8  N3  UNL     1       4.295  13.420  24.312  1.00  0.00    -0.365 N 
ATOM      9  H3  UNL     1       3.912  14.271  23.902  1.00  0.00     0.162 HD
BRANCH   8  10
HETATM   10  C7  UNL     1       5.579  13.485  24.934  1.00  0.00     0.083 C 
HETATM   11  C6  UNL     1       6.742  13.219  24.013  1.00  0.00     0.027 C 
HETATM   12  C5  UNL     1       7.973  13.051  24.876  1.00  0.00     0.027 C 
HETATM   13  C4  UNL     1       8.178  14.236  25.756  1.00  0.00     0.086 C 
HETATM   14  C17 UNL     1       7.166  15.297  25.429  1.00  0.00     0.027 C 
HETATM   15  C16 UNL     1       5.744  14.817  25.595  1.00  0.00     0.027 C 
BRANCH  13  16
HETATM   16  N2  UNL     1       9.511  14.773  25.615  1.00  0.00    -0.339 N 
HETATM   17  C3  UNL     1      10.572  14.418  26.463  1.00  0.00     0.316 C 
HETATM   18  N1  UNL     1      11.872  14.976  26.285  1.00  0.00    -0.343 N 
HETATM   19  O1  UNL     1      10.410  13.600  27.399  1.00  0.00    -0.247 OA
ATOM     20  H1  UNL     1      12.027  15.643  25.529  1.00  0.00     0.164 HD
ATOM     21  H2  UNL     1       9.689  15.441  24.866  1.00  0.00     0.164 HD
BRANCH  18  22
HETATM   22  C2  UNL     1      12.979  14.619  27.149  1.00  0.00     0.120 C 
HETATM   23  C1  UNL     1      14.311  14.668  26.435  1.00  0.00     0.026 C 
ENDBRANCH  18  22
ENDBRANCH  13  16
ENDBRANCH   8  10
ENDBRANCH   1   8
BRANCH   4  24
HETATM   24  O2  UNL     1       3.173   8.983  25.476  1.00  0.00    -0.316 OA
BRANCH  24  25
HETATM   25  C10 UNL     1       2.668   8.865  26.765  1.00  0.00     0.135 C 
HETATM   26  C11 UNL     1       3.376   7.778  27.569  1.00  0.00     0.035 C 
HETATM   27  C12 UNL     1       2.825   7.791  28.958  1.00  0.00     0.037 C 
HETATM   28  C13 UNL     1       1.331   7.542  28.939  1.00  0.00     0.152 C 
HETATM   29  C14 UNL     1       0.674   8.673  28.155  1.00  0.00     0.201 C 
HETATM   30  F1  UNL     1      -0.696   8.515  28.205  1.00  0.00    -0.247 F 
HETATM   31  C15 UNL     1       1.167   8.540  26.728  1.00  0.00     0.072 C 
BRANCH  28  32
HETATM   32  O3  UNL     1       0.809   7.552  30.210  1.00  0.00    -0.393 OA
ATOM     33  H3  UNL     1       0.578   8.434  30.479  1.00  0.00     0.210 HD
ENDBRANCH  28  32
ENDBRANCH  24  25
ENDBRANCH   4  24
TORSDOF 7
ENDMDL
