MODEL 1
REMARK VINA RESULT: -5.204463263      0.000      0.000
REMARK  4 active torsions:
REMARK  status: ('A' for Active; 'I' for Inactive)
REMARK    1  A    between atoms: N1_2  and  C2_4 
REMARK    2  A    between atoms: C2_4  and  C3_10 
REMARK    3  A    between atoms: N2_5  and  N3_7 
REMARK       I    between atoms: C3_10  and  N4_12 
REMARK       I    between atoms: C4_14  and  N6_16 
REMARK    4  A    between atoms: N6_16  and  N7_18 
ROOT
HETATM    1  C3  UNL     1      63.545  29.281  34.406  1.00  0.00     0.293 C 
HETATM    2  O1  UNL     1      63.729  30.339  35.065  1.00  0.00    -0.264 OA
HETATM    3  N4  UNL     1      64.528  28.805  33.516  1.00  0.00    -0.293 N 
ATOM      4  H4  UNL     1      64.220  28.250  32.718  1.00  0.00     0.172 HD
HETATM    5  C4  UNL     1      65.786  29.025  33.646  1.00  0.00     0.209 C 
HETATM    6  N5  UNL     1      66.296  29.778  34.717  1.00  0.00    -0.062 NA
HETATM    7  N6  UNL     1      66.669  28.488  32.681  1.00  0.00    -0.280 N 
ATOM      8  H6  UNL     1      66.679  27.488  32.478  1.00  0.00     0.189 HD
ENDROOT
BRANCH   1   9
HETATM    9  C2  UNL     1      62.269  28.557  34.595  1.00  0.00     0.184 C 
HETATM   10  N2  UNL     1      61.892  28.174  35.767  1.00  0.00    -0.288 N 
ATOM     11  H2  UNL     1      61.003  27.680  35.837  1.00  0.00     0.188 HD
BRANCH   9  12
HETATM   12  N1  UNL     1      61.433  28.271  33.487  1.00  0.00    -0.375 N 
HETATM   13  C1  UNL     1      60.008  28.257  33.630  1.00  0.00     0.148 C 
ATOM     14  H1  UNL     1      61.851  28.072  32.578  1.00  0.00     0.160 HD
ENDBRANCH   9  12
BRANCH  10  15
HETATM   15  N3  UNL     1      62.604  28.382  36.942  1.00  0.00    -0.343 N 
ATOM     16  H32 UNL     1      63.612  28.235  36.893  1.00  0.00     0.176 HD
ATOM     17  H31 UNL     1      62.195  28.667  37.832  1.00  0.00     0.176 HD
ENDBRANCH  10  15
ENDBRANCH   1   9
BRANCH   7  18
HETATM   18  N7  UNL     1      67.523  29.358  32.016  1.00  0.00    -0.343 N 
ATOM     19  H72 UNL     1      67.814  30.228  32.463  1.00  0.00     0.176 HD
ATOM     20  H71 UNL     1      67.843  29.100  31.082  1.00  0.00     0.176 HD
ENDBRANCH   7  18
TORSDOF 4
ENDMDL
MODEL 2
REMARK VINA RESULT: -5.067363643      3.524      6.900
REMARK  4 active torsions:
REMARK  status: ('A' for Active; 'I' for Inactive)
REMARK    1  A    between atoms: N1_2  and  C2_4 
REMARK    2  A    between atoms: C2_4  and  C3_10 
REMARK    3  A    between atoms: N2_5  and  N3_7 
REMARK       I    between atoms: C3_10  and  N4_12 
REMARK       I    between atoms: C4_14  and  N6_16 
REMARK    4  A    between atoms: N6_16  and  N7_18 
ROOT
HETATM    1  C3  UNL     1      68.629  29.057  32.084  1.00  0.00     0.293 C 
HETATM    2  O1  UNL     1      69.299  28.563  33.029  1.00  0.00    -0.264 OA
HETATM    3  N4  UNL     1      67.221  29.059  32.122  1.00  0.00    -0.293 N 
ATOM      4  H4  UNL     1      66.720  29.046  31.234  1.00  0.00     0.172 HD
HETATM    5  C4  UNL     1      66.529  29.076  33.203  1.00  0.00     0.209 C 
HETATM    6  N5  UNL     1      67.138  29.096  34.468  1.00  0.00    -0.062 NA
HETATM    7  N6  UNL     1      65.118  29.077  33.102  1.00  0.00    -0.280 N 
ATOM      8  H6  UNL     1      64.632  29.794  32.562  1.00  0.00     0.189 HD
ENDROOT
BRANCH   1   9
HETATM    9  C2  UNL     1      69.364  29.630  30.936  1.00  0.00     0.184 C 
HETATM   10  N2  UNL     1      70.263  28.943  30.316  1.00  0.00    -0.288 N 
ATOM     11  H2  UNL     1      70.737  29.390  29.530  1.00  0.00     0.188 HD
BRANCH   9  12
HETATM   12  N1  UNL     1      69.094  30.949  30.494  1.00  0.00    -0.375 N 
HETATM   13  C1  UNL     1      70.153  31.803  30.049  1.00  0.00     0.148 C 
ATOM     14  H1  UNL     1      68.133  31.293  30.492  1.00  0.00     0.160 HD
ENDBRANCH   9  12
BRANCH  10  15
HETATM   15  N3  UNL     1      70.635  27.644  30.634  1.00  0.00    -0.343 N 
ATOM     16  H32 UNL     1      69.916  26.928  30.530  1.00  0.00     0.176 HD
ATOM     17  H31 UNL     1      71.560  27.362  30.956  1.00  0.00     0.176 HD
ENDBRANCH  10  15
ENDBRANCH   1   9
BRANCH   7  18
HETATM   18  N7  UNL     1      64.412  28.076  33.756  1.00  0.00    -0.343 N 
ATOM     19  H72 UNL     1      63.878  28.297  34.598  1.00  0.00     0.176 HD
ATOM     20  H71 UNL     1      64.446  27.131  33.373  1.00  0.00     0.176 HD
ENDBRANCH   7  18
TORSDOF 4
ENDMDL
MODEL 3
REMARK VINA RESULT: -5.059959676      2.219      2.750
REMARK  4 active torsions:
REMARK  status: ('A' for Active; 'I' for Inactive)
REMARK    1  A    between atoms: N1_2  and  C2_4 
REMARK    2  A    between atoms: C2_4  and  C3_10 
REMARK    3  A    between atoms: N2_5  and  N3_7 
REMARK       I    between atoms: C3_10  and  N4_12 
REMARK       I    between atoms: C4_14  and  N6_16 
REMARK    4  A    between atoms: N6_16  and  N7_18 
ROOT
HETATM    1  C3  UNL     1      65.484  28.197  34.501  1.00  0.00     0.293 C 
HETATM    2  O1  UNL     1      65.598  27.826  35.699  1.00  0.00    -0.264 OA
HETATM    3  N4  UNL     1      66.515  27.960  33.571  1.00  0.00    -0.293 N 
ATOM      4  H4  UNL     1      66.607  28.604  32.786  1.00  0.00     0.172 HD
HETATM    5  C4  UNL     1      67.345  26.983  33.648  1.00  0.00     0.209 C 
HETATM    6  N5  UNL     1      67.289  26.049  34.695  1.00  0.00    -0.062 NA
HETATM    7  N6  UNL     1      68.335  26.857  32.646  1.00  0.00    -0.280 N 
ATOM      8  H6  UNL     1      68.078  26.801  31.660  1.00  0.00     0.189 HD
ENDROOT
BRANCH   1   9
HETATM    9  C2  UNL     1      64.239  28.890  34.103  1.00  0.00     0.184 C 
HETATM   10  N2  UNL     1      63.889  29.996  34.666  1.00  0.00    -0.288 N 
ATOM     11  H2  UNL     1      63.021  30.430  34.351  1.00  0.00     0.188 HD
BRANCH   9  12
HETATM   12  N1  UNL     1      63.407  28.351  33.092  1.00  0.00    -0.375 N 
HETATM   13  C1  UNL     1      62.067  27.943  33.387  1.00  0.00     0.148 C 
ATOM     14  H1  UNL     1      63.767  28.251  32.142  1.00  0.00     0.160 HD
ENDBRANCH   9  12
BRANCH  10  15
HETATM   15  N3  UNL     1      64.600  30.642  35.669  1.00  0.00    -0.343 N 
ATOM     16  H32 UNL     1      65.421  30.155  36.028  1.00  0.00     0.176 HD
ATOM     17  H31 UNL     1      64.363  31.553  36.062  1.00  0.00     0.176 HD
ENDBRANCH  10  15
ENDBRANCH   1   9
BRANCH   7  18
HETATM   18  N7  UNL     1      69.666  26.812  33.039  1.00  0.00    -0.343 N 
ATOM     19  H72 UNL     1      69.935  27.139  33.967  1.00  0.00     0.176 HD
ATOM     20  H71 UNL     1      70.353  26.447  32.378  1.00  0.00     0.176 HD
ENDBRANCH   7  18
TORSDOF 4
ENDMDL
MODEL 4
REMARK VINA RESULT: -5.018073583      1.950      2.533
REMARK  4 active torsions:
REMARK  status: ('A' for Active; 'I' for Inactive)
REMARK    1  A    between atoms: N1_2  and  C2_4 
REMARK    2  A    between atoms: C2_4  and  C3_10 
REMARK    3  A    between atoms: N2_5  and  N3_7 
REMARK       I    between atoms: C3_10  and  N4_12 
REMARK       I    between atoms: C4_14  and  N6_16 
REMARK    4  A    between atoms: N6_16  and  N7_18 
ROOT
HETATM    1  C3  UNL     1      65.826  29.066  33.898  1.00  0.00     0.293 C 
HETATM    2  O1  UNL     1      66.454  28.910  34.978  1.00  0.00    -0.264 OA
HETATM    3  N4  UNL     1      66.510  29.135  32.669  1.00  0.00    -0.293 N 
ATOM      4  H4  UNL     1      66.081  29.669  31.913  1.00  0.00     0.172 HD
HETATM    5  C4  UNL     1      67.640  28.570  32.439  1.00  0.00     0.209 C 
HETATM    6  N5  UNL     1      68.300  27.815  33.423  1.00  0.00    -0.062 NA
HETATM    7  N6  UNL     1      68.221  28.717  31.158  1.00  0.00    -0.280 N 
ATOM      8  H6  UNL     1      67.710  28.451  30.317  1.00  0.00     0.189 HD
ENDROOT
BRANCH   1   9
HETATM    9  C2  UNL     1      64.352  29.174  33.960  1.00  0.00     0.184 C 
HETATM   10  N2  UNL     1      63.782  29.960  34.809  1.00  0.00    -0.288 N 
ATOM     11  H2  UNL     1      62.762  29.995  34.806  1.00  0.00     0.188 HD
BRANCH   9  12
HETATM   12  N1  UNL     1      63.537  28.416  33.084  1.00  0.00    -0.375 N 
HETATM   13  C1  UNL     1      62.236  27.978  33.491  1.00  0.00     0.148 C 
ATOM     14  H1  UNL     1      63.881  28.178  32.153  1.00  0.00     0.160 HD
ENDBRANCH   9  12
BRANCH  10  15
HETATM   15  N3  UNL     1      64.447  30.762  35.727  1.00  0.00    -0.343 N 
ATOM     16  H32 UNL     1      64.667  31.711  35.424  1.00  0.00     0.176 HD
ATOM     17  H31 UNL     1      64.725  30.473  36.665  1.00  0.00     0.176 HD
ENDBRANCH  10  15
ENDBRANCH   1   9
BRANCH   7  18
HETATM   18  N7  UNL     1      69.508  29.234  31.076  1.00  0.00    -0.343 N 
ATOM     19  H72 UNL     1      69.743  30.095  31.570  1.00  0.00     0.176 HD
ATOM     20  H71 UNL     1      70.195  28.731  30.515  1.00  0.00     0.176 HD
ENDBRANCH   7  18
TORSDOF 4
ENDMDL
MODEL 5
REMARK VINA RESULT: -4.966440110      1.453      4.831
REMARK  4 active torsions:
REMARK  status: ('A' for Active; 'I' for Inactive)
REMARK    1  A    between atoms: N1_2  and  C2_4 
REMARK    2  A    between atoms: C2_4  and  C3_10 
REMARK    3  A    between atoms: N2_5  and  N3_7 
REMARK       I    between atoms: C3_10  and  N4_12 
REMARK       I    between atoms: C4_14  and  N6_16 
REMARK    4  A    between atoms: N6_16  and  N7_18 
ROOT
HETATM    1  C3  UNL     1      64.003  28.505  34.426  1.00  0.00     0.293 C 
HETATM    2  O1  UNL     1      64.052  27.622  35.323  1.00  0.00    -0.264 OA
HETATM    3  N4  UNL     1      62.798  28.781  33.750  1.00  0.00    -0.293 N 
ATOM      4  H4  UNL     1      62.856  29.142  32.798  1.00  0.00     0.172 HD
HETATM    5  C4  UNL     1      61.631  28.608  34.256  1.00  0.00     0.209 C 
HETATM    6  N5  UNL     1      61.459  28.116  35.561  1.00  0.00    -0.062 NA
HETATM    7  N6  UNL     1      60.499  28.925  33.470  1.00  0.00    -0.280 N 
ATOM      8  H6  UNL     1      60.386  29.855  33.065  1.00  0.00     0.189 HD
ENDROOT
BRANCH   1   9
HETATM    9  C2  UNL     1      65.245  29.240  34.105  1.00  0.00     0.184 C 
HETATM   10  N2  UNL     1      65.671  30.187  34.870  1.00  0.00    -0.288 N 
ATOM     11  H2  UNL     1      66.534  30.659  34.600  1.00  0.00     0.188 HD
BRANCH   9  12
HETATM   12  N1  UNL     1      65.995  28.916  32.947  1.00  0.00    -0.375 N 
HETATM   13  C1  UNL     1      67.426  28.894  32.985  1.00  0.00     0.148 C 
ATOM     14  H1  UNL     1      65.509  28.696  32.077  1.00  0.00     0.160 HD
ENDBRANCH   9  12
BRANCH  10  15
HETATM   15  N3  UNL     1      65.045  30.615  36.034  1.00  0.00    -0.343 N 
ATOM     16  H32 UNL     1      64.071  30.336  36.154  1.00  0.00     0.176 HD
ATOM     17  H31 UNL     1      65.484  31.176  36.763  1.00  0.00     0.176 HD
ENDBRANCH  10  15
ENDBRANCH   1   9
BRANCH   7  18
HETATM   18  N7  UNL     1      59.545  27.937  33.262  1.00  0.00    -0.343 N 
ATOM     19  H72 UNL     1      59.830  27.015  32.932  1.00  0.00     0.176 HD
ATOM     20  H71 UNL     1      58.568  28.164  33.448  1.00  0.00     0.176 HD
ENDBRANCH   7  18
TORSDOF 4
ENDMDL
