MODEL 1
REMARK VINA RESULT: -4.297904124      0.000      0.000
REMARK  7 active torsions:
REMARK  status: ('A' for Active; 'I' for Inactive)
REMARK    1  A    between atoms: C3_5  and  N2_6 
REMARK    2  A    between atoms: N2_6  and  C4_8 
REMARK    3  A    between atoms: N6_20  and  C8_22 
REMARK    4  A    between atoms: C8_22  and  C9_23 
REMARK    5  A    between atoms: C9_23  and  C10_24 
REMARK    6  A    between atoms: C10_24  and  N7_25 
REMARK    7  A    between atoms: N7_25  and  N8_26 
ROOT
HETATM    1  C1  UNL     1      43.378  19.903  35.083  1.00  0.00     0.088 C 
HETATM    2  C2  UNL     1      44.442  19.149  34.333  1.00  0.00     0.070 C 
HETATM    3  N1  UNL     1      44.542  17.875  34.419  1.00  0.00    -0.354 N 
ATOM      4  H1  UNL     1      43.871  17.393  35.017  1.00  0.00     0.163 HD
HETATM    5  C3  UNL     1      45.529  17.062  33.738  1.00  0.00     0.248 C 
HETATM    6  C7  UNL     1      46.546  17.960  33.125  1.00  0.00     0.043 C 
HETATM    7  N6  UNL     1      47.765  17.632  33.176  1.00  0.00    -0.392 N 
ATOM      8  H6  UNL     1      48.057  16.766  33.630  1.00  0.00     0.159 HD
HETATM    9  C11 UNL     1      46.034  19.208  32.481  1.00  0.00     0.177 C 
HETATM   10  N9  UNL     1      45.327  19.917  33.529  1.00  0.00    -0.375 N 
ATOM     11  H9  UNL     1      45.458  20.917  33.681  1.00  0.00     0.161 HD
ENDROOT
BRANCH   5  12
HETATM   12  N2  UNL     1      44.899  16.300  32.695  1.00  0.00    -0.199 N 
ATOM     13  H2  UNL     1      44.295  16.810  32.050  1.00  0.00     0.180 HD
BRANCH  12  14
HETATM   14  C4  UNL     1      45.025  15.055  32.501  1.00  0.00     0.688 A 
HETATM   15  N3  UNL     1      46.170  14.600  31.949  1.00  0.00    -0.141 N 
HETATM   16  C5  UNL     1      46.340  13.282  31.728  1.00  0.00     0.342 A 
ATOM     17  H3  UNL     1      46.909  15.257  31.698  1.00  0.00     0.189 HD
HETATM   18  O1  UNL     1      47.378  12.789  31.218  1.00  0.00    -0.246 OA
HETATM   19  N4  UNL     1      45.358  12.425  32.063  1.00  0.00    -0.260 N 
HETATM   20  C6  UNL     1      44.205  12.871  32.617  1.00  0.00     0.342 A 
ATOM     21  H4  UNL     1      45.484  11.427  31.897  1.00  0.00     0.175 HD
HETATM   22  O2  UNL     1      43.299  12.067  32.925  1.00  0.00    -0.246 OA
HETATM   23  N5  UNL     1      44.047  14.193  32.834  1.00  0.00    -0.141 N 
ATOM     24  H5  UNL     1      43.183  14.541  33.252  1.00  0.00     0.189 HD
ENDBRANCH  12  14
ENDBRANCH   5  12
BRANCH   7  25
HETATM   25  C8  UNL     1      48.728  18.516  32.576  1.00  0.00     0.120 C 
BRANCH  25  26
HETATM   26  C9  UNL     1      49.767  17.769  31.800  1.00  0.00     0.037 C 
BRANCH  26  27
HETATM   27  C10 UNL     1      50.081  16.486  32.528  1.00  0.00     0.136 C 
BRANCH  27  28
HETATM   28  N7  UNL     1      49.283  15.378  32.041  1.00  0.00    -0.148 NA
BRANCH  28  29
HETATM   29  N8  UNL     1      49.887  14.147  32.424  1.00  0.00    -0.348 N 
ATOM     30  H82 UNL     1      50.086  13.879  33.389  1.00  0.00     0.172 HD
ATOM     31  H81 UNL     1      50.086  13.590  31.593  1.00  0.00     0.172 HD
ENDBRANCH  28  29
ENDBRANCH  27  28
ENDBRANCH  26  27
ENDBRANCH  25  26
ENDBRANCH   7  25
TORSDOF 7
ENDMDL
MODEL 2
REMARK VINA RESULT: -4.273572750      0.046      1.680
REMARK  7 active torsions:
REMARK  status: ('A' for Active; 'I' for Inactive)
REMARK    1  A    between atoms: C3_5  and  N2_6 
REMARK    2  A    between atoms: N2_6  and  C4_8 
REMARK    3  A    between atoms: N6_20  and  C8_22 
REMARK    4  A    between atoms: C8_22  and  C9_23 
REMARK    5  A    between atoms: C9_23  and  C10_24 
REMARK    6  A    between atoms: C10_24  and  N7_25 
REMARK    7  A    between atoms: N7_25  and  N8_26 
ROOT
HETATM    1  C1  UNL     1      43.396  19.934  35.098  1.00  0.00     0.088 C 
HETATM    2  C2  UNL     1      44.454  19.170  34.350  1.00  0.00     0.070 C 
HETATM    3  N1  UNL     1      44.549  17.897  34.444  1.00  0.00    -0.354 N 
ATOM      4  H1  UNL     1      43.877  17.421  35.046  1.00  0.00     0.163 HD
HETATM    5  C3  UNL     1      45.531  17.075  33.765  1.00  0.00     0.248 C 
HETATM    6  C7  UNL     1      46.550  17.964  33.145  1.00  0.00     0.043 C 
HETATM    7  N6  UNL     1      47.767  17.631  33.195  1.00  0.00    -0.392 N 
ATOM      8  H6  UNL     1      48.057  16.766  33.652  1.00  0.00     0.159 HD
HETATM    9  C11 UNL     1      46.042  19.211  32.494  1.00  0.00     0.177 C 
HETATM   10  N9  UNL     1      45.341  19.929  33.539  1.00  0.00    -0.375 N 
ATOM     11  H9  UNL     1      45.478  20.930  33.686  1.00  0.00     0.161 HD
ENDROOT
BRANCH   5  12
HETATM   12  N2  UNL     1      44.894  16.310  32.727  1.00  0.00    -0.199 N 
ATOM     13  H2  UNL     1      44.256  16.811  32.109  1.00  0.00     0.180 HD
BRANCH  12  14
HETATM   14  C4  UNL     1      45.053  15.073  32.510  1.00  0.00     0.688 A 
HETATM   15  N3  UNL     1      44.043  14.229  32.812  1.00  0.00    -0.141 N 
HETATM   16  C5  UNL     1      44.175  12.906  32.594  1.00  0.00     0.342 A 
ATOM     17  H3  UNL     1      43.177  14.595  33.206  1.00  0.00     0.189 HD
HETATM   18  O1  UNL     1      43.278  12.064  32.851  1.00  0.00    -0.246 OA
HETATM   19  N4  UNL     1      45.323  12.435  32.074  1.00  0.00    -0.260 N 
HETATM   20  C6  UNL     1      46.344  13.273  31.767  1.00  0.00     0.342 A 
ATOM     21  H4  UNL     1      45.426  11.434  31.907  1.00  0.00     0.175 HD
HETATM   22  O2  UNL     1      47.405  12.825  31.284  1.00  0.00    -0.246 OA
HETATM   23  N5  UNL     1      46.199  14.596  31.989  1.00  0.00    -0.141 N 
ATOM     24  H5  UNL     1      46.959  15.236  31.762  1.00  0.00     0.189 HD
ENDBRANCH  12  14
ENDBRANCH   5  12
BRANCH   7  25
HETATM   25  C8  UNL     1      48.733  18.507  32.587  1.00  0.00     0.120 C 
BRANCH  25  26
HETATM   26  C9  UNL     1      49.757  17.751  31.800  1.00  0.00     0.037 C 
BRANCH  26  27
HETATM   27  C10 UNL     1      50.105  16.490  32.549  1.00  0.00     0.136 C 
BRANCH  27  28
HETATM   28  N7  UNL     1      49.295  15.366  32.120  1.00  0.00    -0.148 NA
BRANCH  28  29
HETATM   29  N8  UNL     1      49.931  14.148  32.495  1.00  0.00    -0.348 N 
ATOM     30  H82 UNL     1      50.161  13.889  33.455  1.00  0.00     0.172 HD
ATOM     31  H81 UNL     1      50.114  13.587  31.662  1.00  0.00     0.172 HD
ENDBRANCH  28  29
ENDBRANCH  27  28
ENDBRANCH  26  27
ENDBRANCH  25  26
ENDBRANCH   7  25
TORSDOF 7
ENDMDL
MODEL 3
REMARK VINA RESULT: -4.165475271      2.722      5.197
REMARK  7 active torsions:
REMARK  status: ('A' for Active; 'I' for Inactive)
REMARK    1  A    between atoms: C3_5  and  N2_6 
REMARK    2  A    between atoms: N2_6  and  C4_8 
REMARK    3  A    between atoms: N6_20  and  C8_22 
REMARK    4  A    between atoms: C8_22  and  C9_23 
REMARK    5  A    between atoms: C9_23  and  C10_24 
REMARK    6  A    between atoms: C10_24  and  N7_25 
REMARK    7  A    between atoms: N7_25  and  N8_26 
ROOT
HETATM    1  C1  UNL     1      42.853  12.526  32.916  1.00  0.00     0.088 C 
HETATM    2  C2  UNL     1      44.212  13.172  32.894  1.00  0.00     0.070 C 
HETATM    3  N1  UNL     1      44.380  14.356  32.437  1.00  0.00    -0.354 N 
ATOM      4  H1  UNL     1      43.554  14.843  32.088  1.00  0.00     0.163 HD
HETATM    5  C3  UNL     1      45.644  15.060  32.374  1.00  0.00     0.248 C 
HETATM    6  C7  UNL     1      46.739  14.106  32.695  1.00  0.00     0.043 C 
HETATM    7  N6  UNL     1      47.812  14.157  32.032  1.00  0.00    -0.392 N 
ATOM      8  H6  UNL     1      47.935  14.839  31.284  1.00  0.00     0.159 HD
HETATM    9  C11 UNL     1      46.478  13.138  33.806  1.00  0.00     0.177 C 
HETATM   10  N9  UNL     1      45.295  12.405  33.403  1.00  0.00    -0.375 N 
ATOM     11  H9  UNL     1      45.242  11.389  33.481  1.00  0.00     0.161 HD
ENDROOT
BRANCH   5  12
HETATM   12  N2  UNL     1      45.660  16.122  33.343  1.00  0.00    -0.199 N 
ATOM     13  H2  UNL     1      45.520  15.860  34.319  1.00  0.00     0.180 HD
BRANCH  12  14
HETATM   14  C4  UNL     1      45.833  17.353  33.097  1.00  0.00     0.688 A 
HETATM   15  N3  UNL     1      47.083  17.789  32.832  1.00  0.00    -0.141 N 
HETATM   16  C5  UNL     1      47.305  19.091  32.566  1.00  0.00     0.342 A 
ATOM     17  H3  UNL     1      47.861  17.130  32.832  1.00  0.00     0.189 HD
HETATM   18  O1  UNL     1      48.441  19.566  32.311  1.00  0.00    -0.246 OA
HETATM   19  N4  UNL     1      46.270  19.950  32.568  1.00  0.00    -0.260 N 
HETATM   20  C6  UNL     1      45.011  19.524  32.834  1.00  0.00     0.342 A 
ATOM     21  H4  UNL     1      46.435  20.937  32.367  1.00  0.00     0.175 HD
HETATM   22  O2  UNL     1      44.057  20.330  32.833  1.00  0.00    -0.246 OA
HETATM   23  N5  UNL     1      44.801  18.217  33.098  1.00  0.00    -0.141 N 
ATOM     24  H5  UNL     1      43.858  17.884  33.298  1.00  0.00     0.189 HD
ENDBRANCH  12  14
ENDBRANCH   5  12
BRANCH   7  25
HETATM   25  C8  UNL     1      48.856  13.223  32.362  1.00  0.00     0.120 C 
BRANCH  25  26
HETATM   26  C9  UNL     1      49.941  13.860  33.173  1.00  0.00     0.037 C 
BRANCH  26  27
HETATM   27  C10 UNL     1      50.514  15.012  32.387  1.00  0.00     0.136 C 
BRANCH  27  28
HETATM   28  N7  UNL     1      49.823  16.255  32.668  1.00  0.00    -0.148 NA
BRANCH  28  29
HETATM   29  N8  UNL     1      50.519  17.338  32.059  1.00  0.00    -0.348 N 
ATOM     30  H82 UNL     1      50.102  17.987  31.390  1.00  0.00     0.172 HD
ATOM     31  H81 UNL     1      51.482  17.359  32.394  1.00  0.00     0.172 HD
ENDBRANCH  28  29
ENDBRANCH  27  28
ENDBRANCH  26  27
ENDBRANCH  25  26
ENDBRANCH   7  25
TORSDOF 7
ENDMDL
MODEL 4
REMARK VINA RESULT: -4.163556093      2.715      5.439
REMARK  7 active torsions:
REMARK  status: ('A' for Active; 'I' for Inactive)
REMARK    1  A    between atoms: C3_5  and  N2_6 
REMARK    2  A    between atoms: N2_6  and  C4_8 
REMARK    3  A    between atoms: N6_20  and  C8_22 
REMARK    4  A    between atoms: C8_22  and  C9_23 
REMARK    5  A    between atoms: C9_23  and  C10_24 
REMARK    6  A    between atoms: C10_24  and  N7_25 
REMARK    7  A    between atoms: N7_25  and  N8_26 
ROOT
HETATM    1  C1  UNL     1      42.830  12.514  32.912  1.00  0.00     0.088 C 
HETATM    2  C2  UNL     1      44.193  13.152  32.886  1.00  0.00     0.070 C 
HETATM    3  N1  UNL     1      44.366  14.334  32.424  1.00  0.00    -0.354 N 
ATOM      4  H1  UNL     1      43.543  14.825  32.075  1.00  0.00     0.163 HD
HETATM    5  C3  UNL     1      45.635  15.031  32.356  1.00  0.00     0.248 C 
HETATM    6  C7  UNL     1      46.725  14.071  32.679  1.00  0.00     0.043 C 
HETATM    7  N6  UNL     1      47.797  14.113  32.013  1.00  0.00    -0.392 N 
ATOM      8  H6  UNL     1      47.923  14.792  31.262  1.00  0.00     0.159 HD
HETATM    9  C11 UNL     1      46.461  13.109  33.793  1.00  0.00     0.177 C 
HETATM   10  N9  UNL     1      45.272  12.381  33.395  1.00  0.00    -0.375 N 
ATOM     11  H9  UNL     1      45.213  11.366  33.477  1.00  0.00     0.161 HD
ENDROOT
BRANCH   5  12
HETATM   12  N2  UNL     1      45.659  16.096  33.320  1.00  0.00    -0.199 N 
ATOM     13  H2  UNL     1      45.494  15.842  34.294  1.00  0.00     0.180 HD
BRANCH  12  14
HETATM   14  C4  UNL     1      45.867  17.321  33.073  1.00  0.00     0.688 A 
HETATM   15  N3  UNL     1      44.818  18.171  33.097  1.00  0.00    -0.141 N 
HETATM   16  C5  UNL     1      45.000  19.481  32.839  1.00  0.00     0.342 A 
ATOM     17  H3  UNL     1      43.885  17.820  33.310  1.00  0.00     0.189 HD
HETATM   18  O1  UNL     1      44.071  20.328  32.843  1.00  0.00    -0.246 OA
HETATM   19  N4  UNL     1      46.236  19.932  32.558  1.00  0.00    -0.260 N 
HETATM   20  C6  UNL     1      47.296  19.087  32.531  1.00  0.00     0.342 A 
ATOM     21  H4  UNL     1      46.378  20.923  32.363  1.00  0.00     0.175 HD
HETATM   22  O2  UNL     1      48.440  19.516  32.270  1.00  0.00    -0.246 OA
HETATM   23  N5  UNL     1      47.101  17.778  32.792  1.00  0.00    -0.141 N 
ATOM     24  H5  UNL     1      47.891  17.132  32.776  1.00  0.00     0.189 HD
ENDBRANCH  12  14
ENDBRANCH   5  12
BRANCH   7  25
HETATM   25  C8  UNL     1      48.836  13.175  32.345  1.00  0.00     0.120 C 
BRANCH  25  26
HETATM   26  C9  UNL     1      49.915  13.802  33.170  1.00  0.00     0.037 C 
BRANCH  26  27
HETATM   27  C10 UNL     1      50.499  14.959  32.398  1.00  0.00     0.136 C 
BRANCH  27  28
HETATM   28  N7  UNL     1      49.824  16.206  32.700  1.00  0.00    -0.148 NA
BRANCH  28  29
HETATM   29  N8  UNL     1      50.528  17.289  32.101  1.00  0.00    -0.348 N 
ATOM     30  H82 UNL     1      50.665  18.200  32.540  1.00  0.00     0.172 HD
ATOM     31  H81 UNL     1      50.867  17.011  31.180  1.00  0.00     0.172 HD
ENDBRANCH  28  29
ENDBRANCH  27  28
ENDBRANCH  26  27
ENDBRANCH  25  26
ENDBRANCH   7  25
TORSDOF 7
ENDMDL
MODEL 5
REMARK VINA RESULT: -4.073077948      1.449      2.963
REMARK  7 active torsions:
REMARK  status: ('A' for Active; 'I' for Inactive)
REMARK    1  A    between atoms: C3_5  and  N2_6 
REMARK    2  A    between atoms: N2_6  and  C4_8 
REMARK    3  A    between atoms: N6_20  and  C8_22 
REMARK    4  A    between atoms: C8_22  and  C9_23 
REMARK    5  A    between atoms: C9_23  and  C10_24 
REMARK    6  A    between atoms: C10_24  and  N7_25 
REMARK    7  A    between atoms: N7_25  and  N8_26 
ROOT
HETATM    1  C1  UNL     1      43.018  19.159  35.717  1.00  0.00     0.088 C 
HETATM    2  C2  UNL     1      44.027  18.668  34.715  1.00  0.00     0.070 C 
HETATM    3  N1  UNL     1      44.424  17.451  34.710  1.00  0.00    -0.354 N 
ATOM      4  H1  UNL     1      44.027  16.827  35.414  1.00  0.00     0.163 HD
HETATM    5  C3  UNL     1      45.389  16.885  33.789  1.00  0.00     0.248 C 
HETATM    6  C7  UNL     1      46.018  17.991  33.018  1.00  0.00     0.043 C 
HETATM    7  N6  UNL     1      47.258  17.950  32.785  1.00  0.00    -0.392 N 
ATOM      8  H6  UNL     1      47.829  17.172  33.118  1.00  0.00     0.159 HD
HETATM    9  C11 UNL     1      45.111  19.091  32.566  1.00  0.00     0.177 C 
HETATM   10  N9  UNL     1      44.517  19.618  33.779  1.00  0.00    -0.375 N 
ATOM     11  H9  UNL     1      44.454  20.622  33.951  1.00  0.00     0.161 HD
ENDROOT
BRANCH   5  12
HETATM   12  N2  UNL     1      44.726  16.001  32.869  1.00  0.00    -0.199 N 
ATOM     13  H2  UNL     1      43.852  16.330  32.460  1.00  0.00     0.180 HD
BRANCH  12  14
HETATM   14  C4  UNL     1      45.127  14.852  32.520  1.00  0.00     0.688 A 
HETATM   15  N3  UNL     1      44.328  13.789  32.758  1.00  0.00    -0.141 N 
HETATM   16  C5  UNL     1      44.721  12.551  32.400  1.00  0.00     0.342 A 
ATOM     17  H3  UNL     1      43.424  13.925  33.209  1.00  0.00     0.189 HD
HETATM   18  O1  UNL     1      44.030  11.519  32.590  1.00  0.00    -0.246 OA
HETATM   19  N4  UNL     1      45.916  12.385  31.806  1.00  0.00    -0.260 N 
HETATM   20  C6  UNL     1      46.727  13.444  31.563  1.00  0.00     0.342 A 
ATOM     21  H4  UNL     1      46.216  11.449  31.533  1.00  0.00     0.175 HD
HETATM   22  O2  UNL     1      47.834  13.278  31.009  1.00  0.00    -0.246 OA
HETATM   23  N5  UNL     1      46.322  14.679  31.925  1.00  0.00    -0.141 N 
ATOM     24  H5  UNL     1      46.922  15.484  31.747  1.00  0.00     0.189 HD
ENDBRANCH  12  14
ENDBRANCH   5  12
BRANCH   7  25
HETATM   25  C8  UNL     1      47.842  19.031  32.038  1.00  0.00     0.120 C 
BRANCH  25  26
HETATM   26  C9  UNL     1      49.074  19.567  32.697  1.00  0.00     0.037 C 
BRANCH  26  27
HETATM   27  C10 UNL     1      48.816  20.994  33.111  1.00  0.00     0.136 C 
BRANCH  27  28
HETATM   28  N7  UNL     1      47.528  21.144  33.759  1.00  0.00    -0.148 NA
BRANCH  28  29
HETATM   29  N8  UNL     1      47.663  20.898  35.155  1.00  0.00    -0.348 N 
ATOM     30  H82 UNL     1      48.150  20.096  35.554  1.00  0.00     0.172 HD
ATOM     31  H81 UNL     1      47.200  21.641  35.680  1.00  0.00     0.172 HD
ENDBRANCH  28  29
ENDBRANCH  27  28
ENDBRANCH  26  27
ENDBRANCH  25  26
ENDBRANCH   7  25
TORSDOF 7
ENDMDL
