MODEL 1
REMARK VINA RESULT: -5.109956782      0.000      0.000
REMARK  7 active torsions:
REMARK  status: ('A' for Active; 'I' for Inactive)
REMARK    1  A    between atoms: O1_1  and  C1_3 
REMARK    2  A    between atoms: C1_3  and  C2_4 
REMARK    3  A    between atoms: C3_6  and  O3_7 
REMARK    4  A    between atoms: O3_7  and  C4_8 
REMARK    5  A    between atoms: C8_13  and  O4_14 
REMARK    6  A    between atoms: C9_16  and  O5_17 
REMARK    7  A    between atoms: C10_19  and  O6_20 
ROOT
HETATM    1  C2  UNL     1     -14.187  26.935   4.424  1.00  0.00     0.179 C 
HETATM    2  O2  UNL     1     -13.282  26.335   5.222  1.00  0.00    -0.348 OA
HETATM    3  C3  UNL     1     -13.588  25.143   5.796  1.00  0.00     0.298 C 
HETATM    4  C8  UNL     1     -14.313  24.173   4.901  1.00  0.00     0.205 C 
HETATM    5  C9  UNL     1     -15.506  24.800   4.263  1.00  0.00     0.183 C 
HETATM    6  C10 UNL     1     -15.067  26.074   3.593  1.00  0.00     0.180 C 
ENDROOT
BRANCH   3   7
HETATM    7  O3  UNL     1     -12.397  24.525   6.177  1.00  0.00    -0.317 OA
BRANCH   7   8
HETATM    8  C4  UNL     1     -12.075  24.103   7.497  1.00  0.00     0.079 A 
HETATM    9  C5  UNL     1     -11.427  22.965   7.816  1.00  0.00     0.044 A 
HETATM   10  C6  UNL     1     -11.198  22.712   9.144  1.00  0.00     0.052 A 
HETATM   11  S1  UNL     1     -11.887  24.059   9.914  1.00  0.00    -0.111 SA
HETATM   12  C7  UNL     1     -12.447  24.909   8.555  1.00  0.00     0.086 A 
ENDBRANCH   7   8
ENDBRANCH   3   7
BRANCH   4  13
HETATM   13  O4  UNL     1     -14.738  23.109   5.698  1.00  0.00    -0.388 OA
ATOM     14  H4  UNL     1     -15.605  22.860   5.399  1.00  0.00     0.210 HD
ENDBRANCH   4  13
BRANCH   1  15
HETATM   15  C1  UNL     1     -15.082  27.818   5.288  1.00  0.00     0.198 C 
BRANCH  15  16
HETATM   16  O1  UNL     1     -14.262  28.366   6.292  1.00  0.00    -0.398 OA
ATOM     17  H1  UNL     1     -14.822  28.535   7.040  1.00  0.00     0.209 HD
ENDBRANCH  15  16
ENDBRANCH   1  15
BRANCH   5  18
HETATM   18  O5  UNL     1     -15.931  23.934   3.231  1.00  0.00    -0.390 OA
ATOM     19  H5  UNL     1     -16.444  24.454   2.623  1.00  0.00     0.210 HD
ENDBRANCH   5  18
BRANCH   6  20
HETATM   20  O6  UNL     1     -16.225  26.752   3.209  1.00  0.00    -0.390 OA
ATOM     21  H6  UNL     1     -16.171  27.046   2.308  1.00  0.00     0.210 HD
ENDBRANCH   6  20
TORSDOF 7
ENDMDL
MODEL 2
REMARK VINA RESULT: -5.010096585      1.136      2.848
REMARK  7 active torsions:
REMARK  status: ('A' for Active; 'I' for Inactive)
REMARK    1  A    between atoms: O1_1  and  C1_3 
REMARK    2  A    between atoms: C1_3  and  C2_4 
REMARK    3  A    between atoms: C3_6  and  O3_7 
REMARK    4  A    between atoms: O3_7  and  C4_8 
REMARK    5  A    between atoms: C8_13  and  O4_14 
REMARK    6  A    between atoms: C9_16  and  O5_17 
REMARK    7  A    between atoms: C10_19  and  O6_20 
ROOT
HETATM    1  C2  UNL     1     -15.217  24.614   4.419  1.00  0.00     0.179 C 
HETATM    2  O2  UNL     1     -14.531  24.135   5.475  1.00  0.00    -0.348 OA
HETATM    3  C3  UNL     1     -13.479  24.844   5.962  1.00  0.00     0.298 C 
HETATM    4  C8  UNL     1     -13.692  26.334   6.028  1.00  0.00     0.205 C 
HETATM    5  C9  UNL     1     -14.169  26.879   4.725  1.00  0.00     0.183 C 
HETATM    6  C10 UNL     1     -15.373  26.086   4.294  1.00  0.00     0.180 C 
ENDROOT
BRANCH   3   7
HETATM    7  O3  UNL     1     -13.231  24.415   7.266  1.00  0.00    -0.317 OA
BRANCH   7   8
HETATM    8  C4  UNL     1     -11.964  24.014   7.772  1.00  0.00     0.079 A 
HETATM    9  C5  UNL     1     -11.213  23.005   7.286  1.00  0.00     0.044 A 
HETATM   10  C6  UNL     1     -10.011  22.753   7.896  1.00  0.00     0.052 A 
HETATM   11  S1  UNL     1      -9.955  23.922   9.126  1.00  0.00    -0.111 SA
HETATM   12  C7  UNL     1     -11.437  24.700   8.849  1.00  0.00     0.086 A 
ENDBRANCH   7   8
ENDBRANCH   3   7
BRANCH   4  13
HETATM   13  O4  UNL     1     -12.462  26.916   6.335  1.00  0.00    -0.388 OA
ATOM     14  H4  UNL     1     -12.598  27.855   6.388  1.00  0.00     0.210 HD
ENDBRANCH   4  13
BRANCH   1  15
HETATM   15  C1  UNL     1     -14.553  24.107   3.142  1.00  0.00     0.198 C 
BRANCH  15  16
HETATM   16  O1  UNL     1     -15.587  23.842   2.225  1.00  0.00    -0.398 OA
ATOM     17  H1  UNL     1     -15.337  24.253   1.406  1.00  0.00     0.209 HD
ENDBRANCH  15  16
ENDBRANCH   1  15
BRANCH   5  18
HETATM   18  O5  UNL     1     -14.625  28.194   4.965  1.00  0.00    -0.390 OA
ATOM     19  H5  UNL     1     -13.869  28.767   4.913  1.00  0.00     0.210 HD
ENDBRANCH   5  18
BRANCH   6  20
HETATM   20  O6  UNL     1     -15.655  26.457   2.978  1.00  0.00    -0.390 OA
ATOM     21  H6  UNL     1     -14.870  26.736   2.522  1.00  0.00     0.210 HD
ENDBRANCH   6  20
TORSDOF 7
ENDMDL
MODEL 3
REMARK VINA RESULT: -4.955915242      2.286      2.699
REMARK  7 active torsions:
REMARK  status: ('A' for Active; 'I' for Inactive)
REMARK    1  A    between atoms: O1_1  and  C1_3 
REMARK    2  A    between atoms: C1_3  and  C2_4 
REMARK    3  A    between atoms: C3_6  and  O3_7 
REMARK    4  A    between atoms: O3_7  and  C4_8 
REMARK    5  A    between atoms: C8_13  and  O4_14 
REMARK    6  A    between atoms: C9_16  and  O5_17 
REMARK    7  A    between atoms: C10_19  and  O6_20 
ROOT
HETATM    1  C2  UNL     1     -14.338  26.983   4.216  1.00  0.00     0.179 C 
HETATM    2  O2  UNL     1     -13.395  27.103   5.171  1.00  0.00    -0.348 OA
HETATM    3  C3  UNL     1     -13.342  26.187   6.174  1.00  0.00     0.298 C 
HETATM    4  C8  UNL     1     -13.561  24.760   5.743  1.00  0.00     0.205 C 
HETATM    5  C9  UNL     1     -14.802  24.617   4.930  1.00  0.00     0.183 C 
HETATM    6  C10 UNL     1     -14.747  25.615   3.805  1.00  0.00     0.180 C 
ENDROOT
BRANCH   3   7
HETATM    7  O3  UNL     1     -12.072  26.244   6.748  1.00  0.00    -0.317 OA
BRANCH   7   8
HETATM    8  C4  UNL     1     -11.604  27.276   7.606  1.00  0.00     0.079 A 
HETATM    9  C5  UNL     1     -10.326  27.700   7.693  1.00  0.00     0.044 A 
HETATM   10  C6  UNL     1     -10.048  28.711   8.576  1.00  0.00     0.052 A 
HETATM   11  S1  UNL     1     -11.564  29.047   9.262  1.00  0.00    -0.111 SA
HETATM   12  C7  UNL     1     -12.513  27.914   8.428  1.00  0.00     0.086 A 
ENDBRANCH   7   8
ENDBRANCH   3   7
BRANCH   4  13
HETATM   13  O4  UNL     1     -13.693  23.993   6.901  1.00  0.00    -0.388 OA
ATOM     14  H4  UNL     1     -14.575  23.639   6.908  1.00  0.00     0.210 HD
ENDBRANCH   4  13
BRANCH   1  15
HETATM   15  C1  UNL     1     -15.589  27.724   4.678  1.00  0.00     0.198 C 
BRANCH  15  16
HETATM   16  O1  UNL     1     -15.181  28.623   5.680  1.00  0.00    -0.398 OA
ATOM     17  H1  UNL     1     -15.234  29.494   5.304  1.00  0.00     0.209 HD
ENDBRANCH  15  16
ENDBRANCH   1  15
BRANCH   5  18
HETATM   18  O5  UNL     1     -14.761  23.339   4.328  1.00  0.00    -0.390 OA
ATOM     19  H5  UNL     1     -14.422  22.734   4.978  1.00  0.00     0.210 HD
ENDBRANCH   5  18
BRANCH   6  20
HETATM   20  O6  UNL     1     -16.007  25.622   3.204  1.00  0.00    -0.390 OA
ATOM     21  H6  UNL     1     -15.966  25.299   2.312  1.00  0.00     0.210 HD
ENDBRANCH   6  20
TORSDOF 7
ENDMDL
MODEL 4
REMARK VINA RESULT: -4.665091737      3.615      5.935
REMARK  7 active torsions:
REMARK  status: ('A' for Active; 'I' for Inactive)
REMARK    1  A    between atoms: O1_1  and  C1_3 
REMARK    2  A    between atoms: C1_3  and  C2_4 
REMARK    3  A    between atoms: C3_6  and  O3_7 
REMARK    4  A    between atoms: O3_7  and  C4_8 
REMARK    5  A    between atoms: C8_13  and  O4_14 
REMARK    6  A    between atoms: C9_16  and  O5_17 
REMARK    7  A    between atoms: C10_19  and  O6_20 
ROOT
HETATM    1  C2  UNL     1     -13.613  28.922   9.113  1.00  0.00     0.179 C 
HETATM    2  O2  UNL     1     -13.592  27.958   8.173  1.00  0.00    -0.348 OA
HETATM    3  C3  UNL     1     -12.445  27.728   7.480  1.00  0.00     0.298 C 
HETATM    4  C8  UNL     1     -11.185  27.771   8.304  1.00  0.00     0.205 C 
HETATM    5  C9  UNL     1     -11.101  29.020   9.114  1.00  0.00     0.183 C 
HETATM    6  C10 UNL     1     -12.376  29.160   9.900  1.00  0.00     0.180 C 
ENDROOT
BRANCH   3   7
HETATM    7  O3  UNL     1     -12.520  26.450   6.925  1.00  0.00    -0.317 OA
BRANCH   7   8
HETATM    8  C4  UNL     1     -13.403  26.058   5.882  1.00  0.00     0.079 A 
HETATM    9  C5  UNL     1     -13.937  26.884   4.959  1.00  0.00     0.044 A 
HETATM   10  C6  UNL     1     -14.773  26.337   4.020  1.00  0.00     0.052 A 
HETATM   11  S1  UNL     1     -14.795  24.692   4.441  1.00  0.00    -0.111 SA
HETATM   12  C7  UNL     1     -13.757  24.727   5.784  1.00  0.00     0.086 A 
ENDBRANCH   7   8
ENDBRANCH   3   7
BRANCH   4  13
HETATM   13  O4  UNL     1     -10.108  27.736   7.419  1.00  0.00    -0.388 OA
ATOM     14  H4  UNL     1      -9.398  28.227   7.817  1.00  0.00     0.210 HD
ENDBRANCH   4  13
BRANCH   1  15
HETATM   15  C1  UNL     1     -14.000  30.238   8.445  1.00  0.00     0.198 C 
BRANCH  15  16
HETATM   16  O1  UNL     1     -15.334  30.100   8.021  1.00  0.00    -0.398 OA
ATOM     17  H1  UNL     1     -15.858  30.666   8.575  1.00  0.00     0.209 HD
ENDBRANCH  15  16
ENDBRANCH   1  15
BRANCH   5  18
HETATM   18  O5  UNL     1     -10.069  28.834  10.061  1.00  0.00    -0.390 OA
ATOM     19  H5  UNL     1      -9.655  28.001   9.865  1.00  0.00     0.210 HD
ENDBRANCH   5  18
BRANCH   6  20
HETATM   20  O6  UNL     1     -12.370  30.438  10.462  1.00  0.00    -0.390 OA
ATOM     21  H6  UNL     1     -11.514  30.658  10.809  1.00  0.00     0.210 HD
ENDBRANCH   6  20
TORSDOF 7
ENDMDL
MODEL 5
REMARK VINA RESULT: -4.658759252      5.471      8.766
REMARK  7 active torsions:
REMARK  status: ('A' for Active; 'I' for Inactive)
REMARK    1  A    between atoms: O1_1  and  C1_3 
REMARK    2  A    between atoms: C1_3  and  C2_4 
REMARK    3  A    between atoms: C3_6  and  O3_7 
REMARK    4  A    between atoms: O3_7  and  C4_8 
REMARK    5  A    between atoms: C8_13  and  O4_14 
REMARK    6  A    between atoms: C9_16  and  O5_17 
REMARK    7  A    between atoms: C10_19  and  O6_20 
ROOT
HETATM    1  C2  UNL     1      -8.355  18.838  10.024  1.00  0.00     0.179 C 
HETATM    2  O2  UNL     1      -8.977  20.006   9.771  1.00  0.00    -0.348 OA
HETATM    3  C3  UNL     1      -9.726  20.130   8.644  1.00  0.00     0.298 C 
HETATM    4  C8  UNL     1     -10.572  18.931   8.307  1.00  0.00     0.205 C 
HETATM    5  C9  UNL     1      -9.767  17.676   8.298  1.00  0.00     0.183 C 
HETATM    6  C10 UNL     1      -9.026  17.581   9.605  1.00  0.00     0.180 C 
ENDROOT
BRANCH   3   7
HETATM    7  O3  UNL     1     -10.602  21.203   8.819  1.00  0.00    -0.317 OA
BRANCH   7   8
HETATM    8  C4  UNL     1     -10.478  22.474   8.195  1.00  0.00     0.079 A 
HETATM    9  C5  UNL     1     -11.429  23.072   7.447  1.00  0.00     0.044 A 
HETATM   10  C6  UNL     1     -11.143  24.304   6.917  1.00  0.00     0.052 A 
HETATM   11  S1  UNL     1      -9.565  24.600   7.469  1.00  0.00    -0.111 SA
HETATM   12  C7  UNL     1      -9.298  23.175   8.352  1.00  0.00     0.086 A 
ENDBRANCH   7   8
ENDBRANCH   3   7
BRANCH   4  13
HETATM   13  O4  UNL     1     -11.096  19.137   7.030  1.00  0.00    -0.388 OA
ATOM     14  H4  UNL     1     -10.542  18.666   6.417  1.00  0.00     0.210 HD
ENDBRANCH   4  13
BRANCH   1  15
HETATM   15  C1  UNL     1      -6.979  18.873   9.364  1.00  0.00     0.198 C 
BRANCH  15  16
HETATM   16  O1  UNL     1      -6.049  18.488  10.347  1.00  0.00    -0.398 OA
ATOM     17  H1  UNL     1      -5.770  19.283  10.785  1.00  0.00     0.209 HD
ENDBRANCH  15  16
ENDBRANCH   1  15
BRANCH   5  18
HETATM   18  O5  UNL     1     -10.677  16.596   8.279  1.00  0.00    -0.390 OA
ATOM     19  H5  UNL     1     -10.233  15.848   8.661  1.00  0.00     0.210 HD
ENDBRANCH   5  18
BRANCH   6  20
HETATM   20  O6  UNL     1      -8.112  16.534   9.480  1.00  0.00    -0.390 OA
ATOM     21  H6  UNL     1      -8.028  16.051  10.294  1.00  0.00     0.210 HD
ENDBRANCH   6  20
TORSDOF 7
ENDMDL
