MODEL 1
REMARK VINA RESULT: -4.444760146      0.000      0.000
REMARK  6 active torsions:
REMARK  status: ('A' for Active; 'I' for Inactive)
REMARK    1  A    between atoms: O1_1  and  C1_3 
REMARK    2  A    between atoms: C2_5  and  C3_6 
REMARK    3  A    between atoms: C3_6  and  C4_7 
REMARK    4  A    between atoms: C5_9  and  C6_10 
REMARK    5  A    between atoms: C10_15  and  O4_16 
REMARK    6  A    between atoms: C11_18  and  O5_19 
ROOT
HETATM    1  C1  UNL     1      -9.526  32.727  10.756  1.00  0.00     0.211 C 
HETATM    2  S1  UNL     1     -11.136  31.934  10.349  1.00  0.00    -0.127 SA
HETATM    3  C2  UNL     1     -10.523  30.718   9.113  1.00  0.00     0.083 C 
HETATM    4  C10 UNL     1      -9.063  30.714   9.463  1.00  0.00     0.164 C 
HETATM    5  C11 UNL     1      -8.680  32.186   9.600  1.00  0.00     0.186 C 
ENDROOT
BRANCH   3   6
HETATM    6  C3  UNL     1     -11.173  29.387   9.257  1.00  0.00     0.053 C 
BRANCH   6   7
HETATM    7  C4  UNL     1     -12.422  29.415  10.063  1.00  0.00     0.159 A 
HETATM    8  O2  UNL     1     -13.597  29.636   9.336  1.00  0.00    -0.368 OA
HETATM    9  C5  UNL     1     -13.493  28.350   9.783  1.00  0.00     0.208 A 
BRANCH   9  10
HETATM   10  C6  UNL     1     -13.012  27.255   8.904  1.00  0.00     0.084 A 
HETATM   11  C7  UNL     1     -12.401  26.060   9.239  1.00  0.00     0.037 A 
HETATM   12  C8  UNL     1     -12.137  25.368   8.052  1.00  0.00     0.027 A 
HETATM   13  C9  UNL     1     -12.612  26.200   7.061  1.00  0.00     0.142 A 
HETATM   14  O3  UNL     1     -13.113  27.288   7.595  1.00  0.00    -0.324 OA
ENDBRANCH   9  10
ENDBRANCH   6   7
ENDBRANCH   3   6
BRANCH   4  15
HETATM   15  O4  UNL     1      -8.800  30.090  10.657  1.00  0.00    -0.392 OA
ATOM     16  H4  UNL     1      -9.448  30.281  11.325  1.00  0.00     0.210 HD
ENDBRANCH   4  15
BRANCH   1  17
HETATM   17  O1  UNL     1      -9.625  34.093  10.690  1.00  0.00    -0.383 OA
ATOM     18  H1  UNL     1      -8.839  34.506  11.029  1.00  0.00     0.211 HD
ENDBRANCH   1  17
BRANCH   5  19
HETATM   19  O5  UNL     1      -9.023  32.890   8.474  1.00  0.00    -0.390 OA
ATOM     20  H5  UNL     1      -9.279  32.260   7.810  1.00  0.00     0.210 HD
ENDBRANCH   5  19
TORSDOF 6
ENDMDL
MODEL 2
REMARK VINA RESULT: -4.398247424      2.035      2.436
REMARK  6 active torsions:
REMARK  status: ('A' for Active; 'I' for Inactive)
REMARK    1  A    between atoms: O1_1  and  C1_3 
REMARK    2  A    between atoms: C2_5  and  C3_6 
REMARK    3  A    between atoms: C3_6  and  C4_7 
REMARK    4  A    between atoms: C5_9  and  C6_10 
REMARK    5  A    between atoms: C10_15  and  O4_16 
REMARK    6  A    between atoms: C11_18  and  O5_19 
ROOT
HETATM    1  C1  UNL     1     -10.734  30.883  11.304  1.00  0.00     0.211 C 
HETATM    2  S1  UNL     1     -12.198  29.828  11.671  1.00  0.00    -0.127 SA
HETATM    3  C2  UNL     1     -12.956  29.843   9.995  1.00  0.00     0.083 C 
HETATM    4  C10 UNL     1     -11.770  30.276   9.183  1.00  0.00     0.164 C 
HETATM    5  C11 UNL     1     -11.167  31.451   9.950  1.00  0.00     0.186 C 
ENDROOT
BRANCH   3   6
HETATM    6  C3  UNL     1     -13.490  28.510   9.604  1.00  0.00     0.053 C 
BRANCH   6   7
HETATM    7  C4  UNL     1     -13.612  27.556  10.739  1.00  0.00     0.159 A 
HETATM    8  O2  UNL     1     -14.519  26.509  10.543  1.00  0.00    -0.368 OA
HETATM    9  C5  UNL     1     -13.219  26.091  10.503  1.00  0.00     0.208 A 
BRANCH   9  10
HETATM   10  C6  UNL     1     -12.507  25.876   9.218  1.00  0.00     0.084 A 
HETATM   11  C7  UNL     1     -11.149  25.845   8.959  1.00  0.00     0.037 A 
HETATM   12  C8  UNL     1     -10.982  25.612   7.590  1.00  0.00     0.027 A 
HETATM   13  C9  UNL     1     -12.267  25.516   7.101  1.00  0.00     0.142 A 
HETATM   14  O3  UNL     1     -13.127  25.675   8.079  1.00  0.00    -0.324 OA
ENDBRANCH   9  10
ENDBRANCH   6   7
ENDBRANCH   3   6
BRANCH   4  15
HETATM   15  O4  UNL     1     -10.811  29.301   9.072  1.00  0.00    -0.392 OA
ATOM     16  H4  UNL     1     -10.209  29.453   8.354  1.00  0.00     0.210 HD
ENDBRANCH   4  15
BRANCH   1  17
HETATM   17  O1  UNL     1     -10.608  31.882  12.234  1.00  0.00    -0.383 OA
ATOM     18  H1  UNL     1      -9.723  31.914  12.578  1.00  0.00     0.211 HD
ENDBRANCH   1  17
BRANCH   5  19
HETATM   19  O5  UNL     1     -12.112  32.417  10.191  1.00  0.00    -0.390 OA
ATOM     20  H5  UNL     1     -11.689  33.262  10.089  1.00  0.00     0.210 HD
ENDBRANCH   5  19
TORSDOF 6
ENDMDL
MODEL 3
REMARK VINA RESULT: -4.367981611      1.759      2.264
REMARK  6 active torsions:
REMARK  status: ('A' for Active; 'I' for Inactive)
REMARK    1  A    between atoms: O1_1  and  C1_3 
REMARK    2  A    between atoms: C2_5  and  C3_6 
REMARK    3  A    between atoms: C3_6  and  C4_7 
REMARK    4  A    between atoms: C5_9  and  C6_10 
REMARK    5  A    between atoms: C10_15  and  O4_16 
REMARK    6  A    between atoms: C11_18  and  O5_19 
ROOT
HETATM    1  C1  UNL     1     -10.402  31.998  10.384  1.00  0.00     0.211 C 
HETATM    2  S1  UNL     1     -10.226  30.634  11.607  1.00  0.00    -0.127 SA
HETATM    3  C2  UNL     1     -11.718  29.668  11.135  1.00  0.00     0.083 C 
HETATM    4  C10 UNL     1     -11.967  30.236   9.767  1.00  0.00     0.164 C 
HETATM    5  C11 UNL     1     -11.843  31.748   9.933  1.00  0.00     0.186 C 
ENDROOT
BRANCH   3   6
HETATM    6  C3  UNL     1     -11.466  28.201  11.134  1.00  0.00     0.053 C 
BRANCH   6   7
HETATM    7  C4  UNL     1     -12.593  27.399  11.680  1.00  0.00     0.159 A 
HETATM    8  O2  UNL     1     -13.865  27.778  11.236  1.00  0.00    -0.368 OA
HETATM    9  C5  UNL     1     -13.454  26.592  10.697  1.00  0.00     0.208 A 
BRANCH   9  10
HETATM   10  C6  UNL     1     -12.870  26.515   9.335  1.00  0.00     0.084 A 
HETATM   11  C7  UNL     1     -11.982  25.593   8.808  1.00  0.00     0.037 A 
HETATM   12  C8  UNL     1     -11.733  25.953   7.480  1.00  0.00     0.027 A 
HETATM   13  C9  UNL     1     -12.495  27.084   7.284  1.00  0.00     0.142 A 
HETATM   14  O3  UNL     1     -13.142  27.380   8.386  1.00  0.00    -0.324 OA
ENDBRANCH   9  10
ENDBRANCH   6   7
ENDBRANCH   3   6
BRANCH   4  15
HETATM   15  O4  UNL     1     -11.038  29.829   8.842  1.00  0.00    -0.392 OA
ATOM     16  H4  UNL     1     -11.430  29.412   8.083  1.00  0.00     0.210 HD
ENDBRANCH   4  15
BRANCH   1  17
HETATM   17  O1  UNL     1     -10.287  33.220  10.996  1.00  0.00    -0.383 OA
ATOM     18  H1  UNL     1      -9.379  33.500  11.025  1.00  0.00     0.211 HD
ENDBRANCH   1  17
BRANCH   5  19
HETATM   19  O5  UNL     1     -12.671  32.203  10.929  1.00  0.00    -0.390 OA
ATOM     20  H5  UNL     1     -13.052  31.443  11.353  1.00  0.00     0.210 HD
ENDBRANCH   5  19
TORSDOF 6
ENDMDL
MODEL 4
REMARK VINA RESULT: -4.351365051     11.269     13.044
REMARK  6 active torsions:
REMARK  status: ('A' for Active; 'I' for Inactive)
REMARK    1  A    between atoms: O1_1  and  C1_3 
REMARK    2  A    between atoms: C2_5  and  C3_6 
REMARK    3  A    between atoms: C3_6  and  C4_7 
REMARK    4  A    between atoms: C5_9  and  C6_10 
REMARK    5  A    between atoms: C10_15  and  O4_16 
REMARK    6  A    between atoms: C11_18  and  O5_19 
ROOT
HETATM    1  C1  UNL     1      -9.948  18.911   8.226  1.00  0.00     0.211 C 
HETATM    2  S1  UNL     1     -10.272  19.466   9.951  1.00  0.00    -0.127 SA
HETATM    3  C2  UNL     1      -9.669  17.965  10.825  1.00  0.00     0.083 C 
HETATM    4  C10 UNL     1      -8.839  17.351   9.734  1.00  0.00     0.164 C 
HETATM    5  C11 UNL     1      -9.710  17.421   8.482  1.00  0.00     0.186 C 
ENDROOT
BRANCH   3   6
HETATM    6  C3  UNL     1      -8.892  18.296  12.050  1.00  0.00     0.053 C 
BRANCH   6   7
HETATM    7  C4  UNL     1      -8.216  17.124  12.667  1.00  0.00     0.159 A 
HETATM    8  O2  UNL     1      -7.702  17.339  13.951  1.00  0.00    -0.368 OA
HETATM    9  C5  UNL     1      -8.809  16.539  13.957  1.00  0.00     0.208 A 
BRANCH   9  10
HETATM   10  C6  UNL     1     -10.156  17.074  14.276  1.00  0.00     0.084 A 
HETATM   11  C7  UNL     1     -11.403  16.589  13.922  1.00  0.00     0.037 A 
HETATM   12  C8  UNL     1     -12.364  17.448  14.465  1.00  0.00     0.027 A 
HETATM   13  C9  UNL     1     -11.629  18.410  15.122  1.00  0.00     0.142 A 
HETATM   14  O3  UNL     1     -10.348  18.159  14.989  1.00  0.00    -0.324 OA
ENDBRANCH   9  10
ENDBRANCH   6   7
ENDBRANCH   3   6
BRANCH   4  15
HETATM   15  O4  UNL     1      -7.680  18.044   9.490  1.00  0.00    -0.392 OA
ATOM     16  H4  UNL     1      -7.755  18.645   8.758  1.00  0.00     0.210 HD
ENDBRANCH   4  15
BRANCH   1  17
HETATM   17  O1  UNL     1     -11.053  19.101   7.437  1.00  0.00    -0.383 OA
ATOM     18  H1  UNL     1     -10.866  18.872   6.533  1.00  0.00     0.211 HD
ENDBRANCH   1  17
BRANCH   5  19
HETATM   19  O5  UNL     1     -10.934  16.840   8.700  1.00  0.00    -0.390 OA
ATOM     20  H5  UNL     1     -10.899  15.959   8.346  1.00  0.00     0.210 HD
ENDBRANCH   5  19
TORSDOF 6
ENDMDL
MODEL 5
REMARK VINA RESULT: -4.342489115      7.535     10.745
REMARK  6 active torsions:
REMARK  status: ('A' for Active; 'I' for Inactive)
REMARK    1  A    between atoms: O1_1  and  C1_3 
REMARK    2  A    between atoms: C2_5  and  C3_6 
REMARK    3  A    between atoms: C3_6  and  C4_7 
REMARK    4  A    between atoms: C5_9  and  C6_10 
REMARK    5  A    between atoms: C10_15  and  O4_16 
REMARK    6  A    between atoms: C11_18  and  O5_19 
ROOT
HETATM    1  C1  UNL     1     -10.490  17.908  10.219  1.00  0.00     0.211 C 
HETATM    2  S1  UNL     1      -9.069  19.066  10.386  1.00  0.00    -0.127 SA
HETATM    3  C2  UNL     1      -8.712  19.299   8.597  1.00  0.00     0.083 C 
HETATM    4  C10 UNL     1     -10.014  18.829   8.015  1.00  0.00     0.164 C 
HETATM    5  C11 UNL     1     -10.333  17.527   8.745  1.00  0.00     0.186 C 
ENDROOT
BRANCH   3   6
HETATM    6  C3  UNL     1      -8.386  20.712   8.264  1.00  0.00     0.053 C 
BRANCH   6   7
HETATM    7  C4  UNL     1      -8.017  21.536   9.445  1.00  0.00     0.159 A 
HETATM    8  O2  UNL     1      -7.268  22.683   9.162  1.00  0.00    -0.368 OA
HETATM    9  C5  UNL     1      -8.552  22.973   9.525  1.00  0.00     0.208 A 
BRANCH   9  10
HETATM   10  C6  UNL     1      -9.602  23.263   8.516  1.00  0.00     0.084 A 
HETATM   11  C7  UNL     1      -9.539  24.052   7.382  1.00  0.00     0.037 A 
HETATM   12  C8  UNL     1     -10.791  24.007   6.760  1.00  0.00     0.027 A 
HETATM   13  C9  UNL     1     -11.542  23.182   7.569  1.00  0.00     0.142 A 
HETATM   14  O3  UNL     1     -10.817  22.770   8.581  1.00  0.00    -0.324 OA
ENDBRANCH   9  10
ENDBRANCH   6   7
ENDBRANCH   3   6
BRANCH   4  15
HETATM   15  O4  UNL     1     -11.046  19.706   8.233  1.00  0.00    -0.392 OA
ATOM     16  H4  UNL     1     -11.459  20.001   7.430  1.00  0.00     0.210 HD
ENDBRANCH   4  15
BRANCH   1  17
HETATM   17  O1  UNL     1     -10.324  16.812  11.027  1.00  0.00    -0.383 OA
ATOM     18  H1  UNL     1     -10.948  16.130  10.805  1.00  0.00     0.211 HD
ENDBRANCH   1  17
BRANCH   5  19
HETATM   19  O5  UNL     1      -9.286  16.644   8.657  1.00  0.00    -0.390 OA
ATOM     20  H5  UNL     1      -9.619  15.782   8.880  1.00  0.00     0.210 HD
ENDBRANCH   5  19
TORSDOF 6
ENDMDL
