MODEL 1
REMARK VINA RESULT: -8.969902108      0.000      0.000
REMARK  3 active torsions:
REMARK  status: ('A' for Active; 'I' for Inactive)
REMARK    1  A    between atoms: C2_2  and  C4_4 
REMARK    2  A    between atoms: C4_4  and  N1_5 
REMARK       I    between atoms: N1_5  and  C5_7 
REMARK    3  A    between atoms: C5_7  and  C6_9 
ROOT
HETATM    1  C6  UNL     1      -9.930 -16.812   8.446  1.00  0.00     0.050 A 
HETATM    2  C7  UNL     1      -9.988 -16.969   7.083  1.00  0.00     0.034 A 
HETATM    3  C8  UNL     1      -9.861 -15.861   6.242  1.00  0.00     0.027 A 
HETATM    4  C9  UNL     1      -9.677 -14.594   6.738  1.00  0.00    -0.004 A 
HETATM    5  C10 UNL     1      -9.619 -14.446   8.142  1.00  0.00     0.031 A 
HETATM    6  C11 UNL     1      -9.746 -15.548   8.952  1.00  0.00     0.027 A 
HETATM    7 BR1  UNL     1      -9.660 -15.285  10.835  1.00  0.00    -0.050 Br
HETATM    8  C12 UNL     1      -9.533 -13.373   5.933  1.00  0.00     0.241 A 
HETATM    9  F1  UNL     1      -8.295 -12.789   6.238  1.00  0.00    -0.239 F 
HETATM   10  C13 UNL     1      -9.598 -13.573   4.478  1.00  0.00     0.029 A 
HETATM   11  C14 UNL     1      -9.500 -12.640   3.425  1.00  0.00     0.120 A 
HETATM   12  N2  UNL     1      -9.626 -13.358   2.307  1.00  0.00    -0.311 N 
ATOM     13  H2  UNL     1      -9.599 -12.969   1.364  1.00  0.00     0.186 HD
HETATM   14  N3  UNL     1      -9.793 -14.637   2.586  1.00  0.00    -0.297 N 
ATOM     15  H3  UNL     1      -9.912 -15.380   1.897  1.00  0.00     0.187 HD
HETATM   16  C15 UNL     1      -9.781 -14.811   3.931  1.00  0.00     0.110 A 
HETATM   17  C16 UNL     1      -9.916 -15.983   4.790  1.00  0.00     0.211 A 
HETATM   18  O2  UNL     1     -10.082 -17.105   4.263  1.00  0.00    -0.285 OA
ENDROOT
BRANCH   1  19
HETATM   19  C5  UNL     1     -10.055 -17.918   9.397  1.00  0.00     0.253 C 
HETATM   20  N1  UNL     1     -11.322 -18.323   9.867  1.00  0.00    -0.353 N 
ATOM     21  H1  UNL     1     -12.108 -17.798   9.483  1.00  0.00     0.163 HD
HETATM   22  O1  UNL     1      -9.030 -18.517   9.803  1.00  0.00    -0.268 OA
BRANCH  20  23
HETATM   23  C4  UNL     1     -11.679 -19.337  10.782  1.00  0.00     0.155 C 
BRANCH  23  24
HETATM   24  C2  UNL     1     -12.894 -20.117  10.577  1.00  0.00    -0.075 C 
HETATM   25  C1  UNL     1     -13.732 -19.718   9.589  1.00  0.00     0.015 C 
HETATM   26  C3  UNL     1     -13.277 -21.313  11.323  1.00  0.00     0.044 C 
ENDBRANCH  23  24
ENDBRANCH  20  23
ENDBRANCH   1  19
TORSDOF 3
ENDMDL
MODEL 2
REMARK VINA RESULT: -8.768793587      2.510      2.748
REMARK  3 active torsions:
REMARK  status: ('A' for Active; 'I' for Inactive)
REMARK    1  A    between atoms: C2_2  and  C4_4 
REMARK    2  A    between atoms: C4_4  and  N1_5 
REMARK       I    between atoms: N1_5  and  C5_7 
REMARK    3  A    between atoms: C5_7  and  C6_9 
ROOT
HETATM    1  C6  UNL     1     -12.803 -16.447   7.847  1.00  0.00     0.050 A 
HETATM    2  C7  UNL     1     -11.687 -16.703   7.090  1.00  0.00     0.034 A 
HETATM    3  C8  UNL     1     -11.361 -15.873   6.015  1.00  0.00     0.027 A 
HETATM    4  C9  UNL     1     -12.132 -14.786   5.681  1.00  0.00    -0.004 A 
HETATM    5  C10 UNL     1     -13.278 -14.534   6.468  1.00  0.00     0.031 A 
HETATM    6  C11 UNL     1     -13.581 -15.362   7.521  1.00  0.00     0.027 A 
HETATM    7 BR1  UNL     1     -15.137 -14.972   8.544  1.00  0.00    -0.050 Br
HETATM    8  C12 UNL     1     -11.868 -13.859   4.572  1.00  0.00     0.241 A 
HETATM    9  F1  UNL     1     -11.732 -12.568   5.102  1.00  0.00    -0.239 F 
HETATM   10  C13 UNL     1     -10.666 -14.158   3.780  1.00  0.00     0.029 A 
HETATM   11  C14 UNL     1     -10.121 -13.490   2.664  1.00  0.00     0.120 A 
HETATM   12  N2  UNL     1      -9.028 -14.183   2.340  1.00  0.00    -0.311 N 
ATOM     13  H2  UNL     1      -8.405 -13.952   1.565  1.00  0.00     0.186 HD
HETATM   14  N3  UNL     1      -8.862 -15.208   3.155  1.00  0.00    -0.297 N 
ATOM     15  H3  UNL     1      -8.098 -15.883   3.106  1.00  0.00     0.187 HD
HETATM   16  C15 UNL     1      -9.865 -15.226   4.068  1.00  0.00     0.110 A 
HETATM   17  C16 UNL     1     -10.186 -16.108   5.186  1.00  0.00     0.211 A 
HETATM   18  O2  UNL     1      -9.434 -17.078   5.427  1.00  0.00    -0.285 OA
ENDROOT
BRANCH   1  19
HETATM   19  C5  UNL     1     -13.216 -17.267   8.988  1.00  0.00     0.253 C 
HETATM   20  N1  UNL     1     -13.588 -18.616   8.807  1.00  0.00    -0.353 N 
ATOM     21  H1  UNL     1     -13.529 -18.950   7.844  1.00  0.00     0.163 HD
HETATM   22  O1  UNL     1     -13.243 -16.773  10.141  1.00  0.00    -0.268 OA
BRANCH  20  23
HETATM   23  C4  UNL     1     -14.028 -19.579   9.741  1.00  0.00     0.155 C 
BRANCH  23  24
HETATM   24  C2  UNL     1     -13.070 -20.237  10.622  1.00  0.00    -0.075 C 
HETATM   25  C1  UNL     1     -13.453 -21.400  11.203  1.00  0.00     0.015 C 
HETATM   26  C3  UNL     1     -11.716 -19.771  10.913  1.00  0.00     0.044 C 
ENDBRANCH  23  24
ENDBRANCH  20  23
ENDBRANCH   1  19
TORSDOF 3
ENDMDL
MODEL 3
REMARK VINA RESULT: -8.723806207      4.286      4.825
REMARK  3 active torsions:
REMARK  status: ('A' for Active; 'I' for Inactive)
REMARK    1  A    between atoms: C2_2  and  C4_4 
REMARK    2  A    between atoms: C4_4  and  N1_5 
REMARK       I    between atoms: N1_5  and  C5_7 
REMARK    3  A    between atoms: C5_7  and  C6_9 
ROOT
HETATM    1  C6  UNL     1     -13.501 -15.396   7.504  1.00  0.00     0.050 A 
HETATM    2  C7  UNL     1     -13.212 -14.541   6.469  1.00  0.00     0.034 A 
HETATM    3  C8  UNL     1     -12.082 -14.753   5.676  1.00  0.00     0.027 A 
HETATM    4  C9  UNL     1     -11.231 -15.807   5.898  1.00  0.00    -0.004 A 
HETATM    5  C10 UNL     1     -11.539 -16.679   6.966  1.00  0.00     0.031 A 
HETATM    6  C11 UNL     1     -12.655 -16.454   7.734  1.00  0.00     0.027 A 
HETATM    7 BR1  UNL     1     -13.017 -17.663   9.158  1.00  0.00    -0.050 Br
HETATM    8  C12 UNL     1     -10.022 -16.109   5.119  1.00  0.00     0.241 A 
HETATM    9  F1  UNL     1     -10.159 -17.396   4.577  1.00  0.00    -0.239 F 
HETATM   10  C13 UNL     1      -9.739 -15.177   4.017  1.00  0.00     0.029 A 
HETATM   11  C14 UNL     1      -8.684 -15.165   3.083  1.00  0.00     0.120 A 
HETATM   12  N2  UNL     1      -8.912 -14.102   2.309  1.00  0.00    -0.311 N 
ATOM     13  H2  UNL     1      -8.320 -13.816   1.528  1.00  0.00     0.186 HD
HETATM   14  N3  UNL     1     -10.008 -13.470   2.689  1.00  0.00    -0.297 N 
ATOM     15  H3  UNL     1     -10.386 -12.630   2.251  1.00  0.00     0.187 HD
HETATM   16  C15 UNL     1     -10.552 -14.112   3.753  1.00  0.00     0.110 A 
HETATM   17  C16 UNL     1     -11.738 -13.870   4.568  1.00  0.00     0.211 A 
HETATM   18  O2  UNL     1     -12.466 -12.887   4.303  1.00  0.00    -0.285 OA
ENDROOT
BRANCH   1  19
HETATM   19  C5  UNL     1     -14.663 -15.245   8.382  1.00  0.00     0.253 C 
HETATM   20  N1  UNL     1     -15.955 -15.588   7.930  1.00  0.00    -0.353 N 
ATOM     21  H1  UNL     1     -15.992 -15.948   6.976  1.00  0.00     0.163 HD
HETATM   22  O1  UNL     1     -14.517 -14.807   9.549  1.00  0.00    -0.268 OA
BRANCH  20  23
HETATM   23  C4  UNL     1     -17.204 -15.514   8.584  1.00  0.00     0.155 C 
BRANCH  23  24
HETATM   24  C2  UNL     1     -18.322 -14.822   7.953  1.00  0.00    -0.075 C 
HETATM   25  C1  UNL     1     -18.310 -14.717   6.602  1.00  0.00     0.015 C 
HETATM   26  C3  UNL     1     -19.476 -14.256   8.647  1.00  0.00     0.044 C 
ENDBRANCH  23  24
ENDBRANCH  20  23
ENDBRANCH   1  19
TORSDOF 3
ENDMDL
MODEL 4
REMARK VINA RESULT: -8.650234462      2.396      2.655
REMARK  3 active torsions:
REMARK  status: ('A' for Active; 'I' for Inactive)
REMARK    1  A    between atoms: C2_2  and  C4_4 
REMARK    2  A    between atoms: C4_4  and  N1_5 
REMARK       I    between atoms: N1_5  and  C5_7 
REMARK    3  A    between atoms: C5_7  and  C6_9 
ROOT
HETATM    1  C6  UNL     1     -11.980 -16.769   8.666  1.00  0.00     0.050 A 
HETATM    2  C7  UNL     1     -12.548 -15.905   7.762  1.00  0.00     0.034 A 
HETATM    3  C8  UNL     1     -11.833 -15.498   6.634  1.00  0.00     0.027 A 
HETATM    4  C9  UNL     1     -10.556 -15.939   6.390  1.00  0.00    -0.004 A 
HETATM    5  C10 UNL     1      -9.983 -16.827   7.328  1.00  0.00     0.031 A 
HETATM    6  C11 UNL     1     -10.703 -17.216   8.431  1.00  0.00     0.027 A 
HETATM    7 BR1  UNL     1      -9.877 -18.413   9.658  1.00  0.00    -0.050 Br
HETATM    8  C12 UNL     1      -9.729 -15.566   5.233  1.00  0.00     0.241 A 
HETATM    9  F1  UNL     1      -9.388 -16.738   4.542  1.00  0.00    -0.239 F 
HETATM   10  C13 UNL     1     -10.364 -14.642   4.283  1.00  0.00     0.029 A 
HETATM   11  C14 UNL     1      -9.870 -14.085   3.085  1.00  0.00     0.120 A 
HETATM   12  N2  UNL     1     -10.858 -13.316   2.622  1.00  0.00    -0.311 N 
ATOM     13  H2  UNL     1     -10.811 -12.771   1.761  1.00  0.00     0.186 HD
HETATM   14  N3  UNL     1     -11.902 -13.355   3.429  1.00  0.00    -0.297 N 
ATOM     15  H3  UNL     1     -12.776 -12.849   3.287  1.00  0.00     0.187 HD
HETATM   16  C15 UNL     1     -11.632 -14.172   4.478  1.00  0.00     0.110 A 
HETATM   17  C16 UNL     1     -12.398 -14.583   5.649  1.00  0.00     0.211 A 
HETATM   18  O2  UNL     1     -13.557 -14.138   5.802  1.00  0.00    -0.285 OA
ENDROOT
BRANCH   1  19
HETATM   19  C5  UNL     1     -12.660 -17.244   9.873  1.00  0.00     0.253 C 
HETATM   20  N1  UNL     1     -13.462 -18.405   9.837  1.00  0.00    -0.353 N 
ATOM     21  H1  UNL     1     -13.507 -18.865   8.928  1.00  0.00     0.163 HD
HETATM   22  O1  UNL     1     -12.533 -16.619  10.954  1.00  0.00    -0.268 OA
BRANCH  20  23
HETATM   23  C4  UNL     1     -14.212 -19.031  10.856  1.00  0.00     0.155 C 
BRANCH  23  24
HETATM   24  C2  UNL     1     -14.270 -20.487  10.935  1.00  0.00    -0.075 C 
HETATM   25  C1  UNL     1     -13.094 -21.155  11.010  1.00  0.00     0.015 C 
HETATM   26  C3  UNL     1     -15.488 -21.291  10.972  1.00  0.00     0.044 C 
ENDBRANCH  23  24
ENDBRANCH  20  23
ENDBRANCH   1  19
TORSDOF 3
ENDMDL
MODEL 5
REMARK VINA RESULT: -8.618098384      2.385      2.646
REMARK  3 active torsions:
REMARK  status: ('A' for Active; 'I' for Inactive)
REMARK    1  A    between atoms: C2_2  and  C4_4 
REMARK    2  A    between atoms: C4_4  and  N1_5 
REMARK       I    between atoms: N1_5  and  C5_7 
REMARK    3  A    between atoms: C5_7  and  C6_9 
ROOT
HETATM    1  C6  UNL     1     -12.480 -16.883   7.772  1.00  0.00     0.050 A 
HETATM    2  C7  UNL     1     -11.438 -17.029   6.890  1.00  0.00     0.034 A 
HETATM    3  C8  UNL     1     -11.211 -16.066   5.904  1.00  0.00     0.027 A 
HETATM    4  C9  UNL     1     -12.009 -14.955   5.782  1.00  0.00    -0.004 A 
HETATM    5  C10 UNL     1     -13.078 -14.816   6.695  1.00  0.00     0.031 A 
HETATM    6  C11 UNL     1     -13.284 -15.774   7.657  1.00  0.00     0.027 A 
HETATM    7 BR1  UNL     1     -14.740 -15.533   8.859  1.00  0.00    -0.050 Br
HETATM    8  C12 UNL     1     -11.847 -13.892   4.780  1.00  0.00     0.241 A 
HETATM    9  F1  UNL     1     -11.662 -12.676   5.455  1.00  0.00    -0.239 F 
HETATM   10  C13 UNL     1     -10.722 -14.075   3.851  1.00  0.00     0.029 A 
HETATM   11  C14 UNL     1     -10.281 -13.266   2.784  1.00  0.00     0.120 A 
HETATM   12  N2  UNL     1      -9.222 -13.900   2.276  1.00  0.00    -0.311 N 
ATOM     13  H2  UNL     1      -8.672 -13.566   1.484  1.00  0.00     0.186 HD
HETATM   14  N3  UNL     1      -8.982 -15.018   2.937  1.00  0.00    -0.297 N 
ATOM     15  H3  UNL     1      -8.226 -15.672   2.734  1.00  0.00     0.187 HD
HETATM   16  C15 UNL     1      -9.898 -15.162   3.927  1.00  0.00     0.110 A 
HETATM   17  C16 UNL     1     -10.116 -16.181   4.948  1.00  0.00     0.211 A 
HETATM   18  O2  UNL     1      -9.346 -17.165   4.996  1.00  0.00    -0.285 OA
ENDROOT
BRANCH   1  19
HETATM   19  C5  UNL     1     -12.787 -17.845   8.832  1.00  0.00     0.253 C 
HETATM   20  N1  UNL     1     -13.742 -18.863   8.624  1.00  0.00    -0.353 N 
ATOM     21  H1  UNL     1     -14.167 -18.868   7.697  1.00  0.00     0.163 HD
HETATM   22  O1  UNL     1     -12.201 -17.770   9.939  1.00  0.00    -0.268 OA
BRANCH  20  23
HETATM   23  C4  UNL     1     -14.204 -19.876   9.492  1.00  0.00     0.155 C 
BRANCH  23  24
HETATM   24  C2  UNL     1     -14.927 -19.526  10.710  1.00  0.00    -0.075 C 
HETATM   25  C1  UNL     1     -14.552 -20.142  11.857  1.00  0.00     0.015 C 
HETATM   26  C3  UNL     1     -16.003 -18.544  10.812  1.00  0.00     0.044 C 
ENDBRANCH  23  24
ENDBRANCH  20  23
ENDBRANCH   1  19
TORSDOF 3
ENDMDL
