MODEL 1
REMARK VINA RESULT: -4.227111849      0.000      0.000
REMARK  6 active torsions:
REMARK  status: ('A' for Active; 'I' for Inactive)
REMARK    1  A    between atoms: C2_2  and  O1_4 
REMARK    2  A    between atoms: O1_4  and  C3_5 
REMARK    3  A    between atoms: C4_7  and  C5_8 
REMARK    4  A    between atoms: C5_8  and  O3_9 
REMARK    5  A    between atoms: C6_11  and  O4_12 
REMARK    6  A    between atoms: C7_14  and  O5_15 
ROOT
HETATM    1  C3  UNL     1     -12.364  26.756   8.432  1.00  0.00     0.284 C 
HETATM    2  O2  UNL     1     -12.265  28.112   8.339  1.00  0.00    -0.349 OA
HETATM    3  C4  UNL     1     -13.129  28.872   9.061  1.00  0.00     0.179 C 
HETATM    4  C6  UNL     1     -13.287  28.485  10.505  1.00  0.00     0.179 C 
HETATM    5  C7  UNL     1     -13.387  27.006  10.723  1.00  0.00     0.168 C 
HETATM    6  C8  UNL     1     -12.577  26.184   9.785  1.00  0.00     0.145 C 
HETATM    7  S2  UNL     1     -10.958  25.777  10.544  1.00  0.00    -0.085 SA
ENDROOT
BRANCH   1   8
HETATM    8  O1  UNL     1     -13.302  26.189   7.534  1.00  0.00    -0.312 OA
BRANCH   8   9
HETATM    9  C2  UNL     1     -12.917  25.299   6.542  1.00  0.00     0.112 C 
HETATM   10  C1  UNL     1     -11.943  24.230   6.752  1.00  0.00     0.089 C 
HETATM   11  S1  UNL     1     -13.605  25.478   5.073  1.00  0.00    -0.058 SA
ENDBRANCH   8   9
ENDBRANCH   1   8
BRANCH   3  12
HETATM   12  C5  UNL     1     -14.494  29.019   8.375  1.00  0.00     0.198 C 
BRANCH  12  13
HETATM   13  O3  UNL     1     -14.843  30.367   8.272  1.00  0.00    -0.398 OA
ATOM     14  H3  UNL     1     -14.103  30.878   7.967  1.00  0.00     0.209 HD
ENDBRANCH  12  13
ENDBRANCH   3  12
BRANCH   5  15
HETATM   15  O5  UNL     1     -14.729  26.584  10.670  1.00  0.00    -0.392 OA
ATOM     16  H5  UNL     1     -14.791  25.644  10.794  1.00  0.00     0.210 HD
ENDBRANCH   5  15
BRANCH   4  17
HETATM   17  O4  UNL     1     -12.230  29.010  11.249  1.00  0.00    -0.390 OA
ATOM     18  H4  UNL     1     -12.548  29.292  12.098  1.00  0.00     0.210 HD
ENDBRANCH   4  17
TORSDOF 6
ENDMDL
MODEL 2
REMARK VINA RESULT: -4.213802597      1.399      1.462
REMARK  6 active torsions:
REMARK  status: ('A' for Active; 'I' for Inactive)
REMARK    1  A    between atoms: C2_2  and  O1_4 
REMARK    2  A    between atoms: O1_4  and  C3_5 
REMARK    3  A    between atoms: C4_7  and  C5_8 
REMARK    4  A    between atoms: C5_8  and  O3_9 
REMARK    5  A    between atoms: C6_11  and  O4_12 
REMARK    6  A    between atoms: C7_14  and  O5_15 
ROOT
HETATM    1  C3  UNL     1     -12.152  26.916   7.922  1.00  0.00     0.284 C 
HETATM    2  O2  UNL     1     -11.488  28.012   8.383  1.00  0.00    -0.349 OA
HETATM    3  C4  UNL     1     -11.973  28.645   9.484  1.00  0.00     0.179 C 
HETATM    4  C6  UNL     1     -12.326  27.755  10.643  1.00  0.00     0.179 C 
HETATM    5  C7  UNL     1     -13.049  26.505  10.243  1.00  0.00     0.168 C 
HETATM    6  C8  UNL     1     -12.631  25.939   8.932  1.00  0.00     0.145 C 
HETATM    7  S2  UNL     1     -11.361  24.641   9.184  1.00  0.00    -0.085 SA
ENDROOT
BRANCH   1   8
HETATM    8  O1  UNL     1     -13.212  27.223   7.033  1.00  0.00    -0.312 OA
BRANCH   8   9
HETATM    9  C2  UNL     1     -13.399  26.523   5.850  1.00  0.00     0.112 C 
HETATM   10  C1  UNL     1     -13.017  25.123   5.673  1.00  0.00     0.089 C 
HETATM   11  S1  UNL     1     -14.087  27.328   4.609  1.00  0.00    -0.058 SA
ENDBRANCH   8   9
ENDBRANCH   1   8
BRANCH   3  12
HETATM   12  C5  UNL     1     -13.124  29.601   9.148  1.00  0.00     0.198 C 
BRANCH  12  13
HETATM   13  O3  UNL     1     -13.101  30.707  10.000  1.00  0.00    -0.398 OA
ATOM     14  H3  UNL     1     -12.997  30.428  10.902  1.00  0.00     0.209 HD
ENDBRANCH  12  13
ENDBRANCH   3  12
BRANCH   5  15
HETATM   15  O5  UNL     1     -14.440  26.714  10.235  1.00  0.00    -0.392 OA
ATOM     16  H5  UNL     1     -14.660  27.497   9.744  1.00  0.00     0.210 HD
ENDBRANCH   5  15
BRANCH   4  17
HETATM   17  O4  UNL     1     -11.171  27.436  11.357  1.00  0.00    -0.390 OA
ATOM     18  H4  UNL     1     -10.476  27.207  10.752  1.00  0.00     0.210 HD
ENDBRANCH   4  17
TORSDOF 6
ENDMDL
MODEL 3
REMARK VINA RESULT: -4.098523237      2.126      2.826
REMARK  6 active torsions:
REMARK  status: ('A' for Active; 'I' for Inactive)
REMARK    1  A    between atoms: C2_2  and  O1_4 
REMARK    2  A    between atoms: O1_4  and  C3_5 
REMARK    3  A    between atoms: C4_7  and  C5_8 
REMARK    4  A    between atoms: C5_8  and  O3_9 
REMARK    5  A    between atoms: C6_11  and  O4_12 
REMARK    6  A    between atoms: C7_14  and  O5_15 
ROOT
HETATM    1  C3  UNL     1     -12.172  25.189   7.102  1.00  0.00     0.284 C 
HETATM    2  O2  UNL     1     -11.564  26.319   7.559  1.00  0.00    -0.349 OA
HETATM    3  C4  UNL     1     -11.719  26.652   8.867  1.00  0.00     0.179 C 
HETATM    4  C6  UNL     1     -11.498  25.537   9.851  1.00  0.00     0.179 C 
HETATM    5  C7  UNL     1     -12.113  24.237   9.436  1.00  0.00     0.168 C 
HETATM    6  C8  UNL     1     -12.106  23.987   7.970  1.00  0.00     0.145 C 
HETATM    7  S2  UNL     1     -10.646  22.977   7.512  1.00  0.00    -0.085 SA
ENDROOT
BRANCH   1   8
HETATM    8  O1  UNL     1     -13.512  25.390   6.687  1.00  0.00    -0.312 OA
BRANCH   8   9
HETATM    9  C2  UNL     1     -13.863  25.430   5.345  1.00  0.00     0.112 C 
HETATM   10  C1  UNL     1     -14.167  24.238   4.556  1.00  0.00     0.089 C 
HETATM   11  S1  UNL     1     -13.933  26.898   4.637  1.00  0.00    -0.058 SA
ENDBRANCH   8   9
ENDBRANCH   1   8
BRANCH   3  12
HETATM   12  C5  UNL     1     -13.047  27.371   9.135  1.00  0.00     0.198 C 
BRANCH  12  13
HETATM   13  O3  UNL     1     -13.411  28.146   8.033  1.00  0.00    -0.398 OA
ATOM     14  H3  UNL     1     -13.396  29.070   8.257  1.00  0.00     0.209 HD
ENDBRANCH  12  13
ENDBRANCH   3  12
BRANCH   5  15
HETATM   15  O5  UNL     1     -13.432  24.133   9.917  1.00  0.00    -0.392 OA
ATOM     16  H5  UNL     1     -14.009  24.722   9.446  1.00  0.00     0.210 HD
ENDBRANCH   5  15
BRANCH   4  17
HETATM   17  O4  UNL     1     -10.130  25.373  10.073  1.00  0.00    -0.390 OA
ATOM     18  H4  UNL     1      -9.894  25.758  10.908  1.00  0.00     0.210 HD
ENDBRANCH   4  17
TORSDOF 6
ENDMDL
MODEL 4
REMARK VINA RESULT: -3.972949654      3.329      5.807
REMARK  6 active torsions:
REMARK  status: ('A' for Active; 'I' for Inactive)
REMARK    1  A    between atoms: C2_2  and  O1_4 
REMARK    2  A    between atoms: O1_4  and  C3_5 
REMARK    3  A    between atoms: C4_7  and  C5_8 
REMARK    4  A    between atoms: C5_8  and  O3_9 
REMARK    5  A    between atoms: C6_11  and  O4_12 
REMARK    6  A    between atoms: C7_14  and  O5_15 
ROOT
HETATM    1  C3  UNL     1     -11.734  29.691  11.726  1.00  0.00     0.284 C 
HETATM    2  O2  UNL     1     -11.523  28.354  11.572  1.00  0.00    -0.349 OA
HETATM    3  C4  UNL     1     -12.262  27.686  10.648  1.00  0.00     0.179 C 
HETATM    4  C6  UNL     1     -12.350  28.334   9.294  1.00  0.00     0.179 C 
HETATM    5  C7  UNL     1     -12.565  29.816   9.349  1.00  0.00     0.168 C 
HETATM    6  C8  UNL     1     -11.901  30.498  10.492  1.00  0.00     0.145 C 
HETATM    7  S2  UNL     1     -10.274  31.162   9.967  1.00  0.00    -0.085 SA
ENDROOT
BRANCH   1   8
HETATM    8  O1  UNL     1     -12.781  30.003  12.630  1.00  0.00    -0.312 OA
BRANCH   8   9
HETATM    9  C2  UNL     1     -12.562  30.769  13.765  1.00  0.00     0.112 C 
HETATM   10  C1  UNL     1     -13.634  31.414  14.521  1.00  0.00     0.089 C 
HETATM   11  S1  UNL     1     -11.017  30.943  14.261  1.00  0.00    -0.058 SA
ENDBRANCH   8   9
ENDBRANCH   1   8
BRANCH   3  12
HETATM   12  C5  UNL     1     -13.653  27.309  11.173  1.00  0.00     0.198 C 
BRANCH  12  13
HETATM   13  O3  UNL     1     -14.549  27.162  10.112  1.00  0.00    -0.398 OA
ATOM     14  H3  UNL     1     -14.917  28.004   9.870  1.00  0.00     0.209 HD
ENDBRANCH  12  13
ENDBRANCH   3  12
BRANCH   5  15
HETATM   15  O5  UNL     1     -13.939  30.119   9.364  1.00  0.00    -0.392 OA
ATOM     16  H5  UNL     1     -14.394  29.654   8.672  1.00  0.00     0.210 HD
ENDBRANCH   5  15
BRANCH   4  17
HETATM   17  O4  UNL     1     -11.200  28.043   8.560  1.00  0.00    -0.390 OA
ATOM     18  H4  UNL     1     -10.861  28.839   8.169  1.00  0.00     0.210 HD
ENDBRANCH   4  17
TORSDOF 6
ENDMDL
MODEL 5
REMARK VINA RESULT: -3.951638698      7.074      9.133
REMARK  6 active torsions:
REMARK  status: ('A' for Active; 'I' for Inactive)
REMARK    1  A    between atoms: C2_2  and  O1_4 
REMARK    2  A    between atoms: O1_4  and  C3_5 
REMARK    3  A    between atoms: C4_7  and  C5_8 
REMARK    4  A    between atoms: C5_8  and  O3_9 
REMARK    5  A    between atoms: C6_11  and  O4_12 
REMARK    6  A    between atoms: C7_14  and  O5_15 
ROOT
HETATM    1  C3  UNL     1      -9.179  19.202  10.157  1.00  0.00     0.284 C 
HETATM    2  O2  UNL     1      -8.648  19.363   8.912  1.00  0.00    -0.349 OA
HETATM    3  C4  UNL     1      -9.471  19.765   7.908  1.00  0.00     0.179 C 
HETATM    4  C6  UNL     1     -10.360  20.935   8.224  1.00  0.00     0.179 C 
HETATM    5  C7  UNL     1     -10.984  20.866   9.584  1.00  0.00     0.168 C 
HETATM    6  C8  UNL     1     -10.130  20.240  10.628  1.00  0.00     0.145 C 
HETATM    7  S2  UNL     1      -9.219  21.534  11.555  1.00  0.00    -0.085 SA
ENDROOT
BRANCH   1   8
HETATM    8  O1  UNL     1      -9.743  17.920  10.376  1.00  0.00    -0.312 OA
BRANCH   8   9
HETATM    9  C2  UNL     1      -9.583  17.248  11.578  1.00  0.00     0.112 C 
HETATM   10  C1  UNL     1     -10.662  17.062  12.546  1.00  0.00     0.089 C 
HETATM   11  S1  UNL     1      -8.104  16.640  11.902  1.00  0.00    -0.058 SA
ENDBRANCH   8   9
ENDBRANCH   1   8
BRANCH   3  12
HETATM   12  C5  UNL     1     -10.276  18.603   7.311  1.00  0.00     0.198 C 
BRANCH  12  13
HETATM   13  O3  UNL     1     -11.421  19.082   6.673  1.00  0.00    -0.398 OA
ATOM     14  H3  UNL     1     -12.049  19.397   7.312  1.00  0.00     0.209 HD
ENDBRANCH  12  13
ENDBRANCH   3  12
BRANCH   5  15
HETATM   15  O5  UNL     1     -12.220  20.195   9.532  1.00  0.00    -0.392 OA
ATOM     16  H5  UNL     1     -12.269  19.527  10.206  1.00  0.00     0.210 HD
ENDBRANCH   5  15
BRANCH   4  17
HETATM   17  O4  UNL     1      -9.639  22.121   8.084  1.00  0.00    -0.390 OA
ATOM     18  H4  UNL     1     -10.097  22.826   8.527  1.00  0.00     0.210 HD
ENDBRANCH   4  17
TORSDOF 6
ENDMDL
