MODEL 1
REMARK VINA RESULT: -3.899077371      0.000      0.000
REMARK  8 active torsions:
REMARK  status: ('A' for Active; 'I' for Inactive)
REMARK    1  A    between atoms: O1_2  and  C2_3 
REMARK    2  A    between atoms: C3_5  and  O3_6 
REMARK    3  A    between atoms: C4_8  and  C5_9 
REMARK    4  A    between atoms: C5_9  and  O4_10 
REMARK    5  A    between atoms: C5_9  and  C6_12 
REMARK    6  A    between atoms: C6_12  and  S1_13 
REMARK    7  A    between atoms: C8_15  and  O5_16 
REMARK    8  A    between atoms: C9_18  and  O6_19 
ROOT
HETATM    1  C2  UNL     1     -10.552  27.007   8.936  1.00  0.00     0.293 C 
HETATM    2  O2  UNL     1     -11.076  27.738   7.898  1.00  0.00    -0.329 OA
HETATM    3  C3  UNL     1     -12.209  27.192   7.329  1.00  0.00     0.269 C 
HETATM    4  C4  UNL     1     -12.124  25.672   7.236  1.00  0.00     0.102 C 
HETATM    5  C8  UNL     1     -12.064  25.101   8.623  1.00  0.00     0.163 C 
HETATM    6  C9  UNL     1     -11.544  26.109   9.613  1.00  0.00     0.202 C 
ENDROOT
BRANCH   4   7
HETATM    7  C5  UNL     1     -13.356  25.226   6.487  1.00  0.00     0.138 C 
BRANCH   7   8
HETATM    8  O4  UNL     1     -13.541  23.860   6.536  1.00  0.00    -0.394 OA
ATOM      9  H4  UNL     1     -14.450  23.611   6.419  1.00  0.00     0.210 HD
ENDBRANCH   7   8
BRANCH   7  10
HETATM   10  C6  UNL     1     -13.379  25.683   5.070  1.00  0.00     0.105 C 
BRANCH  10  11
HETATM   11  S1  UNL     1     -15.058  26.039   4.482  1.00  0.00    -0.171 SA
HETATM   12  C7  UNL     1     -15.767  24.649   3.596  1.00  0.00     0.089 C 
ENDBRANCH  10  11
ENDBRANCH   7  10
ENDBRANCH   4   7
BRANCH   3  13
HETATM   13  O3  UNL     1     -13.380  27.527   7.963  1.00  0.00    -0.371 OA
ATOM     14  H3  UNL     1     -14.091  27.759   7.378  1.00  0.00     0.212 HD
ENDBRANCH   3  13
BRANCH   5  15
HETATM   15  O5  UNL     1     -13.313  24.661   9.048  1.00  0.00    -0.392 OA
ATOM     16  H5  UNL     1     -13.711  25.275   9.655  1.00  0.00     0.210 HD
ENDBRANCH   5  15
BRANCH   6  17
HETATM   17  O6  UNL     1     -10.852  25.441  10.643  1.00  0.00    -0.388 OA
ATOM     18  H6  UNL     1     -10.172  26.031  10.944  1.00  0.00     0.210 HD
ENDBRANCH   6  17
BRANCH   1  19
HETATM   19  O1  UNL     1      -9.525  26.209   8.431  1.00  0.00    -0.363 OA
HETATM   20  C1  UNL     1      -8.419  26.961   8.041  1.00  0.00     0.204 C 
ENDBRANCH   1  19
TORSDOF 8
ENDMDL
MODEL 2
REMARK VINA RESULT: -3.880620043      8.120      9.647
REMARK  8 active torsions:
REMARK  status: ('A' for Active; 'I' for Inactive)
REMARK    1  A    between atoms: O1_2  and  C2_3 
REMARK    2  A    between atoms: C3_5  and  O3_6 
REMARK    3  A    between atoms: C4_8  and  C5_9 
REMARK    4  A    between atoms: C5_9  and  O4_10 
REMARK    5  A    between atoms: C5_9  and  C6_12 
REMARK    6  A    between atoms: C6_12  and  S1_13 
REMARK    7  A    between atoms: C8_15  and  O5_16 
REMARK    8  A    between atoms: C9_18  and  O6_19 
ROOT
HETATM    1  C2  UNL     1      -8.953  19.634   8.454  1.00  0.00     0.293 C 
HETATM    2  O2  UNL     1      -7.941  19.013   9.143  1.00  0.00    -0.329 OA
HETATM    3  C3  UNL     1      -8.367  18.093  10.079  1.00  0.00     0.269 C 
HETATM    4  C4  UNL     1      -9.622  18.561  10.809  1.00  0.00     0.102 C 
HETATM    5  C8  UNL     1     -10.747  18.671   9.822  1.00  0.00     0.163 C 
HETATM    6  C9  UNL     1     -10.235  18.855   8.418  1.00  0.00     0.202 C 
ENDROOT
BRANCH   4   7
HETATM    7  C5  UNL     1      -9.897  17.533  11.878  1.00  0.00     0.138 C 
BRANCH   7   8
HETATM    8  O4  UNL     1     -11.105  17.737  12.512  1.00  0.00    -0.394 OA
ATOM      9  H4  UNL     1     -11.832  17.343  12.046  1.00  0.00     0.210 HD
ENDBRANCH   7   8
BRANCH   7  10
HETATM   10  C6  UNL     1      -8.810  17.435  12.892  1.00  0.00     0.105 C 
BRANCH  10  11
HETATM   11  S1  UNL     1      -9.398  16.782  14.480  1.00  0.00    -0.171 SA
HETATM   12  C7  UNL     1      -9.544  18.070  15.721  1.00  0.00     0.089 C 
ENDBRANCH  10  11
ENDBRANCH   7  10
ENDBRANCH   4   7
BRANCH   3  13
HETATM   13  O3  UNL     1      -8.597  16.836   9.576  1.00  0.00    -0.371 OA
ATOM     14  H3  UNL     1      -9.180  16.814   8.827  1.00  0.00     0.212 HD
ENDBRANCH   3  13
BRANCH   5  15
HETATM   15  O5  UNL     1     -11.565  17.546   9.854  1.00  0.00    -0.392 OA
ATOM     16  H5  UNL     1     -12.036  17.435   9.036  1.00  0.00     0.210 HD
ENDBRANCH   5  15
BRANCH   6  17
HETATM   17  O6  UNL     1     -11.157  19.622   7.679  1.00  0.00    -0.388 OA
ATOM     18  H6  UNL     1     -12.016  19.249   7.838  1.00  0.00     0.210 HD
ENDBRANCH   6  17
BRANCH   1  19
HETATM   19  O1  UNL     1      -9.212  20.858   9.069  1.00  0.00    -0.363 OA
HETATM   20  C1  UNL     1      -8.240  21.811   8.771  1.00  0.00     0.204 C 
ENDBRANCH   1  19
TORSDOF 8
ENDMDL
MODEL 3
REMARK VINA RESULT: -3.817379897      4.412      6.467
REMARK  8 active torsions:
REMARK  status: ('A' for Active; 'I' for Inactive)
REMARK    1  A    between atoms: O1_2  and  C2_3 
REMARK    2  A    between atoms: C3_5  and  O3_6 
REMARK    3  A    between atoms: C4_8  and  C5_9 
REMARK    4  A    between atoms: C5_9  and  O4_10 
REMARK    5  A    between atoms: C5_9  and  C6_12 
REMARK    6  A    between atoms: C6_12  and  S1_13 
REMARK    7  A    between atoms: C8_15  and  O5_16 
REMARK    8  A    between atoms: C9_18  and  O6_19 
ROOT
HETATM    1  C2  UNL     1     -12.543  27.349   8.971  1.00  0.00     0.293 C 
HETATM    2  O2  UNL     1     -11.270  27.817   8.759  1.00  0.00    -0.329 OA
HETATM    3  C3  UNL     1     -10.962  28.970   9.452  1.00  0.00     0.269 C 
HETATM    4  C4  UNL     1     -12.140  29.937   9.503  1.00  0.00     0.102 C 
HETATM    5  C8  UNL     1     -13.261  29.301  10.271  1.00  0.00     0.163 C 
HETATM    6  C9  UNL     1     -13.153  27.799  10.265  1.00  0.00     0.202 C 
ENDROOT
BRANCH   4   7
HETATM    7  C5  UNL     1     -11.629  31.191  10.169  1.00  0.00     0.138 C 
BRANCH   7   8
HETATM    8  O4  UNL     1     -12.618  32.136  10.349  1.00  0.00    -0.394 OA
ATOM      9  H4  UNL     1     -12.990  32.113  11.223  1.00  0.00     0.210 HD
ENDBRANCH   7   8
BRANCH   7  10
HETATM   10  C6  UNL     1     -10.474  31.805   9.457  1.00  0.00     0.105 C 
BRANCH  10  11
HETATM   11  S1  UNL     1      -9.151  32.314  10.589  1.00  0.00    -0.171 SA
HETATM   12  C7  UNL     1      -9.468  33.928  11.308  1.00  0.00     0.089 C 
ENDBRANCH  10  11
ENDBRANCH   7  10
ENDBRANCH   4   7
BRANCH   3  13
HETATM   13  O3  UNL     1     -10.514  28.760  10.734  1.00  0.00    -0.371 OA
ATOM     14  H3  UNL     1     -10.999  29.230  11.401  1.00  0.00     0.212 HD
ENDBRANCH   3  13
BRANCH   5  15
HETATM   15  O5  UNL     1     -13.289  29.740  11.591  1.00  0.00    -0.392 OA
ATOM     16  H5  UNL     1     -13.814  29.167  12.138  1.00  0.00     0.210 HD
ENDBRANCH   5  15
BRANCH   6  17
HETATM   17  O6  UNL     1     -14.442  27.235  10.326  1.00  0.00    -0.388 OA
ATOM     18  H6  UNL     1     -14.732  27.309  11.228  1.00  0.00     0.210 HD
ENDBRANCH   6  17
BRANCH   1  19
HETATM   19  O1  UNL     1     -13.354  27.808   7.932  1.00  0.00    -0.363 OA
HETATM   20  C1  UNL     1     -12.988  27.266   6.703  1.00  0.00     0.204 C 
ENDBRANCH   1  19
TORSDOF 8
ENDMDL
MODEL 4
REMARK VINA RESULT: -3.777281353      6.310      7.782
REMARK  8 active torsions:
REMARK  status: ('A' for Active; 'I' for Inactive)
REMARK    1  A    between atoms: O1_2  and  C2_3 
REMARK    2  A    between atoms: C3_5  and  O3_6 
REMARK    3  A    between atoms: C4_8  and  C5_9 
REMARK    4  A    between atoms: C5_9  and  O4_10 
REMARK    5  A    between atoms: C5_9  and  C6_12 
REMARK    6  A    between atoms: C6_12  and  S1_13 
REMARK    7  A    between atoms: C8_15  and  O5_16 
REMARK    8  A    between atoms: C9_18  and  O6_19 
ROOT
HETATM    1  C2  UNL     1     -10.072  22.436   9.230  1.00  0.00     0.293 C 
HETATM    2  O2  UNL     1      -8.926  21.813   9.662  1.00  0.00    -0.329 OA
HETATM    3  C3  UNL     1      -8.839  20.478   9.324  1.00  0.00     0.269 C 
HETATM    4  C4  UNL     1     -10.186  19.773   9.433  1.00  0.00     0.102 C 
HETATM    5  C8  UNL     1     -11.132  20.372   8.435  1.00  0.00     0.163 C 
HETATM    6  C9  UNL     1     -10.723  21.770   8.054  1.00  0.00     0.202 C 
ENDROOT
BRANCH   4   7
HETATM    7  C5  UNL     1      -9.921  18.311   9.166  1.00  0.00     0.138 C 
BRANCH   7   8
HETATM    8  O4  UNL     1     -11.081  17.572   9.063  1.00  0.00    -0.394 OA
ATOM      9  H4  UNL     1     -10.917  16.637   9.042  1.00  0.00     0.210 HD
ENDBRANCH   7   8
BRANCH   7  10
HETATM   10  C6  UNL     1      -9.016  17.686  10.169  1.00  0.00     0.105 C 
BRANCH  10  11
HETATM   11  S1  UNL     1      -9.694  17.747  11.850  1.00  0.00    -0.171 SA
HETATM   12  C7  UNL     1      -8.712  16.785  13.005  1.00  0.00     0.089 C 
ENDBRANCH  10  11
ENDBRANCH   7  10
ENDBRANCH   4   7
BRANCH   3  13
HETATM   13  O3  UNL     1      -8.321  20.241   8.075  1.00  0.00    -0.371 OA
ATOM     14  H3  UNL     1      -7.454  20.602   7.934  1.00  0.00     0.212 HD
ENDBRANCH   3  13
BRANCH   5  15
HETATM   15  O5  UNL     1     -11.211  19.600   7.279  1.00  0.00    -0.392 OA
ATOM     16  H5  UNL     1     -10.970  18.696   7.448  1.00  0.00     0.210 HD
ENDBRANCH   5  15
BRANCH   6  17
HETATM   17  O6  UNL     1     -11.869  22.526   7.741  1.00  0.00    -0.388 OA
ATOM     18  H6  UNL     1     -12.248  22.140   6.960  1.00  0.00     0.210 HD
ENDBRANCH   6  17
BRANCH   1  19
HETATM   19  O1  UNL     1     -10.988  22.440  10.282  1.00  0.00    -0.363 OA
HETATM   20  C1  UNL     1     -10.877  23.583  11.070  1.00  0.00     0.204 C 
ENDBRANCH   1  19
TORSDOF 8
ENDMDL
MODEL 5
REMARK VINA RESULT: -3.759389381      7.244      8.834
REMARK  8 active torsions:
REMARK  status: ('A' for Active; 'I' for Inactive)
REMARK    1  A    between atoms: O1_2  and  C2_3 
REMARK    2  A    between atoms: C3_5  and  O3_6 
REMARK    3  A    between atoms: C4_8  and  C5_9 
REMARK    4  A    between atoms: C5_9  and  O4_10 
REMARK    5  A    between atoms: C5_9  and  C6_12 
REMARK    6  A    between atoms: C6_12  and  S1_13 
REMARK    7  A    between atoms: C8_15  and  O5_16 
REMARK    8  A    between atoms: C9_18  and  O6_19 
ROOT
HETATM    1  C2  UNL     1      -9.980  20.759   8.259  1.00  0.00     0.293 C 
HETATM    2  O2  UNL     1      -9.190  20.788   9.381  1.00  0.00    -0.329 OA
HETATM    3  C3  UNL     1      -9.289  19.668  10.181  1.00  0.00     0.269 C 
HETATM    4  C4  UNL     1     -10.722  19.149  10.260  1.00  0.00     0.102 C 
HETATM    5  C8  UNL     1     -11.154  18.701   8.895  1.00  0.00     0.163 C 
HETATM    6  C9  UNL     1     -10.355  19.377   7.812  1.00  0.00     0.202 C 
ENDROOT
BRANCH   4   7
HETATM    7  C5  UNL     1     -10.706  18.016  11.256  1.00  0.00     0.138 C 
BRANCH   7   8
HETATM    8  O4  UNL     1     -11.904  17.334  11.302  1.00  0.00    -0.394 OA
ATOM      9  H4  UNL     1     -12.364  17.349  10.472  1.00  0.00     0.210 HD
ENDBRANCH   7   8
BRANCH   7  10
HETATM   10  C6  UNL     1     -10.322  18.446  12.629  1.00  0.00     0.105 C 
BRANCH  10  11
HETATM   11  S1  UNL     1      -9.390  17.171  13.522  1.00  0.00    -0.171 SA
HETATM   12  C7  UNL     1      -7.835  16.786  12.712  1.00  0.00     0.089 C 
ENDBRANCH  10  11
ENDBRANCH   7  10
ENDBRANCH   4   7
BRANCH   3  13
HETATM   13  O3  UNL     1      -8.469  18.631   9.809  1.00  0.00    -0.371 OA
ATOM     14  H3  UNL     1      -8.388  17.942  10.459  1.00  0.00     0.212 HD
ENDBRANCH   3  13
BRANCH   5  15
HETATM   15  O5  UNL     1     -11.030  17.323   8.747  1.00  0.00    -0.392 OA
ATOM     16  H5  UNL     1     -11.240  17.048   7.861  1.00  0.00     0.210 HD
ENDBRANCH   5  15
BRANCH   6  17
HETATM   17  O6  UNL     1     -11.154  19.524   6.661  1.00  0.00    -0.388 OA
ATOM     18  H6  UNL     1     -10.857  18.874   6.036  1.00  0.00     0.210 HD
ENDBRANCH   6  17
BRANCH   1  19
HETATM   19  O1  UNL     1     -11.156  21.454   8.536  1.00  0.00    -0.363 OA
HETATM   20  C1  UNL     1     -11.115  22.764   8.065  1.00  0.00     0.204 C 
ENDBRANCH   1  19
TORSDOF 8
ENDMDL
