MODEL 1
REMARK VINA RESULT: -4.231235623      0.000      0.000
REMARK  8 active torsions:
REMARK  status: ('A' for Active; 'I' for Inactive)
REMARK    1  A    between atoms: O1_2  and  C2_3 
REMARK    2  A    between atoms: C3_5  and  C4_6 
REMARK    3  A    between atoms: N1_8  and  O3_10 
REMARK    4  A    between atoms: C6_12  and  N2_13 
REMARK    5  A    between atoms: N2_13  and  N3_15 
REMARK    6  A    between atoms: N3_15  and  N4_16 
REMARK    7  A    between atoms: C7_19  and  O4_20 
REMARK    8  A    between atoms: C8_22  and  O5_23 
ROOT
HETATM    1  C2  UNL     1     -12.686  26.958   9.475  1.00  0.00     0.291 C 
HETATM    2  O2  UNL     1     -11.979  25.793   9.254  1.00  0.00    -0.345 OA
HETATM    3  C3  UNL     1     -12.447  25.033   8.204  1.00  0.00     0.199 C 
HETATM    4  C6  UNL     1     -12.607  25.776   6.925  1.00  0.00     0.180 C 
HETATM    5  C7  UNL     1     -13.397  27.054   7.069  1.00  0.00     0.179 C 
HETATM    6  C8  UNL     1     -12.809  27.815   8.233  1.00  0.00     0.204 C 
ENDROOT
BRANCH   3   7
HETATM    7  C4  UNL     1     -11.486  23.922   7.974  1.00  0.00     0.037 C 
HETATM    8  C5  UNL     1     -10.058  24.157   7.632  1.00  0.00     0.068 C 
HETATM    9  N1  UNL     1     -11.856  22.687   8.064  1.00  0.00    -0.275 N 
ATOM     10  H1  UNL     1     -12.831  22.500   8.298  1.00  0.00     0.193 HD
BRANCH   9  11
HETATM   11  O3  UNL     1     -11.044  21.628   7.871  1.00  0.00    -0.290 OA
ATOM     12  H3  UNL     1     -11.244  20.738   8.137  1.00  0.00     0.244 HD
ENDBRANCH   9  11
ENDBRANCH   3   7
BRANCH   4  13
HETATM   13  N2  UNL     1     -13.117  24.901   5.913  1.00  0.00    -0.242 N 
ATOM     14  H2  UNL     1     -12.611  24.050   5.668  1.00  0.00     0.197 HD
BRANCH  13  15
HETATM   15  N3  UNL     1     -14.173  25.182   5.339  1.00  0.00    -0.248 NA
BRANCH  15  16
HETATM   16  N4  UNL     1     -15.079  25.431   4.549  1.00  0.00    -0.261 N 
ATOM     17  H42 UNL     1     -14.403  25.635   3.812  1.00  0.00     0.193 HD
ATOM     18  H41 UNL     1     -15.962  25.590   4.063  1.00  0.00     0.193 HD
ENDBRANCH  15  16
ENDBRANCH  13  15
ENDBRANCH   4  13
BRANCH   1  19
HETATM   19  O1  UNL     1     -13.931  26.737  10.047  1.00  0.00    -0.363 OA
HETATM   20  C1  UNL     1     -13.823  26.745  11.430  1.00  0.00     0.204 C 
ENDBRANCH   1  19
BRANCH   5  21
HETATM   21  O4  UNL     1     -13.209  27.790   5.908  1.00  0.00    -0.391 OA
ATOM     22  H4  UNL     1     -13.456  28.687   6.098  1.00  0.00     0.210 HD
ENDBRANCH   5  21
BRANCH   6  23
HETATM   23  O5  UNL     1     -13.690  28.858   8.539  1.00  0.00    -0.388 OA
ATOM     24  H5  UNL     1     -14.458  28.744   7.992  1.00  0.00     0.210 HD
ENDBRANCH   6  23
TORSDOF 8
ENDMDL
MODEL 2
REMARK VINA RESULT: -4.162110571      4.882      7.347
REMARK  8 active torsions:
REMARK  status: ('A' for Active; 'I' for Inactive)
REMARK    1  A    between atoms: O1_2  and  C2_3 
REMARK    2  A    between atoms: C3_5  and  C4_6 
REMARK    3  A    between atoms: N1_8  and  O3_10 
REMARK    4  A    between atoms: C6_12  and  N2_13 
REMARK    5  A    between atoms: N2_13  and  N3_15 
REMARK    6  A    between atoms: N3_15  and  N4_16 
REMARK    7  A    between atoms: C7_19  and  O4_20 
REMARK    8  A    between atoms: C8_22  and  O5_23 
ROOT
HETATM    1  C2  UNL     1     -10.421  18.202  10.212  1.00  0.00     0.291 C 
HETATM    2  O2  UNL     1     -10.961  19.310  10.835  1.00  0.00    -0.345 OA
HETATM    3  C3  UNL     1     -10.656  20.510  10.228  1.00  0.00     0.199 C 
HETATM    4  C6  UNL     1     -10.946  20.558   8.770  1.00  0.00     0.180 C 
HETATM    5  C7  UNL     1     -10.365  19.395   8.004  1.00  0.00     0.179 C 
HETATM    6  C8  UNL     1     -10.757  18.136   8.737  1.00  0.00     0.204 C 
ENDROOT
BRANCH   3   7
HETATM    7  C4  UNL     1     -11.449  21.578  10.892  1.00  0.00     0.037 C 
HETATM    8  C5  UNL     1     -10.871  22.476  11.928  1.00  0.00     0.068 C 
HETATM    9  N1  UNL     1     -12.690  21.775  10.593  1.00  0.00    -0.275 N 
ATOM     10  H1  UNL     1     -13.108  21.172   9.885  1.00  0.00     0.193 HD
BRANCH   9  11
HETATM   11  O3  UNL     1     -13.471  22.722  11.150  1.00  0.00    -0.290 OA
ATOM     12  H3  UNL     1     -13.314  23.123  11.996  1.00  0.00     0.244 HD
ENDBRANCH   9  11
ENDBRANCH   3   7
BRANCH   4  13
HETATM   13  N2  UNL     1     -10.572  21.835   8.240  1.00  0.00    -0.242 N 
ATOM     14  H2  UNL     1      -9.603  22.149   8.295  1.00  0.00     0.197 HD
BRANCH  13  15
HETATM   15  N3  UNL     1     -11.429  22.554   7.718  1.00  0.00    -0.248 NA
BRANCH  15  16
HETATM   16  N4  UNL     1     -12.183  23.453   7.359  1.00  0.00    -0.261 N 
ATOM     17  H42 UNL     1     -11.394  24.087   7.233  1.00  0.00     0.193 HD
ATOM     18  H41 UNL     1     -12.967  24.050   7.093  1.00  0.00     0.193 HD
ENDBRANCH  15  16
ENDBRANCH  13  15
ENDBRANCH   4  13
BRANCH   1  19
HETATM   19  O1  UNL     1      -9.053  18.080  10.412  1.00  0.00    -0.363 OA
HETATM   20  C1  UNL     1      -8.808  17.483  11.640  1.00  0.00     0.204 C 
ENDBRANCH   1  19
BRANCH   5  21
HETATM   21  O4  UNL     1     -10.957  19.389   6.749  1.00  0.00    -0.391 OA
ATOM     22  H4  UNL     1     -10.441  18.817   6.194  1.00  0.00     0.210 HD
ENDBRANCH   5  21
BRANCH   6  23
HETATM   23  O5  UNL     1     -10.009  17.085   8.194  1.00  0.00    -0.388 OA
ATOM     24  H5  UNL     1      -9.745  16.528   8.916  1.00  0.00     0.210 HD
ENDBRANCH   6  23
TORSDOF 8
ENDMDL
MODEL 3
REMARK VINA RESULT: -4.132736814      4.062      5.777
REMARK  8 active torsions:
REMARK  status: ('A' for Active; 'I' for Inactive)
REMARK    1  A    between atoms: O1_2  and  C2_3 
REMARK    2  A    between atoms: C3_5  and  C4_6 
REMARK    3  A    between atoms: N1_8  and  O3_10 
REMARK    4  A    between atoms: C6_12  and  N2_13 
REMARK    5  A    between atoms: N2_13  and  N3_15 
REMARK    6  A    between atoms: N3_15  and  N4_16 
REMARK    7  A    between atoms: C7_19  and  O4_20 
REMARK    8  A    between atoms: C8_22  and  O5_23 
ROOT
HETATM    1  C2  UNL     1     -15.447  23.984   3.789  1.00  0.00     0.291 C 
HETATM    2  O2  UNL     1     -14.624  24.372   4.827  1.00  0.00    -0.345 OA
HETATM    3  C3  UNL     1     -14.127  25.653   4.712  1.00  0.00     0.199 C 
HETATM    4  C6  UNL     1     -15.157  26.697   4.466  1.00  0.00     0.180 C 
HETATM    5  C7  UNL     1     -16.086  26.366   3.322  1.00  0.00     0.179 C 
HETATM    6  C8  UNL     1     -16.579  24.957   3.541  1.00  0.00     0.204 C 
ENDROOT
BRANCH   3   7
HETATM    7  C4  UNL     1     -13.421  25.990   5.976  1.00  0.00     0.037 C 
HETATM    8  C5  UNL     1     -13.050  24.960   6.984  1.00  0.00     0.068 C 
HETATM    9  N1  UNL     1     -13.094  27.208   6.257  1.00  0.00    -0.275 N 
ATOM     10  H1  UNL     1     -13.337  27.932   5.580  1.00  0.00     0.193 HD
BRANCH   9  11
HETATM   11  O3  UNL     1     -12.454  27.590   7.380  1.00  0.00    -0.290 OA
ATOM     12  H3  UNL     1     -12.720  27.353   8.260  1.00  0.00     0.244 HD
ENDBRANCH   9  11
ENDBRANCH   3   7
BRANCH   4  13
HETATM   13  N2  UNL     1     -14.532  27.979   4.340  1.00  0.00    -0.242 N 
ATOM     14  H2  UNL     1     -14.335  28.537   5.171  1.00  0.00     0.197 HD
BRANCH  13  15
HETATM   15  N3  UNL     1     -14.232  28.405   3.222  1.00  0.00    -0.248 NA
BRANCH  15  16
HETATM   16  N4  UNL     1     -14.186  28.904   2.101  1.00  0.00    -0.261 N 
ATOM     17  H42 UNL     1     -15.148  28.620   1.917  1.00  0.00     0.193 HD
ATOM     18  H41 UNL     1     -13.943  29.371   1.227  1.00  0.00     0.193 HD
ENDBRANCH  15  16
ENDBRANCH  13  15
ENDBRANCH   4  13
BRANCH   1  19
HETATM   19  O1  UNL     1     -14.753  23.726   2.615  1.00  0.00    -0.363 OA
HETATM   20  C1  UNL     1     -15.055  22.450   2.160  1.00  0.00     0.204 C 
ENDBRANCH   1  19
BRANCH   5  21
HETATM   21  O4  UNL     1     -17.162  27.239   3.398  1.00  0.00    -0.391 OA
ATOM     22  H4  UNL     1     -17.614  27.060   4.214  1.00  0.00     0.210 HD
ENDBRANCH   5  21
BRANCH   6  23
HETATM   23  O5  UNL     1     -17.219  24.551   2.365  1.00  0.00    -0.388 OA
ATOM     24  H5  UNL     1     -18.112  24.324   2.597  1.00  0.00     0.210 HD
ENDBRANCH   6  23
TORSDOF 8
ENDMDL
MODEL 4
REMARK VINA RESULT: -4.121456647      2.791      5.041
REMARK  8 active torsions:
REMARK  status: ('A' for Active; 'I' for Inactive)
REMARK    1  A    between atoms: O1_2  and  C2_3 
REMARK    2  A    between atoms: C3_5  and  C4_6 
REMARK    3  A    between atoms: N1_8  and  O3_10 
REMARK    4  A    between atoms: C6_12  and  N2_13 
REMARK    5  A    between atoms: N2_13  and  N3_15 
REMARK    6  A    between atoms: N3_15  and  N4_16 
REMARK    7  A    between atoms: C7_19  and  O4_20 
REMARK    8  A    between atoms: C8_22  and  O5_23 
ROOT
HETATM    1  C2  UNL     1     -13.095  26.686   6.974  1.00  0.00     0.291 C 
HETATM    2  O2  UNL     1     -13.636  27.448   5.957  1.00  0.00    -0.345 OA
HETATM    3  C3  UNL     1     -13.761  26.788   4.754  1.00  0.00     0.199 C 
HETATM    4  C6  UNL     1     -14.466  25.480   4.835  1.00  0.00     0.180 C 
HETATM    5  C7  UNL     1     -13.917  24.568   5.906  1.00  0.00     0.179 C 
HETATM    6  C8  UNL     1     -13.825  25.375   7.177  1.00  0.00     0.204 C 
ENDROOT
BRANCH   3   7
HETATM    7  C4  UNL     1     -14.519  27.664   3.823  1.00  0.00     0.037 C 
HETATM    8  C5  UNL     1     -15.999  27.805   3.883  1.00  0.00     0.068 C 
HETATM    9  N1  UNL     1     -13.917  28.351   2.909  1.00  0.00    -0.275 N 
ATOM     10  H1  UNL     1     -12.902  28.271   2.849  1.00  0.00     0.193 HD
BRANCH   9  11
HETATM   11  O3  UNL     1     -14.535  29.166   2.031  1.00  0.00    -0.290 OA
ATOM     12  H3  UNL     1     -14.770  30.069   2.205  1.00  0.00     0.244 HD
ENDBRANCH   9  11
ENDBRANCH   3   7
BRANCH   4  13
HETATM   13  N2  UNL     1     -14.519  24.873   3.540  1.00  0.00    -0.242 N 
ATOM     14  H2  UNL     1     -13.670  24.778   2.983  1.00  0.00     0.197 HD
BRANCH  13  15
HETATM   15  N3  UNL     1     -15.598  24.466   3.100  1.00  0.00    -0.248 NA
BRANCH  15  16
HETATM   16  N4  UNL     1     -16.663  24.282   2.519  1.00  0.00    -0.261 N 
ATOM     17  H42 UNL     1     -16.362  24.874   1.744  1.00  0.00     0.193 HD
ATOM     18  H41 UNL     1     -17.595  24.005   2.211  1.00  0.00     0.193 HD
ENDBRANCH  15  16
ENDBRANCH  13  15
ENDBRANCH   4  13
BRANCH   1  19
HETATM   19  O1  UNL     1     -11.732  26.473   6.825  1.00  0.00    -0.363 OA
HETATM   20  C1  UNL     1     -11.029  27.295   7.694  1.00  0.00     0.204 C 
ENDBRANCH   1  19
BRANCH   5  21
HETATM   21  O4  UNL     1     -14.836  23.544   6.087  1.00  0.00    -0.391 OA
ATOM     22  H4  UNL     1     -14.377  22.821   6.498  1.00  0.00     0.210 HD
ENDBRANCH   5  21
BRANCH   6  23
HETATM   23  O5  UNL     1     -13.078  24.628   8.094  1.00  0.00    -0.388 OA
ATOM     24  H5  UNL     1     -13.281  24.964   8.959  1.00  0.00     0.210 HD
ENDBRANCH   6  23
TORSDOF 8
ENDMDL
MODEL 5
REMARK VINA RESULT: -4.057768278      1.900      3.780
REMARK  8 active torsions:
REMARK  status: ('A' for Active; 'I' for Inactive)
REMARK    1  A    between atoms: O1_2  and  C2_3 
REMARK    2  A    between atoms: C3_5  and  C4_6 
REMARK    3  A    between atoms: N1_8  and  O3_10 
REMARK    4  A    between atoms: C6_12  and  N2_13 
REMARK    5  A    between atoms: N2_13  and  N3_15 
REMARK    6  A    between atoms: N3_15  and  N4_16 
REMARK    7  A    between atoms: C7_19  and  O4_20 
REMARK    8  A    between atoms: C8_22  and  O5_23 
ROOT
HETATM    1  C2  UNL     1     -12.828  27.013   9.399  1.00  0.00     0.291 C 
HETATM    2  O2  UNL     1     -13.387  26.557   8.222  1.00  0.00    -0.345 OA
HETATM    3  C3  UNL     1     -12.591  25.682   7.514  1.00  0.00     0.199 C 
HETATM    4  C6  UNL     1     -12.076  24.533   8.308  1.00  0.00     0.180 C 
HETATM    5  C7  UNL     1     -11.419  24.946   9.603  1.00  0.00     0.179 C 
HETATM    6  C8  UNL     1     -12.364  25.891  10.303  1.00  0.00     0.204 C 
ENDROOT
BRANCH   3   7
HETATM    7  C4  UNL     1     -13.390  25.140   6.384  1.00  0.00     0.037 C 
HETATM    8  C5  UNL     1     -13.437  25.796   5.050  1.00  0.00     0.068 C 
HETATM    9  N1  UNL     1     -14.088  24.060   6.514  1.00  0.00    -0.275 N 
ATOM     10  H1  UNL     1     -14.072  23.591   7.420  1.00  0.00     0.193 HD
BRANCH   9  11
HETATM   11  O3  UNL     1     -14.835  23.509   5.537  1.00  0.00    -0.290 OA
ATOM     12  H3  UNL     1     -15.375  23.998   4.928  1.00  0.00     0.244 HD
ENDBRANCH   9  11
ENDBRANCH   3   7
BRANCH   4  13
HETATM   13  N2  UNL     1     -11.247  23.705   7.485  1.00  0.00    -0.242 N 
ATOM     14  H2  UNL     1     -10.706  24.116   6.724  1.00  0.00     0.197 HD
BRANCH  13  15
HETATM   15  N3  UNL     1     -11.190  22.492   7.702  1.00  0.00    -0.248 NA
BRANCH  15  16
HETATM   16  N4  UNL     1     -11.210  21.353   8.160  1.00  0.00    -0.261 N 
ATOM     17  H42 UNL     1     -10.322  21.511   8.637  1.00  0.00     0.193 HD
ATOM     18  H41 UNL     1     -11.417  20.392   8.432  1.00  0.00     0.193 HD
ENDBRANCH  15  16
ENDBRANCH  13  15
ENDBRANCH   4  13
BRANCH   1  19
HETATM   19  O1  UNL     1     -11.810  27.934   9.194  1.00  0.00    -0.363 OA
HETATM   20  C1  UNL     1     -12.304  29.222   9.337  1.00  0.00     0.204 C 
ENDBRANCH   1  19
BRANCH   5  21
HETATM   21  O4  UNL     1     -11.271  23.802  10.374  1.00  0.00    -0.391 OA
ATOM     22  H4  UNL     1     -10.541  23.311  10.015  1.00  0.00     0.210 HD
ENDBRANCH   5  21
BRANCH   6  23
HETATM   23  O5  UNL     1     -11.661  26.480  11.360  1.00  0.00    -0.388 OA
ATOM     24  H5  UNL     1     -12.036  26.144  12.165  1.00  0.00     0.210 HD
ENDBRANCH   6  23
TORSDOF 8
ENDMDL
