MODEL 1
REMARK VINA RESULT: -5.855605232      0.000      0.000
REMARK  3 active torsions:
REMARK  status: ('A' for Active; 'I' for Inactive)
REMARK    1  A    between atoms: C2_2  and  O1_5 
REMARK    2  A    between atoms: O1_5  and  N1_6 
REMARK    3  A    between atoms: C5_8  and  C6_9 
ROOT
HETATM    1  N1  UNL     1     -14.868  -0.246   1.505  1.00  0.00    -0.281 N 
ATOM      2  H1  UNL     1     -14.054  -0.413   0.914  1.00  0.00     0.193 HD
HETATM    3  C5  UNL     1     -14.831  -0.753   2.668  1.00  0.00     0.093 C 
ENDROOT
BRANCH   3   4
HETATM    4  C6  UNL     1     -13.656  -1.528   3.085  1.00  0.00     0.053 C 
HETATM    5  C7  UNL     1     -13.387  -1.448   4.569  1.00  0.00     0.039 C 
HETATM    6  C8  UNL     1     -11.929  -1.909   4.593  1.00  0.00     0.233 C 
HETATM    7  N2  UNL     1     -11.339  -1.184   3.486  1.00  0.00    -0.074 N 
HETATM    8  C9  UNL     1     -12.370  -1.022   2.488  1.00  0.00     0.242 C 
ATOM      9  H22 UNL     1     -10.913  -0.302   3.768  1.00  0.00     0.277 HD
ATOM     10  H21 UNL     1     -10.495  -1.626   3.122  1.00  0.00     0.277 HD
ENDBRANCH   3   4
BRANCH   1  11
HETATM   11  O1  UNL     1     -15.859   0.489   0.960  1.00  0.00    -0.271 OA
BRANCH  11  12
HETATM   12  C2  UNL     1     -16.873  -0.005   0.109  1.00  0.00     0.078 C 
HETATM   13  C1  UNL     1     -16.263  -0.603  -1.162  1.00  0.00     0.048 C 
HETATM   14  C3  UNL     1     -17.742  -0.991   0.828  1.00  0.00     0.048 C 
HETATM   15  C4  UNL     1     -17.757   1.141  -0.340  1.00  0.00     0.048 C 
ENDBRANCH  11  12
ENDBRANCH   1  11
TORSDOF 3
ENDMDL
MODEL 2
REMARK VINA RESULT: -5.842135942      0.039      1.225
REMARK  3 active torsions:
REMARK  status: ('A' for Active; 'I' for Inactive)
REMARK    1  A    between atoms: C2_2  and  O1_5 
REMARK    2  A    between atoms: O1_5  and  N1_6 
REMARK    3  A    between atoms: C5_8  and  C6_9 
ROOT
HETATM    1  N1  UNL     1     -14.868  -0.233   1.508  1.00  0.00    -0.281 N 
ATOM      2  H1  UNL     1     -14.046  -0.379   0.922  1.00  0.00     0.193 HD
HETATM    3  C5  UNL     1     -14.836  -0.763   2.662  1.00  0.00     0.093 C 
ENDROOT
BRANCH   3   4
HETATM    4  C6  UNL     1     -13.656  -1.533   3.074  1.00  0.00     0.053 C 
HETATM    5  C7  UNL     1     -13.388  -1.460   4.558  1.00  0.00     0.039 C 
HETATM    6  C8  UNL     1     -11.927  -1.913   4.580  1.00  0.00     0.233 C 
HETATM    7  N2  UNL     1     -11.341  -1.177   3.479  1.00  0.00    -0.074 N 
HETATM    8  C9  UNL     1     -12.373  -1.015   2.480  1.00  0.00     0.242 C 
ATOM      9  H22 UNL     1     -10.921  -0.293   3.766  1.00  0.00     0.277 HD
ATOM     10  H21 UNL     1     -10.494  -1.611   3.112  1.00  0.00     0.277 HD
ENDBRANCH   3   4
BRANCH   1  11
HETATM   11  O1  UNL     1     -15.862   0.501   0.969  1.00  0.00    -0.271 OA
BRANCH  11  12
HETATM   12  C2  UNL     1     -16.845   0.020   0.075  1.00  0.00     0.078 C 
HETATM   13  C1  UNL     1     -17.776   1.155  -0.361  1.00  0.00     0.048 C 
HETATM   14  C3  UNL     1     -16.212  -0.665  -1.098  1.00  0.00     0.048 C 
HETATM   15  C4  UNL     1     -17.715  -0.998   0.784  1.00  0.00     0.048 C 
ENDBRANCH  11  12
ENDBRANCH   1  11
TORSDOF 3
ENDMDL
MODEL 3
REMARK VINA RESULT: -5.821165480      0.070      1.231
REMARK  3 active torsions:
REMARK  status: ('A' for Active; 'I' for Inactive)
REMARK    1  A    between atoms: C2_2  and  O1_5 
REMARK    2  A    between atoms: O1_5  and  N1_6 
REMARK    3  A    between atoms: C5_8  and  C6_9 
ROOT
HETATM    1  N1  UNL     1     -14.913  -0.238   1.491  1.00  0.00    -0.281 N 
ATOM      2  H1  UNL     1     -14.119  -0.422   0.878  1.00  0.00     0.193 HD
HETATM    3  C5  UNL     1     -14.852  -0.740   2.655  1.00  0.00     0.093 C 
ENDROOT
BRANCH   3   4
HETATM    4  C6  UNL     1     -13.679  -1.533   3.044  1.00  0.00     0.053 C 
HETATM    5  C7  UNL     1     -13.425  -1.528   4.532  1.00  0.00     0.039 C 
HETATM    6  C8  UNL     1     -11.966  -1.987   4.546  1.00  0.00     0.233 C 
HETATM    7  N2  UNL     1     -11.367  -1.205   3.484  1.00  0.00    -0.074 N 
HETATM    8  C9  UNL     1     -12.389  -0.995   2.485  1.00  0.00     0.242 C 
ATOM      9  H22 UNL     1     -10.946  -0.337   3.814  1.00  0.00     0.277 HD
ATOM     10  H21 UNL     1     -10.518  -1.626   3.106  1.00  0.00     0.277 HD
ENDBRANCH   3   4
BRANCH   1  11
HETATM   11  O1  UNL     1     -15.907   0.510   0.970  1.00  0.00    -0.271 OA
BRANCH  11  12
HETATM   12  C2  UNL     1     -16.946   0.032   0.140  1.00  0.00     0.078 C 
HETATM   13  C1  UNL     1     -17.753  -1.050   0.863  1.00  0.00     0.048 C 
HETATM   14  C3  UNL     1     -17.816   1.157  -0.330  1.00  0.00     0.048 C 
HETATM   15  C4  UNL     1     -16.348  -0.628  -1.086  1.00  0.00     0.048 C 
ENDBRANCH  11  12
ENDBRANCH   1  11
TORSDOF 3
ENDMDL
MODEL 4
REMARK VINA RESULT: -5.643300770      2.555      3.380
REMARK  3 active torsions:
REMARK  status: ('A' for Active; 'I' for Inactive)
REMARK    1  A    between atoms: C2_2  and  O1_5 
REMARK    2  A    between atoms: O1_5  and  N1_6 
REMARK    3  A    between atoms: C5_8  and  C6_9 
ROOT
HETATM    1  N1  UNL     1     -13.319  -1.241   0.948  1.00  0.00    -0.281 N 
ATOM      2  H1  UNL     1     -14.234  -0.802   0.842  1.00  0.00     0.193 HD
HETATM    3  C5  UNL     1     -12.808  -1.199   2.110  1.00  0.00     0.093 C 
ENDROOT
BRANCH   3   4
HETATM    4  C6  UNL     1     -13.539  -0.542   3.201  1.00  0.00     0.053 C 
HETATM    5  C7  UNL     1     -13.273  -1.162   4.552  1.00  0.00     0.039 C 
HETATM    6  C8  UNL     1     -14.473  -0.617   5.328  1.00  0.00     0.233 C 
HETATM    7  N2  UNL     1     -15.572  -0.805   4.402  1.00  0.00    -0.074 N 
HETATM    8  C9  UNL     1     -15.034  -0.662   3.070  1.00  0.00     0.242 C 
ATOM      9  H22 UNL     1     -16.066  -1.686   4.542  1.00  0.00     0.277 HD
ATOM     10  H21 UNL     1     -16.360  -0.183   4.585  1.00  0.00     0.277 HD
ENDBRANCH   3   4
BRANCH   1  11
HETATM   11  O1  UNL     1     -12.793  -1.798  -0.161  1.00  0.00    -0.271 OA
BRANCH  11  12
HETATM   12  C2  UNL     1     -13.531  -2.307  -1.253  1.00  0.00     0.078 C 
HETATM   13  C1  UNL     1     -12.653  -2.386  -2.505  1.00  0.00     0.048 C 
HETATM   14  C3  UNL     1     -14.141  -3.633  -0.915  1.00  0.00     0.048 C 
HETATM   15  C4  UNL     1     -14.662  -1.354  -1.584  1.00  0.00     0.048 C 
ENDBRANCH  11  12
ENDBRANCH   1  11
TORSDOF 3
ENDMDL
MODEL 5
REMARK VINA RESULT: -5.462684144      2.492      3.345
REMARK  3 active torsions:
REMARK  status: ('A' for Active; 'I' for Inactive)
REMARK    1  A    between atoms: C2_2  and  O1_5 
REMARK    2  A    between atoms: O1_5  and  N1_6 
REMARK    3  A    between atoms: C5_8  and  C6_9 
ROOT
HETATM    1  N1  UNL     1     -13.430  -0.718   0.421  1.00  0.00    -0.281 N 
ATOM      2  H1  UNL     1     -12.548  -1.166   0.668  1.00  0.00     0.193 HD
HETATM    3  C5  UNL     1     -14.087  -0.206   1.380  1.00  0.00     0.093 C 
ENDROOT
BRANCH   3   4
HETATM    4  C6  UNL     1     -13.558  -0.286   2.747  1.00  0.00     0.053 C 
HETATM    5  C7  UNL     1     -12.349  -1.182   2.865  1.00  0.00     0.039 C 
HETATM    6  C8  UNL     1     -12.354  -1.426   4.375  1.00  0.00     0.233 C 
HETATM    7  N2  UNL     1     -13.752  -1.684   4.659  1.00  0.00    -0.074 N 
HETATM    8  C9  UNL     1     -14.526  -0.903   3.722  1.00  0.00     0.242 C 
ATOM      9  H22 UNL     1     -13.987  -2.676   4.644  1.00  0.00     0.277 HD
ATOM     10  H21 UNL     1     -14.002  -1.505   5.632  1.00  0.00     0.277 HD
ENDBRANCH   3   4
BRANCH   1  11
HETATM   11  O1  UNL     1     -13.763  -0.737  -0.885  1.00  0.00    -0.271 OA
BRANCH  11  12
HETATM   12  C2  UNL     1     -13.633  -1.848  -1.749  1.00  0.00     0.078 C 
HETATM   13  C1  UNL     1     -14.025  -3.138  -1.025  1.00  0.00     0.048 C 
HETATM   14  C3  UNL     1     -14.429  -1.647  -3.002  1.00  0.00     0.048 C 
HETATM   15  C4  UNL     1     -12.181  -2.007  -2.150  1.00  0.00     0.048 C 
ENDBRANCH  11  12
ENDBRANCH   1  11
TORSDOF 3
ENDMDL
