MODEL 1
REMARK VINA RESULT: -5.754670283      0.000      0.000
REMARK  2 active torsions:
REMARK  status: ('A' for Active; 'I' for Inactive)
REMARK    1  A    between atoms: O1_2  and  N1_3 
REMARK    2  A    between atoms: N2_9  and  O2_11 
ROOT
HETATM    1  N1  UNL     1      15.396  10.241   1.340  1.00  0.00    -0.174 NA
HETATM    2  C2  UNL     1      14.761  10.024   2.581  1.00  0.00     0.037 C 
HETATM    3  C3  UNL     1      13.738  11.062   2.956  1.00  0.00     0.034 C 
HETATM    4  C4  UNL     1      15.727   9.910   3.756  1.00  0.00     0.034 C 
HETATM    5  C5  UNL     1      14.053   8.687   2.412  1.00  0.00     0.083 C 
HETATM    6  C6  UNL     1      14.248   8.318   0.967  1.00  0.00     0.036 C 
HETATM    7  N2  UNL     1      14.113   7.172   0.441  1.00  0.00    -0.275 N 
ATOM      8  H2  UNL     1      14.273   7.044  -0.558  1.00  0.00     0.193 HD
HETATM    9  C7  UNL     1      14.636   9.617   0.306  1.00  0.00     0.072 C 
HETATM   10  C8  UNL     1      15.418   9.317  -0.939  1.00  0.00     0.041 C 
HETATM   11  C9  UNL     1      13.364  10.312  -0.051  1.00  0.00     0.041 C 
ENDROOT
BRANCH   7  12
HETATM   12  O2  UNL     1      13.754   6.116   1.215  1.00  0.00    -0.290 OA
ATOM     13  H2  UNL     1      13.860   5.232   0.882  1.00  0.00     0.244 HD
ENDBRANCH   7  12
BRANCH   1  14
HETATM   14  O1  UNL     1      15.869  11.436   1.095  1.00  0.00    -0.307 OA
HETATM   15  C1  UNL     1      17.279  11.359   1.081  1.00  0.00     0.229 C 
ENDBRANCH   1  14
TORSDOF 2
ENDMDL
MODEL 2
REMARK VINA RESULT: -5.580110532      1.960      4.484
REMARK  2 active torsions:
REMARK  status: ('A' for Active; 'I' for Inactive)
REMARK    1  A    between atoms: O1_2  and  N1_3 
REMARK    2  A    between atoms: N2_9  and  O2_11 
ROOT
HETATM    1  N1  UNL     1      15.695  10.754   1.542  1.00  0.00    -0.174 NA
HETATM    2  C2  UNL     1      15.341  10.889   2.901  1.00  0.00     0.037 C 
HETATM    3  C3  UNL     1      15.693   9.708   3.764  1.00  0.00     0.034 C 
HETATM    4  C4  UNL     1      13.861  11.177   3.127  1.00  0.00     0.034 C 
HETATM    5  C5  UNL     1      16.142  12.092   3.379  1.00  0.00     0.083 C 
HETATM    6  C6  UNL     1      17.028  12.460   2.220  1.00  0.00     0.036 C 
HETATM    7  N2  UNL     1      17.632  13.560   2.034  1.00  0.00    -0.275 N 
ATOM      8  H2  UNL     1      18.210  13.694   1.204  1.00  0.00     0.193 HD
HETATM    9  C7  UNL     1      17.027  11.229   1.351  1.00  0.00     0.072 C 
HETATM   10  C8  UNL     1      17.344  11.627  -0.061  1.00  0.00     0.041 C 
HETATM   11  C9  UNL     1      18.099  10.333   1.876  1.00  0.00     0.041 C 
ENDROOT
BRANCH   7  12
HETATM   12  O2  UNL     1      17.504  14.559   2.944  1.00  0.00    -0.290 OA
ATOM     13  H2  UNL     1      18.233  15.150   3.099  1.00  0.00     0.244 HD
ENDBRANCH   7  12
BRANCH   1  14
HETATM   14  O1  UNL     1      15.363   9.644   0.930  1.00  0.00    -0.307 OA
HETATM   15  C1  UNL     1      14.357   9.945  -0.014  1.00  0.00     0.229 C 
ENDBRANCH   1  14
TORSDOF 2
ENDMDL
MODEL 3
REMARK VINA RESULT: -5.499004322      1.297      1.297
REMARK  2 active torsions:
REMARK  status: ('A' for Active; 'I' for Inactive)
REMARK    1  A    between atoms: O1_2  and  N1_3 
REMARK    2  A    between atoms: N2_9  and  O2_11 
ROOT
HETATM    1  N1  UNL     1      15.348  10.315   1.855  1.00  0.00    -0.174 NA
HETATM    2  C2  UNL     1      15.014   9.260   2.732  1.00  0.00     0.037 C 
HETATM    3  C3  UNL     1      13.877   9.558   3.671  1.00  0.00     0.034 C 
HETATM    4  C4  UNL     1      16.180   8.777   3.587  1.00  0.00     0.034 C 
HETATM    5  C5  UNL     1      14.593   8.125   1.809  1.00  0.00     0.083 C 
HETATM    6  C6  UNL     1      14.595   8.719   0.427  1.00  0.00     0.036 C 
HETATM    7  N2  UNL     1      14.617   8.096  -0.677  1.00  0.00    -0.275 N 
ATOM      8  H2  UNL     1      14.615   8.612  -1.557  1.00  0.00     0.193 HD
HETATM    9  C7  UNL     1      14.565  10.207   0.668  1.00  0.00     0.072 C 
HETATM   10  C8  UNL     1      15.152  10.907  -0.523  1.00  0.00     0.041 C 
HETATM   11  C9  UNL     1      13.130  10.587   0.820  1.00  0.00     0.041 C 
ENDROOT
BRANCH   7  12
HETATM   12  O2  UNL     1      14.643   6.739  -0.683  1.00  0.00    -0.290 OA
ATOM     13  H2  UNL     1      14.251   6.264  -1.406  1.00  0.00     0.244 HD
ENDBRANCH   7  12
BRANCH   1  14
HETATM   14  O1  UNL     1      15.498  11.511   2.366  1.00  0.00    -0.307 OA
HETATM   15  C1  UNL     1      16.877  11.818   2.373  1.00  0.00     0.229 C 
ENDBRANCH   1  14
TORSDOF 2
ENDMDL
MODEL 4
REMARK VINA RESULT: -5.393125707      1.566      1.854
REMARK  2 active torsions:
REMARK  status: ('A' for Active; 'I' for Inactive)
REMARK    1  A    between atoms: O1_2  and  N1_3 
REMARK    2  A    between atoms: N2_9  and  O2_11 
ROOT
HETATM    1  N1  UNL     1      14.085  10.258   2.181  1.00  0.00    -0.174 NA
HETATM    2  C2  UNL     1      13.123   9.336   2.643  1.00  0.00     0.037 C 
HETATM    3  C3  UNL     1      11.709   9.852   2.655  1.00  0.00     0.034 C 
HETATM    4  C4  UNL     1      13.408   8.795   4.041  1.00  0.00     0.034 C 
HETATM    5  C5  UNL     1      13.207   8.180   1.656  1.00  0.00     0.083 C 
HETATM    6  C6  UNL     1      14.162   8.642   0.590  1.00  0.00     0.036 C 
HETATM    7  N2  UNL     1      14.776   7.923  -0.256  1.00  0.00    -0.275 N 
ATOM      8  H2  UNL     1      15.402   8.354  -0.937  1.00  0.00     0.193 HD
HETATM    9  C7  UNL     1      14.212  10.138   0.765  1.00  0.00     0.072 C 
HETATM   10  C8  UNL     1      15.511  10.651   0.217  1.00  0.00     0.041 C 
HETATM   11  C9  UNL     1      13.075  10.700  -0.021  1.00  0.00     0.041 C 
ENDROOT
BRANCH   7  12
HETATM   12  O2  UNL     1      14.595   6.578  -0.251  1.00  0.00    -0.290 OA
ATOM     13  H2  UNL     1      14.304   6.140  -1.043  1.00  0.00     0.244 HD
ENDBRANCH   7  12
BRANCH   1  14
HETATM   14  O1  UNL     1      14.061  11.469   2.679  1.00  0.00    -0.307 OA
HETATM   15  C1  UNL     1      15.169  11.614   3.543  1.00  0.00     0.229 C 
ENDBRANCH   1  14
TORSDOF 2
ENDMDL
MODEL 5
REMARK VINA RESULT: -5.335783237      2.048      3.596
REMARK  2 active torsions:
REMARK  status: ('A' for Active; 'I' for Inactive)
REMARK    1  A    between atoms: O1_2  and  N1_3 
REMARK    2  A    between atoms: N2_9  and  O2_11 
ROOT
HETATM    1  N1  UNL     1      15.342  10.605   0.627  1.00  0.00    -0.174 NA
HETATM    2  C2  UNL     1      14.363  10.155  -0.284  1.00  0.00     0.037 C 
HETATM    3  C3  UNL     1      14.543   8.735  -0.751  1.00  0.00     0.034 C 
HETATM    4  C4  UNL     1      14.240  11.020  -1.535  1.00  0.00     0.034 C 
HETATM    5  C5  UNL     1      13.057  10.246   0.492  1.00  0.00     0.083 C 
HETATM    6  C6  UNL     1      13.457  10.629   1.891  1.00  0.00     0.036 C 
HETATM    7  N2  UNL     1      12.714  11.116   2.796  1.00  0.00    -0.275 N 
ATOM      8  H2  UNL     1      13.101  11.336   3.714  1.00  0.00     0.193 HD
HETATM    9  C7  UNL     1      14.926  10.297   1.957  1.00  0.00     0.072 C 
HETATM   10  C8  UNL     1      15.571  11.142   3.016  1.00  0.00     0.041 C 
HETATM   11  C9  UNL     1      15.024   8.856   2.331  1.00  0.00     0.041 C 
ENDROOT
BRANCH   7  12
HETATM   12  O2  UNL     1      11.402  11.345   2.537  1.00  0.00    -0.290 OA
ATOM     13  H2  UNL     1      10.812  11.558   3.252  1.00  0.00     0.244 HD
ENDBRANCH   7  12
BRANCH   1  14
HETATM   14  O1  UNL     1      16.599  10.394   0.330  1.00  0.00    -0.307 OA
HETATM   15  C1  UNL     1      17.194  11.635   0.014  1.00  0.00     0.229 C 
ENDBRANCH   1  14
TORSDOF 2
ENDMDL
