MODEL 1
REMARK VINA RESULT: -6.259007226      0.000      0.000
REMARK  1 active torsions:
REMARK  status: ('A' for Active; 'I' for Inactive)
REMARK    1  A    between atoms: C2_2  and  C3_3 
ROOT
HETATM    1  C3  UNL     1      14.701  10.901   4.364  1.00  0.00     0.117 A 
HETATM    2  N1  UNL     1      15.010  10.630   5.562  1.00  0.00    -0.348 N 
ATOM      3  H1  UNL     1      15.803  11.126   5.967  1.00  0.00     0.163 HD
HETATM    4  C4  UNL     1      14.337   9.688   6.384  1.00  0.00     0.120 A 
HETATM    5  C5  UNL     1      13.699  10.473   7.515  1.00  0.00     0.055 C 
HETATM    6  C6  UNL     1      13.086   9.495   8.496  1.00  0.00     0.004 C 
HETATM    7  C7  UNL     1      14.280   8.849   9.174  1.00  0.00     0.000 C 
HETATM    8  C8  UNL     1      14.890   7.942   8.132  1.00  0.00     0.004 C 
HETATM    9  C9  UNL     1      15.270   8.616   6.871  1.00  0.00     0.055 C 
HETATM   10  N2  UNL     1      13.254   9.077   5.684  1.00  0.00    -0.293 N 
ATOM     11  H2  UNL     1      12.717   8.386   6.208  1.00  0.00     0.184 HD
HETATM   12  N3  UNL     1      12.883   9.283   4.512  1.00  0.00    -0.243 N 
ATOM     13  H3  UNL     1      12.088   8.784   4.112  1.00  0.00     0.208 HD
HETATM   14  N4  UNL     1      13.600  10.227   3.769  1.00  0.00    -0.271 N 
ATOM     15  H4  UNL     1      13.334  10.432   2.806  1.00  0.00     0.190 HD
ENDROOT
BRANCH   1  16
HETATM   16  C2  UNL     1      15.416  11.875   3.549  1.00  0.00     0.039 C 
HETATM   17  C1  UNL     1      16.734  11.922   3.575  1.00  0.00     0.015 C 
ENDBRANCH   1  16
TORSDOF 1
ENDMDL
MODEL 2
REMARK VINA RESULT: -6.214100273      2.092      2.867
REMARK  1 active torsions:
REMARK  status: ('A' for Active; 'I' for Inactive)
REMARK    1  A    between atoms: C2_2  and  C3_3 
ROOT
HETATM    1  C3  UNL     1      15.893   8.877   4.485  1.00  0.00     0.117 A 
HETATM    2  N1  UNL     1      14.952   9.144   5.290  1.00  0.00    -0.348 N 
ATOM      3  H1  UNL     1      14.060   9.436   4.891  1.00  0.00     0.163 HD
HETATM    4  C4  UNL     1      15.044   9.068   6.705  1.00  0.00     0.120 A 
HETATM    5  C5  UNL     1      14.102   7.963   7.145  1.00  0.00     0.055 C 
HETATM    6  C6  UNL     1      14.060   7.939   8.659  1.00  0.00     0.004 C 
HETATM    7  C7  UNL     1      13.295   9.195   9.032  1.00  0.00     0.000 C 
HETATM    8  C8  UNL     1      14.235  10.339   8.740  1.00  0.00     0.004 C 
HETATM    9  C9  UNL     1      14.735  10.390   7.348  1.00  0.00     0.055 C 
HETATM   10  N2  UNL     1      16.344   8.648   7.113  1.00  0.00    -0.293 N 
ATOM     11  H2  UNL     1      16.493   8.567   8.119  1.00  0.00     0.184 HD
HETATM   12  N3  UNL     1      17.322   8.366   6.393  1.00  0.00    -0.243 N 
ATOM     13  H3  UNL     1      18.212   8.074   6.797  1.00  0.00     0.208 HD
HETATM   14  N4  UNL     1      17.149   8.466   5.008  1.00  0.00    -0.271 N 
ATOM     15  H4  UNL     1      17.919   8.245   4.377  1.00  0.00     0.190 HD
ENDROOT
BRANCH   1  16
HETATM   16  C2  UNL     1      15.761   8.966   3.036  1.00  0.00     0.039 C 
HETATM   17  C1  UNL     1      14.568   8.940   2.475  1.00  0.00     0.015 C 
ENDBRANCH   1  16
TORSDOF 1
ENDMDL
MODEL 3
REMARK VINA RESULT: -6.117268799      4.944      7.656
REMARK  1 active torsions:
REMARK  status: ('A' for Active; 'I' for Inactive)
REMARK    1  A    between atoms: C2_2  and  C3_3 
ROOT
HETATM    1  C3  UNL     1      14.386   9.268   1.666  1.00  0.00     0.117 A 
HETATM    2  N1  UNL     1      14.285   9.996   0.634  1.00  0.00    -0.348 N 
ATOM      3  H1  UNL     1      14.195  11.002   0.776  1.00  0.00     0.163 HD
HETATM    4  C4  UNL     1      14.290   9.520  -0.703  1.00  0.00     0.120 A 
HETATM    5  C5  UNL     1      15.547  10.065  -1.356  1.00  0.00     0.055 C 
HETATM    6  C6  UNL     1      15.525   9.699  -2.826  1.00  0.00     0.004 C 
HETATM    7  C7  UNL     1      14.437  10.579  -3.414  1.00  0.00     0.000 C 
HETATM    8  C8  UNL     1      13.137  10.004  -2.905  1.00  0.00     0.004 C 
HETATM    9  C9  UNL     1      13.036   9.912  -1.432  1.00  0.00     0.055 C 
HETATM   10  N2  UNL     1      14.424   8.100  -0.742  1.00  0.00    -0.293 N 
ATOM     11  H2  UNL     1      14.436   7.678  -1.671  1.00  0.00     0.184 HD
HETATM   12  N3  UNL     1      14.528   7.311   0.217  1.00  0.00    -0.243 N 
ATOM     13  H3  UNL     1      14.618   6.306   0.071  1.00  0.00     0.208 HD
HETATM   14  N4  UNL     1      14.514   7.862   1.504  1.00  0.00    -0.271 N 
ATOM     15  H4  UNL     1      14.597   7.258   2.322  1.00  0.00     0.190 HD
ENDROOT
BRANCH   1  16
HETATM   16  C2  UNL     1      14.377   9.793   3.025  1.00  0.00     0.039 C 
HETATM   17  C1  UNL     1      14.088  11.061   3.245  1.00  0.00     0.015 C 
ENDBRANCH   1  16
TORSDOF 1
ENDMDL
MODEL 4
REMARK VINA RESULT: -6.097902727      1.874      2.722
REMARK  1 active torsions:
REMARK  status: ('A' for Active; 'I' for Inactive)
REMARK    1  A    between atoms: C2_2  and  C3_3 
ROOT
HETATM    1  C3  UNL     1      13.796   9.099   4.127  1.00  0.00     0.117 A 
HETATM    2  N1  UNL     1      13.321   9.249   5.291  1.00  0.00    -0.348 N 
ATOM      3  H1  UNL     1      12.315   9.392   5.375  1.00  0.00     0.163 HD
HETATM    4  C4  UNL     1      14.082   9.234   6.490  1.00  0.00     0.120 A 
HETATM    5  C5  UNL     1      13.636   8.015   7.276  1.00  0.00     0.055 C 
HETATM    6  C6  UNL     1      14.320   8.034   8.626  1.00  0.00     0.004 C 
HETATM    7  C7  UNL     1      13.649   9.173   9.370  1.00  0.00     0.000 C 
HETATM    8  C8  UNL     1      14.159  10.435   8.717  1.00  0.00     0.004 C 
HETATM    9  C9  UNL     1      13.926  10.515   7.258  1.00  0.00     0.055 C 
HETATM   10  N2  UNL     1      15.467   9.026   6.215  1.00  0.00    -0.293 N 
ATOM     11  H2  UNL     1      16.084   9.001   7.027  1.00  0.00     0.184 HD
HETATM   12  N3  UNL     1      16.016   8.869   5.107  1.00  0.00    -0.243 N 
ATOM     13  H3  UNL     1      17.023   8.727   5.029  1.00  0.00     0.208 HD
HETATM   14  N4  UNL     1      15.194   8.898   3.975  1.00  0.00    -0.271 N 
ATOM     15  H4  UNL     1      15.596   8.774   3.046  1.00  0.00     0.190 HD
ENDROOT
BRANCH   1  16
HETATM   16  C2  UNL     1      12.982   9.121   2.917  1.00  0.00     0.039 C 
HETATM   17  C1  UNL     1      13.048   8.124   2.056  1.00  0.00     0.015 C 
ENDBRANCH   1  16
TORSDOF 1
ENDMDL
MODEL 5
REMARK VINA RESULT: -6.028513325      1.910      4.527
REMARK  1 active torsions:
REMARK  status: ('A' for Active; 'I' for Inactive)
REMARK    1  A    between atoms: C2_2  and  C3_3 
ROOT
HETATM    1  C3  UNL     1      14.924  10.009   7.918  1.00  0.00     0.117 A 
HETATM    2  N1  UNL     1      14.294  10.269   6.851  1.00  0.00    -0.348 N 
ATOM      3  H1  UNL     1      13.512  10.920   6.913  1.00  0.00     0.163 HD
HETATM    4  C4  UNL     1      14.593   9.725   5.574  1.00  0.00     0.120 A 
HETATM    5  C5  UNL     1      15.049  10.880   4.702  1.00  0.00     0.055 C 
HETATM    6  C6  UNL     1      15.245  10.371   3.290  1.00  0.00     0.004 C 
HETATM    7  C7  UNL     1      13.838  10.110   2.787  1.00  0.00     0.000 C 
HETATM    8  C8  UNL     1      13.369   8.880   3.525  1.00  0.00     0.004 C 
HETATM    9  C9  UNL     1      13.417   8.988   5.000  1.00  0.00     0.055 C 
HETATM   10  N2  UNL     1      15.707   8.836   5.644  1.00  0.00    -0.293 N 
ATOM     11  H2  UNL     1      15.988   8.402   4.764  1.00  0.00     0.184 HD
HETATM   12  N3  UNL     1      16.381   8.525   6.645  1.00  0.00    -0.243 N 
ATOM     13  H3  UNL     1      17.163   7.873   6.577  1.00  0.00     0.208 HD
HETATM   14  N4  UNL     1      16.021   9.106   7.866  1.00  0.00    -0.271 N 
ATOM     15  H4  UNL     1      16.542   8.883   8.714  1.00  0.00     0.190 HD
ENDROOT
BRANCH   1  16
HETATM   16  C2  UNL     1      14.588  10.588   9.213  1.00  0.00     0.039 C 
HETATM   17  C1  UNL     1      13.408  10.359   9.755  1.00  0.00     0.015 C 
ENDBRANCH   1  16
TORSDOF 1
ENDMDL
