MODEL 1
REMARK VINA RESULT: -6.880834098      0.000      0.000
REMARK  5 active torsions:
REMARK  status: ('A' for Active; 'I' for Inactive)
REMARK    1  A    between atoms: C3_3  and  C4_4 
REMARK    2  A    between atoms: C4_4  and  N1_5 
REMARK    3  A    between atoms: C10_14  and  N3_15 
REMARK    4  A    between atoms: N4_18  and  N5_19 
REMARK    5  A    between atoms: N5_19  and  C11_21 
ROOT
HETATM    1  C1  UNL     1      -5.069  50.589  12.322  1.00  0.00     0.073 C 
HETATM    2  C2  UNL     1      -4.115  51.627  12.787  1.00  0.00     0.073 A 
HETATM    3  C3  UNL     1      -4.538  52.876  13.265  1.00  0.00     0.079 A 
HETATM    4  N2  UNL     1      -3.415  53.536  13.535  1.00  0.00    -0.190 N 
ATOM      5  H2  UNL     1      -3.369  54.486  13.903  1.00  0.00     0.184 HD
HETATM    6  C10 UNL     1      -2.352  52.772  13.254  1.00  0.00     0.697 A 
HETATM    7  N4  UNL     1      -2.774  51.544  12.774  1.00  0.00    -0.093 N 
ENDROOT
BRANCH   3   8
HETATM    8  C4  UNL     1      -5.954  53.297  13.397  1.00  0.00     0.332 C 
BRANCH   8   9
HETATM    9  N1  UNL     1      -6.379  54.206  12.367  1.00  0.00     0.098 N 
HETATM   10  C5  UNL     1      -7.081  55.292  12.940  1.00  0.00     0.299 C 
HETATM   11  C6  UNL     1      -8.555  55.314  12.615  1.00  0.00     0.198 C 
HETATM   12  O1  UNL     1      -8.998  53.982  12.777  1.00  0.00    -0.383 OA
HETATM   13  C7  UNL     1      -8.557  53.309  11.636  1.00  0.00     0.145 C 
HETATM   14  C8  UNL     1      -8.921  51.851  11.829  1.00  0.00     0.041 C 
HETATM   15  C9  UNL     1      -7.107  53.447  11.384  1.00  0.00     0.304 C 
ENDBRANCH   8   9
ENDBRANCH   3   8
BRANCH   7  16
HETATM   16  N5  UNL     1      -1.904  50.518  12.443  1.00  0.00    -0.310 N 
ATOM     17  H5  UNL     1      -1.467  50.065  13.246  1.00  0.00     0.181 HD
BRANCH  16  18
HETATM   18  C11 UNL     1      -1.510  49.982  11.187  1.00  0.00     0.100 C 
HETATM   19  C12 UNL     1      -0.109  50.451  10.875  1.00  0.00     0.026 C 
HETATM   20  C13 UNL     1      -0.237  51.841  10.284  1.00  0.00     0.002 C 
HETATM   21  C14 UNL     1      -0.744  51.630   8.876  1.00  0.00     0.000 C 
HETATM   22  C15 UNL     1      -1.887  50.690   8.791  1.00  0.00     0.002 C 
HETATM   23  C16 UNL     1      -2.492  50.284  10.092  1.00  0.00     0.026 C 
ENDBRANCH  16  18
ENDBRANCH   7  16
BRANCH   6  24
HETATM   24  N3  UNL     1      -1.101  53.089  13.394  1.00  0.00    -0.233 N 
ATOM     25  H32 UNL     1      -0.776  53.810  14.038  1.00  0.00     0.174 HD
ATOM     26  H31 UNL     1      -0.304  52.682  12.903  1.00  0.00     0.174 HD
ENDBRANCH   6  24
TORSDOF 5
ENDMDL
MODEL 2
REMARK VINA RESULT: -6.768319397      1.797      2.837
REMARK  5 active torsions:
REMARK  status: ('A' for Active; 'I' for Inactive)
REMARK    1  A    between atoms: C3_3  and  C4_4 
REMARK    2  A    between atoms: C4_4  and  N1_5 
REMARK    3  A    between atoms: C10_14  and  N3_15 
REMARK    4  A    between atoms: N4_18  and  N5_19 
REMARK    5  A    between atoms: N5_19  and  C11_21 
ROOT
HETATM    1  C1  UNL     1      -2.209  53.173  12.592  1.00  0.00     0.073 C 
HETATM    2  C2  UNL     1      -2.476  51.712  12.566  1.00  0.00     0.073 A 
HETATM    3  C3  UNL     1      -3.624  51.147  13.138  1.00  0.00     0.079 A 
HETATM    4  N2  UNL     1      -3.485  49.837  12.959  1.00  0.00    -0.190 N 
ATOM      5  H2  UNL     1      -4.156  49.131  13.264  1.00  0.00     0.184 HD
HETATM    6  C10 UNL     1      -2.338  49.577  12.322  1.00  0.00     0.697 A 
HETATM    7  N4  UNL     1      -1.672  50.762  12.058  1.00  0.00    -0.093 N 
ENDROOT
BRANCH   3   8
HETATM    8  C4  UNL     1      -4.709  51.917  13.795  1.00  0.00     0.332 C 
BRANCH   8   9
HETATM    9  N1  UNL     1      -5.990  51.753  13.163  1.00  0.00     0.098 N 
HETATM   10  C5  UNL     1      -5.832  51.683  11.759  1.00  0.00     0.299 C 
HETATM   11  C6  UNL     1      -6.383  52.876  11.016  1.00  0.00     0.198 C 
HETATM   12  O1  UNL     1      -5.961  54.007  11.749  1.00  0.00    -0.383 OA
HETATM   13  C7  UNL     1      -6.808  54.061  12.858  1.00  0.00     0.145 C 
HETATM   14  C8  UNL     1      -6.312  55.200  13.725  1.00  0.00     0.041 C 
HETATM   15  C9  UNL     1      -6.851  52.805  13.637  1.00  0.00     0.304 C 
ENDBRANCH   8   9
ENDBRANCH   3   8
BRANCH   7  16
HETATM   16  N5  UNL     1      -0.476  50.823  11.362  1.00  0.00    -0.310 N 
ATOM     17  H5  UNL     1       0.351  50.884  11.956  1.00  0.00     0.181 HD
BRANCH  16  18
HETATM   18  C11 UNL     1      -0.191  50.817   9.970  1.00  0.00     0.100 C 
HETATM   19  C12 UNL     1       0.813  51.904   9.672  1.00  0.00     0.026 C 
HETATM   20  C13 UNL     1       0.030  53.196   9.544  1.00  0.00     0.002 C 
HETATM   21  C14 UNL     1      -0.652  53.116   8.198  1.00  0.00     0.000 C 
HETATM   22  C15 UNL     1      -1.330  51.822   7.950  1.00  0.00     0.002 C 
HETATM   23  C16 UNL     1      -1.428  50.906   9.123  1.00  0.00     0.026 C 
ENDBRANCH  16  18
ENDBRANCH   7  16
BRANCH   6  24
HETATM   24  N3  UNL     1      -1.877  48.412  11.981  1.00  0.00    -0.233 N 
ATOM     25  H32 UNL     1      -2.473  47.598  11.832  1.00  0.00     0.174 HD
ATOM     26  H31 UNL     1      -0.902  48.158  11.822  1.00  0.00     0.174 HD
ENDBRANCH   6  24
TORSDOF 5
ENDMDL
MODEL 3
REMARK VINA RESULT: -6.691616809      1.236      1.974
REMARK  5 active torsions:
REMARK  status: ('A' for Active; 'I' for Inactive)
REMARK    1  A    between atoms: C3_3  and  C4_4 
REMARK    2  A    between atoms: C4_4  and  N1_5 
REMARK    3  A    between atoms: C10_14  and  N3_15 
REMARK    4  A    between atoms: N4_18  and  N5_19 
REMARK    5  A    between atoms: N5_19  and  C11_21 
ROOT
HETATM    1  C1  UNL     1      -2.079  53.334  12.870  1.00  0.00     0.073 C 
HETATM    2  C2  UNL     1      -2.811  52.044  12.803  1.00  0.00     0.073 A 
HETATM    3  C3  UNL     1      -4.110  51.890  13.309  1.00  0.00     0.079 A 
HETATM    4  N2  UNL     1      -4.403  50.607  13.113  1.00  0.00    -0.190 N 
ATOM      5  H2  UNL     1      -5.284  50.163  13.373  1.00  0.00     0.184 HD
HETATM    6  C10 UNL     1      -3.374  49.984  12.526  1.00  0.00     0.697 A 
HETATM    7  N4  UNL     1      -2.342  50.883  12.317  1.00  0.00    -0.093 N 
ENDROOT
BRANCH   3   8
HETATM    8  C4  UNL     1      -4.911  52.974  13.928  1.00  0.00     0.332 C 
BRANCH   8   9
HETATM    9  N1  UNL     1      -5.346  53.972  12.987  1.00  0.00     0.098 N 
HETATM   10  C5  UNL     1      -6.066  54.988  13.658  1.00  0.00     0.299 C 
HETATM   11  C6  UNL     1      -7.539  55.020  13.331  1.00  0.00     0.198 C 
HETATM   12  O1  UNL     1      -7.964  53.673  13.364  1.00  0.00    -0.383 OA
HETATM   13  C7  UNL     1      -7.510  53.118  12.165  1.00  0.00     0.145 C 
HETATM   14  C8  UNL     1      -7.853  51.643  12.216  1.00  0.00     0.041 C 
HETATM   15  C9  UNL     1      -6.061  53.300  11.934  1.00  0.00     0.304 C 
ENDBRANCH   8   9
ENDBRANCH   3   8
BRANCH   7  16
HETATM   16  N5  UNL     1      -1.159  50.545  11.680  1.00  0.00    -0.310 N 
ATOM     17  H5  UNL     1      -0.387  50.340  12.315  1.00  0.00     0.181 HD
BRANCH  16  18
HETATM   18  C11 UNL     1      -0.825  50.434  10.304  1.00  0.00     0.100 C 
HETATM   19  C12 UNL     1       0.408  51.263  10.032  1.00  0.00     0.026 C 
HETATM   20  C13 UNL     1      -0.063  52.692   9.841  1.00  0.00     0.002 C 
HETATM   21  C14 UNL     1      -0.688  52.725   8.466  1.00  0.00     0.000 C 
HETATM   22  C15 UNL     1      -1.626  51.606   8.213  1.00  0.00     0.002 C 
HETATM   23  C16 UNL     1      -1.975  50.770   9.397  1.00  0.00     0.026 C 
ENDBRANCH  16  18
ENDBRANCH   7  16
BRANCH   6  24
HETATM   24  N3  UNL     1      -3.308  48.733  12.187  1.00  0.00    -0.233 N 
ATOM     25  H32 UNL     1      -3.993  48.037  12.481  1.00  0.00     0.174 HD
ATOM     26  H31 UNL     1      -2.595  48.290  11.606  1.00  0.00     0.174 HD
ENDBRANCH   6  24
TORSDOF 5
ENDMDL
MODEL 4
REMARK VINA RESULT: -6.675738931      2.327      6.878
REMARK  5 active torsions:
REMARK  status: ('A' for Active; 'I' for Inactive)
REMARK    1  A    between atoms: C3_3  and  C4_4 
REMARK    2  A    between atoms: C4_4  and  N1_5 
REMARK    3  A    between atoms: C10_14  and  N3_15 
REMARK    4  A    between atoms: N4_18  and  N5_19 
REMARK    5  A    between atoms: N5_19  and  C11_21 
ROOT
HETATM    1  C1  UNL     1      -6.099  51.652  11.421  1.00  0.00     0.073 C 
HETATM    2  C2  UNL     1      -5.774  52.576  12.537  1.00  0.00     0.073 A 
HETATM    3  C3  UNL     1      -4.591  52.469  13.281  1.00  0.00     0.079 A 
HETATM    4  N2  UNL     1      -4.680  53.423  14.204  1.00  0.00    -0.190 N 
ATOM      5  H2  UNL     1      -3.974  53.615  14.915  1.00  0.00     0.184 HD
HETATM    6  C10 UNL     1      -5.830  54.093  14.065  1.00  0.00     0.697 A 
HETATM    7  N4  UNL     1      -6.549  53.571  13.003  1.00  0.00    -0.093 N 
ENDROOT
BRANCH   3   8
HETATM    8  C4  UNL     1      -3.524  51.467  13.036  1.00  0.00     0.332 C 
BRANCH   8   9
HETATM    9  N1  UNL     1      -2.199  52.025  13.059  1.00  0.00     0.098 N 
HETATM   10  C5  UNL     1      -2.104  53.085  12.127  1.00  0.00     0.299 C 
HETATM   11  C6  UNL     1      -1.217  52.787  10.942  1.00  0.00     0.198 C 
HETATM   12  O1  UNL     1      -1.556  51.477  10.536  1.00  0.00    -0.383 OA
HETATM   13  C7  UNL     1      -0.934  50.635  11.461  1.00  0.00     0.145 C 
HETATM   14  C8  UNL     1      -1.368  49.224  11.120  1.00  0.00     0.041 C 
HETATM   15  C9  UNL     1      -1.265  50.947  12.868  1.00  0.00     0.304 C 
ENDBRANCH   8   9
ENDBRANCH   3   8
BRANCH   7  16
HETATM   16  N5  UNL     1      -7.762  54.088  12.579  1.00  0.00    -0.310 N 
ATOM     17  H5  UNL     1      -8.484  54.104  13.299  1.00  0.00     0.181 HD
BRANCH  16  18
HETATM   18  C11 UNL     1      -8.183  54.600  11.322  1.00  0.00     0.100 C 
HETATM   19  C12 UNL     1      -8.282  56.104  11.416  1.00  0.00     0.026 C 
HETATM   20  C13 UNL     1      -9.631  56.413  12.036  1.00  0.00     0.002 C 
HETATM   21  C14 UNL     1     -10.639  56.169  10.937  1.00  0.00     0.000 C 
HETATM   22  C15 UNL     1     -10.439  54.887  10.221  1.00  0.00     0.002 C 
HETATM   23  C16 UNL     1      -9.444  53.954  10.824  1.00  0.00     0.026 C 
ENDBRANCH  16  18
ENDBRANCH   7  16
BRANCH   6  24
HETATM   24  N3  UNL     1      -6.250  55.086  14.787  1.00  0.00    -0.233 N 
ATOM     25  H32 UNL     1      -7.175  55.113  15.216  1.00  0.00     0.174 HD
ATOM     26  H31 UNL     1      -5.740  55.940  15.017  1.00  0.00     0.174 HD
ENDBRANCH   6  24
TORSDOF 5
ENDMDL
MODEL 5
REMARK VINA RESULT: -6.656642159      2.644      6.960
REMARK  5 active torsions:
REMARK  status: ('A' for Active; 'I' for Inactive)
REMARK    1  A    between atoms: C3_3  and  C4_4 
REMARK    2  A    between atoms: C4_4  and  N1_5 
REMARK    3  A    between atoms: C10_14  and  N3_15 
REMARK    4  A    between atoms: N4_18  and  N5_19 
REMARK    5  A    between atoms: N5_19  and  C11_21 
ROOT
HETATM    1  C1  UNL     1      -6.957  51.323  12.026  1.00  0.00     0.073 C 
HETATM    2  C2  UNL     1      -6.400  52.346  12.947  1.00  0.00     0.073 A 
HETATM    3  C3  UNL     1      -5.208  52.148  13.657  1.00  0.00     0.079 A 
HETATM    4  N2  UNL     1      -5.065  53.244  14.397  1.00  0.00    -0.190 N 
ATOM      5  H2  UNL     1      -4.291  53.420  15.038  1.00  0.00     0.184 HD
HETATM    6  C10 UNL     1      -6.085  54.083  14.180  1.00  0.00     0.697 A 
HETATM    7  N4  UNL     1      -6.954  53.531  13.254  1.00  0.00    -0.093 N 
ENDROOT
BRANCH   3   8
HETATM    8  C4  UNL     1      -4.354  50.939  13.558  1.00  0.00     0.332 C 
BRANCH   8   9
HETATM    9  N1  UNL     1      -3.829  50.717  12.237  1.00  0.00     0.098 N 
HETATM   10  C5  UNL     1      -2.968  49.594  12.242  1.00  0.00     0.299 C 
HETATM   11  C6  UNL     1      -1.513  49.931  12.021  1.00  0.00     0.198 C 
HETATM   12  O1  UNL     1      -1.258  51.057  12.835  1.00  0.00    -0.383 OA
HETATM   13  C7  UNL     1      -1.814  52.138  12.147  1.00  0.00     0.145 C 
HETATM   14  C8  UNL     1      -1.656  53.348  13.044  1.00  0.00     0.041 C 
HETATM   15  C9  UNL     1      -3.236  51.949  11.788  1.00  0.00     0.304 C 
ENDBRANCH   8   9
ENDBRANCH   3   8
BRANCH   7  16
HETATM   16  N5  UNL     1      -8.082  54.186  12.786  1.00  0.00    -0.310 N 
ATOM     17  H5  UNL     1      -8.811  54.315  13.487  1.00  0.00     0.181 HD
BRANCH  16  18
HETATM   18  C11 UNL     1      -8.407  54.710  11.506  1.00  0.00     0.100 C 
HETATM   19  C12 UNL     1      -8.526  56.212  11.609  1.00  0.00     0.026 C 
HETATM   20  C13 UNL     1      -9.921  56.503  12.125  1.00  0.00     0.002 C 
HETATM   21  C14 UNL     1     -10.838  56.266  10.947  1.00  0.00     0.000 C 
HETATM   22  C15 UNL     1     -10.572  54.994  10.235  1.00  0.00     0.002 C 
HETATM   23  C16 UNL     1      -9.620  54.061  10.903  1.00  0.00     0.026 C 
ENDBRANCH  16  18
ENDBRANCH   7  16
BRANCH   6  24
HETATM   24  N3  UNL     1      -6.274  55.245  14.728  1.00  0.00    -0.233 N 
ATOM     25  H32 UNL     1      -5.520  55.799  15.135  1.00  0.00     0.174 HD
ATOM     26  H31 UNL     1      -7.159  55.744  14.824  1.00  0.00     0.174 HD
ENDBRANCH   6  24
TORSDOF 5
ENDMDL
