MODEL 1
REMARK VINA RESULT: -7.319851887      0.000      0.000
REMARK  7 active torsions:
REMARK  status: ('A' for Active; 'I' for Inactive)
REMARK    1  A    between atoms: N1_1  and  C1_5 
REMARK    2  A    between atoms: C1_5  and  C2_6 
REMARK    3  A    between atoms: C2_6  and  C3_7 
REMARK       I    between atoms: C3_7  and  N2_9 
REMARK    4  A    between atoms: N2_9  and  C4_11 
REMARK    5  A    between atoms: C7_14  and  C8_15 
REMARK       I    between atoms: C8_15  and  N3_17 
REMARK    6  A    between atoms: C16_25  and  C17_26 
REMARK    7  A    between atoms: C17_26  and  O3_27 
ROOT
HETATM    1  C4  UNL     1      -5.428  52.735  12.593  1.00  0.00     0.090 C 
HETATM    2  C5  UNL     1      -6.855  52.292  12.523  1.00  0.00     0.026 C 
HETATM    3  C6  UNL     1      -7.729  53.283  13.295  1.00  0.00     0.016 C 
HETATM    4  C7  UNL     1      -7.484  54.608  12.616  1.00  0.00     0.078 C 
HETATM    5  C15 UNL     1      -6.144  55.084  13.174  1.00  0.00     0.023 C 
HETATM    6  C16 UNL     1      -5.178  53.980  13.355  1.00  0.00     0.033 C 
ENDROOT
BRANCH   1   7
HETATM    7  N2  UNL     1      -4.637  51.670  13.200  1.00  0.00    -0.356 N 
HETATM    8  C3  UNL     1      -3.668  50.937  12.466  1.00  0.00     0.219 C 
HETATM    9  O1  UNL     1      -3.475  51.206  11.248  1.00  0.00    -0.274 OA
ATOM     10  H2  UNL     1      -4.784  51.445  14.184  1.00  0.00     0.162 HD
BRANCH   8  11
HETATM   11  C2  UNL     1      -2.880  49.872  13.084  1.00  0.00     0.130 C 
BRANCH  11  12
HETATM   12  C1  UNL     1      -2.458  48.795  12.148  1.00  0.00     0.238 C 
BRANCH  12  13
HETATM   13  N1  UNL     1      -3.530  48.174  11.438  1.00  0.00    -0.079 N 
ATOM     14  H13 UNL     1      -3.486  47.161  11.541  1.00  0.00     0.274 HD
ATOM     15  H12 UNL     1      -4.418  48.359  11.903  1.00  0.00     0.274 HD
ATOM     16  H11 UNL     1      -3.586  48.428  10.452  1.00  0.00     0.274 HD
ENDBRANCH  12  13
ENDBRANCH  11  12
ENDBRANCH   8  11
ENDBRANCH   1   7
BRANCH   6  17
HETATM   17  C17 UNL     1      -3.808  54.501  12.911  1.00  0.00     0.170 C 
BRANCH  17  18
HETATM   18  O3  UNL     1      -3.936  55.905  12.900  1.00  0.00    -0.400 OA
ATOM     19  H3  UNL     1      -3.079  56.233  13.147  1.00  0.00     0.209 HD
ENDBRANCH  17  18
ENDBRANCH   6  17
BRANCH   4  20
HETATM   20  C8  UNL     1      -8.524  55.600  12.738  1.00  0.00     0.224 C 
HETATM   21  O2  UNL     1      -9.102  55.720  13.868  1.00  0.00    -0.273 OA
HETATM   22  N3  UNL     1      -8.959  56.458  11.698  1.00  0.00    -0.352 N 
HETATM   23  C9  UNL     1      -8.336  56.379  10.393  1.00  0.00     0.125 C 
HETATM   24  C14 UNL     1     -10.033  57.402  12.031  1.00  0.00     0.125 C 
HETATM   25  C10 UNL     1      -9.394  56.024   9.383  1.00  0.00     0.020 C 
HETATM   26  C11 UNL     1      -9.760  57.303   8.659  1.00  0.00     0.002 C 
HETATM   27  C12 UNL     1     -10.027  58.377   9.702  1.00  0.00     0.002 C 
HETATM   28  C13 UNL     1     -10.830  57.847  10.853  1.00  0.00     0.020 C 
ENDBRANCH   4  20
TORSDOF 7
ENDMDL
MODEL 2
REMARK VINA RESULT: -7.084431764      1.148      1.155
REMARK  7 active torsions:
REMARK  status: ('A' for Active; 'I' for Inactive)
REMARK    1  A    between atoms: N1_1  and  C1_5 
REMARK    2  A    between atoms: C1_5  and  C2_6 
REMARK    3  A    between atoms: C2_6  and  C3_7 
REMARK       I    between atoms: C3_7  and  N2_9 
REMARK    4  A    between atoms: N2_9  and  C4_11 
REMARK    5  A    between atoms: C7_14  and  C8_15 
REMARK       I    between atoms: C8_15  and  N3_17 
REMARK    6  A    between atoms: C16_25  and  C17_26 
REMARK    7  A    between atoms: C17_26  and  O3_27 
ROOT
HETATM    1  C4  UNL     1      -5.732  52.965  12.456  1.00  0.00     0.090 C 
HETATM    2  C5  UNL     1      -7.159  52.520  12.431  1.00  0.00     0.026 C 
HETATM    3  C6  UNL     1      -8.005  53.489  13.259  1.00  0.00     0.016 C 
HETATM    4  C7  UNL     1      -7.789  54.830  12.603  1.00  0.00     0.078 C 
HETATM    5  C15 UNL     1      -6.431  55.298  13.120  1.00  0.00     0.023 C 
HETATM    6  C16 UNL     1      -5.456  54.193  13.237  1.00  0.00     0.033 C 
ENDROOT
BRANCH   1   7
HETATM    7  N2  UNL     1      -4.915  51.889  13.008  1.00  0.00    -0.356 N 
HETATM    8  C3  UNL     1      -4.065  51.094  12.194  1.00  0.00     0.219 C 
HETATM    9  O1  UNL     1      -4.005  51.317  10.953  1.00  0.00    -0.274 OA
ATOM     10  H2  UNL     1      -4.956  51.702  14.010  1.00  0.00     0.162 HD
BRANCH   8  11
HETATM   11  C2  UNL     1      -3.251  50.019  12.757  1.00  0.00     0.130 C 
BRANCH  11  12
HETATM   12  C1  UNL     1      -1.782  50.252  12.681  1.00  0.00     0.238 C 
BRANCH  12  13
HETATM   13  N1  UNL     1      -1.400  51.628  12.719  1.00  0.00    -0.079 N 
ATOM     14  H13 UNL     1      -1.833  52.139  11.951  1.00  0.00     0.274 HD
ATOM     15  H12 UNL     1      -1.838  52.097  13.511  1.00  0.00     0.274 HD
ATOM     16  H11 UNL     1      -0.392  51.786  12.726  1.00  0.00     0.274 HD
ENDBRANCH  12  13
ENDBRANCH  11  12
ENDBRANCH   8  11
ENDBRANCH   1   7
BRANCH   6  17
HETATM   17  C17 UNL     1      -4.105  54.729  12.753  1.00  0.00     0.170 C 
BRANCH  17  18
HETATM   18  O3  UNL     1      -3.146  54.097  13.570  1.00  0.00    -0.400 OA
ATOM     19  H3  UNL     1      -3.561  53.293  13.861  1.00  0.00     0.209 HD
ENDBRANCH  17  18
ENDBRANCH   6  17
BRANCH   4  20
HETATM   20  C8  UNL     1      -8.827  55.816  12.788  1.00  0.00     0.224 C 
HETATM   21  O2  UNL     1      -9.259  56.008  13.972  1.00  0.00    -0.273 OA
HETATM   22  N3  UNL     1      -9.408  56.593  11.755  1.00  0.00    -0.352 N 
HETATM   23  C9  UNL     1      -8.954  56.429  10.390  1.00  0.00     0.125 C 
HETATM   24  C14 UNL     1     -10.451  57.544  12.157  1.00  0.00     0.125 C 
HETATM   25  C10 UNL     1     -10.123  55.990   9.551  1.00  0.00     0.020 C 
HETATM   26  C11 UNL     1     -10.605  57.210   8.793  1.00  0.00     0.002 C 
HETATM   27  C12 UNL     1     -10.760  58.352   9.785  1.00  0.00     0.002 C 
HETATM   28  C13 UNL     1     -11.400  57.894  11.063  1.00  0.00     0.020 C 
ENDBRANCH   4  20
TORSDOF 7
ENDMDL
MODEL 3
REMARK VINA RESULT: -6.706118477      1.515      1.582
REMARK  7 active torsions:
REMARK  status: ('A' for Active; 'I' for Inactive)
REMARK    1  A    between atoms: N1_1  and  C1_5 
REMARK    2  A    between atoms: C1_5  and  C2_6 
REMARK    3  A    between atoms: C2_6  and  C3_7 
REMARK       I    between atoms: C3_7  and  N2_9 
REMARK    4  A    between atoms: N2_9  and  C4_11 
REMARK    5  A    between atoms: C7_14  and  C8_15 
REMARK       I    between atoms: C8_15  and  N3_17 
REMARK    6  A    between atoms: C16_25  and  C17_26 
REMARK    7  A    between atoms: C17_26  and  O3_27 
ROOT
HETATM    1  C4  UNL     1      -5.077  52.957  11.426  1.00  0.00     0.090 C 
HETATM    2  C5  UNL     1      -6.386  52.792  10.723  1.00  0.00     0.026 C 
HETATM    3  C6  UNL     1      -7.524  53.137  11.685  1.00  0.00     0.016 C 
HETATM    4  C7  UNL     1      -7.247  54.560  12.100  1.00  0.00     0.078 C 
HETATM    5  C15 UNL     1      -6.151  54.447  13.157  1.00  0.00     0.023 C 
HETATM    6  C16 UNL     1      -5.158  53.400  12.837  1.00  0.00     0.033 C 
ENDROOT
BRANCH   1   7
HETATM    7  N2  UNL     1      -4.365  51.683  11.395  1.00  0.00    -0.356 N 
HETATM    8  C3  UNL     1      -3.211  51.483  10.595  1.00  0.00     0.219 C 
HETATM    9  O1  UNL     1      -2.775  52.430   9.883  1.00  0.00    -0.274 OA
ATOM     10  H2  UNL     1      -4.709  50.912  11.968  1.00  0.00     0.162 HD
BRANCH   8  11
HETATM   11  C2  UNL     1      -2.505  50.203  10.572  1.00  0.00     0.130 C 
BRANCH  11  12
HETATM   12  C1  UNL     1      -1.093  50.268  11.038  1.00  0.00     0.238 C 
BRANCH  12  13
HETATM   13  N1  UNL     1      -0.784  51.417  11.829  1.00  0.00    -0.079 N 
ATOM     14  H13 UNL     1      -1.067  51.268  12.797  1.00  0.00     0.274 HD
ATOM     15  H12 UNL     1       0.225  51.502  11.952  1.00  0.00     0.274 HD
ATOM     16  H11 UNL     1      -1.173  52.291  11.475  1.00  0.00     0.274 HD
ENDBRANCH  12  13
ENDBRANCH  11  12
ENDBRANCH   8  11
ENDBRANCH   1   7
BRANCH   6  17
HETATM   17  C17 UNL     1      -3.779  53.958  13.204  1.00  0.00     0.170 C 
BRANCH  17  18
HETATM   18  O3  UNL     1      -3.307  54.571  12.026  1.00  0.00    -0.400 OA
ATOM     19  H3  UNL     1      -3.147  53.855  11.422  1.00  0.00     0.209 HD
ENDBRANCH  17  18
ENDBRANCH   6  17
BRANCH   4  20
HETATM   20  C8  UNL     1      -8.377  55.336  12.549  1.00  0.00     0.224 C 
HETATM   21  O2  UNL     1      -8.881  55.050  13.685  1.00  0.00    -0.273 OA
HETATM   22  N3  UNL     1      -8.979  56.397  11.826  1.00  0.00    -0.352 N 
HETATM   23  C9  UNL     1      -8.448  56.778  10.534  1.00  0.00     0.125 C 
HETATM   24  C14 UNL     1     -10.122  57.060  12.465  1.00  0.00     0.125 C 
HETATM   25  C10 UNL     1      -9.531  56.599   9.506  1.00  0.00     0.020 C 
HETATM   26  C11 UNL     1     -10.087  57.976   9.206  1.00  0.00     0.002 C 
HETATM   27  C12 UNL     1     -10.392  58.661  10.530  1.00  0.00     0.002 C 
HETATM   28  C13 UNL     1     -11.047  57.723  11.502  1.00  0.00     0.020 C 
ENDBRANCH   4  20
TORSDOF 7
ENDMDL
MODEL 4
REMARK VINA RESULT: -6.642431339      2.265      2.883
REMARK  7 active torsions:
REMARK  status: ('A' for Active; 'I' for Inactive)
REMARK    1  A    between atoms: N1_1  and  C1_5 
REMARK    2  A    between atoms: C1_5  and  C2_6 
REMARK    3  A    between atoms: C2_6  and  C3_7 
REMARK       I    between atoms: C3_7  and  N2_9 
REMARK    4  A    between atoms: N2_9  and  C4_11 
REMARK    5  A    between atoms: C7_14  and  C8_15 
REMARK       I    between atoms: C8_15  and  N3_17 
REMARK    6  A    between atoms: C16_25  and  C17_26 
REMARK    7  A    between atoms: C17_26  and  O3_27 
ROOT
HETATM    1  C4  UNL     1      -6.166  54.266  11.969  1.00  0.00     0.090 C 
HETATM    2  C5  UNL     1      -6.707  53.853  10.638  1.00  0.00     0.026 C 
HETATM    3  C6  UNL     1      -8.211  53.604  10.759  1.00  0.00     0.016 C 
HETATM    4  C7  UNL     1      -8.771  54.917  11.247  1.00  0.00     0.078 C 
HETATM    5  C15 UNL     1      -8.474  54.930  12.745  1.00  0.00     0.023 C 
HETATM    6  C16 UNL     1      -7.156  54.345  13.068  1.00  0.00     0.033 C 
ENDROOT
BRANCH   1   7
HETATM    7  N2  UNL     1      -5.128  53.320  12.367  1.00  0.00    -0.356 N 
HETATM    8  C3  UNL     1      -3.765  53.700  12.481  1.00  0.00     0.219 C 
HETATM    9  O1  UNL     1      -3.428  54.891  12.233  1.00  0.00    -0.274 OA
ATOM     10  H2  UNL     1      -5.390  52.355  12.570  1.00  0.00     0.162 HD
BRANCH   8  11
HETATM   11  C2  UNL     1      -2.733  52.745  12.880  1.00  0.00     0.130 C 
BRANCH  11  12
HETATM   12  C1  UNL     1      -1.761  52.402  11.806  1.00  0.00     0.238 C 
BRANCH  12  13
HETATM   13  N1  UNL     1      -0.997  53.509  11.325  1.00  0.00    -0.079 N 
ATOM     14  H13 UNL     1      -0.955  53.496  10.306  1.00  0.00     0.274 HD
ATOM     15  H12 UNL     1      -1.505  54.381  11.469  1.00  0.00     0.274 HD
ATOM     16  H11 UNL     1      -0.058  53.577  11.717  1.00  0.00     0.274 HD
ENDBRANCH  12  13
ENDBRANCH  11  12
ENDBRANCH   8  11
ENDBRANCH   1   7
BRANCH   6  17
HETATM   17  C17 UNL     1      -6.532  55.216  14.163  1.00  0.00     0.170 C 
BRANCH  17  18
HETATM   18  O3  UNL     1      -5.850  56.238  13.472  1.00  0.00    -0.400 OA
ATOM     19  H3  UNL     1      -5.871  56.987  14.057  1.00  0.00     0.209 HD
ENDBRANCH  17  18
ENDBRANCH   6  17
BRANCH   4  20
HETATM   20  C8  UNL     1     -10.159  55.180  10.950  1.00  0.00     0.224 C 
HETATM   21  O2  UNL     1     -10.910  54.183  10.689  1.00  0.00    -0.273 OA
HETATM   22  N3  UNL     1     -10.760  56.463  10.925  1.00  0.00    -0.352 N 
HETATM   23  C9  UNL     1      -9.963  57.635  11.223  1.00  0.00     0.125 C 
HETATM   24  C14 UNL     1     -12.191  56.511  10.602  1.00  0.00     0.125 C 
HETATM   25  C10 UNL     1      -9.985  58.540  10.021  1.00  0.00     0.020 C 
HETATM   26  C11 UNL     1     -10.965  59.655  10.326  1.00  0.00     0.002 C 
HETATM   27  C12 UNL     1     -12.253  59.025  10.835  1.00  0.00     0.002 C 
HETATM   28  C13 UNL     1     -12.634  57.816  10.033  1.00  0.00     0.020 C 
ENDBRANCH   4  20
TORSDOF 7
ENDMDL
MODEL 5
REMARK VINA RESULT: -6.624222851      1.304      1.394
REMARK  7 active torsions:
REMARK  status: ('A' for Active; 'I' for Inactive)
REMARK    1  A    between atoms: N1_1  and  C1_5 
REMARK    2  A    between atoms: C1_5  and  C2_6 
REMARK    3  A    between atoms: C2_6  and  C3_7 
REMARK       I    between atoms: C3_7  and  N2_9 
REMARK    4  A    between atoms: N2_9  and  C4_11 
REMARK    5  A    between atoms: C7_14  and  C8_15 
REMARK       I    between atoms: C8_15  and  N3_17 
REMARK    6  A    between atoms: C16_25  and  C17_26 
REMARK    7  A    between atoms: C17_26  and  O3_27 
ROOT
HETATM    1  C4  UNL     1      -5.755  52.372  11.941  1.00  0.00     0.090 C 
HETATM    2  C5  UNL     1      -6.793  52.668  10.907  1.00  0.00     0.026 C 
HETATM    3  C6  UNL     1      -8.049  53.210  11.592  1.00  0.00     0.016 C 
HETATM    4  C7  UNL     1      -7.575  54.439  12.326  1.00  0.00     0.078 C 
HETATM    5  C15 UNL     1      -6.905  53.900  13.588  1.00  0.00     0.023 C 
HETATM    6  C16 UNL     1      -6.144  52.657  13.341  1.00  0.00     0.033 C 
ENDROOT
BRANCH   1   7
HETATM    7  N2  UNL     1      -5.395  50.961  11.853  1.00  0.00    -0.356 N 
HETATM    8  C3  UNL     1      -4.075  50.537  11.547  1.00  0.00     0.219 C 
HETATM    9  O1  UNL     1      -3.176  51.399  11.342  1.00  0.00    -0.274 OA
ATOM     10  H2  UNL     1      -6.114  50.256  12.017  1.00  0.00     0.162 HD
BRANCH   8  11
HETATM   11  C2  UNL     1      -3.725  49.120  11.461  1.00  0.00     0.130 C 
BRANCH  11  12
HETATM   12  C1  UNL     1      -2.572  48.717  12.311  1.00  0.00     0.238 C 
BRANCH  12  13
HETATM   13  N1  UNL     1      -2.684  49.103  13.682  1.00  0.00    -0.079 N 
ATOM     14  H13 UNL     1      -3.663  49.247  13.931  1.00  0.00     0.274 HD
ATOM     15  H12 UNL     1      -2.462  48.317  14.292  1.00  0.00     0.274 HD
ATOM     16  H11 UNL     1      -2.129  49.920  13.938  1.00  0.00     0.274 HD
ENDBRANCH  12  13
ENDBRANCH  11  12
ENDBRANCH   8  11
ENDBRANCH   1   7
BRANCH   6  17
HETATM   17  C17 UNL     1      -4.846  52.754  14.149  1.00  0.00     0.170 C 
BRANCH  17  18
HETATM   18  O3  UNL     1      -5.155  53.591  15.240  1.00  0.00    -0.400 OA
ATOM     19  H3  UNL     1      -5.897  54.109  14.951  1.00  0.00     0.209 HD
ENDBRANCH  17  18
ENDBRANCH   6  17
BRANCH   4  20
HETATM   20  C8  UNL     1      -8.566  55.449  12.608  1.00  0.00     0.224 C 
HETATM   21  O2  UNL     1      -9.059  55.485  13.784  1.00  0.00    -0.273 OA
HETATM   22  N3  UNL     1      -9.041  56.409  11.681  1.00  0.00    -0.352 N 
HETATM   23  C9  UNL     1      -8.514  56.427  10.332  1.00  0.00     0.125 C 
HETATM   24  C14 UNL     1     -10.054  57.351  12.172  1.00  0.00     0.125 C 
HETATM   25  C10 UNL     1      -9.652  56.196   9.375  1.00  0.00     0.020 C 
HETATM   26  C11 UNL     1     -10.020  57.545   8.793  1.00  0.00     0.002 C 
HETATM   27  C12 UNL     1     -10.174  58.530   9.942  1.00  0.00     0.002 C 
HETATM   28  C13 UNL     1     -10.914  57.923  11.098  1.00  0.00     0.020 C 
ENDBRANCH   4  20
TORSDOF 7
ENDMDL
