MODEL 1
REMARK VINA RESULT: -5.409553806      0.000      0.000
REMARK  3 active torsions:
REMARK  status: ('A' for Active; 'I' for Inactive)
REMARK    1  A    between atoms: C2_2  and  N1_3 
REMARK    2  A    between atoms: N1_3  and  C3_5 
REMARK    3  A    between atoms: C4_10  and  C5_11 
ROOT
HETATM    1  C3  UNL     1      16.559   9.199   5.354  1.00  0.00     0.696 A 
HETATM    2  N2  UNL     1      17.238   8.374   6.141  1.00  0.00    -0.131 N 
ATOM      3  H2  UNL     1      18.125   7.918   5.928  1.00  0.00     0.205 HD
HETATM    4  N3  UNL     1      16.535   8.264   7.259  1.00  0.00    -0.273 N 
ATOM      5  H3  UNL     1      16.797   7.693   8.063  1.00  0.00     0.189 HD
HETATM    6  C4  UNL     1      15.417   9.023   7.171  1.00  0.00     0.122 A 
HETATM    7  N4  UNL     1      15.419   9.617   5.990  1.00  0.00    -0.173 N 
HETATM    8  C9  UNL     1      14.422  10.512   5.459  1.00  0.00     0.177 C 
ENDROOT
BRANCH   1   9
HETATM    9  N1  UNL     1      16.816   9.503   4.169  1.00  0.00    -0.225 N 
ATOM     10  H1  UNL     1      16.228   9.031   3.482  1.00  0.00     0.177 HD
BRANCH   9  11
HETATM   11  C2  UNL     1      17.783  10.390   3.599  1.00  0.00     0.134 C 
HETATM   12  C1  UNL     1      17.124  11.714   3.303  1.00  0.00     0.027 C 
ENDBRANCH   9  11
ENDBRANCH   1   9
BRANCH   6  13
HETATM   13  C5  UNL     1      14.336   9.072   8.179  1.00  0.00     0.009 C 
HETATM   14  C6  UNL     1      13.002   8.726   7.552  1.00  0.00     0.023 C 
HETATM   15  C7  UNL     1      14.612   7.928   9.174  1.00  0.00     0.023 C 
HETATM   16  C8  UNL     1      14.292  10.328   8.954  1.00  0.00     0.023 C 
ENDBRANCH   6  13
TORSDOF 3
ENDMDL
MODEL 2
REMARK VINA RESULT: -5.256929068      0.112      1.165
REMARK  3 active torsions:
REMARK  status: ('A' for Active; 'I' for Inactive)
REMARK    1  A    between atoms: C2_2  and  N1_3 
REMARK    2  A    between atoms: N1_3  and  C3_5 
REMARK    3  A    between atoms: C4_10  and  C5_11 
ROOT
HETATM    1  C3  UNL     1      16.586   9.188   5.308  1.00  0.00     0.696 A 
HETATM    2  N2  UNL     1      17.293   8.371   6.078  1.00  0.00    -0.131 N 
ATOM      3  H2  UNL     1      18.198   7.955   5.859  1.00  0.00     0.205 HD
HETATM    4  N3  UNL     1      16.589   8.202   7.187  1.00  0.00    -0.273 N 
ATOM      5  H3  UNL     1      16.868   7.620   7.978  1.00  0.00     0.189 HD
HETATM    6  C4  UNL     1      15.442   8.919   7.112  1.00  0.00     0.122 A 
HETATM    7  N4  UNL     1      15.427   9.544   5.947  1.00  0.00    -0.173 N 
HETATM    8  C9  UNL     1      14.398  10.414   5.434  1.00  0.00     0.177 C 
ENDROOT
BRANCH   1   9
HETATM    9  N1  UNL     1      16.838   9.534   4.134  1.00  0.00    -0.225 N 
ATOM     10  H1  UNL     1      16.289   9.042   3.429  1.00  0.00     0.177 HD
BRANCH   9  11
HETATM   11  C2  UNL     1      17.754  10.493   3.595  1.00  0.00     0.134 C 
HETATM   12  C1  UNL     1      17.015  11.777   3.314  1.00  0.00     0.027 C 
ENDBRANCH   9  11
ENDBRANCH   1   9
BRANCH   6  13
HETATM   13  C5  UNL     1      14.354   8.899   8.114  1.00  0.00     0.009 C 
HETATM   14  C6  UNL     1      14.619   7.849   9.172  1.00  0.00     0.023 C 
HETATM   15  C7  UNL     1      14.426  10.242   8.867  1.00  0.00     0.023 C 
HETATM   16  C8  UNL     1      13.001   8.793   7.533  1.00  0.00     0.023 C 
ENDBRANCH   6  13
TORSDOF 3
ENDMDL
MODEL 3
REMARK VINA RESULT: -5.184834763      1.144      4.690
REMARK  3 active torsions:
REMARK  status: ('A' for Active; 'I' for Inactive)
REMARK    1  A    between atoms: C2_2  and  N1_3 
REMARK    2  A    between atoms: N1_3  and  C3_5 
REMARK    3  A    between atoms: C4_10  and  C5_11 
ROOT
HETATM    1  C3  UNL     1      16.232   8.911   6.760  1.00  0.00     0.696 A 
HETATM    2  N2  UNL     1      17.322   8.230   6.430  1.00  0.00    -0.131 N 
ATOM      3  H2  UNL     1      17.824   7.559   7.011  1.00  0.00     0.205 HD
HETATM    4  N3  UNL     1      17.629   8.597   5.194  1.00  0.00    -0.273 N 
ATOM      5  H3  UNL     1      18.425   8.249   4.659  1.00  0.00     0.189 HD
HETATM    6  C4  UNL     1      16.727   9.504   4.751  1.00  0.00     0.122 A 
HETATM    7  N4  UNL     1      15.846   9.708   5.715  1.00  0.00    -0.173 N 
HETATM    8  C9  UNL     1      14.712  10.598   5.691  1.00  0.00     0.177 C 
ENDROOT
BRANCH   1   9
HETATM    9  N1  UNL     1      15.661   8.938   7.872  1.00  0.00    -0.225 N 
ATOM     10  H1  UNL     1      15.873   9.767   8.427  1.00  0.00     0.177 HD
BRANCH   9  11
HETATM   11  C2  UNL     1      14.766   8.021   8.510  1.00  0.00     0.134 C 
HETATM   12  C1  UNL     1      13.873   7.398   7.467  1.00  0.00     0.027 C 
ENDBRANCH   9  11
ENDBRANCH   1   9
BRANCH   6  13
HETATM   13  C5  UNL     1      16.800  10.221   3.460  1.00  0.00     0.009 C 
HETATM   14  C6  UNL     1      16.942  11.712   3.681  1.00  0.00     0.023 C 
HETATM   15  C7  UNL     1      18.124   9.795   2.795  1.00  0.00     0.023 C 
HETATM   16  C8  UNL     1      15.710   9.886   2.522  1.00  0.00     0.023 C 
ENDBRANCH   6  13
TORSDOF 3
ENDMDL
MODEL 4
REMARK VINA RESULT: -5.129036526      4.222      5.976
REMARK  3 active torsions:
REMARK  status: ('A' for Active; 'I' for Inactive)
REMARK    1  A    between atoms: C2_2  and  N1_3 
REMARK    2  A    between atoms: N1_3  and  C3_5 
REMARK    3  A    between atoms: C4_10  and  C5_11 
ROOT
HETATM    1  C3  UNL     1      14.796  10.278   0.305  1.00  0.00     0.696 A 
HETATM    2  N2  UNL     1      15.967  10.012  -0.258  1.00  0.00    -0.131 N 
ATOM      3  H2  UNL     1      16.136   9.779  -1.237  1.00  0.00     0.205 HD
HETATM    4  N3  UNL     1      16.873  10.107   0.704  1.00  0.00    -0.273 N 
ATOM      5  H3  UNL     1      17.875   9.954   0.585  1.00  0.00     0.189 HD
HETATM    6  C4  UNL     1      16.267  10.438   1.869  1.00  0.00     0.122 A 
HETATM    7  N4  UNL     1      14.971  10.553   1.637  1.00  0.00    -0.173 N 
HETATM    8  C9  UNL     1      13.937  10.883   2.586  1.00  0.00     0.177 C 
ENDROOT
BRANCH   1   9
HETATM    9  N1  UNL     1      13.665  10.205  -0.222  1.00  0.00    -0.225 N 
ATOM     10  H1  UNL     1      13.053   9.509   0.204  1.00  0.00     0.177 HD
BRANCH   9  11
HETATM   11  C2  UNL     1      13.071  10.917  -1.312  1.00  0.00     0.134 C 
HETATM   12  C1  UNL     1      12.960   9.996  -2.500  1.00  0.00     0.027 C 
ENDBRANCH   9  11
ENDBRANCH   1   9
BRANCH   6  13
HETATM   13  C5  UNL     1      16.937  10.531   3.184  1.00  0.00     0.009 C 
HETATM   14  C6  UNL     1      16.562   9.355   4.061  1.00  0.00     0.023 C 
HETATM   15  C7  UNL     1      18.446  10.360   2.921  1.00  0.00     0.023 C 
HETATM   16  C8  UNL     1      16.754  11.829   3.864  1.00  0.00     0.023 C 
ENDBRANCH   6  13
TORSDOF 3
ENDMDL
MODEL 5
REMARK VINA RESULT: -5.126834623      2.606      3.315
REMARK  3 active torsions:
REMARK  status: ('A' for Active; 'I' for Inactive)
REMARK    1  A    between atoms: C2_2  and  N1_3 
REMARK    2  A    between atoms: N1_3  and  C3_5 
REMARK    3  A    between atoms: C4_10  and  C5_11 
ROOT
HETATM    1  C3  UNL     1      13.896  10.152   3.321  1.00  0.00     0.696 A 
HETATM    2  N2  UNL     1      12.862   9.346   3.528  1.00  0.00    -0.131 N 
ATOM      3  H2  UNL     1      12.140   9.092   2.854  1.00  0.00     0.205 HD
HETATM    4  N3  UNL     1      12.955   8.938   4.785  1.00  0.00    -0.273 N 
ATOM      5  H3  UNL     1      12.300   8.307   5.247  1.00  0.00     0.189 HD
HETATM    6  C4  UNL     1      14.050   9.487   5.362  1.00  0.00     0.122 A 
HETATM    7  N4  UNL     1      14.651  10.244   4.461  1.00  0.00    -0.173 N 
HETATM    8  C9  UNL     1      15.850  11.026   4.633  1.00  0.00     0.177 C 
ENDROOT
BRANCH   1   9
HETATM    9  N1  UNL     1      14.138  10.831   2.299  1.00  0.00    -0.225 N 
ATOM     10  H1  UNL     1      13.925  11.823   2.400  1.00  0.00     0.177 HD
BRANCH   9  11
HETATM   11  C2  UNL     1      14.658  10.472   1.015  1.00  0.00     0.134 C 
HETATM   12  C1  UNL     1      13.517  10.357   0.035  1.00  0.00     0.027 C 
ENDBRANCH   9  11
ENDBRANCH   1   9
BRANCH   6  13
HETATM   13  C5  UNL     1      14.425   9.348   6.786  1.00  0.00     0.009 C 
HETATM   14  C6  UNL     1      13.921  10.527   7.590  1.00  0.00     0.023 C 
HETATM   15  C7  UNL     1      13.643   8.137   7.330  1.00  0.00     0.023 C 
HETATM   16  C8  UNL     1      15.860   9.080   7.008  1.00  0.00     0.023 C 
ENDBRANCH   6  13
TORSDOF 3
ENDMDL
