MODEL 1
REMARK VINA RESULT: -6.522742961      0.000      0.000
REMARK  2 active torsions:
REMARK  status: ('A' for Active; 'I' for Inactive)
REMARK    1  A    between atoms: C2_2  and  C3_3 
REMARK    2  A    between atoms: C13_18  and  O2_19 
ROOT
HETATM    1  C3  UNL     1      21.476   0.404  -3.403  1.00  0.00     0.012 C 
HETATM    2  C4  UNL     1      20.980  -0.669  -4.327  1.00  0.00     0.011 C 
HETATM    3  C5  UNL     1      21.285  -0.555  -5.608  1.00  0.00     0.059 C 
HETATM    4  O1  UNL     1      20.842  -1.528  -6.475  1.00  0.00    -0.301 OA
HETATM    5  C6  UNL     1      20.593  -1.186  -7.793  1.00  0.00     0.136 C 
HETATM    6  N1  UNL     1      20.246  -2.090  -8.641  1.00  0.00    -0.382 N 
ATOM      7  H11 UNL     1      20.063  -1.839  -9.612  1.00  0.00     0.158 HD
ATOM      8  H12 UNL     1      20.146  -3.067  -8.366  1.00  0.00     0.158 HD
HETATM    9  C7  UNL     1      20.736   0.220  -8.188  1.00  0.00     0.175 C 
HETATM   10  C8  UNL     1      20.826   0.367  -9.640  1.00  0.00     0.073 C 
HETATM   11  N2  UNL     1      20.886   0.495 -10.787  1.00  0.00    -0.196 NA
HETATM   12  C9  UNL     1      22.073   0.689  -7.595  1.00  0.00    -0.012 C 
HETATM   13  C10 UNL     1      23.131  -0.227  -8.226  1.00  0.00     0.017 C 
HETATM   14  C11 UNL     1      22.307   2.074  -8.122  1.00  0.00     0.017 C 
HETATM   15  C12 UNL     1      22.082   0.586  -6.109  1.00  0.00     0.081 C 
HETATM   16  C13 UNL     1      21.755   1.889  -5.422  1.00  0.00     0.130 C 
HETATM   17  C14 UNL     1      21.174   1.716  -4.042  1.00  0.00     0.041 C 
ENDROOT
BRANCH  16  18
HETATM   18  O2  UNL     1      22.938   2.649  -5.268  1.00  0.00    -0.395 OA
ATOM     19  H2  UNL     1      22.778   3.364  -4.664  1.00  0.00     0.210 HD
ENDBRANCH  16  18
BRANCH   1  20
HETATM   20  C2  UNL     1      20.673   0.301  -2.130  1.00  0.00     0.004 C 
HETATM   21  C1  UNL     1      19.703   1.436  -1.968  1.00  0.00     0.006 C 
ENDBRANCH   1  20
TORSDOF 2
ENDMDL
MODEL 2
REMARK VINA RESULT: -6.517570456      1.526      3.152
REMARK  2 active torsions:
REMARK  status: ('A' for Active; 'I' for Inactive)
REMARK    1  A    between atoms: C2_2  and  C3_3 
REMARK    2  A    between atoms: C13_18  and  O2_19 
ROOT
HETATM    1  C3  UNL     1      21.092  -0.428  -3.355  1.00  0.00     0.012 C 
HETATM    2  C4  UNL     1      21.604   0.639  -4.278  1.00  0.00     0.011 C 
HETATM    3  C5  UNL     1      21.273   0.546  -5.554  1.00  0.00     0.059 C 
HETATM    4  O1  UNL     1      21.731   1.513  -6.420  1.00  0.00    -0.301 OA
HETATM    5  C6  UNL     1      21.947   1.177  -7.746  1.00  0.00     0.136 C 
HETATM    6  N1  UNL     1      22.307   2.078  -8.591  1.00  0.00    -0.382 N 
ATOM      7  H11 UNL     1      22.465   1.830  -9.567  1.00  0.00     0.158 HD
ATOM      8  H12 UNL     1      22.441   3.049  -8.309  1.00  0.00     0.158 HD
HETATM    9  C7  UNL     1      21.754  -0.220  -8.151  1.00  0.00     0.175 C 
HETATM   10  C8  UNL     1      21.635  -0.351  -9.602  1.00  0.00     0.073 C 
HETATM   11  N2  UNL     1      21.552  -0.466 -10.749  1.00  0.00    -0.196 NA
HETATM   12  C9  UNL     1      20.415  -0.654  -7.538  1.00  0.00    -0.012 C 
HETATM   13  C10 UNL     1      19.374   0.299  -8.142  1.00  0.00     0.017 C 
HETATM   14  C11 UNL     1      20.130  -2.027  -8.074  1.00  0.00     0.017 C 
HETATM   15  C12 UNL     1      20.434  -0.565  -6.052  1.00  0.00     0.081 C 
HETATM   16  C13 UNL     1      20.733  -1.884  -5.382  1.00  0.00     0.130 C 
HETATM   17  C14 UNL     1      21.342  -1.742  -4.010  1.00  0.00     0.041 C 
ENDROOT
BRANCH  16  18
HETATM   18  O2  UNL     1      19.530  -2.609  -5.215  1.00  0.00    -0.395 OA
ATOM     19  H2  UNL     1      19.683  -3.345  -4.633  1.00  0.00     0.210 HD
ENDBRANCH  16  18
BRANCH   1  20
HETATM   20  C2  UNL     1      21.919  -0.361  -2.096  1.00  0.00     0.004 C 
HETATM   21  C1  UNL     1      22.889  -1.502  -1.982  1.00  0.00     0.006 C 
ENDBRANCH   1  20
TORSDOF 2
ENDMDL
MODEL 3
REMARK VINA RESULT: -5.650862200      8.376     10.395
REMARK  2 active torsions:
REMARK  status: ('A' for Active; 'I' for Inactive)
REMARK    1  A    between atoms: C2_2  and  C3_3 
REMARK    2  A    between atoms: C13_18  and  O2_19 
ROOT
HETATM    1  C3  UNL     1      23.867  -1.830  -0.684  1.00  0.00     0.012 C 
HETATM    2  C4  UNL     1      23.845  -2.725   0.519  1.00  0.00     0.011 C 
HETATM    3  C5  UNL     1      24.891  -2.680   1.327  1.00  0.00     0.059 C 
HETATM    4  O1  UNL     1      24.893  -3.492   2.438  1.00  0.00    -0.301 OA
HETATM    5  C6  UNL     1      26.106  -3.935   2.940  1.00  0.00     0.136 C 
HETATM    6  N1  UNL     1      26.142  -4.636   4.018  1.00  0.00    -0.382 N 
ATOM      7  H11 UNL     1      27.034  -4.962   4.388  1.00  0.00     0.158 HD
ATOM      8  H12 UNL     1      25.289  -4.880   4.523  1.00  0.00     0.158 HD
HETATM    9  C7  UNL     1      27.331  -3.583   2.213  1.00  0.00     0.175 C 
HETATM   10  C8  UNL     1      28.523  -3.773   3.039  1.00  0.00     0.073 C 
HETATM   11  N2  UNL     1      29.471  -3.931   3.680  1.00  0.00    -0.196 NA
HETATM   12  C9  UNL     1      27.220  -2.084   1.902  1.00  0.00    -0.012 C 
HETATM   13  C10 UNL     1      27.114  -1.401   3.273  1.00  0.00     0.017 C 
HETATM   14  C11 UNL     1      28.534  -1.679   1.301  1.00  0.00     0.017 C 
HETATM   15  C12 UNL     1      26.035  -1.784   1.053  1.00  0.00     0.081 C 
HETATM   16  C13 UNL     1      26.369  -1.675  -0.415  1.00  0.00     0.130 C 
HETATM   17  C14 UNL     1      25.204  -1.974  -1.324  1.00  0.00     0.041 C 
ENDROOT
BRANCH  16  18
HETATM   18  O2  UNL     1      26.777  -0.352  -0.707  1.00  0.00    -0.395 OA
ATOM     19  H2  UNL     1      26.345  -0.056  -1.499  1.00  0.00     0.210 HD
ENDBRANCH  16  18
BRANCH   1  20
HETATM   20  C2  UNL     1      22.824  -2.349  -1.643  1.00  0.00     0.004 C 
HETATM   21  C1  UNL     1      23.115  -1.974  -3.068  1.00  0.00     0.006 C 
ENDBRANCH   1  20
TORSDOF 2
ENDMDL
MODEL 4
REMARK VINA RESULT: -5.599373408      1.833      2.268
REMARK  2 active torsions:
REMARK  status: ('A' for Active; 'I' for Inactive)
REMARK    1  A    between atoms: C2_2  and  C3_3 
REMARK    2  A    between atoms: C13_18  and  O2_19 
ROOT
HETATM    1  C3  UNL     1      22.153  -1.124  -3.372  1.00  0.00     0.012 C 
HETATM    2  C4  UNL     1      22.669  -1.585  -4.702  1.00  0.00     0.011 C 
HETATM    3  C5  UNL     1      22.368  -0.849  -5.758  1.00  0.00     0.059 C 
HETATM    4  O1  UNL     1      22.830  -1.253  -6.990  1.00  0.00    -0.301 OA
HETATM    5  C6  UNL     1      22.097  -0.928  -8.119  1.00  0.00     0.136 C 
HETATM    6  N1  UNL     1      22.542  -1.230  -9.288  1.00  0.00    -0.382 N 
ATOM      7  H11 UNL     1      22.003  -0.991 -10.119  1.00  0.00     0.158 HD
ATOM      8  H12 UNL     1      23.433  -1.711  -9.410  1.00  0.00     0.158 HD
HETATM    9  C7  UNL     1      20.815  -0.236  -7.943  1.00  0.00     0.175 C 
HETATM   10  C8  UNL     1      20.355   0.376  -9.188  1.00  0.00     0.073 C 
HETATM   11  N2  UNL     1      19.977   0.853 -10.172  1.00  0.00    -0.196 NA
HETATM   12  C9  UNL     1      21.084   0.900  -6.945  1.00  0.00    -0.012 C 
HETATM   13  C10 UNL     1      22.154   1.772  -7.615  1.00  0.00     0.017 C 
HETATM   14  C11 UNL     1      19.823   1.710  -6.877  1.00  0.00     0.017 C 
HETATM   15  C12 UNL     1      21.553   0.379  -5.631  1.00  0.00     0.081 C 
HETATM   16  C13 UNL     1      20.447   0.257  -4.611  1.00  0.00     0.130 C 
HETATM   17  C14 UNL     1      20.715  -0.775  -3.547  1.00  0.00     0.041 C 
ENDROOT
BRANCH  16  18
HETATM   18  O2  UNL     1      20.288   1.494  -3.942  1.00  0.00    -0.395 OA
ATOM     19  H2  UNL     1      21.063   2.026  -4.073  1.00  0.00     0.210 HD
ENDBRANCH  16  18
BRANCH   1  20
HETATM   20  C2  UNL     1      22.245  -2.297  -2.428  1.00  0.00     0.004 C 
HETATM   21  C1  UNL     1      23.018  -1.973  -1.181  1.00  0.00     0.006 C 
ENDBRANCH   1  20
TORSDOF 2
ENDMDL
MODEL 5
REMARK VINA RESULT: -5.573082834      1.818      2.611
REMARK  2 active torsions:
REMARK  status: ('A' for Active; 'I' for Inactive)
REMARK    1  A    between atoms: C2_2  and  C3_3 
REMARK    2  A    between atoms: C13_18  and  O2_19 
ROOT
HETATM    1  C3  UNL     1      20.126   0.730  -2.804  1.00  0.00     0.012 C 
HETATM    2  C4  UNL     1      19.674   1.334  -4.101  1.00  0.00     0.011 C 
HETATM    3  C5  UNL     1      20.041   0.723  -5.214  1.00  0.00     0.059 C 
HETATM    4  O1  UNL     1      19.638   1.259  -6.416  1.00  0.00    -0.301 OA
HETATM    5  C6  UNL     1      20.433   1.068  -7.534  1.00  0.00     0.136 C 
HETATM    6  N1  UNL     1      20.046   1.497  -8.684  1.00  0.00    -0.382 N 
ATOM      7  H11 UNL     1      20.631   1.357  -9.507  1.00  0.00     0.158 HD
ATOM      8  H12 UNL     1      19.156   1.982  -8.799  1.00  0.00     0.158 HD
HETATM    9  C7  UNL     1      21.713   0.370  -7.368  1.00  0.00     0.175 C 
HETATM   10  C8  UNL     1      22.246  -0.094  -8.648  1.00  0.00     0.073 C 
HETATM   11  N2  UNL     1      22.681  -0.455  -9.656  1.00  0.00    -0.196 NA
HETATM   12  C9  UNL     1      21.407  -0.872  -6.519  1.00  0.00    -0.012 C 
HETATM   13  C10 UNL     1      20.385  -1.672  -7.339  1.00  0.00     0.017 C 
HETATM   14  C11 UNL     1      22.674  -1.676  -6.474  1.00  0.00     0.017 C 
HETATM   15  C12 UNL     1      20.864  -0.505  -5.182  1.00  0.00     0.081 C 
HETATM   16  C13 UNL     1      21.913  -0.491  -4.098  1.00  0.00     0.130 C 
HETATM   17  C14 UNL     1      21.576   0.414  -2.940  1.00  0.00     0.041 C 
ENDROOT
BRANCH  16  18
HETATM   18  O2  UNL     1      22.054  -1.793  -3.563  1.00  0.00    -0.395 OA
ATOM     19  H2  UNL     1      22.974  -1.976  -3.415  1.00  0.00     0.210 HD
ENDBRANCH  16  18
BRANCH   1  20
HETATM   20  C2  UNL     1      19.969   1.788  -1.741  1.00  0.00     0.004 C 
HETATM   21  C1  UNL     1      18.532   2.030  -1.377  1.00  0.00     0.006 C 
ENDBRANCH   1  20
TORSDOF 2
ENDMDL
