MODEL 1
REMARK VINA RESULT: -6.246068697      0.000      0.000
REMARK  2 active torsions:
REMARK  status: ('A' for Active; 'I' for Inactive)
REMARK    1  A    between atoms: O1_1  and  C1_3 
REMARK    2  A    between atoms: C5_8  and  C6_9 
ROOT
HETATM    1  C1  UNL     1      20.626  -2.419  -8.242  1.00  0.00     0.194 A 
HETATM    2  O2  UNL     1      21.046  -2.980  -9.342  1.00  0.00    -0.298 OA
HETATM    3  C2  UNL     1      21.477  -2.097 -10.192  1.00  0.00     0.175 A 
HETATM    4  C3  UNL     1      21.337  -0.866  -9.626  1.00  0.00     0.070 A 
HETATM    5  C4  UNL     1      20.793  -1.054  -8.372  1.00  0.00     0.058 A 
HETATM    6  C5  UNL     1      20.499   0.046  -7.455  1.00  0.00     0.183 A 
HETATM    7  N3  UNL     1      20.813   1.337  -7.996  1.00  0.00    -0.352 N 
ATOM      8  H3  UNL     1      20.622   2.158  -7.422  1.00  0.00     0.163 HD
HETATM    9  C8  UNL     1      21.370   1.534  -9.273  1.00  0.00     0.173 A 
HETATM   10  S3  UNL     1      21.704   3.047  -9.789  1.00  0.00    -0.041 SA
HETATM   11  N4  UNL     1      21.645   0.448 -10.117  1.00  0.00    -0.331 N 
ATOM     12  H4  UNL     1      22.048   0.586 -11.044  1.00  0.00     0.168 HD
ENDROOT
BRANCH   6  13
HETATM   13  C6  UNL     1      21.155  -0.154  -6.124  1.00  0.00     0.096 A 
HETATM   14  N1  UNL     1      20.831   0.229  -4.903  1.00  0.00    -0.294 N 
HETATM   15  N2  UNL     1      21.571  -0.074  -3.917  1.00  0.00    -0.284 N 
ATOM     16  H1  UNL     1      19.981   0.772  -4.751  1.00  0.00     0.187 HD
HETATM   17  C7  UNL     1      22.679  -0.784  -4.134  1.00  0.00     0.159 A 
ATOM     18  H2  UNL     1      21.322   0.222  -2.974  1.00  0.00     0.188 HD
HETATM   19  S1  UNL     1      23.797  -1.301  -3.036  1.00  0.00    -0.051 SA
HETATM   20  S2  UNL     1      22.608  -0.999  -5.845  1.00  0.00    -0.042 SA
ENDBRANCH   6  13
BRANCH   1  21
HETATM   21  O1  UNL     1      20.106  -3.097  -7.142  1.00  0.00    -0.340 OA
ATOM     22  H1  UNL     1      20.404  -3.943  -6.830  1.00  0.00     0.220 HD
ENDBRANCH   1  21
TORSDOF 2
ENDMDL
MODEL 2
REMARK VINA RESULT: -6.241698483      3.122      3.817
REMARK  2 active torsions:
REMARK  status: ('A' for Active; 'I' for Inactive)
REMARK    1  A    between atoms: O1_1  and  C1_3 
REMARK    2  A    between atoms: C5_8  and  C6_9 
ROOT
HETATM    1  C1  UNL     1      22.684   2.420  -8.262  1.00  0.00     0.194 A 
HETATM    2  O2  UNL     1      22.259   2.978  -9.362  1.00  0.00    -0.298 OA
HETATM    3  C2  UNL     1      21.829   2.092 -10.210  1.00  0.00     0.175 A 
HETATM    4  C3  UNL     1      21.976   0.862  -9.642  1.00  0.00     0.070 A 
HETATM    5  C4  UNL     1      22.523   1.054  -8.390  1.00  0.00     0.058 A 
HETATM    6  C5  UNL     1      22.824  -0.044  -7.473  1.00  0.00     0.183 A 
HETATM    7  N3  UNL     1      22.514  -1.336  -8.011  1.00  0.00    -0.352 N 
ATOM      8  H3  UNL     1      22.710  -2.155  -7.437  1.00  0.00     0.163 HD
HETATM    9  C8  UNL     1      21.954  -1.537  -9.286  1.00  0.00     0.173 A 
HETATM   10  S3  UNL     1      21.625  -3.052  -9.800  1.00  0.00    -0.041 SA
HETATM   11  N4  UNL     1      21.672  -0.453 -10.130  1.00  0.00    -0.331 N 
ATOM     12  H4  UNL     1      21.267  -0.594 -11.056  1.00  0.00     0.168 HD
ENDROOT
BRANCH   6  13
HETATM   13  C6  UNL     1      22.170   0.156  -6.140  1.00  0.00     0.096 A 
HETATM   14  N1  UNL     1      22.494  -0.234  -4.921  1.00  0.00    -0.294 N 
HETATM   15  N2  UNL     1      21.757   0.070  -3.933  1.00  0.00    -0.284 N 
ATOM     16  H1  UNL     1      23.342  -0.782  -4.772  1.00  0.00     0.187 HD
HETATM   17  C7  UNL     1      20.652   0.787  -4.146  1.00  0.00     0.159 A 
ATOM     18  H2  UNL     1      22.006  -0.230  -2.990  1.00  0.00     0.188 HD
HETATM   19  S1  UNL     1      19.539   1.306  -3.045  1.00  0.00    -0.051 SA
HETATM   20  S2  UNL     1      20.723   1.008  -5.856  1.00  0.00    -0.042 SA
ENDBRANCH   6  13
BRANCH   1  21
HETATM   21  O1  UNL     1      23.204   3.102  -7.165  1.00  0.00    -0.340 OA
ATOM     22  H1  UNL     1      24.033   2.909  -6.742  1.00  0.00     0.220 HD
ENDBRANCH   1  21
TORSDOF 2
ENDMDL
MODEL 3
REMARK VINA RESULT: -5.643560313     12.060     13.575
REMARK  2 active torsions:
REMARK  status: ('A' for Active; 'I' for Inactive)
REMARK    1  A    between atoms: O1_1  and  C1_3 
REMARK    2  A    between atoms: C5_8  and  C6_9 
ROOT
HETATM    1  C1  UNL     1      12.896   3.469   3.859  1.00  0.00     0.194 A 
HETATM    2  O2  UNL     1      12.726   2.239   4.258  1.00  0.00    -0.298 OA
HETATM    3  C2  UNL     1      13.440   1.409   3.558  1.00  0.00     0.175 A 
HETATM    4  C3  UNL     1      14.132   2.129   2.631  1.00  0.00     0.070 A 
HETATM    5  C4  UNL     1      13.795   3.454   2.810  1.00  0.00     0.058 A 
HETATM    6  C5  UNL     1      14.345   4.537   1.995  1.00  0.00     0.183 A 
HETATM    7  N3  UNL     1      15.251   4.081   0.982  1.00  0.00    -0.352 N 
ATOM      8  H3  UNL     1      15.666   4.775   0.361  1.00  0.00     0.163 HD
HETATM    9  C8  UNL     1      15.600   2.731   0.796  1.00  0.00     0.173 A 
HETATM   10  S3  UNL     1      16.655   2.319  -0.381  1.00  0.00    -0.041 SA
HETATM   11  N4  UNL     1      15.055   1.725   1.608  1.00  0.00    -0.331 N 
ATOM     12  H4  UNL     1      15.304   0.745   1.476  1.00  0.00     0.168 HD
ENDROOT
BRANCH   6  13
HETATM   13  C6  UNL     1      14.974   5.600   2.842  1.00  0.00     0.096 A 
HETATM   14  N1  UNL     1      14.489   6.683   3.420  1.00  0.00    -0.294 N 
HETATM   15  N2  UNL     1      15.245   7.441   4.101  1.00  0.00    -0.284 N 
ATOM     16  H1  UNL     1      13.500   6.913   3.318  1.00  0.00     0.187 HD
HETATM   17  C7  UNL     1      16.536   7.127   4.224  1.00  0.00     0.159 A 
ATOM     18  H2  UNL     1      14.872   8.279   4.547  1.00  0.00     0.188 HD
HETATM   19  S1  UNL     1      17.715   7.937   5.046  1.00  0.00    -0.051 SA
HETATM   20  S2  UNL     1      16.613   5.670   3.302  1.00  0.00    -0.042 SA
ENDBRANCH   6  13
BRANCH   1  21
HETATM   21  O1  UNL     1      12.270   4.585   4.409  1.00  0.00    -0.340 OA
ATOM     22  H1  UNL     1      12.679   5.207   4.999  1.00  0.00     0.220 HD
ENDBRANCH   1  21
TORSDOF 2
ENDMDL
MODEL 4
REMARK VINA RESULT: -5.546800130     11.222     13.149
REMARK  2 active torsions:
REMARK  status: ('A' for Active; 'I' for Inactive)
REMARK    1  A    between atoms: O1_1  and  C1_3 
REMARK    2  A    between atoms: C5_8  and  C6_9 
ROOT
HETATM    1  C1  UNL     1      14.293   6.294   1.482  1.00  0.00     0.194 A 
HETATM    2  O2  UNL     1      14.567   7.566   1.393  1.00  0.00    -0.298 OA
HETATM    3  C2  UNL     1      15.530   7.903   2.198  1.00  0.00     0.175 A 
HETATM    4  C3  UNL     1      15.927   6.785   2.868  1.00  0.00     0.070 A 
HETATM    5  C4  UNL     1      15.144   5.742   2.420  1.00  0.00     0.058 A 
HETATM    6  C5  UNL     1      15.280   4.372   2.911  1.00  0.00     0.183 A 
HETATM    7  N3  UNL     1      16.292   4.226   3.916  1.00  0.00    -0.352 N 
ATOM      8  H3  UNL     1      16.438   3.301   4.320  1.00  0.00     0.163 HD
HETATM    9  C8  UNL     1      17.096   5.285   4.375  1.00  0.00     0.173 A 
HETATM   10  S3  UNL     1      18.232   5.009   5.515  1.00  0.00    -0.041 SA
HETATM   11  N4  UNL     1      16.937   6.584   3.869  1.00  0.00    -0.331 N 
ATOM     12  H4  UNL     1      17.516   7.356   4.199  1.00  0.00     0.168 HD
ENDROOT
BRANCH   6  13
HETATM   13  C6  UNL     1      15.491   3.402   1.789  1.00  0.00     0.096 A 
HETATM   14  N1  UNL     1      16.256   3.435   0.714  1.00  0.00    -0.294 N 
HETATM   15  N2  UNL     1      16.256   2.465  -0.105  1.00  0.00    -0.284 N 
ATOM     16  H1  UNL     1      16.852   4.245   0.540  1.00  0.00     0.187 HD
HETATM   17  C7  UNL     1      15.471   1.414   0.138  1.00  0.00     0.159 A 
ATOM     18  H2  UNL     1      16.847   2.490  -0.936  1.00  0.00     0.188 HD
HETATM   19  S1  UNL     1      15.289   0.042  -0.760  1.00  0.00    -0.051 SA
HETATM   20  S2  UNL     1      14.723   1.891   1.618  1.00  0.00    -0.042 SA
ENDBRANCH   6  13
BRANCH   1  21
HETATM   21  O1  UNL     1      13.312   5.631   0.749  1.00  0.00    -0.340 OA
ATOM     22  H1  UNL     1      13.279   4.693   0.601  1.00  0.00     0.220 HD
ENDBRANCH   1  21
TORSDOF 2
ENDMDL
MODEL 5
REMARK VINA RESULT: -5.444533353     10.205     11.752
REMARK  2 active torsions:
REMARK  status: ('A' for Active; 'I' for Inactive)
REMARK    1  A    between atoms: O1_1  and  C1_3 
REMARK    2  A    between atoms: C5_8  and  C6_9 
ROOT
HETATM    1  C1  UNL     1      16.874   2.056  -0.145  1.00  0.00     0.194 A 
HETATM    2  O2  UNL     1      16.914   1.284  -1.196  1.00  0.00    -0.298 OA
HETATM    3  C2  UNL     1      15.932   0.433  -1.199  1.00  0.00     0.175 A 
HETATM    4  C3  UNL     1      15.186   0.648  -0.079  1.00  0.00     0.070 A 
HETATM    5  C4  UNL     1      15.776   1.687   0.609  1.00  0.00     0.058 A 
HETATM    6  C5  UNL     1      15.253   2.210   1.871  1.00  0.00     0.183 A 
HETATM    7  N3  UNL     1      14.081   1.522   2.328  1.00  0.00    -0.352 N 
ATOM      8  H3  UNL     1      13.665   1.817   3.211  1.00  0.00     0.163 HD
HETATM    9  C8  UNL     1      13.474   0.463   1.629  1.00  0.00     0.173 A 
HETATM   10  S3  UNL     1      12.131  -0.245   2.232  1.00  0.00    -0.041 SA
HETATM   11  N4  UNL     1      14.005  -0.001   0.416  1.00  0.00    -0.331 N 
ATOM     12  H4  UNL     1      13.569  -0.769  -0.094  1.00  0.00     0.168 HD
ENDROOT
BRANCH   6  13
HETATM   13  C6  UNL     1      15.018   3.687   1.801  1.00  0.00     0.096 A 
HETATM   14  N1  UNL     1      14.250   4.432   1.027  1.00  0.00    -0.294 N 
HETATM   15  N2  UNL     1      14.227   5.693   1.169  1.00  0.00    -0.284 N 
ATOM     16  H1  UNL     1      13.672   3.991   0.311  1.00  0.00     0.187 HD
HETATM   17  C7  UNL     1      14.989   6.253   2.110  1.00  0.00     0.159 A 
ATOM     18  H2  UNL     1      13.634   6.270   0.572  1.00  0.00     0.188 HD
HETATM   19  S1  UNL     1      15.137   7.851   2.493  1.00  0.00    -0.051 SA
HETATM   20  S2  UNL     1      15.751   4.863   2.792  1.00  0.00    -0.042 SA
ENDBRANCH   6  13
BRANCH   1  21
HETATM   21  O1  UNL     1      17.786   3.066   0.144  1.00  0.00    -0.340 OA
ATOM     22  H1  UNL     1      17.643   3.994  -0.005  1.00  0.00     0.220 HD
ENDBRANCH   1  21
TORSDOF 2
ENDMDL
