MODEL 1
REMARK VINA RESULT: -5.624626206      0.000      0.000
REMARK  2 active torsions:
REMARK  status: ('A' for Active; 'I' for Inactive)
REMARK    1  A    between atoms: S1_2  and  C2_3 
REMARK    2  A    between atoms: C11_16  and  N3_17 
REMARK       I    between atoms: N3_17  and  C12_19 
ROOT
HETATM    1  C2  UNL     1      20.312  41.131  36.492  1.00  0.00     0.092 A 
HETATM    2  N1  UNL     1      19.797  40.803  37.606  1.00  0.00    -0.259 N 
ATOM      3  H1  UNL     1      19.048  40.110  37.584  1.00  0.00     0.195 HD
HETATM    4  O1  UNL     1      20.153  41.290  38.826  1.00  0.00    -0.258 OA
HETATM    5  C3  UNL     1      21.156  42.233  38.982  1.00  0.00     0.148 A 
HETATM    6  C4  UNL     1      20.623  43.537  39.541  1.00  0.00     0.018 C 
HETATM    7  C5  UNL     1      20.798  44.082  40.748  1.00  0.00     0.010 C 
HETATM    8  C6  UNL     1      21.589  43.460  41.797  1.00  0.00     0.279 A 
HETATM    9  C7  UNL     1      20.967  42.050  41.924  1.00  0.00     0.260 A 
HETATM   10  C8  UNL     1      21.875  41.175  41.168  1.00  0.00     0.042 C 
HETATM   11  C9  UNL     1      22.300  41.721  39.824  1.00  0.00     0.054 C 
HETATM   12  N2  UNL     1      21.208  42.897  42.996  1.00  0.00     0.101 N 
HETATM   13  C10 UNL     1      22.186  42.691  44.014  1.00  0.00     0.311 C 
HETATM   14  C11 UNL     1      21.740  42.600  37.666  1.00  0.00     0.055 A 
HETATM   15  C13 UNL     1      21.383  42.120  36.513  1.00  0.00     0.067 A 
ENDROOT
BRANCH  14  16
HETATM   16  N3  UNL     1      22.795  43.577  37.712  1.00  0.00    -0.331 N 
HETATM   17  C12 UNL     1      23.462  44.051  36.557  1.00  0.00     0.186 C 
HETATM   18  N4  UNL     1      23.119  45.200  36.086  1.00  0.00    -0.374 N 
HETATM   19  N5  UNL     1      24.489  43.343  35.881  1.00  0.00    -0.064 NA
ATOM     20  H42 UNL     1      22.381  45.709  36.572  1.00  0.00     0.158 HD
ATOM     21  H41 UNL     1      23.599  45.541  35.253  1.00  0.00     0.158 HD
ATOM     22  H3  UNL     1      23.076  43.946  38.621  1.00  0.00     0.168 HD
ENDBRANCH  14  16
BRANCH   1  23
HETATM   23  S1  UNL     1      19.815  40.467  34.911  1.00  0.00    -0.115 SA
HETATM   24  C1  UNL     1      18.013  40.465  34.800  1.00  0.00     0.097 C 
ENDBRANCH   1  23
TORSDOF 2
ENDMDL
MODEL 2
REMARK VINA RESULT: -5.610630726      1.857      3.887
REMARK  2 active torsions:
REMARK  status: ('A' for Active; 'I' for Inactive)
REMARK    1  A    between atoms: S1_2  and  C2_3 
REMARK    2  A    between atoms: C11_16  and  N3_17 
REMARK       I    between atoms: N3_17  and  C12_19 
ROOT
HETATM    1  C2  UNL     1      22.967  43.676  36.596  1.00  0.00     0.092 A 
HETATM    2  N1  UNL     1      23.468  43.991  37.720  1.00  0.00    -0.259 N 
ATOM      3  H1  UNL     1      24.214  44.687  37.716  1.00  0.00     0.195 HD
HETATM    4  O1  UNL     1      23.100  43.484  38.928  1.00  0.00    -0.258 OA
HETATM    5  C3  UNL     1      22.100  42.534  39.059  1.00  0.00     0.148 A 
HETATM    6  C4  UNL     1      22.633  41.224  39.605  1.00  0.00     0.018 C 
HETATM    7  C5  UNL     1      22.448  40.660  40.802  1.00  0.00     0.010 C 
HETATM    8  C6  UNL     1      21.642  41.263  41.850  1.00  0.00     0.279 A 
HETATM    9  C7  UNL     1      22.256  42.674  42.005  1.00  0.00     0.260 A 
HETATM   10  C8  UNL     1      21.352  43.555  41.252  1.00  0.00     0.042 C 
HETATM   11  C9  UNL     1      20.944  43.028  39.895  1.00  0.00     0.054 C 
HETATM   12  N2  UNL     1      22.007  41.810  43.062  1.00  0.00     0.101 N 
HETATM   13  C10 UNL     1      21.017  41.996  44.072  1.00  0.00     0.311 C 
HETATM   14  C11 UNL     1      21.533  42.183  37.731  1.00  0.00     0.055 A 
HETATM   15  C13 UNL     1      21.901  42.682  36.589  1.00  0.00     0.067 A 
ENDROOT
BRANCH  14  16
HETATM   16  N3  UNL     1      20.483  41.200  37.750  1.00  0.00    -0.331 N 
HETATM   17  C12 UNL     1      19.821  40.752  36.583  1.00  0.00     0.186 C 
HETATM   18  N4  UNL     1      20.170  39.617  36.085  1.00  0.00    -0.374 N 
HETATM   19  N5  UNL     1      18.792  41.472  35.922  1.00  0.00    -0.064 NA
ATOM     20  H42 UNL     1      20.910  39.099  36.560  1.00  0.00     0.158 HD
ATOM     21  H41 UNL     1      19.694  39.293  35.243  1.00  0.00     0.158 HD
ATOM     22  H3  UNL     1      20.201  40.808  38.649  1.00  0.00     0.168 HD
ENDBRANCH  14  16
BRANCH   1  23
HETATM   23  S1  UNL     1      23.479  44.366  35.030  1.00  0.00    -0.115 SA
HETATM   24  C1  UNL     1      25.262  44.162  34.837  1.00  0.00     0.097 C 
ENDBRANCH   1  23
TORSDOF 2
ENDMDL
MODEL 3
REMARK VINA RESULT: -5.584053272      5.104      8.283
REMARK  2 active torsions:
REMARK  status: ('A' for Active; 'I' for Inactive)
REMARK    1  A    between atoms: S1_2  and  C2_3 
REMARK    2  A    between atoms: C11_16  and  N3_17 
REMARK       I    between atoms: N3_17  and  C12_19 
ROOT
HETATM    1  C2  UNL     1      16.737  38.898  29.977  1.00  0.00     0.092 A 
HETATM    2  N1  UNL     1      17.497  38.307  30.805  1.00  0.00    -0.259 N 
ATOM      3  H1  UNL     1      17.794  37.360  30.567  1.00  0.00     0.195 HD
HETATM    4  O1  UNL     1      17.953  38.821  31.980  1.00  0.00    -0.258 OA
HETATM    5  C3  UNL     1      17.618  40.096  32.409  1.00  0.00     0.148 A 
HETATM    6  C4  UNL     1      16.814  40.066  33.694  1.00  0.00     0.018 C 
HETATM    7  C5  UNL     1      17.167  40.431  34.929  1.00  0.00     0.010 C 
HETATM    8  C6  UNL     1      18.481  40.955  35.261  1.00  0.00     0.279 A 
HETATM    9  C7  UNL     1      19.444  39.873  34.720  1.00  0.00     0.260 A 
HETATM   10  C8  UNL     1      19.913  40.405  33.433  1.00  0.00     0.042 C 
HETATM   11  C9  UNL     1      18.827  40.988  32.558  1.00  0.00     0.054 C 
HETATM   12  N2  UNL     1      19.508  40.406  35.999  1.00  0.00     0.101 N 
HETATM   13  C10 UNL     1      20.543  41.254  36.495  1.00  0.00     0.311 C 
HETATM   14  C11 UNL     1      16.728  40.764  31.424  1.00  0.00     0.055 A 
HETATM   15  C13 UNL     1      16.306  40.251  30.307  1.00  0.00     0.067 A 
ENDROOT
BRANCH  14  16
HETATM   16  N3  UNL     1      16.316  42.098  31.772  1.00  0.00    -0.331 N 
HETATM   17  C12 UNL     1      14.977  42.441  32.072  1.00  0.00     0.186 C 
HETATM   18  N4  UNL     1      14.645  42.570  33.310  1.00  0.00    -0.374 N 
HETATM   19  N5  UNL     1      13.970  42.655  31.095  1.00  0.00    -0.064 NA
ATOM     20  H42 UNL     1      15.368  42.416  34.012  1.00  0.00     0.158 HD
ATOM     21  H41 UNL     1      13.679  42.817  33.526  1.00  0.00     0.158 HD
ATOM     22  H3  UNL     1      17.025  42.831  31.804  1.00  0.00     0.168 HD
ENDBRANCH  14  16
BRANCH   1  23
HETATM   23  S1  UNL     1      16.161  38.187  28.444  1.00  0.00    -0.115 SA
HETATM   24  C1  UNL     1      14.817  37.030  28.785  1.00  0.00     0.097 C 
ENDBRANCH   1  23
TORSDOF 2
ENDMDL
MODEL 4
REMARK VINA RESULT: -5.572940371      6.085      8.817
REMARK  2 active torsions:
REMARK  status: ('A' for Active; 'I' for Inactive)
REMARK    1  A    between atoms: S1_2  and  C2_3 
REMARK    2  A    between atoms: C11_16  and  N3_17 
REMARK       I    between atoms: N3_17  and  C12_19 
ROOT
HETATM    1  C2  UNL     1      26.459  45.921  29.920  1.00  0.00     0.092 A 
HETATM    2  N1  UNL     1      25.722  46.512  30.769  1.00  0.00    -0.259 N 
ATOM      3  H1  UNL     1      25.430  47.464  30.546  1.00  0.00     0.195 HD
HETATM    4  O1  UNL     1      25.285  45.992  31.949  1.00  0.00    -0.258 OA
HETATM    5  C3  UNL     1      25.616  44.710  32.360  1.00  0.00     0.148 A 
HETATM    6  C4  UNL     1      26.447  44.720  33.627  1.00  0.00     0.018 C 
HETATM    7  C5  UNL     1      26.117  44.347  34.867  1.00  0.00     0.010 C 
HETATM    8  C6  UNL     1      24.804  43.834  35.221  1.00  0.00     0.279 A 
HETATM    9  C7  UNL     1      23.842  44.931  34.711  1.00  0.00     0.260 A 
HETATM   10  C8  UNL     1      23.340  44.416  33.429  1.00  0.00     0.042 C 
HETATM   11  C9  UNL     1      24.401  43.829  32.527  1.00  0.00     0.054 C 
HETATM   12  N2  UNL     1      23.799  44.387  35.986  1.00  0.00     0.101 N 
HETATM   13  C10 UNL     1      22.766  43.546  36.496  1.00  0.00     0.311 C 
HETATM   14  C11 UNL     1      26.479  44.042  31.351  1.00  0.00     0.055 A 
HETATM   15  C13 UNL     1      26.882  44.560  30.230  1.00  0.00     0.067 A 
ENDROOT
BRANCH  14  16
HETATM   16  N3  UNL     1      26.883  42.701  31.678  1.00  0.00    -0.331 N 
HETATM   17  C12 UNL     1      28.228  42.337  31.928  1.00  0.00     0.186 C 
HETATM   18  N4  UNL     1      28.602  42.198  33.153  1.00  0.00    -0.374 N 
HETATM   19  N5  UNL     1      29.195  42.114  30.915  1.00  0.00    -0.064 NA
ATOM     20  H42 UNL     1      27.906  42.359  33.881  1.00  0.00     0.158 HD
ATOM     21  H41 UNL     1      29.571  41.936  33.333  1.00  0.00     0.158 HD
ATOM     22  H3  UNL     1      26.166  41.977  31.732  1.00  0.00     0.168 HD
ENDBRANCH  14  16
BRANCH   1  23
HETATM   23  S1  UNL     1      27.010  46.640  28.382  1.00  0.00    -0.115 SA
HETATM   24  C1  UNL     1      28.014  48.100  28.726  1.00  0.00     0.097 C 
ENDBRANCH   1  23
TORSDOF 2
ENDMDL
MODEL 5
REMARK VINA RESULT: -5.502023167      6.481     10.098
REMARK  2 active torsions:
REMARK  status: ('A' for Active; 'I' for Inactive)
REMARK    1  A    between atoms: S1_2  and  C2_3 
REMARK    2  A    between atoms: C11_16  and  N3_17 
REMARK       I    between atoms: N3_17  and  C12_19 
ROOT
HETATM    1  C2  UNL     1      13.693  41.827  30.547  1.00  0.00     0.092 A 
HETATM    2  N1  UNL     1      14.516  42.482  31.259  1.00  0.00    -0.259 N 
ATOM      3  H1  UNL     1      14.329  43.477  31.385  1.00  0.00     0.195 HD
HETATM    4  O1  UNL     1      15.624  41.979  31.868  1.00  0.00    -0.258 OA
HETATM    5  C3  UNL     1      15.980  40.643  31.769  1.00  0.00     0.148 A 
HETATM    6  C4  UNL     1      17.307  40.464  31.059  1.00  0.00     0.018 C 
HETATM    7  C5  UNL     1      18.492  40.087  31.547  1.00  0.00     0.010 C 
HETATM    8  C6  UNL     1      18.710  39.764  32.948  1.00  0.00     0.279 A 
HETATM    9  C7  UNL     1      18.194  41.020  33.688  1.00  0.00     0.260 A 
HETATM   10  C8  UNL     1      16.848  40.651  34.148  1.00  0.00     0.042 C 
HETATM   11  C9  UNL     1      15.997  39.953  33.112  1.00  0.00     0.054 C 
HETATM   12  N2  UNL     1      19.427  40.427  33.921  1.00  0.00     0.101 N 
HETATM   13  C10 UNL     1      19.802  39.731  35.109  1.00  0.00     0.311 C 
HETATM   14  C11 UNL     1      15.003  39.900  30.932  1.00  0.00     0.055 A 
HETATM   15  C13 UNL     1      13.951  40.404  30.360  1.00  0.00     0.067 A 
ENDROOT
BRANCH  14  16
HETATM   16  N3  UNL     1      15.278  38.498  30.762  1.00  0.00    -0.331 N 
HETATM   17  C12 UNL     1      14.288  37.495  30.883  1.00  0.00     0.186 C 
HETATM   18  N4  UNL     1      13.789  37.001  29.803  1.00  0.00    -0.374 N 
HETATM   19  N5  UNL     1      13.806  36.994  32.120  1.00  0.00    -0.064 NA
ATOM     20  H42 UNL     1      14.135  37.361  28.914  1.00  0.00     0.158 HD
ATOM     21  H41 UNL     1      13.075  36.277  29.890  1.00  0.00     0.158 HD
ATOM     22  H3  UNL     1      16.234  38.214  30.545  1.00  0.00     0.168 HD
ENDBRANCH  14  16
BRANCH   1  23
HETATM   23  S1  UNL     1      12.249  42.526  29.764  1.00  0.00    -0.115 SA
HETATM   24  C1  UNL     1      12.629  42.917  28.043  1.00  0.00     0.097 C 
ENDBRANCH   1  23
TORSDOF 2
ENDMDL
