MODEL 1
REMARK VINA RESULT: -6.949401484      0.000      0.000
REMARK  4 active torsions:
REMARK  status: ('A' for Active; 'I' for Inactive)
REMARK    1  A    between atoms: C2_2  and  O1_3 
REMARK    2  A    between atoms: O1_3  and  C3_4 
REMARK    3  A    between atoms: C3_4  and  C4_6 
REMARK    4  A    between atoms: C12_18  and  C13_19 
ROOT
HETATM    1  C4  UNL     1      12.502  43.730  54.100  1.00  0.00     0.053 A 
HETATM    2  C5  UNL     1      12.820  42.466  53.910  1.00  0.00     0.020 A 
HETATM    3  C6  UNL     1      13.483  42.003  52.669  1.00  0.00     0.069 C 
HETATM    4  N1  UNL     1      12.494  41.492  54.936  1.00  0.00    -0.341 N 
ATOM      5  H1  UNL     1      12.745  40.515  54.787  1.00  0.00     0.167 HD
HETATM    6  C7  UNL     1      11.903  41.821  56.019  1.00  0.00     0.152 A 
HETATM    7  O3  UNL     1      11.474  41.147  57.155  1.00  0.00    -0.300 OA
HETATM    8  C8  UNL     1      11.570  42.103  58.232  1.00  0.00     0.165 C 
HETATM    9  C9  UNL     1      10.237  42.310  58.886  1.00  0.00     0.079 C 
HETATM   10  C10 UNL     1      12.595  41.563  59.179  1.00  0.00     0.079 C 
HETATM   11  O4  UNL     1      11.997  43.310  57.622  1.00  0.00    -0.341 OA
HETATM   12  C11 UNL     1      11.482  43.210  56.334  1.00  0.00     0.214 A 
HETATM   13  C12 UNL     1      11.850  44.236  55.367  1.00  0.00     0.121 A 
ENDROOT
BRANCH   1  14
HETATM   14  C3  UNL     1      12.821  44.686  53.036  1.00  0.00     0.292 C 
HETATM   15  O2  UNL     1      12.135  44.666  51.952  1.00  0.00    -0.260 OA
BRANCH  14  16
HETATM   16  O1  UNL     1      13.804  45.635  53.068  1.00  0.00    -0.318 OA
BRANCH  16  17
HETATM   17  C2  UNL     1      13.632  46.937  53.607  1.00  0.00     0.174 C 
HETATM   18  C1  UNL     1      14.113  47.051  55.021  1.00  0.00     0.034 C 
ENDBRANCH  16  17
ENDBRANCH  14  16
ENDBRANCH   1  14
BRANCH  13  19
HETATM   19  C13 UNL     1      10.628  45.030  55.042  1.00  0.00     0.064 A 
HETATM   20  C14 UNL     1       9.454  44.503  54.553  1.00  0.00     0.035 A 
HETATM   21  C15 UNL     1       8.562  45.542  54.380  1.00  0.00     0.027 A 
HETATM   22  C16 UNL     1       9.246  46.669  54.778  1.00  0.00     0.142 A 
HETATM   23  O5  UNL     1      10.470  46.310  55.163  1.00  0.00    -0.326 OA
ENDBRANCH  13  19
TORSDOF 4
ENDMDL
MODEL 2
REMARK VINA RESULT: -6.907350994      2.289      5.468
REMARK  4 active torsions:
REMARK  status: ('A' for Active; 'I' for Inactive)
REMARK    1  A    between atoms: C2_2  and  O1_3 
REMARK    2  A    between atoms: O1_3  and  C3_4 
REMARK    3  A    between atoms: C3_4  and  C4_6 
REMARK    4  A    between atoms: C12_18  and  C13_19 
ROOT
HETATM    1  C4  UNL     1      12.973  44.153  55.085  1.00  0.00     0.053 A 
HETATM    2  C5  UNL     1      12.134  44.745  54.260  1.00  0.00     0.020 A 
HETATM    3  C6  UNL     1      11.530  46.062  54.569  1.00  0.00     0.069 C 
HETATM    4  N1  UNL     1      11.774  44.082  53.020  1.00  0.00    -0.341 N 
ATOM      5  H1  UNL     1      11.127  44.545  52.382  1.00  0.00     0.167 HD
HETATM    6  C7  UNL     1      12.241  42.936  52.704  1.00  0.00     0.152 A 
HETATM    7  O3  UNL     1      12.097  42.074  51.625  1.00  0.00    -0.300 OA
HETATM    8  C8  UNL     1      13.354  41.373  51.519  1.00  0.00     0.165 C 
HETATM    9  C9  UNL     1      13.155  39.892  51.641  1.00  0.00     0.079 C 
HETATM   10  C10 UNL     1      13.941  41.765  50.199  1.00  0.00     0.079 C 
HETATM   11  O4  UNL     1      14.136  41.841  52.606  1.00  0.00    -0.341 OA
HETATM   12  C11 UNL     1      13.179  42.167  53.561  1.00  0.00     0.214 A 
HETATM   13  C12 UNL     1      13.626  42.823  54.784  1.00  0.00     0.121 A 
ENDROOT
BRANCH   1  14
HETATM   14  C3  UNL     1      13.299  44.835  56.341  1.00  0.00     0.292 C 
HETATM   15  O2  UNL     1      14.216  45.732  56.343  1.00  0.00    -0.260 OA
BRANCH  14  16
HETATM   16  O1  UNL     1      12.715  44.616  57.556  1.00  0.00    -0.318 OA
BRANCH  16  17
HETATM   17  C2  UNL     1      13.421  44.174  58.706  1.00  0.00     0.174 C 
HETATM   18  C1  UNL     1      12.565  43.380  59.645  1.00  0.00     0.034 C 
ENDBRANCH  16  17
ENDBRANCH  14  16
ENDBRANCH   1  14
BRANCH  13  19
HETATM   19  C13 UNL     1      13.426  41.875  55.920  1.00  0.00     0.064 A 
HETATM   20  C14 UNL     1      12.230  41.272  56.241  1.00  0.00     0.035 A 
HETATM   21  C15 UNL     1      12.442  40.471  57.344  1.00  0.00     0.027 A 
HETATM   22  C16 UNL     1      13.775  40.626  57.648  1.00  0.00     0.142 A 
HETATM   23  O5  UNL     1      14.316  41.472  56.771  1.00  0.00    -0.326 OA
ENDBRANCH  13  19
TORSDOF 4
ENDMDL
MODEL 3
REMARK VINA RESULT: -6.888266122      2.161      3.050
REMARK  4 active torsions:
REMARK  status: ('A' for Active; 'I' for Inactive)
REMARK    1  A    between atoms: C2_2  and  O1_3 
REMARK    2  A    between atoms: O1_3  and  C3_4 
REMARK    3  A    between atoms: C3_4  and  C4_6 
REMARK    4  A    between atoms: C12_18  and  C13_19 
ROOT
HETATM    1  C4  UNL     1      12.039  43.655  56.449  1.00  0.00     0.053 A 
HETATM    2  C5  UNL     1      12.987  43.080  57.161  1.00  0.00     0.020 A 
HETATM    3  C6  UNL     1      14.373  43.602  57.186  1.00  0.00     0.069 C 
HETATM    4  N1  UNL     1      12.673  41.888  57.928  1.00  0.00    -0.341 N 
ATOM      5  H1  UNL     1      13.408  41.448  58.481  1.00  0.00     0.167 HD
HETATM    6  C7  UNL     1      11.504  41.374  57.932  1.00  0.00     0.152 A 
HETATM    7  O3  UNL     1      10.908  40.280  58.545  1.00  0.00    -0.300 OA
HETATM    8  C8  UNL     1       9.527  40.650  58.741  1.00  0.00     0.165 C 
HETATM    9  C9  UNL     1       8.610  39.688  58.048  1.00  0.00     0.079 C 
HETATM   10  C10 UNL     1       9.310  40.683  60.222  1.00  0.00     0.079 C 
HETATM   11  O4  UNL     1       9.399  41.937  58.159  1.00  0.00    -0.341 OA
HETATM   12  C11 UNL     1      10.363  41.923  57.156  1.00  0.00     0.214 A 
HETATM   13  C12 UNL     1      10.610  43.161  56.426  1.00  0.00     0.121 A 
ENDROOT
BRANCH   1  14
HETATM   14  C3  UNL     1      12.392  44.842  55.665  1.00  0.00     0.292 C 
HETATM   15  O2  UNL     1      12.097  46.002  56.125  1.00  0.00    -0.260 OA
BRANCH  14  16
HETATM   16  O1  UNL     1      13.025  44.854  54.454  1.00  0.00    -0.318 OA
BRANCH  16  17
HETATM   17  C2  UNL     1      12.418  45.291  53.247  1.00  0.00     0.174 C 
HETATM   18  C1  UNL     1      12.749  44.415  52.078  1.00  0.00     0.034 C 
ENDBRANCH  16  17
ENDBRANCH  14  16
ENDBRANCH   1  14
BRANCH  13  19
HETATM   19  C13 UNL     1      10.148  42.970  55.019  1.00  0.00     0.064 A 
HETATM   20  C14 UNL     1      10.535  41.937  54.196  1.00  0.00     0.035 A 
HETATM   21  C15 UNL     1       9.901  42.102  52.981  1.00  0.00     0.027 A 
HETATM   22  C16 UNL     1       9.148  43.245  53.124  1.00  0.00     0.142 A 
HETATM   23  O5  UNL     1       9.330  43.724  54.355  1.00  0.00    -0.326 OA
ENDBRANCH  13  19
TORSDOF 4
ENDMDL
MODEL 4
REMARK VINA RESULT: -6.753154845      2.361      5.429
REMARK  4 active torsions:
REMARK  status: ('A' for Active; 'I' for Inactive)
REMARK    1  A    between atoms: C2_2  and  O1_3 
REMARK    2  A    between atoms: O1_3  and  C3_4 
REMARK    3  A    between atoms: C3_4  and  C4_6 
REMARK    4  A    between atoms: C12_18  and  C13_19 
ROOT
HETATM    1  C4  UNL     1      13.467  44.413  55.148  1.00  0.00     0.053 A 
HETATM    2  C5  UNL     1      13.573  45.591  54.566  1.00  0.00     0.020 A 
HETATM    3  C6  UNL     1      13.995  46.799  55.312  1.00  0.00     0.069 C 
HETATM    4  N1  UNL     1      13.249  45.715  53.156  1.00  0.00    -0.341 N 
ATOM      5  H1  UNL     1      13.336  46.627  52.708  1.00  0.00     0.167 HD
HETATM    6  C7  UNL     1      12.858  44.718  52.461  1.00  0.00     0.152 A 
HETATM    7  O3  UNL     1      12.489  44.522  51.136  1.00  0.00    -0.300 OA
HETATM    8  C8  UNL     1      12.862  43.162  50.829  1.00  0.00     0.165 C 
HETATM    9  C9  UNL     1      11.669  42.365  50.392  1.00  0.00     0.079 C 
HETATM   10  C10 UNL     1      13.914  43.246  49.768  1.00  0.00     0.079 C 
HETATM   11  O4  UNL     1      13.373  42.631  52.040  1.00  0.00    -0.341 OA
HETATM   12  C11 UNL     1      12.684  43.350  53.012  1.00  0.00     0.214 A 
HETATM   13  C12 UNL     1      13.066  43.159  54.406  1.00  0.00     0.121 A 
ENDROOT
BRANCH   1  14
HETATM   14  C3  UNL     1      13.777  44.323  56.577  1.00  0.00     0.292 C 
HETATM   15  O2  UNL     1      14.996  44.158  56.942  1.00  0.00    -0.260 OA
BRANCH  14  16
HETATM   16  O1  UNL     1      12.881  44.399  57.607  1.00  0.00    -0.318 OA
BRANCH  16  17
HETATM   17  C2  UNL     1      13.098  43.829  58.889  1.00  0.00     0.174 C 
HETATM   18  C1  UNL     1      12.333  42.558  59.099  1.00  0.00     0.034 C 
ENDBRANCH  16  17
ENDBRANCH  14  16
ENDBRANCH   1  14
BRANCH  13  19
HETATM   19  C13 UNL     1      11.937  42.477  55.107  1.00  0.00     0.064 A 
HETATM   20  C14 UNL     1      11.970  41.185  55.579  1.00  0.00     0.035 A 
HETATM   21  C15 UNL     1      10.748  40.915  56.163  1.00  0.00     0.027 A 
HETATM   22  C16 UNL     1      10.020  42.074  56.015  1.00  0.00     0.142 A 
HETATM   23  O5  UNL     1      10.772  42.972  55.380  1.00  0.00    -0.326 OA
ENDBRANCH  13  19
TORSDOF 4
ENDMDL
MODEL 5
REMARK VINA RESULT: -6.723943853      2.096      2.800
REMARK  4 active torsions:
REMARK  status: ('A' for Active; 'I' for Inactive)
REMARK    1  A    between atoms: C2_2  and  O1_3 
REMARK    2  A    between atoms: O1_3  and  C3_4 
REMARK    3  A    between atoms: C3_4  and  C4_6 
REMARK    4  A    between atoms: C12_18  and  C13_19 
ROOT
HETATM    1  C4  UNL     1      12.316  43.121  56.644  1.00  0.00     0.053 A 
HETATM    2  C5  UNL     1      13.204  42.167  56.836  1.00  0.00     0.020 A 
HETATM    3  C6  UNL     1      14.658  42.408  56.684  1.00  0.00     0.069 C 
HETATM    4  N1  UNL     1      12.747  40.834  57.185  1.00  0.00    -0.341 N 
ATOM      5  H1  UNL     1      13.437  40.099  57.336  1.00  0.00     0.167 HD
HETATM    6  C7  UNL     1      11.507  40.554  57.309  1.00  0.00     0.152 A 
HETATM    7  O3  UNL     1      10.778  39.416  57.626  1.00  0.00    -0.300 OA
HETATM    8  C8  UNL     1       9.589  39.891  58.291  1.00  0.00     0.165 C 
HETATM    9  C9  UNL     1       8.355  39.446  57.565  1.00  0.00     0.079 C 
HETATM   10  C10 UNL     1       9.652  39.362  59.690  1.00  0.00     0.079 C 
HETATM   11  O4  UNL     1       9.681  41.306  58.256  1.00  0.00    -0.341 OA
HETATM   12  C11 UNL     1      10.418  41.542  57.100  1.00  0.00     0.214 A 
HETATM   13  C12 UNL     1      10.829  42.912  56.818  1.00  0.00     0.121 A 
ENDROOT
BRANCH   1  14
HETATM   14  C3  UNL     1      12.806  44.451  56.268  1.00  0.00     0.292 C 
HETATM   15  O2  UNL     1      13.036  45.314  57.189  1.00  0.00    -0.260 OA
BRANCH  14  16
HETATM   16  O1  UNL     1      13.056  44.892  55.000  1.00  0.00    -0.318 OA
BRANCH  16  17
HETATM   17  C2  UNL     1      12.461  46.050  54.432  1.00  0.00     0.174 C 
HETATM   18  C1  UNL     1      13.418  46.848  53.601  1.00  0.00     0.034 C 
ENDBRANCH  16  17
ENDBRANCH  14  16
ENDBRANCH   1  14
BRANCH  13  19
HETATM   19  C13 UNL     1      10.092  43.378  55.605  1.00  0.00     0.064 A 
HETATM   20  C14 UNL     1       9.963  42.660  54.438  1.00  0.00     0.035 A 
HETATM   21  C15 UNL     1       9.219  43.415  53.555  1.00  0.00     0.027 A 
HETATM   22  C16 UNL     1       8.927  44.575  54.236  1.00  0.00     0.142 A 
HETATM   23  O5  UNL     1       9.469  44.503  55.452  1.00  0.00    -0.326 OA
ENDBRANCH  13  19
TORSDOF 4
ENDMDL
