MODEL 1
REMARK VINA RESULT: -9.464270766      0.000      0.000
REMARK  16 active torsions:
REMARK  status: ('A' for Active; 'I' for Inactive)
REMARK    1  A    between atoms: C2_2  and  C3_3 
REMARK    2  A    between atoms: C3_3  and  N1_4 
REMARK    3  A    between atoms: N1_4  and  C4_6 
REMARK    4  A    between atoms: C4_6  and  C5_7 
REMARK    5  A    between atoms: C4_6  and  C21_27 
REMARK    6  A    between atoms: C9_11  and  C10_12 
REMARK    7  A    between atoms: C10_12  and  O1_13 
REMARK    8  A    between atoms: O1_13  and  C11_14 
REMARK    9  A    between atoms: C11_14  and  C12_15 
REMARK   10  A    between atoms: C12_15  and  C13_16 
REMARK   11  A    between atoms: C13_16  and  C14_17 
REMARK   12  A    between atoms: C14_17  and  C15_18 
REMARK   13  A    between atoms: C26_32  and  C27_33 
REMARK   14  A    between atoms: C30_38  and  C31_39 
REMARK   15  A    between atoms: C33_41  and  O6_42 
REMARK   16  A    between atoms: C34_44  and  O7_46 
ROOT
HETATM    1  C4  UNL     1      16.934  22.020  18.489  1.00  0.00     0.029 C 
ENDROOT
BRANCH   1   2
HETATM    2  N1  UNL     1      17.430  22.337  19.542  1.00  0.00    -0.370 N 
ATOM      3  H1  UNL     1      17.093  23.282  19.721  1.00  0.00     0.165 HD
BRANCH   2   4
HETATM    4  C3  UNL     1      18.220  22.040  20.600  1.00  0.00     0.087 C 
BRANCH   4   5
HETATM    5  C2  UNL     1      19.618  21.646  20.304  1.00  0.00     0.007 C 
HETATM    6  C1  UNL     1      20.676  22.423  20.409  1.00  0.00     0.012 C 
ENDBRANCH   4   5
ENDBRANCH   2   4
ENDBRANCH   1   2
BRANCH   1   7
HETATM    7  C5  UNL     1      17.406  22.623  17.194  1.00  0.00     0.051 C 
HETATM    8  C6  UNL     1      18.626  21.927  16.681  1.00  0.00     0.012 C 
HETATM    9  C7  UNL     1      19.727  22.960  16.597  1.00  0.00     0.009 C 
HETATM   10  C8  UNL     1      19.238  24.100  17.515  1.00  0.00     0.034 C 
HETATM   11  C9  UNL     1      19.939  25.339  17.117  1.00  0.00     0.161 C 
HETATM   12  C19 UNL     1      17.754  24.045  17.188  1.00  0.00     0.042 C 
HETATM   13  O2  UNL     1      19.201  26.237  16.341  1.00  0.00    -0.307 OA
HETATM   14  C17 UNL     1      18.307  25.738  15.407  1.00  0.00     0.330 C 
HETATM   15  O3  UNL     1      18.065  26.348  14.316  1.00  0.00    -0.256 OA
HETATM   16  C18 UNL     1      17.658  24.482  15.738  1.00  0.00     0.233 C 
HETATM   17  O4  UNL     1      17.063  23.803  14.904  1.00  0.00    -0.286 OA
HETATM   18  C20 UNL     1      16.948  25.012  17.957  1.00  0.00     0.025 C 
BRANCH  11  19
HETATM   19  C10 UNL     1      20.401  26.126  18.353  1.00  0.00     0.200 C 
BRANCH  19  20
HETATM   20  O1  UNL     1      21.391  27.026  18.097  1.00  0.00    -0.389 OA
BRANCH  20  21
HETATM   21  C11 UNL     1      22.673  26.574  18.062  1.00  0.00     0.167 C 
BRANCH  21  22
HETATM   22  C12 UNL     1      23.585  27.334  17.127  1.00  0.00     0.026 C 
BRANCH  22  23
HETATM   23  C13 UNL     1      23.825  26.536  15.888  1.00  0.00     0.002 C 
BRANCH  23  24
HETATM   24  C14 UNL     1      22.614  26.657  15.006  1.00  0.00    -0.000 C 
BRANCH  24  25
HETATM   25  C15 UNL     1      22.317  28.096  14.642  1.00  0.00    -0.005 C 
HETATM   26  C16 UNL     1      21.025  28.253  13.914  1.00  0.00     0.005 C 
ENDBRANCH  24  25
ENDBRANCH  23  24
ENDBRANCH  22  23
ENDBRANCH  21  22
ENDBRANCH  20  21
ENDBRANCH  19  20
ENDBRANCH  11  19
ENDBRANCH   1   7
BRANCH   1  27
HETATM   27  C21 UNL     1      15.835  21.020  18.381  1.00  0.00     0.127 A 
HETATM   28  C22 UNL     1      14.587  21.182  19.161  1.00  0.00     0.055 C 
HETATM   29  C23 UNL     1      13.555  20.220  18.518  1.00  0.00     0.032 C 
HETATM   30  C24 UNL     1      13.924  20.544  17.138  1.00  0.00     0.026 C 
HETATM   31  C34 UNL     1      13.425  18.940  19.124  1.00  0.00     0.085 C 
HETATM   32  C25 UNL     1      13.162  20.029  16.005  1.00  0.00     0.024 C 
HETATM   33  C36 UNL     1      15.425  20.491  17.005  1.00  0.00     0.168 A 
HETATM   34  C26 UNL     1      11.677  20.156  16.319  1.00  0.00     0.080 C 
HETATM   35  C29 UNL     1      11.259  19.033  17.196  1.00  0.00     0.141 C 
HETATM   36  O5  UNL     1      10.187  19.277  17.750  1.00  0.00    -0.297 OA
HETATM   37  C30 UNL     1      11.841  17.737  17.531  1.00  0.00     0.087 C 
HETATM   38  C33 UNL     1      13.071  17.727  18.331  1.00  0.00     0.163 C 
HETATM   39  O8  UNL     1      16.219  19.813  17.837  1.00  0.00    -0.362 OA
HETATM   40  C35 UNL     1      14.565  18.419  20.015  1.00  0.00     0.049 C 
BRANCH  34  41
HETATM   41  C27 UNL     1      10.866  20.063  15.075  1.00  0.00    -0.000 C 
HETATM   42  C28 UNL     1       9.821  20.852  14.950  1.00  0.00     0.096 C 
HETATM   43  N2  UNL     1       9.039  20.774  13.770  1.00  0.00    -0.115 NA
ENDBRANCH  34  41
BRANCH  37  44
HETATM   44  C31 UNL     1      10.708  16.871  18.105  1.00  0.00     0.010 C 
HETATM   45  C32 UNL     1      10.742  15.509  17.491  1.00  0.00     0.006 C 
ENDBRANCH  37  44
BRANCH  38  46
HETATM   46  O6  UNL     1      14.176  17.139  17.666  1.00  0.00    -0.392 OA
ATOM     47  H6  UNL     1      14.980  17.160  18.172  1.00  0.00     0.210 HD
ENDBRANCH  38  46
BRANCH  31  48
HETATM   48  O7  UNL     1      12.343  19.002  20.074  1.00  0.00    -0.387 OA
ATOM     49  H7  UNL     1      12.112  18.113  20.317  1.00  0.00     0.210 HD
ENDBRANCH  31  48
ENDBRANCH   1  27
TORSDOF 16
ENDMDL
MODEL 2
REMARK VINA RESULT: -9.204066508      2.205     10.250
REMARK  16 active torsions:
REMARK  status: ('A' for Active; 'I' for Inactive)
REMARK    1  A    between atoms: C2_2  and  C3_3 
REMARK    2  A    between atoms: C3_3  and  N1_4 
REMARK    3  A    between atoms: N1_4  and  C4_6 
REMARK    4  A    between atoms: C4_6  and  C5_7 
REMARK    5  A    between atoms: C4_6  and  C21_27 
REMARK    6  A    between atoms: C9_11  and  C10_12 
REMARK    7  A    between atoms: C10_12  and  O1_13 
REMARK    8  A    between atoms: O1_13  and  C11_14 
REMARK    9  A    between atoms: C11_14  and  C12_15 
REMARK   10  A    between atoms: C12_15  and  C13_16 
REMARK   11  A    between atoms: C13_16  and  C14_17 
REMARK   12  A    between atoms: C14_17  and  C15_18 
REMARK   13  A    between atoms: C26_32  and  C27_33 
REMARK   14  A    between atoms: C30_38  and  C31_39 
REMARK   15  A    between atoms: C33_41  and  O6_42 
REMARK   16  A    between atoms: C34_44  and  O7_46 
ROOT
HETATM    1  C4  UNL     1      16.130  23.396  16.804  1.00  0.00     0.029 C 
ENDROOT
BRANCH   1   2
HETATM    2  N1  UNL     1      15.602  23.270  17.882  1.00  0.00    -0.370 N 
ATOM      3  H1  UNL     1      14.919  24.025  17.932  1.00  0.00     0.165 HD
BRANCH   2   4
HETATM    4  C3  UNL     1      15.481  22.609  19.056  1.00  0.00     0.087 C 
BRANCH   4   5
HETATM    5  C2  UNL     1      16.647  21.807  19.498  1.00  0.00     0.007 C 
HETATM    6  C1  UNL     1      17.628  22.233  20.266  1.00  0.00     0.012 C 
ENDBRANCH   4   5
ENDBRANCH   2   4
ENDBRANCH   1   2
BRANCH   1   7
HETATM    7  C5  UNL     1      15.466  22.899  15.549  1.00  0.00     0.051 C 
HETATM    8  C6  UNL     1      14.338  23.790  15.139  1.00  0.00     0.012 C 
HETATM    9  C7  UNL     1      13.081  22.949  15.141  1.00  0.00     0.009 C 
HETATM   10  C8  UNL     1      13.451  21.730  16.012  1.00  0.00     0.034 C 
HETATM   11  C9  UNL     1      12.529  20.627  15.668  1.00  0.00     0.161 C 
HETATM   12  C19 UNL     1      14.893  21.551  15.567  1.00  0.00     0.042 C 
HETATM   13  O2  UNL     1      13.048  19.635  14.831  1.00  0.00    -0.307 OA
HETATM   14  C17 UNL     1      13.935  19.999  13.830  1.00  0.00     0.330 C 
HETATM   15  O3  UNL     1      13.988  19.376  12.721  1.00  0.00    -0.256 OA
HETATM   16  C18 UNL     1      14.802  21.129  14.112  1.00  0.00     0.233 C 
HETATM   17  O4  UNL     1      15.431  21.717  13.235  1.00  0.00    -0.286 OA
HETATM   18  C20 UNL     1      15.591  20.455  16.264  1.00  0.00     0.025 C 
BRANCH  11  19
HETATM   19  C10 UNL     1      12.045  19.904  16.934  1.00  0.00     0.200 C 
BRANCH  19  20
HETATM   20  O1  UNL     1      11.918  18.556  16.786  1.00  0.00    -0.389 OA
BRANCH  20  21
HETATM   21  C11 UNL     1      11.104  17.892  17.650  1.00  0.00     0.167 C 
BRANCH  21  22
HETATM   22  C12 UNL     1      11.314  18.239  19.106  1.00  0.00     0.026 C 
BRANCH  22  23
HETATM   23  C13 UNL     1      12.334  17.327  19.706  1.00  0.00     0.002 C 
BRANCH  23  24
HETATM   24  C14 UNL     1      13.427  18.169  20.303  1.00  0.00    -0.000 C 
BRANCH  24  25
HETATM   25  C15 UNL     1      14.465  18.565  19.274  1.00  0.00    -0.005 C 
HETATM   26  C16 UNL     1      14.840  17.442  18.369  1.00  0.00     0.005 C 
ENDBRANCH  24  25
ENDBRANCH  23  24
ENDBRANCH  22  23
ENDBRANCH  21  22
ENDBRANCH  20  21
ENDBRANCH  19  20
ENDBRANCH  11  19
ENDBRANCH   1   7
BRANCH   1  27
HETATM   27  C21 UNL     1      17.457  24.049  16.625  1.00  0.00     0.127 A 
HETATM   28  C22 UNL     1      17.635  25.489  16.917  1.00  0.00     0.055 C 
HETATM   29  C23 UNL     1      19.166  25.720  17.007  1.00  0.00     0.032 C 
HETATM   30  C24 UNL     1      19.432  24.501  17.775  1.00  0.00     0.026 C 
HETATM   31  C34 UNL     1      19.804  26.178  15.821  1.00  0.00     0.085 C 
HETATM   32  C25 UNL     1      20.756  24.217  18.317  1.00  0.00     0.024 C 
HETATM   33  C36 UNL     1      18.721  23.343  17.120  1.00  0.00     0.168 A 
HETATM   34  C26 UNL     1      21.317  25.494  18.927  1.00  0.00     0.080 C 
HETATM   35  C29 UNL     1      21.870  26.355  17.850  1.00  0.00     0.141 C 
HETATM   36  O5  UNL     1      22.010  27.515  18.236  1.00  0.00    -0.297 OA
HETATM   37  C30 UNL     1      22.269  26.117  16.466  1.00  0.00     0.087 C 
HETATM   38  C33 UNL     1      21.213  25.811  15.495  1.00  0.00     0.163 C 
HETATM   39  O8  UNL     1      18.338  23.336  15.841  1.00  0.00    -0.362 OA
HETATM   40  C35 UNL     1      19.098  25.975  14.469  1.00  0.00     0.049 C 
BRANCH  34  41
HETATM   41  C27 UNL     1      22.437  25.187  19.858  1.00  0.00    -0.000 C 
HETATM   42  C28 UNL     1      22.179  24.472  20.930  1.00  0.00     0.096 C 
HETATM   43  N2  UNL     1      23.237  24.172  21.826  1.00  0.00    -0.115 NA
ENDBRANCH  34  41
BRANCH  37  44
HETATM   44  C31 UNL     1      23.184  27.282  16.057  1.00  0.00     0.010 C 
HETATM   45  C32 UNL     1      24.590  26.800  15.904  1.00  0.00     0.006 C 
ENDBRANCH  37  44
BRANCH  38  46
HETATM   46  O6  UNL     1      21.344  24.532  14.897  1.00  0.00    -0.392 OA
ATOM     47  H6  UNL     1      21.967  24.509  14.181  1.00  0.00     0.210 HD
ENDBRANCH  38  46
BRANCH  31  48
HETATM   48  O7  UNL     1      19.876  27.617  15.878  1.00  0.00    -0.387 OA
ATOM     49  H7  UNL     1      20.792  27.867  15.870  1.00  0.00     0.210 HD
ENDBRANCH  31  48
ENDBRANCH   1  27
TORSDOF 16
ENDMDL
MODEL 3
REMARK VINA RESULT: -9.061438162      1.129      2.231
REMARK  16 active torsions:
REMARK  status: ('A' for Active; 'I' for Inactive)
REMARK    1  A    between atoms: C2_2  and  C3_3 
REMARK    2  A    between atoms: C3_3  and  N1_4 
REMARK    3  A    between atoms: N1_4  and  C4_6 
REMARK    4  A    between atoms: C4_6  and  C5_7 
REMARK    5  A    between atoms: C4_6  and  C21_27 
REMARK    6  A    between atoms: C9_11  and  C10_12 
REMARK    7  A    between atoms: C10_12  and  O1_13 
REMARK    8  A    between atoms: O1_13  and  C11_14 
REMARK    9  A    between atoms: C11_14  and  C12_15 
REMARK   10  A    between atoms: C12_15  and  C13_16 
REMARK   11  A    between atoms: C13_16  and  C14_17 
REMARK   12  A    between atoms: C14_17  and  C15_18 
REMARK   13  A    between atoms: C26_32  and  C27_33 
REMARK   14  A    between atoms: C30_38  and  C31_39 
REMARK   15  A    between atoms: C33_41  and  O6_42 
REMARK   16  A    between atoms: C34_44  and  O7_46 
ROOT
HETATM    1  C4  UNL     1      16.935  22.014  18.445  1.00  0.00     0.029 C 
ENDROOT
BRANCH   1   2
HETATM    2  N1  UNL     1      17.445  22.314  19.496  1.00  0.00    -0.370 N 
ATOM      3  H1  UNL     1      17.216  23.299  19.630  1.00  0.00     0.165 HD
BRANCH   2   4
HETATM    4  C3  UNL     1      18.175  21.973  20.584  1.00  0.00     0.087 C 
BRANCH   4   5
HETATM    5  C2  UNL     1      19.591  21.602  20.351  1.00  0.00     0.007 C 
HETATM    6  C1  UNL     1      20.605  22.440  20.280  1.00  0.00     0.012 C 
ENDBRANCH   4   5
ENDBRANCH   2   4
ENDBRANCH   1   2
BRANCH   1   7
HETATM    7  C5  UNL     1      17.409  22.616  17.150  1.00  0.00     0.051 C 
HETATM    8  C6  UNL     1      18.626  21.917  16.636  1.00  0.00     0.012 C 
HETATM    9  C7  UNL     1      19.730  22.946  16.553  1.00  0.00     0.009 C 
HETATM   10  C8  UNL     1      19.245  24.087  17.471  1.00  0.00     0.034 C 
HETATM   11  C9  UNL     1      19.951  25.324  17.074  1.00  0.00     0.161 C 
HETATM   12  C19 UNL     1      17.762  24.037  17.145  1.00  0.00     0.042 C 
HETATM   13  O2  UNL     1      19.215  26.225  16.299  1.00  0.00    -0.307 OA
HETATM   14  C17 UNL     1      18.319  25.729  15.365  1.00  0.00     0.330 C 
HETATM   15  O3  UNL     1      18.079  26.341  14.275  1.00  0.00    -0.256 OA
HETATM   16  C18 UNL     1      17.666  24.475  15.696  1.00  0.00     0.233 C 
HETATM   17  O4  UNL     1      17.069  23.798  14.861  1.00  0.00    -0.286 OA
HETATM   18  C20 UNL     1      16.958  25.006  17.915  1.00  0.00     0.025 C 
BRANCH  11  19
HETATM   19  C10 UNL     1      20.415  26.108  18.311  1.00  0.00     0.200 C 
BRANCH  19  20
HETATM   20  O1  UNL     1      21.346  27.066  18.040  1.00  0.00    -0.389 OA
BRANCH  20  21
HETATM   21  C11 UNL     1      22.647  26.793  18.327  1.00  0.00     0.167 C 
BRANCH  21  22
HETATM   22  C12 UNL     1      22.850  25.807  19.455  1.00  0.00     0.026 C 
BRANCH  22  23
HETATM   23  C13 UNL     1      24.181  25.143  19.318  1.00  0.00     0.002 C 
BRANCH  23  24
HETATM   24  C14 UNL     1      24.263  24.038  20.334  1.00  0.00    -0.000 C 
BRANCH  24  25
HETATM   25  C15 UNL     1      23.464  24.352  21.581  1.00  0.00    -0.005 C 
HETATM   26  C16 UNL     1      24.304  24.383  22.812  1.00  0.00     0.005 C 
ENDBRANCH  24  25
ENDBRANCH  23  24
ENDBRANCH  22  23
ENDBRANCH  21  22
ENDBRANCH  20  21
ENDBRANCH  19  20
ENDBRANCH  11  19
ENDBRANCH   1   7
BRANCH   1  27
HETATM   27  C21 UNL     1      15.818  21.035  18.339  1.00  0.00     0.127 A 
HETATM   28  C22 UNL     1      14.568  21.229  19.109  1.00  0.00     0.055 C 
HETATM   29  C23 UNL     1      13.521  20.282  18.468  1.00  0.00     0.032 C 
HETATM   30  C24 UNL     1      13.905  20.585  17.088  1.00  0.00     0.026 C 
HETATM   31  C34 UNL     1      13.361  19.010  19.086  1.00  0.00     0.085 C 
HETATM   32  C25 UNL     1      13.140  20.075  15.955  1.00  0.00     0.024 C 
HETATM   33  C36 UNL     1      15.406  20.501  16.966  1.00  0.00     0.168 A 
HETATM   34  C26 UNL     1      11.656  20.234  16.258  1.00  0.00     0.080 C 
HETATM   35  C29 UNL     1      11.210  19.129  17.143  1.00  0.00     0.141 C 
HETATM   36  O5  UNL     1      10.140  19.398  17.687  1.00  0.00    -0.297 OA
HETATM   37  C30 UNL     1      11.764  17.824  17.493  1.00  0.00     0.087 C 
HETATM   38  C33 UNL     1      12.988  17.797  18.301  1.00  0.00     0.163 C 
HETATM   39  O8  UNL     1      16.181  19.815  17.809  1.00  0.00    -0.362 OA
HETATM   40  C35 UNL     1      14.486  18.474  19.989  1.00  0.00     0.049 C 
BRANCH  34  41
HETATM   41  C27 UNL     1      10.851  20.147  15.010  1.00  0.00    -0.000 C 
HETATM   42  C28 UNL     1       9.774  20.894  14.908  1.00  0.00     0.096 C 
HETATM   43  N2  UNL     1       8.997  20.819  13.723  1.00  0.00    -0.115 NA
ENDBRANCH  34  41
BRANCH  37  44
HETATM   44  C31 UNL     1      10.610  16.987  18.068  1.00  0.00     0.010 C 
HETATM   45  C32 UNL     1      10.731  15.568  17.614  1.00  0.00     0.006 C 
ENDBRANCH  37  44
BRANCH  38  46
HETATM   46  O6  UNL     1      14.085  17.181  17.649  1.00  0.00    -0.392 OA
ATOM     47  H6  UNL     1      13.893  16.902  16.762  1.00  0.00     0.210 HD
ENDBRANCH  38  46
BRANCH  31  48
HETATM   48  O7  UNL     1      12.275  19.102  20.028  1.00  0.00    -0.387 OA
ATOM     49  H7  UNL     1      12.480  19.792  20.647  1.00  0.00     0.210 HD
ENDBRANCH  31  48
ENDBRANCH   1  27
TORSDOF 16
ENDMDL
MODEL 4
REMARK VINA RESULT: -9.007105677      2.774     10.855
REMARK  16 active torsions:
REMARK  status: ('A' for Active; 'I' for Inactive)
REMARK    1  A    between atoms: C2_2  and  C3_3 
REMARK    2  A    between atoms: C3_3  and  N1_4 
REMARK    3  A    between atoms: N1_4  and  C4_6 
REMARK    4  A    between atoms: C4_6  and  C5_7 
REMARK    5  A    between atoms: C4_6  and  C21_27 
REMARK    6  A    between atoms: C9_11  and  C10_12 
REMARK    7  A    between atoms: C10_12  and  O1_13 
REMARK    8  A    between atoms: O1_13  and  C11_14 
REMARK    9  A    between atoms: C11_14  and  C12_15 
REMARK   10  A    between atoms: C12_15  and  C13_16 
REMARK   11  A    between atoms: C13_16  and  C14_17 
REMARK   12  A    between atoms: C14_17  and  C15_18 
REMARK   13  A    between atoms: C26_32  and  C27_33 
REMARK   14  A    between atoms: C30_38  and  C31_39 
REMARK   15  A    between atoms: C33_41  and  O6_42 
REMARK   16  A    between atoms: C34_44  and  O7_46 
ROOT
HETATM    1  C4  UNL     1      18.263  23.733  19.089  1.00  0.00     0.029 C 
ENDROOT
BRANCH   1   2
HETATM    2  N1  UNL     1      17.851  23.165  20.071  1.00  0.00    -0.370 N 
ATOM      3  H1  UNL     1      17.258  23.847  20.543  1.00  0.00     0.165 HD
BRANCH   2   4
HETATM    4  C3  UNL     1      17.796  22.057  20.846  1.00  0.00     0.087 C 
BRANCH   4   5
HETATM    5  C2  UNL     1      19.069  21.329  21.066  1.00  0.00     0.007 C 
HETATM    6  C1  UNL     1      20.059  21.725  21.840  1.00  0.00     0.012 C 
ENDBRANCH   4   5
ENDBRANCH   2   4
ENDBRANCH   1   2
BRANCH   1   7
HETATM    7  C5  UNL     1      17.448  23.797  17.827  1.00  0.00     0.051 C 
HETATM    8  C6  UNL     1      16.146  24.497  18.053  1.00  0.00     0.012 C 
HETATM    9  C7  UNL     1      15.047  23.513  17.723  1.00  0.00     0.009 C 
HETATM   10  C8  UNL     1      15.748  22.140  17.780  1.00  0.00     0.034 C 
HETATM   11  C9  UNL     1      14.944  21.184  16.989  1.00  0.00     0.161 C 
HETATM   12  C19 UNL     1      17.087  22.534  17.180  1.00  0.00     0.042 C 
HETATM   13  O2  UNL     1      15.429  20.888  15.712  1.00  0.00    -0.307 OA
HETATM   14  C17 UNL     1      16.045  21.892  14.979  1.00  0.00     0.330 C 
HETATM   15  O3  UNL     1      15.971  21.938  13.710  1.00  0.00    -0.256 OA
HETATM   16  C18 UNL     1      16.780  22.888  15.738  1.00  0.00     0.233 C 
HETATM   17  O4  UNL     1      17.137  23.960  15.252  1.00  0.00    -0.286 OA
HETATM   18  C20 UNL     1      18.056  21.423  17.126  1.00  0.00     0.025 C 
BRANCH  11  19
HETATM   19  C10 UNL     1      14.822  19.838  17.719  1.00  0.00     0.200 C 
BRANCH  19  20
HETATM   20  O1  UNL     1      14.868  19.940  19.076  1.00  0.00    -0.389 OA
BRANCH  20  21
HETATM   21  C11 UNL     1      13.744  19.635  19.779  1.00  0.00     0.167 C 
BRANCH  21  22
HETATM   22  C12 UNL     1      13.793  18.309  20.502  1.00  0.00     0.026 C 
BRANCH  22  23
HETATM   23  C13 UNL     1      12.712  17.411  19.994  1.00  0.00     0.002 C 
BRANCH  23  24
HETATM   24  C14 UNL     1      11.565  18.266  19.534  1.00  0.00    -0.000 C 
BRANCH  24  25
HETATM   25  C15 UNL     1      10.966  17.765  18.236  1.00  0.00    -0.005 C 
HETATM   26  C16 UNL     1      11.718  16.613  17.661  1.00  0.00     0.005 C 
ENDBRANCH  24  25
ENDBRANCH  23  24
ENDBRANCH  22  23
ENDBRANCH  21  22
ENDBRANCH  20  21
ENDBRANCH  19  20
ENDBRANCH  11  19
ENDBRANCH   1   7
BRANCH   1  27
HETATM   27  C21 UNL     1      19.588  24.413  19.046  1.00  0.00     0.127 A 
HETATM   28  C22 UNL     1      19.960  25.408  20.077  1.00  0.00     0.055 C 
HETATM   29  C23 UNL     1      21.494  25.597  19.954  1.00  0.00     0.032 C 
HETATM   30  C24 UNL     1      21.783  24.170  19.787  1.00  0.00     0.026 C 
HETATM   31  C34 UNL     1      21.932  26.690  19.156  1.00  0.00     0.085 C 
HETATM   32  C25 UNL     1      23.152  23.669  19.761  1.00  0.00     0.024 C 
HETATM   33  C36 UNL     1      20.848  23.599  18.750  1.00  0.00     0.168 A 
HETATM   34  C26 UNL     1      23.945  24.358  20.863  1.00  0.00     0.080 C 
HETATM   35  C29 UNL     1      24.359  25.708  20.405  1.00  0.00     0.141 C 
HETATM   36  O5  UNL     1      24.685  26.420  21.355  1.00  0.00    -0.297 OA
HETATM   37  C30 UNL     1      24.457  26.350  19.097  1.00  0.00     0.087 C 
HETATM   38  C33 UNL     1      23.207  26.639  18.384  1.00  0.00     0.163 C 
HETATM   39  O8  UNL     1      20.226  24.335  17.826  1.00  0.00    -0.362 OA
HETATM   40  C35 UNL     1      20.960  27.300  18.131  1.00  0.00     0.049 C 
BRANCH  34  41
HETATM   41  C27 UNL     1      25.188  23.601  21.172  1.00  0.00    -0.000 C 
HETATM   42  C28 UNL     1      25.938  23.197  20.172  1.00  0.00     0.096 C 
HETATM   43  N2  UNL     1      27.126  22.474  20.453  1.00  0.00    -0.115 NA
ENDBRANCH  34  41
BRANCH  37  44
HETATM   44  C31 UNL     1      25.385  27.564  19.261  1.00  0.00     0.010 C 
HETATM   45  C32 UNL     1      26.646  27.352  18.488  1.00  0.00     0.006 C 
ENDBRANCH  37  44
BRANCH  38  46
HETATM   46  O6  UNL     1      23.093  25.967  17.142  1.00  0.00    -0.392 OA
ATOM     47  H6  UNL     1      22.353  25.373  17.096  1.00  0.00     0.210 HD
ENDBRANCH  38  46
BRANCH  31  48
HETATM   48  O7  UNL     1      22.154  27.818  20.026  1.00  0.00    -0.387 OA
ATOM     49  H7  UNL     1      21.437  28.429  19.906  1.00  0.00     0.210 HD
ENDBRANCH  31  48
ENDBRANCH   1  27
TORSDOF 16
ENDMDL
MODEL 5
REMARK VINA RESULT: -8.781662654      1.611      3.106
REMARK  16 active torsions:
REMARK  status: ('A' for Active; 'I' for Inactive)
REMARK    1  A    between atoms: C2_2  and  C3_3 
REMARK    2  A    between atoms: C3_3  and  N1_4 
REMARK    3  A    between atoms: N1_4  and  C4_6 
REMARK    4  A    between atoms: C4_6  and  C5_7 
REMARK    5  A    between atoms: C4_6  and  C21_27 
REMARK    6  A    between atoms: C9_11  and  C10_12 
REMARK    7  A    between atoms: C10_12  and  O1_13 
REMARK    8  A    between atoms: O1_13  and  C11_14 
REMARK    9  A    between atoms: C11_14  and  C12_15 
REMARK   10  A    between atoms: C12_15  and  C13_16 
REMARK   11  A    between atoms: C13_16  and  C14_17 
REMARK   12  A    between atoms: C14_17  and  C15_18 
REMARK   13  A    between atoms: C26_32  and  C27_33 
REMARK   14  A    between atoms: C30_38  and  C31_39 
REMARK   15  A    between atoms: C33_41  and  O6_42 
REMARK   16  A    between atoms: C34_44  and  O7_46 
ROOT
HETATM    1  C4  UNL     1      16.355  22.390  18.119  1.00  0.00     0.029 C 
ENDROOT
BRANCH   1   2
HETATM    2  N1  UNL     1      16.195  23.345  17.400  1.00  0.00    -0.370 N 
ATOM      3  H1  UNL     1      16.145  24.145  18.030  1.00  0.00     0.165 HD
BRANCH   2   4
HETATM    4  C3  UNL     1      16.049  23.867  16.159  1.00  0.00     0.087 C 
BRANCH   4   5
HETATM    5  C2  UNL     1      16.662  23.113  15.039  1.00  0.00     0.007 C 
HETATM    6  C1  UNL     1      16.023  22.317  14.206  1.00  0.00     0.012 C 
ENDBRANCH   4   5
ENDBRANCH   2   4
ENDBRANCH   1   2
BRANCH   1   7
HETATM    7  C5  UNL     1      17.495  22.336  19.100  1.00  0.00     0.051 C 
HETATM    8  C6  UNL     1      17.165  23.072  20.359  1.00  0.00     0.012 C 
HETATM    9  C7  UNL     1      18.186  24.178  20.509  1.00  0.00     0.009 C 
HETATM   10  C8  UNL     1      18.772  24.338  19.091  1.00  0.00     0.034 C 
HETATM   11  C9  UNL     1      20.094  24.988  19.214  1.00  0.00     0.161 C 
HETATM   12  C19 UNL     1      18.788  22.876  18.676  1.00  0.00     0.042 C 
HETATM   13  O2  UNL     1      21.202  24.143  19.103  1.00  0.00    -0.307 OA
HETATM   14  C17 UNL     1      21.122  22.860  19.622  1.00  0.00     0.330 C 
HETATM   15  O3  UNL     1      22.139  22.268  20.107  1.00  0.00    -0.256 OA
HETATM   16  C18 UNL     1      19.817  22.226  19.581  1.00  0.00     0.233 C 
HETATM   17  O4  UNL     1      19.548  21.221  20.237  1.00  0.00    -0.286 OA
HETATM   18  C20 UNL     1      19.268  22.662  17.298  1.00  0.00     0.025 C 
BRANCH  11  19
HETATM   19  C10 UNL     1      20.274  26.069  18.138  1.00  0.00     0.200 C 
BRANCH  19  20
HETATM   20  O1  UNL     1      19.257  26.123  17.234  1.00  0.00    -0.389 OA
BRANCH  20  21
HETATM   21  C11 UNL     1      19.578  26.197  15.914  1.00  0.00     0.167 C 
BRANCH  21  22
HETATM   22  C12 UNL     1      20.708  25.290  15.488  1.00  0.00     0.026 C 
BRANCH  22  23
HETATM   23  C13 UNL     1      21.642  26.029  14.585  1.00  0.00     0.002 C 
BRANCH  23  24
HETATM   24  C14 UNL     1      21.002  27.336  14.211  1.00  0.00    -0.000 C 
BRANCH  24  25
HETATM   25  C15 UNL     1      22.029  28.420  13.957  1.00  0.00    -0.005 C 
HETATM   26  C16 UNL     1      22.878  28.702  15.149  1.00  0.00     0.005 C 
ENDBRANCH  24  25
ENDBRANCH  23  24
ENDBRANCH  22  23
ENDBRANCH  21  22
ENDBRANCH  20  21
ENDBRANCH  19  20
ENDBRANCH  11  19
ENDBRANCH   1   7
BRANCH   1  27
HETATM   27  C21 UNL     1      15.453  21.205  18.102  1.00  0.00     0.127 A 
HETATM   28  C22 UNL     1      14.137  21.248  18.780  1.00  0.00     0.055 C 
HETATM   29  C23 UNL     1      13.335  20.039  18.233  1.00  0.00     0.032 C 
HETATM   30  C24 UNL     1      13.753  20.230  16.842  1.00  0.00     0.026 C 
HETATM   31  C34 UNL     1      13.374  18.852  19.016  1.00  0.00     0.085 C 
HETATM   32  C25 UNL     1      13.181  19.437  15.759  1.00  0.00     0.024 C 
HETATM   33  C36 UNL     1      15.248  20.427  16.801  1.00  0.00     0.168 A 
HETATM   34  C26 UNL     1      11.676  19.340  15.969  1.00  0.00     0.080 C 
HETATM   35  C29 UNL     1      11.384  18.293  16.981  1.00  0.00     0.141 C 
HETATM   36  O5  UNL     1      10.246  18.416  17.433  1.00  0.00    -0.297 OA
HETATM   37  C30 UNL     1      12.146  17.179  17.536  1.00  0.00     0.087 C 
HETATM   38  C33 UNL     1      13.293  17.498  18.395  1.00  0.00     0.163 C 
HETATM   39  O8  UNL     1      16.076  20.022  17.767  1.00  0.00    -0.362 OA
HETATM   40  C35 UNL     1      14.511  18.670  20.035  1.00  0.00     0.049 C 
BRANCH  34  41
HETATM   41  C27 UNL     1      10.993  18.935  14.711  1.00  0.00    -0.000 C 
HETATM   42  C28 UNL     1       9.889  19.562  14.369  1.00  0.00     0.096 C 
HETATM   43  N2  UNL     1       9.228  19.185  13.173  1.00  0.00    -0.115 NA
ENDBRANCH  34  41
BRANCH  37  44
HETATM   44  C31 UNL     1      11.132  16.214  18.171  1.00  0.00     0.010 C 
HETATM   45  C32 UNL     1      10.765  15.142  17.196  1.00  0.00     0.006 C 
ENDBRANCH  37  44
BRANCH  38  46
HETATM   46  O6  UNL     1      14.530  17.030  17.887  1.00  0.00    -0.392 OA
ATOM     47  H6  UNL     1      15.178  17.715  17.772  1.00  0.00     0.210 HD
ENDBRANCH  38  46
BRANCH  31  48
HETATM   48  O7  UNL     1      12.225  18.851  19.885  1.00  0.00    -0.387 OA
ATOM     49  H7  UNL     1      12.264  18.070  20.425  1.00  0.00     0.210 HD
ENDBRANCH  31  48
ENDBRANCH   1  27
TORSDOF 16
ENDMDL
