MODEL 1
REMARK VINA RESULT: -8.023934488      0.000      0.000
REMARK  17 active torsions:
REMARK  status: ('A' for Active; 'I' for Inactive)
REMARK    1  A    between atoms: C2_2  and  C4_4 
REMARK    2  A    between atoms: C8_8  and  C9_9 
REMARK       I    between atoms: C9_9  and  N1_11 
REMARK    3  A    between atoms: N1_11  and  C10_13 
REMARK    4  A    between atoms: C10_13  and  C11_15 
REMARK    5  A    between atoms: C11_15  and  O2_16 
REMARK    6  A    between atoms: C11_15  and  N2_18 
REMARK    7  A    between atoms: N3_21  and  C14_22 
REMARK    8  A    between atoms: C14_22  and  C15_23 
REMARK    9  A    between atoms: C15_23  and  C16_24 
REMARK   10  A    between atoms: C16_24  and  C17_25 
REMARK   11  A    between atoms: C17_25  and  C18_26 
REMARK   12  A    between atoms: C18_26  and  C19_27 
REMARK   13  A    between atoms: C19_27  and  C20_28 
REMARK   14  A    between atoms: N4_32  and  C23_33 
REMARK   15  A    between atoms: C23_33  and  S1_34 
REMARK   16  A    between atoms: S1_34  and  C24_35 
REMARK   17  A    between atoms: C24_35  and  C25_36 
ROOT
HETATM    1  C9  UNL     1      19.145  31.986  15.781  1.00  0.00     0.243 C 
HETATM    2  O1  UNL     1      18.749  31.559  16.890  1.00  0.00    -0.271 OA
HETATM    3  N1  UNL     1      19.618  31.083  14.829  1.00  0.00    -0.325 N 
ATOM      4  H1  UNL     1      19.932  31.464  13.937  1.00  0.00     0.165 HD
ENDROOT
BRANCH   3   5
HETATM    5  C10 UNL     1      19.701  29.652  15.007  1.00  0.00     0.321 C 
HETATM    6  F1  UNL     1      20.126  29.370  16.273  1.00  0.00    -0.222 F 
BRANCH   5   7
HETATM    7  C11 UNL     1      20.541  28.966  13.996  1.00  0.00     0.277 C 
BRANCH   7   8
HETATM    8  O2  UNL     1      21.737  28.469  14.541  1.00  0.00    -0.372 OA
ATOM      9  H2  UNL     1      21.937  27.591  14.236  1.00  0.00     0.212 HD
ENDBRANCH   7   8
BRANCH   7  10
HETATM   10  N2  UNL     1      19.871  28.018  13.190  1.00  0.00    -0.337 N 
HETATM   11  C12 UNL     1      18.482  27.848  13.311  1.00  0.00     0.086 C 
HETATM   12  C13 UNL     1      17.707  27.842  11.990  1.00  0.00     0.167 C 
HETATM   13  N3  UNL     1      18.318  27.018  11.025  1.00  0.00    -0.384 N 
HETATM   14  C21 UNL     1      19.629  26.595  11.269  1.00  0.00     0.103 C 
HETATM   15  C22 UNL     1      20.403  27.713  11.926  1.00  0.00     0.110 C 
BRANCH  13  16
HETATM   16  C14 UNL     1      17.893  27.210   9.672  1.00  0.00     0.122 C 
BRANCH  16  17
HETATM   17  C15 UNL     1      17.401  25.985   8.991  1.00  0.00     0.020 C 
BRANCH  17  18
HETATM   18  C16 UNL     1      17.673  26.055   7.516  1.00  0.00     0.002 C 
BRANCH  18  19
HETATM   19  C17 UNL     1      18.629  27.159   7.169  1.00  0.00     0.000 C 
BRANCH  19  20
HETATM   20  C18 UNL     1      18.578  27.454   5.693  1.00  0.00     0.001 C 
BRANCH  20  21
HETATM   21  C19 UNL     1      17.393  26.757   5.036  1.00  0.00     0.011 C 
BRANCH  21  22
HETATM   22  C20 UNL     1      16.815  27.646   3.932  1.00  0.00     0.085 C 
HETATM   23 BR1  UNL     1      16.922  29.497   4.450  1.00  0.00    -0.097 Br
ENDBRANCH  21  22
ENDBRANCH  20  21
ENDBRANCH  19  20
ENDBRANCH  18  19
ENDBRANCH  17  18
ENDBRANCH  16  17
ENDBRANCH  13  16
ENDBRANCH   7  10
ENDBRANCH   5   7
ENDBRANCH   3   5
BRANCH   1  24
HETATM   24  C8  UNL     1      19.083  33.445  15.552  1.00  0.00     0.184 C 
HETATM   25  C7  UNL     1      17.900  33.840  14.714  1.00  0.00     0.035 C 
HETATM   26  C6  UNL     1      16.602  33.251  15.139  1.00  0.00     0.003 C 
HETATM   27  C5  UNL     1      16.100  33.690  16.467  1.00  0.00     0.014 C 
HETATM   28  C4  UNL     1      16.678  34.992  16.966  1.00  0.00     0.082 C 
HETATM   29  C26 UNL     1      18.022  34.706  17.529  1.00  0.00     0.229 C 
HETATM   30  N4  UNL     1      19.125  34.203  16.803  1.00  0.00    -0.308 N 
HETATM   31  O5  UNL     1      18.236  34.912  18.731  1.00  0.00    -0.273 OA
BRANCH  28  32
HETATM   32  C2  UNL     1      15.726  35.580  17.953  1.00  0.00    -0.010 C 
HETATM   33  C1  UNL     1      14.321  35.057  17.769  1.00  0.00     0.010 C 
HETATM   34  C3  UNL     1      15.780  37.088  18.016  1.00  0.00     0.010 C 
ENDBRANCH  28  32
BRANCH  30  35
HETATM   35  C23 UNL     1      20.435  34.443  17.317  1.00  0.00     0.140 C 
BRANCH  35  36
HETATM   36  S1  UNL     1      21.672  34.907  16.120  1.00  0.00    -0.114 SA
BRANCH  36  37
HETATM   37  C24 UNL     1      23.037  33.782  15.935  1.00  0.00     0.193 C 
BRANCH  37  38
HETATM   38  C25 UNL     1      22.759  32.788  14.892  1.00  0.00     0.182 C 
HETATM   39  O3  UNL     1      22.601  33.193  13.699  1.00  0.00    -0.647 OA
HETATM   40  O4  UNL     1      22.670  31.434  15.205  1.00  0.00    -0.647 OA
ENDBRANCH  37  38
ENDBRANCH  36  37
ENDBRANCH  35  36
ENDBRANCH  30  35
ENDBRANCH   1  24
TORSDOF 17
ENDMDL
MODEL 2
REMARK VINA RESULT: -7.955653295      1.354      1.583
REMARK  17 active torsions:
REMARK  status: ('A' for Active; 'I' for Inactive)
REMARK    1  A    between atoms: C2_2  and  C4_4 
REMARK    2  A    between atoms: C8_8  and  C9_9 
REMARK       I    between atoms: C9_9  and  N1_11 
REMARK    3  A    between atoms: N1_11  and  C10_13 
REMARK    4  A    between atoms: C10_13  and  C11_15 
REMARK    5  A    between atoms: C11_15  and  O2_16 
REMARK    6  A    between atoms: C11_15  and  N2_18 
REMARK    7  A    between atoms: N3_21  and  C14_22 
REMARK    8  A    between atoms: C14_22  and  C15_23 
REMARK    9  A    between atoms: C15_23  and  C16_24 
REMARK   10  A    between atoms: C16_24  and  C17_25 
REMARK   11  A    between atoms: C17_25  and  C18_26 
REMARK   12  A    between atoms: C18_26  and  C19_27 
REMARK   13  A    between atoms: C19_27  and  C20_28 
REMARK   14  A    between atoms: N4_32  and  C23_33 
REMARK   15  A    between atoms: C23_33  and  S1_34 
REMARK   16  A    between atoms: S1_34  and  C24_35 
REMARK   17  A    between atoms: C24_35  and  C25_36 
ROOT
HETATM    1  C9  UNL     1      19.178  32.104  15.734  1.00  0.00     0.243 C 
HETATM    2  O1  UNL     1      18.707  31.608  16.783  1.00  0.00    -0.271 OA
HETATM    3  N1  UNL     1      19.767  31.269  14.786  1.00  0.00    -0.325 N 
ATOM      4  H1  UNL     1      20.139  31.705  13.942  1.00  0.00     0.165 HD
ENDROOT
BRANCH   3   5
HETATM    5  C10 UNL     1      19.894  29.834  14.903  1.00  0.00     0.321 C 
HETATM    6  F1  UNL     1      20.219  29.506  16.187  1.00  0.00    -0.222 F 
BRANCH   5   7
HETATM    7  C11 UNL     1      20.847  29.232  13.940  1.00  0.00     0.277 C 
BRANCH   7   8
HETATM    8  O2  UNL     1      22.086  28.928  14.530  1.00  0.00    -0.372 OA
ATOM      9  H2  UNL     1      22.563  29.707  14.793  1.00  0.00     0.212 HD
ENDBRANCH   7   8
BRANCH   7  10
HETATM   10  N2  UNL     1      20.336  28.169  13.163  1.00  0.00    -0.337 N 
HETATM   11  C12 UNL     1      18.951  27.931  13.119  1.00  0.00     0.086 C 
HETATM   12  C13 UNL     1      18.365  27.744  11.717  1.00  0.00     0.167 C 
HETATM   13  N3  UNL     1      19.138  26.861  10.936  1.00  0.00    -0.384 N 
HETATM   14  C21 UNL     1      20.421  26.543  11.395  1.00  0.00     0.103 C 
HETATM   15  C22 UNL     1      21.048  27.766  12.021  1.00  0.00     0.110 C 
BRANCH  13  16
HETATM   16  C14 UNL     1      18.894  26.887   9.527  1.00  0.00     0.122 C 
BRANCH  16  17
HETATM   17  C15 UNL     1      17.824  25.968   9.060  1.00  0.00     0.020 C 
BRANCH  17  18
HETATM   18  C16 UNL     1      17.647  26.075   7.573  1.00  0.00     0.002 C 
BRANCH  18  19
HETATM   19  C17 UNL     1      18.395  27.242   6.997  1.00  0.00     0.000 C 
BRANCH  19  20
HETATM   20  C18 UNL     1      18.911  26.910   5.621  1.00  0.00     0.001 C 
BRANCH  20  21
HETATM   21  C19 UNL     1      19.262  25.431   5.512  1.00  0.00     0.011 C 
BRANCH  21  22
HETATM   22  C20 UNL     1      20.783  25.258   5.499  1.00  0.00     0.085 C 
HETATM   23 BR1  UNL     1      21.420  24.885   7.277  1.00  0.00    -0.097 Br
ENDBRANCH  21  22
ENDBRANCH  20  21
ENDBRANCH  19  20
ENDBRANCH  18  19
ENDBRANCH  17  18
ENDBRANCH  16  17
ENDBRANCH  13  16
ENDBRANCH   7  10
ENDBRANCH   5   7
ENDBRANCH   3   5
BRANCH   1  24
HETATM   24  C8  UNL     1      19.074  33.569  15.569  1.00  0.00     0.184 C 
HETATM   25  C7  UNL     1      17.886  33.967  14.738  1.00  0.00     0.035 C 
HETATM   26  C6  UNL     1      16.603  33.322  15.126  1.00  0.00     0.003 C 
HETATM   27  C5  UNL     1      16.079  33.687  16.468  1.00  0.00     0.014 C 
HETATM   28  C4  UNL     1      16.615  34.982  17.028  1.00  0.00     0.082 C 
HETATM   29  C26 UNL     1      17.962  34.711  17.589  1.00  0.00     0.229 C 
HETATM   30  N4  UNL     1      19.085  34.272  16.852  1.00  0.00    -0.308 N 
HETATM   31  O5  UNL     1      18.161  34.870  18.801  1.00  0.00    -0.273 OA
BRANCH  28  32
HETATM   32  C2  UNL     1      15.638  35.498  18.032  1.00  0.00    -0.010 C 
HETATM   33  C1  UNL     1      14.236  35.001  17.769  1.00  0.00     0.010 C 
HETATM   34  C3  UNL     1      15.698  36.996  18.213  1.00  0.00     0.010 C 
ENDBRANCH  28  32
BRANCH  30  35
HETATM   35  C23 UNL     1      20.383  34.528  17.387  1.00  0.00     0.140 C 
BRANCH  35  36
HETATM   36  S1  UNL     1      21.620  35.058  16.218  1.00  0.00    -0.114 SA
BRANCH  36  37
HETATM   37  C24 UNL     1      23.022  33.980  16.024  1.00  0.00     0.193 C 
BRANCH  37  38
HETATM   38  C25 UNL     1      22.714  32.882  15.100  1.00  0.00     0.182 C 
HETATM   39  O3  UNL     1      22.826  31.689  15.521  1.00  0.00    -0.647 OA
HETATM   40  O4  UNL     1      22.310  33.143  13.794  1.00  0.00    -0.647 OA
ENDBRANCH  37  38
ENDBRANCH  36  37
ENDBRANCH  35  36
ENDBRANCH  30  35
ENDBRANCH   1  24
TORSDOF 17
ENDMDL
MODEL 3
REMARK VINA RESULT: -7.941995702      2.518      3.617
REMARK  17 active torsions:
REMARK  status: ('A' for Active; 'I' for Inactive)
REMARK    1  A    between atoms: C2_2  and  C4_4 
REMARK    2  A    between atoms: C8_8  and  C9_9 
REMARK       I    between atoms: C9_9  and  N1_11 
REMARK    3  A    between atoms: N1_11  and  C10_13 
REMARK    4  A    between atoms: C10_13  and  C11_15 
REMARK    5  A    between atoms: C11_15  and  O2_16 
REMARK    6  A    between atoms: C11_15  and  N2_18 
REMARK    7  A    between atoms: N3_21  and  C14_22 
REMARK    8  A    between atoms: C14_22  and  C15_23 
REMARK    9  A    between atoms: C15_23  and  C16_24 
REMARK   10  A    between atoms: C16_24  and  C17_25 
REMARK   11  A    between atoms: C17_25  and  C18_26 
REMARK   12  A    between atoms: C18_26  and  C19_27 
REMARK   13  A    between atoms: C19_27  and  C20_28 
REMARK   14  A    between atoms: N4_32  and  C23_33 
REMARK   15  A    between atoms: C23_33  and  S1_34 
REMARK   16  A    between atoms: S1_34  and  C24_35 
REMARK   17  A    between atoms: C24_35  and  C25_36 
ROOT
HETATM    1  C9  UNL     1      18.357  32.173  14.984  1.00  0.00     0.243 C 
HETATM    2  O1  UNL     1      17.991  31.554  16.010  1.00  0.00    -0.271 OA
HETATM    3  N1  UNL     1      18.556  31.472  13.795  1.00  0.00    -0.325 N 
ATOM      4  H1  UNL     1      18.853  32.006  12.979  1.00  0.00     0.165 HD
ENDROOT
BRANCH   3   5
HETATM    5  C10 UNL     1      18.377  30.047  13.628  1.00  0.00     0.321 C 
HETATM    6  F1  UNL     1      18.882  29.391  14.713  1.00  0.00    -0.222 F 
BRANCH   5   7
HETATM    7  C11 UNL     1      18.946  29.512  12.368  1.00  0.00     0.277 C 
BRANCH   7   8
HETATM    8  O2  UNL     1      20.350  29.473  12.386  1.00  0.00    -0.372 OA
ATOM      9  H2  UNL     1      20.720  29.301  11.528  1.00  0.00     0.212 HD
ENDBRANCH   7   8
BRANCH   7  10
HETATM   10  N2  UNL     1      18.371  28.307  11.905  1.00  0.00    -0.337 N 
HETATM   11  C12 UNL     1      17.544  28.313  10.769  1.00  0.00     0.086 C 
HETATM   12  C13 UNL     1      17.865  27.242   9.722  1.00  0.00     0.167 C 
HETATM   13  N3  UNL     1      18.053  25.974  10.306  1.00  0.00    -0.384 N 
HETATM   14  C21 UNL     1      18.229  25.917  11.692  1.00  0.00     0.103 C 
HETATM   15  C22 UNL     1      19.051  27.101  12.144  1.00  0.00     0.110 C 
BRANCH  13  16
HETATM   16  C14 UNL     1      18.695  24.992   9.487  1.00  0.00     0.122 C 
BRANCH  16  17
HETATM   17  C15 UNL     1      20.119  25.275   9.171  1.00  0.00     0.020 C 
BRANCH  17  18
HETATM   18  C16 UNL     1      21.013  24.230   9.775  1.00  0.00     0.002 C 
BRANCH  18  19
HETATM   19  C17 UNL     1      22.467  24.556   9.593  1.00  0.00     0.000 C 
BRANCH  19  20
HETATM   20  C18 UNL     1      22.987  25.321  10.782  1.00  0.00     0.001 C 
BRANCH  20  21
HETATM   21  C19 UNL     1      24.509  25.287  10.830  1.00  0.00     0.011 C 
BRANCH  21  22
HETATM   22  C20 UNL     1      25.034  26.546  11.525  1.00  0.00     0.085 C 
HETATM   23 BR1  UNL     1      23.591  27.784  11.828  1.00  0.00    -0.097 Br
ENDBRANCH  21  22
ENDBRANCH  20  21
ENDBRANCH  19  20
ENDBRANCH  18  19
ENDBRANCH  17  18
ENDBRANCH  16  17
ENDBRANCH  13  16
ENDBRANCH   7  10
ENDBRANCH   5   7
ENDBRANCH   3   5
BRANCH   1  24
HETATM   24  C8  UNL     1      18.556  33.633  15.105  1.00  0.00     0.184 C 
HETATM   25  C7  UNL     1      17.432  34.415  14.486  1.00  0.00     0.035 C 
HETATM   26  C6  UNL     1      16.067  33.969  14.872  1.00  0.00     0.003 C 
HETATM   27  C5  UNL     1      15.712  34.150  16.304  1.00  0.00     0.014 C 
HETATM   28  C4  UNL     1      16.541  35.174  17.039  1.00  0.00     0.082 C 
HETATM   29  C26 UNL     1      17.832  34.537  17.404  1.00  0.00     0.229 C 
HETATM   30  N4  UNL     1      18.791  34.045  16.489  1.00  0.00    -0.308 N 
HETATM   31  O5  UNL     1      18.131  34.404  18.598  1.00  0.00    -0.273 OA
BRANCH  28  32
HETATM   32  C2  UNL     1      15.757  35.657  18.213  1.00  0.00    -0.010 C 
HETATM   33  C1  UNL     1      14.268  35.560  17.981  1.00  0.00     0.010 C 
HETATM   34  C3  UNL     1      16.181  37.023  18.699  1.00  0.00     0.010 C 
ENDBRANCH  28  32
BRANCH  30  35
HETATM   35  C23 UNL     1      20.143  33.927  16.932  1.00  0.00     0.140 C 
BRANCH  35  36
HETATM   36  S1  UNL     1      21.397  34.253  15.706  1.00  0.00    -0.114 SA
BRANCH  36  37
HETATM   37  C24 UNL     1      22.501  32.906  15.344  1.00  0.00     0.193 C 
BRANCH  37  38
HETATM   38  C25 UNL     1      21.874  31.949  14.425  1.00  0.00     0.182 C 
HETATM   39  O3  UNL     1      21.630  30.776  14.848  1.00  0.00    -0.647 OA
HETATM   40  O4  UNL     1      21.555  32.318  13.121  1.00  0.00    -0.647 OA
ENDBRANCH  37  38
ENDBRANCH  36  37
ENDBRANCH  35  36
ENDBRANCH  30  35
ENDBRANCH   1  24
TORSDOF 17
ENDMDL
MODEL 4
REMARK VINA RESULT: -7.896503873      1.736      2.289
REMARK  17 active torsions:
REMARK  status: ('A' for Active; 'I' for Inactive)
REMARK    1  A    between atoms: C2_2  and  C4_4 
REMARK    2  A    between atoms: C8_8  and  C9_9 
REMARK       I    between atoms: C9_9  and  N1_11 
REMARK    3  A    between atoms: N1_11  and  C10_13 
REMARK    4  A    between atoms: C10_13  and  C11_15 
REMARK    5  A    between atoms: C11_15  and  O2_16 
REMARK    6  A    between atoms: C11_15  and  N2_18 
REMARK    7  A    between atoms: N3_21  and  C14_22 
REMARK    8  A    between atoms: C14_22  and  C15_23 
REMARK    9  A    between atoms: C15_23  and  C16_24 
REMARK   10  A    between atoms: C16_24  and  C17_25 
REMARK   11  A    between atoms: C17_25  and  C18_26 
REMARK   12  A    between atoms: C18_26  and  C19_27 
REMARK   13  A    between atoms: C19_27  and  C20_28 
REMARK   14  A    between atoms: N4_32  and  C23_33 
REMARK   15  A    between atoms: C23_33  and  S1_34 
REMARK   16  A    between atoms: S1_34  and  C24_35 
REMARK   17  A    between atoms: C24_35  and  C25_36 
ROOT
HETATM    1  C9  UNL     1      19.112  32.128  15.780  1.00  0.00     0.243 C 
HETATM    2  O1  UNL     1      18.634  31.654  16.837  1.00  0.00    -0.271 OA
HETATM    3  N1  UNL     1      19.693  31.271  14.847  1.00  0.00    -0.325 N 
ATOM      4  H1  UNL     1      20.071  31.690  13.997  1.00  0.00     0.165 HD
ENDROOT
BRANCH   3   5
HETATM    5  C10 UNL     1      19.801  29.837  14.986  1.00  0.00     0.321 C 
HETATM    6  F1  UNL     1      20.190  29.528  16.257  1.00  0.00    -0.222 F 
BRANCH   5   7
HETATM    7  C11 UNL     1      20.690  29.199  13.985  1.00  0.00     0.277 C 
BRANCH   7   8
HETATM    8  O2  UNL     1      21.897  28.751  14.548  1.00  0.00    -0.372 OA
ATOM      9  H2  UNL     1      22.350  29.435  15.027  1.00  0.00     0.212 HD
ENDBRANCH   7   8
BRANCH   7  10
HETATM   10  N2  UNL     1      20.079  28.231  13.158  1.00  0.00    -0.337 N 
HETATM   11  C12 UNL     1      18.731  27.885  13.357  1.00  0.00     0.086 C 
HETATM   12  C13 UNL     1      17.867  27.869  12.092  1.00  0.00     0.167 C 
HETATM   13  N3  UNL     1      18.499  27.188  11.032  1.00  0.00    -0.384 N 
HETATM   14  C21 UNL     1      19.864  26.914  11.159  1.00  0.00     0.103 C 
HETATM   15  C22 UNL     1      20.549  28.073  11.844  1.00  0.00     0.110 C 
BRANCH  13  16
HETATM   16  C14 UNL     1      17.957  27.413   9.728  1.00  0.00     0.122 C 
BRANCH  16  17
HETATM   17  C15 UNL     1      18.851  27.031   8.604  1.00  0.00     0.020 C 
BRANCH  17  18
HETATM   18  C16 UNL     1      18.049  26.707   7.377  1.00  0.00     0.002 C 
BRANCH  18  19
HETATM   19  C17 UNL     1      17.119  25.550   7.598  1.00  0.00     0.000 C 
BRANCH  19  20
HETATM   20  C18 UNL     1      17.865  24.247   7.483  1.00  0.00     0.001 C 
BRANCH  20  21
HETATM   21  C19 UNL     1      17.597  23.355   8.688  1.00  0.00     0.011 C 
BRANCH  21  22
HETATM   22  C20 UNL     1      18.621  23.647   9.789  1.00  0.00     0.085 C 
HETATM   23 BR1  UNL     1      17.772  23.580  11.515  1.00  0.00    -0.097 Br
ENDBRANCH  21  22
ENDBRANCH  20  21
ENDBRANCH  19  20
ENDBRANCH  18  19
ENDBRANCH  17  18
ENDBRANCH  16  17
ENDBRANCH  13  16
ENDBRANCH   7  10
ENDBRANCH   5   7
ENDBRANCH   3   5
BRANCH   1  24
HETATM   24  C8  UNL     1      19.027  33.592  15.593  1.00  0.00     0.184 C 
HETATM   25  C7  UNL     1      17.838  33.993  14.766  1.00  0.00     0.035 C 
HETATM   26  C6  UNL     1      16.549  33.372  15.174  1.00  0.00     0.003 C 
HETATM   27  C5  UNL     1      16.041  33.765  16.514  1.00  0.00     0.014 C 
HETATM   28  C4  UNL     1      16.599  35.061  17.049  1.00  0.00     0.082 C 
HETATM   29  C26 UNL     1      17.948  34.781  17.604  1.00  0.00     0.229 C 
HETATM   30  N4  UNL     1      19.058  34.315  16.865  1.00  0.00    -0.308 N 
HETATM   31  O5  UNL     1      18.159  34.956  18.812  1.00  0.00    -0.273 OA
BRANCH  28  32
HETATM   32  C2  UNL     1      15.639  35.606  18.053  1.00  0.00    -0.010 C 
HETATM   33  C1  UNL     1      14.221  35.161  17.782  1.00  0.00     0.010 C 
HETATM   34  C3  UNL     1      15.751  37.101  18.243  1.00  0.00     0.010 C 
ENDBRANCH  28  32
BRANCH  30  35
HETATM   35  C23 UNL     1      20.364  34.561  17.386  1.00  0.00     0.140 C 
BRANCH  35  36
HETATM   36  S1  UNL     1      21.610  35.011  16.192  1.00  0.00    -0.114 SA
BRANCH  36  37
HETATM   37  C24 UNL     1      22.978  33.886  16.032  1.00  0.00     0.193 C 
BRANCH  37  38
HETATM   38  C25 UNL     1      22.657  32.802  15.095  1.00  0.00     0.182 C 
HETATM   39  O3  UNL     1      22.792  31.603  15.491  1.00  0.00    -0.647 OA
HETATM   40  O4  UNL     1      22.216  33.084  13.806  1.00  0.00    -0.647 OA
ENDBRANCH  37  38
ENDBRANCH  36  37
ENDBRANCH  35  36
ENDBRANCH  30  35
ENDBRANCH   1  24
TORSDOF 17
ENDMDL
MODEL 5
REMARK VINA RESULT: -7.863857164      4.098      9.380
REMARK  17 active torsions:
REMARK  status: ('A' for Active; 'I' for Inactive)
REMARK    1  A    between atoms: C2_2  and  C4_4 
REMARK    2  A    between atoms: C8_8  and  C9_9 
REMARK       I    between atoms: C9_9  and  N1_11 
REMARK    3  A    between atoms: N1_11  and  C10_13 
REMARK    4  A    between atoms: C10_13  and  C11_15 
REMARK    5  A    between atoms: C11_15  and  O2_16 
REMARK    6  A    between atoms: C11_15  and  N2_18 
REMARK    7  A    between atoms: N3_21  and  C14_22 
REMARK    8  A    between atoms: C14_22  and  C15_23 
REMARK    9  A    between atoms: C15_23  and  C16_24 
REMARK   10  A    between atoms: C16_24  and  C17_25 
REMARK   11  A    between atoms: C17_25  and  C18_26 
REMARK   12  A    between atoms: C18_26  and  C19_27 
REMARK   13  A    between atoms: C19_27  and  C20_28 
REMARK   14  A    between atoms: N4_32  and  C23_33 
REMARK   15  A    between atoms: C23_33  and  S1_34 
REMARK   16  A    between atoms: S1_34  and  C24_35 
REMARK   17  A    between atoms: C24_35  and  C25_36 
ROOT
HETATM    1  C9  UNL     1      22.227  30.543  13.693  1.00  0.00     0.243 C 
HETATM    2  O1  UNL     1      21.774  31.064  12.647  1.00  0.00    -0.271 OA
HETATM    3  N1  UNL     1      22.796  31.356  14.672  1.00  0.00    -0.325 N 
ATOM      4  H1  UNL     1      23.153  30.900  15.511  1.00  0.00     0.165 HD
ENDROOT
BRANCH   3   5
HETATM    5  C10 UNL     1      22.920  32.793  14.593  1.00  0.00     0.321 C 
HETATM    6  F1  UNL     1      23.626  33.132  13.475  1.00  0.00    -0.222 F 
BRANCH   5   7
HETATM    7  C11 UNL     1      23.506  33.416  15.804  1.00  0.00     0.277 C 
BRANCH   7   8
HETATM    8  O2  UNL     1      24.788  33.941  15.571  1.00  0.00    -0.372 OA
ATOM      9  H2  UNL     1      25.384  33.775  16.292  1.00  0.00     0.212 HD
ENDBRANCH   7   8
BRANCH   7  10
HETATM   10  N2  UNL     1      22.663  34.315  16.495  1.00  0.00    -0.337 N 
HETATM   11  C12 UNL     1      21.668  35.023  15.798  1.00  0.00     0.086 C 
HETATM   12  C13 UNL     1      20.277  34.995  16.438  1.00  0.00     0.167 C 
HETATM   13  N3  UNL     1      20.329  35.261  17.821  1.00  0.00    -0.384 N 
HETATM   14  C21 UNL     1      21.578  35.202  18.447  1.00  0.00     0.103 C 
HETATM   15  C22 UNL     1      22.387  34.074  17.851  1.00  0.00     0.110 C 
BRANCH  13  16
HETATM   16  C14 UNL     1      19.161  34.916  18.573  1.00  0.00     0.122 C 
BRANCH  16  17
HETATM   17  C15 UNL     1      17.948  35.708  18.243  1.00  0.00     0.020 C 
BRANCH  17  18
HETATM   18  C16 UNL     1      16.755  34.809  18.090  1.00  0.00     0.002 C 
BRANCH  18  19
HETATM   19  C17 UNL     1      15.865  35.237  16.960  1.00  0.00     0.000 C 
BRANCH  19  20
HETATM   20  C18 UNL     1      15.781  34.153  15.918  1.00  0.00     0.001 C 
BRANCH  20  21
HETATM   21  C19 UNL     1      16.809  34.372  14.816  1.00  0.00     0.011 C 
BRANCH  21  22
HETATM   22  C20 UNL     1      17.613  33.088  14.594  1.00  0.00     0.085 C 
HETATM   23 BR1  UNL     1      16.990  31.705  15.778  1.00  0.00    -0.097 Br
ENDBRANCH  21  22
ENDBRANCH  20  21
ENDBRANCH  19  20
ENDBRANCH  18  19
ENDBRANCH  17  18
ENDBRANCH  16  17
ENDBRANCH  13  16
ENDBRANCH   7  10
ENDBRANCH   5   7
ENDBRANCH   3   5
BRANCH   1  24
HETATM   24  C8  UNL     1      22.125  29.073  13.819  1.00  0.00     0.184 C 
HETATM   25  C7  UNL     1      21.073  28.658  14.807  1.00  0.00     0.035 C 
HETATM   26  C6  UNL     1      19.756  29.331  14.645  1.00  0.00     0.003 C 
HETATM   27  C5  UNL     1      19.026  29.023  13.388  1.00  0.00     0.014 C 
HETATM   28  C4  UNL     1      19.448  27.744  12.706  1.00  0.00     0.082 C 
HETATM   29  C26 UNL     1      20.697  28.022  11.954  1.00  0.00     0.229 C 
HETATM   30  N4  UNL     1      21.927  28.420  12.525  1.00  0.00    -0.308 N 
HETATM   31  O5  UNL     1      20.705  27.908  10.721  1.00  0.00    -0.273 OA
BRANCH  28  32
HETATM   32  C2  UNL     1      18.321  27.278  11.846  1.00  0.00    -0.010 C 
HETATM   33  C1  UNL     1      17.149  28.231  11.878  1.00  0.00     0.010 C 
HETATM   34  C3  UNL     1      17.912  25.849  12.114  1.00  0.00     0.010 C 
ENDBRANCH  28  32
BRANCH  30  35
HETATM   35  C23 UNL     1      23.124  28.171  11.786  1.00  0.00     0.140 C 
BRANCH  35  36
HETATM   36  S1  UNL     1      23.707  26.486  11.789  1.00  0.00    -0.114 SA
BRANCH  36  37
HETATM   37  C24 UNL     1      23.364  25.541  10.321  1.00  0.00     0.193 C 
BRANCH  37  38
HETATM   38  C25 UNL     1      22.176  24.699  10.507  1.00  0.00     0.182 C 
HETATM   39  O3  UNL     1      21.688  24.592  11.675  1.00  0.00    -0.647 OA
HETATM   40  O4  UNL     1      21.600  24.034   9.429  1.00  0.00    -0.647 OA
ENDBRANCH  37  38
ENDBRANCH  36  37
ENDBRANCH  35  36
ENDBRANCH  30  35
ENDBRANCH   1  24
TORSDOF 17
ENDMDL
