MODEL 1
REMARK VINA RESULT: -8.097726155      0.000      0.000
REMARK  18 active torsions:
REMARK  status: ('A' for Active; 'I' for Inactive)
REMARK    1  A    between atoms: O1_2  and  C2_3 
REMARK    2  A    between atoms: C2_3  and  C3_4 
REMARK    3  A    between atoms: C3_4  and  C4_5 
REMARK    4  A    between atoms: C4_5  and  N1_6 
REMARK    5  A    between atoms: N1_6  and  C5_8 
REMARK    6  A    between atoms: C6_11  and  N3_12 
REMARK    7  A    between atoms: N3_12  and  C7_14 
REMARK    8  A    between atoms: C7_14  and  C8_15 
REMARK    9  A    between atoms: C8_15  and  C9_16 
REMARK   10  A    between atoms: C11_18  and  N4_19 
REMARK       I    between atoms: N4_19  and  C12_21 
REMARK   11  A    between atoms: C12_21  and  C13_23 
REMARK   12  A    between atoms: C13_23  and  C14_24 
REMARK   13  A    between atoms: C14_24  and  C15_25 
REMARK   14  A    between atoms: C15_25  and  C16_26 
REMARK   15  A    between atoms: C16_26  and  C17_27 
REMARK   16  A    between atoms: C17_27  and  N5_28 
REMARK   17  A    between atoms: C25_40  and  C26_41 
REMARK   18  A    between atoms: C26_41  and  C27_43 
ROOT
HETATM    1  N3  UNL     1      21.308  30.549  15.394  1.00  0.00    -0.226 N 
ATOM      2  H3  UNL     1      21.138  30.304  16.369  1.00  0.00     0.177 HD
ENDROOT
BRANCH   1   3
HETATM    3  C6  UNL     1      21.037  29.681  14.479  1.00  0.00     0.680 A 
HETATM    4  N2  UNL     1      21.974  29.247  13.588  1.00  0.00    -0.176 N 
HETATM    5  C5  UNL     1      21.704  28.346  12.629  1.00  0.00     0.134 A 
ATOM      6  H2  UNL     1      22.921  29.621  13.654  1.00  0.00     0.186 HD
HETATM    7  C25 UNL     1      20.438  27.813  12.507  1.00  0.00     0.094 A 
HETATM    8  C24 UNL     1      19.478  28.241  13.397  1.00  0.00     0.137 A 
HETATM    9  N7  UNL     1      19.812  29.145  14.334  1.00  0.00    -0.180 N 
HETATM   10 CL1  UNL     1      17.872  27.566  13.243  1.00  0.00    -0.063 Cl
ATOM     11  H7  UNL     1      19.084  29.446  14.982  1.00  0.00     0.185 HD
BRANCH   5  12
HETATM   12  N1  UNL     1      22.597  27.956  11.806  1.00  0.00    -0.375 N 
ATOM     13  H1  UNL     1      22.258  27.570  10.925  1.00  0.00     0.161 HD
BRANCH  12  14
HETATM   14  C4  UNL     1      24.004  27.997  11.970  1.00  0.00     0.123 C 
BRANCH  14  15
HETATM   15  C3  UNL     1      24.620  27.295  10.754  1.00  0.00     0.046 C 
BRANCH  15  16
HETATM   16  C2  UNL     1      25.096  25.939  11.239  1.00  0.00     0.168 C 
BRANCH  16  17
HETATM   17  O1  UNL     1      24.027  25.088  11.402  1.00  0.00    -0.396 OA
HETATM   18  C1  UNL     1      23.526  24.601  10.211  1.00  0.00     0.201 C 
ENDBRANCH  16  17
ENDBRANCH  15  16
ENDBRANCH  14  15
ENDBRANCH  12  14
ENDBRANCH   5  12
BRANCH   7  19
HETATM   19  C26 UNL     1      20.081  26.818  11.472  1.00  0.00     0.176 C 
HETATM   20  O3  UNL     1      20.420  25.616  11.622  1.00  0.00    -0.291 OA
BRANCH  19  21
HETATM   21  C27 UNL     1      19.336  27.198  10.262  1.00  0.00     0.169 C 
HETATM   22 BR1  UNL     1      17.961  25.885   9.945  1.00  0.00    -0.088 Br
ENDBRANCH  19  21
ENDBRANCH   7  19
ENDBRANCH   1   3
BRANCH   1  23
HETATM   23  C7  UNL     1      21.833  31.832  15.093  1.00  0.00     0.142 C 
BRANCH  23  24
HETATM   24  C8  UNL     1      22.681  32.440  16.165  1.00  0.00     0.060 C 
BRANCH  24  25
HETATM   25  C9  UNL     1      22.081  33.589  16.852  1.00  0.00    -0.037 A 
HETATM   26  C10 UNL     1      20.807  34.080  16.524  1.00  0.00     0.057 A 
HETATM   27  C11 UNL     1      20.488  35.156  17.316  1.00  0.00     0.109 A 
HETATM   28  N6  UNL     1      21.579  35.322  18.132  1.00  0.00    -0.347 N 
HETATM   29  C22 UNL     1      21.720  36.330  19.142  1.00  0.00     0.157 C 
HETATM   30  C23 UNL     1      22.511  34.401  17.858  1.00  0.00     0.099 A 
BRANCH  27  31
HETATM   31  N4  UNL     1      19.355  35.989  17.392  1.00  0.00    -0.313 N 
HETATM   32  C12 UNL     1      18.294  35.771  18.286  1.00  0.00     0.223 C 
HETATM   33  O2  UNL     1      18.324  34.800  19.068  1.00  0.00    -0.273 OA
ATOM     34  H4  UNL     1      19.302  36.791  16.765  1.00  0.00     0.170 HD
BRANCH  32  35
HETATM   35  C13 UNL     1      17.111  36.720  18.297  1.00  0.00     0.103 C 
BRANCH  35  36
HETATM   36  C14 UNL     1      16.208  36.275  17.172  1.00  0.00     0.009 C 
BRANCH  36  37
HETATM   37  C15 UNL     1      15.097  35.355  17.664  1.00  0.00     0.002 C 
BRANCH  37  38
HETATM   38  C16 UNL     1      15.350  33.940  17.310  1.00  0.00     0.030 C 
BRANCH  38  39
HETATM   39  C17 UNL     1      15.951  33.712  15.974  1.00  0.00     0.272 C 
BRANCH  39  40
HETATM   40  N5  UNL     1      17.356  33.464  15.934  1.00  0.00     0.088 N 
HETATM   41  C18 UNL     1      17.754  33.121  14.543  1.00  0.00     0.272 C 
HETATM   42  C19 UNL     1      17.329  31.701  14.345  1.00  0.00     0.032 C 
HETATM   43  C20 UNL     1      17.246  31.136  15.724  1.00  0.00     0.032 C 
HETATM   44  C21 UNL     1      17.770  32.247  16.630  1.00  0.00     0.272 C 
ENDBRANCH  39  40
ENDBRANCH  38  39
ENDBRANCH  37  38
ENDBRANCH  36  37
ENDBRANCH  35  36
ENDBRANCH  32  35
ENDBRANCH  27  31
ENDBRANCH  24  25
ENDBRANCH  23  24
ENDBRANCH   1  23
TORSDOF 18
ENDMDL
MODEL 2
REMARK VINA RESULT: -8.055470876      3.243      9.729
REMARK  18 active torsions:
REMARK  status: ('A' for Active; 'I' for Inactive)
REMARK    1  A    between atoms: O1_2  and  C2_3 
REMARK    2  A    between atoms: C2_3  and  C3_4 
REMARK    3  A    between atoms: C3_4  and  C4_5 
REMARK    4  A    between atoms: C4_5  and  N1_6 
REMARK    5  A    between atoms: N1_6  and  C5_8 
REMARK    6  A    between atoms: C6_11  and  N3_12 
REMARK    7  A    between atoms: N3_12  and  C7_14 
REMARK    8  A    between atoms: C7_14  and  C8_15 
REMARK    9  A    between atoms: C8_15  and  C9_16 
REMARK   10  A    between atoms: C11_18  and  N4_19 
REMARK       I    between atoms: N4_19  and  C12_21 
REMARK   11  A    between atoms: C12_21  and  C13_23 
REMARK   12  A    between atoms: C13_23  and  C14_24 
REMARK   13  A    between atoms: C14_24  and  C15_25 
REMARK   14  A    between atoms: C15_25  and  C16_26 
REMARK   15  A    between atoms: C16_26  and  C17_27 
REMARK   16  A    between atoms: C17_27  and  N5_28 
REMARK   17  A    between atoms: C25_40  and  C26_41 
REMARK   18  A    between atoms: C26_41  and  C27_43 
ROOT
HETATM    1  N3  UNL     1      20.082  29.399  16.448  1.00  0.00    -0.226 N 
ATOM      2  H3  UNL     1      20.484  29.007  17.300  1.00  0.00     0.177 HD
ENDROOT
BRANCH   1   3
HETATM    3  C6  UNL     1      19.481  30.538  16.511  1.00  0.00     0.680 A 
HETATM    4  N2  UNL     1      20.146  31.697  16.785  1.00  0.00    -0.176 N 
HETATM    5  C5  UNL     1      19.531  32.889  16.856  1.00  0.00     0.134 A 
ATOM      6  H2  UNL     1      21.153  31.657  16.943  1.00  0.00     0.186 HD
HETATM    7  C25 UNL     1      18.171  32.989  16.648  1.00  0.00     0.094 A 
HETATM    8  C24 UNL     1      17.483  31.828  16.371  1.00  0.00     0.137 A 
HETATM    9  N7  UNL     1      18.157  30.666  16.314  1.00  0.00    -0.180 N 
HETATM   10 CL1  UNL     1      15.759  31.952  16.107  1.00  0.00    -0.063 Cl
ATOM     11  H7  UNL     1      17.626  29.820  16.106  1.00  0.00     0.185 HD
BRANCH   5  12
HETATM   12  N1  UNL     1      20.173  33.960  17.117  1.00  0.00    -0.375 N 
ATOM     13  H1  UNL     1      20.016  34.365  18.040  1.00  0.00     0.161 HD
BRANCH  12  14
HETATM   14  C4  UNL     1      21.081  34.653  16.277  1.00  0.00     0.123 C 
BRANCH  14  15
HETATM   15  C3  UNL     1      22.417  34.732  17.025  1.00  0.00     0.046 C 
BRANCH  15  16
HETATM   16  C2  UNL     1      23.405  33.906  16.224  1.00  0.00     0.168 C 
BRANCH  16  17
HETATM   17  O1  UNL     1      22.762  32.852  15.615  1.00  0.00    -0.396 OA
HETATM   18  C1  UNL     1      23.310  32.507  14.395  1.00  0.00     0.201 C 
ENDBRANCH  16  17
ENDBRANCH  15  16
ENDBRANCH  14  15
ENDBRANCH  12  14
ENDBRANCH   5  12
BRANCH   7  19
HETATM   19  C26 UNL     1      17.439  34.273  16.713  1.00  0.00     0.176 C 
HETATM   20  O3  UNL     1      17.315  34.970  15.674  1.00  0.00    -0.291 OA
BRANCH  19  21
HETATM   21  C27 UNL     1      16.848  34.760  17.968  1.00  0.00     0.169 C 
HETATM   22 BR1  UNL     1      15.007  35.230  17.644  1.00  0.00    -0.088 Br
ENDBRANCH  19  21
ENDBRANCH   7  19
ENDBRANCH   1   3
BRANCH   1  23
HETATM   23  C7  UNL     1      20.206  28.671  15.237  1.00  0.00     0.142 C 
BRANCH  23  24
HETATM   24  C8  UNL     1      20.764  29.443  14.084  1.00  0.00     0.060 C 
BRANCH  24  25
HETATM   25  C9  UNL     1      21.576  28.658  13.148  1.00  0.00    -0.037 A 
HETATM   26  C10 UNL     1      21.006  27.815  12.180  1.00  0.00     0.057 A 
HETATM   27  C11 UNL     1      21.986  27.200  11.440  1.00  0.00     0.109 A 
HETATM   28  N6  UNL     1      23.164  27.672  11.963  1.00  0.00    -0.347 N 
HETATM   29  C22 UNL     1      24.479  27.316  11.515  1.00  0.00     0.157 C 
HETATM   30  C23 UNL     1      22.920  28.527  12.963  1.00  0.00     0.099 A 
BRANCH  27  31
HETATM   31  N4  UNL     1      21.948  26.284  10.371  1.00  0.00    -0.313 N 
HETATM   32  C12 UNL     1      21.709  24.910  10.538  1.00  0.00     0.223 C 
HETATM   33  O2  UNL     1      21.516  24.442  11.677  1.00  0.00    -0.273 OA
ATOM     34  H4  UNL     1      22.102  26.637   9.426  1.00  0.00     0.170 HD
BRANCH  32  35
HETATM   35  C13 UNL     1      21.687  23.997   9.327  1.00  0.00     0.103 C 
BRANCH  35  36
HETATM   36  C14 UNL     1      21.692  24.903   8.120  1.00  0.00     0.009 C 
BRANCH  36  37
HETATM   37  C15 UNL     1      20.620  24.510   7.109  1.00  0.00     0.002 C 
BRANCH  37  38
HETATM   38  C16 UNL     1      19.683  25.622   6.834  1.00  0.00     0.030 C 
BRANCH  38  39
HETATM   39  C17 UNL     1      19.339  26.474   7.999  1.00  0.00     0.272 C 
BRANCH  39  40
HETATM   40  N5  UNL     1      17.954  26.590   8.324  1.00  0.00     0.088 N 
HETATM   41  C18 UNL     1      17.817  27.222   9.663  1.00  0.00     0.272 C 
HETATM   42  C19 UNL     1      18.127  26.140  10.648  1.00  0.00     0.032 C 
HETATM   43  C20 UNL     1      17.868  24.870   9.908  1.00  0.00     0.032 C 
HETATM   44  C21 UNL     1      17.285  25.314   8.569  1.00  0.00     0.272 C 
ENDBRANCH  39  40
ENDBRANCH  38  39
ENDBRANCH  37  38
ENDBRANCH  36  37
ENDBRANCH  35  36
ENDBRANCH  32  35
ENDBRANCH  27  31
ENDBRANCH  24  25
ENDBRANCH  23  24
ENDBRANCH   1  23
TORSDOF 18
ENDMDL
MODEL 3
REMARK VINA RESULT: -8.023285770      1.148      1.600
REMARK  18 active torsions:
REMARK  status: ('A' for Active; 'I' for Inactive)
REMARK    1  A    between atoms: O1_2  and  C2_3 
REMARK    2  A    between atoms: C2_3  and  C3_4 
REMARK    3  A    between atoms: C3_4  and  C4_5 
REMARK    4  A    between atoms: C4_5  and  N1_6 
REMARK    5  A    between atoms: N1_6  and  C5_8 
REMARK    6  A    between atoms: C6_11  and  N3_12 
REMARK    7  A    between atoms: N3_12  and  C7_14 
REMARK    8  A    between atoms: C7_14  and  C8_15 
REMARK    9  A    between atoms: C8_15  and  C9_16 
REMARK   10  A    between atoms: C11_18  and  N4_19 
REMARK       I    between atoms: N4_19  and  C12_21 
REMARK   11  A    between atoms: C12_21  and  C13_23 
REMARK   12  A    between atoms: C13_23  and  C14_24 
REMARK   13  A    between atoms: C14_24  and  C15_25 
REMARK   14  A    between atoms: C15_25  and  C16_26 
REMARK   15  A    between atoms: C16_26  and  C17_27 
REMARK   16  A    between atoms: C17_27  and  N5_28 
REMARK   17  A    between atoms: C25_40  and  C26_41 
REMARK   18  A    between atoms: C26_41  and  C27_43 
ROOT
HETATM    1  N3  UNL     1      22.218  30.677  14.958  1.00  0.00    -0.226 N 
ATOM      2  H3  UNL     1      23.098  30.248  15.242  1.00  0.00     0.177 HD
ENDROOT
BRANCH   1   3
HETATM    3  C6  UNL     1      21.362  29.966  14.305  1.00  0.00     0.680 A 
HETATM    4  N2  UNL     1      21.682  28.752  13.771  1.00  0.00    -0.176 N 
HETATM    5  C5  UNL     1      20.800  28.003  13.088  1.00  0.00     0.134 A 
ATOM      6  H2  UNL     1      22.630  28.397  13.898  1.00  0.00     0.186 HD
HETATM    7  C25 UNL     1      19.508  28.444  12.895  1.00  0.00     0.094 A 
HETATM    8  C24 UNL     1      19.168  29.669  13.426  1.00  0.00     0.137 A 
HETATM    9  N7  UNL     1      20.096  30.369  14.100  1.00  0.00    -0.180 N 
HETATM   10 CL1  UNL     1      17.530  30.230  13.183  1.00  0.00    -0.063 Cl
ATOM     11  H7  UNL     1      19.820  31.273  14.485  1.00  0.00     0.185 HD
BRANCH   5  12
HETATM   12  N1  UNL     1      21.124  26.872  12.595  1.00  0.00    -0.375 N 
ATOM     13  H1  UNL     1      21.021  26.067  13.213  1.00  0.00     0.161 HD
BRANCH  12  14
HETATM   14  C4  UNL     1      21.609  26.601  11.291  1.00  0.00     0.123 C 
BRANCH  14  15
HETATM   15  C3  UNL     1      21.935  25.103  11.234  1.00  0.00     0.046 C 
BRANCH  15  16
HETATM   16  C2  UNL     1      23.256  24.981  10.499  1.00  0.00     0.168 C 
BRANCH  16  17
HETATM   17  O1  UNL     1      24.303  24.996  11.393  1.00  0.00    -0.396 OA
HETATM   18  C1  UNL     1      25.110  26.110  11.273  1.00  0.00     0.201 C 
ENDBRANCH  16  17
ENDBRANCH  15  16
ENDBRANCH  14  15
ENDBRANCH  12  14
ENDBRANCH   5  12
BRANCH   7  19
HETATM   19  C26 UNL     1      18.495  27.665  12.151  1.00  0.00     0.176 C 
HETATM   20  O3  UNL     1      17.918  26.699  12.714  1.00  0.00    -0.291 OA
BRANCH  19  21
HETATM   21  C27 UNL     1      18.140  27.989  10.762  1.00  0.00     0.169 C 
HETATM   22 BR1  UNL     1      17.924  26.345   9.778  1.00  0.00    -0.088 Br
ENDBRANCH  19  21
ENDBRANCH   7  19
ENDBRANCH   1   3
BRANCH   1  23
HETATM   23  C7  UNL     1      21.978  32.034  15.295  1.00  0.00     0.142 C 
BRANCH  23  24
HETATM   24  C8  UNL     1      22.807  32.566  16.421  1.00  0.00     0.060 C 
BRANCH  24  25
HETATM   25  C9  UNL     1      22.266  33.761  17.076  1.00  0.00    -0.037 A 
HETATM   26  C10 UNL     1      21.023  34.314  16.727  1.00  0.00     0.057 A 
HETATM   27  C11 UNL     1      20.758  35.424  17.491  1.00  0.00     0.109 A 
HETATM   28  N6  UNL     1      21.850  35.549  18.313  1.00  0.00    -0.347 N 
HETATM   29  C22 UNL     1      22.039  36.570  19.301  1.00  0.00     0.157 C 
HETATM   30  C23 UNL     1      22.732  34.572  18.067  1.00  0.00     0.099 A 
BRANCH  27  31
HETATM   31  N4  UNL     1      19.672  36.319  17.538  1.00  0.00    -0.313 N 
HETATM   32  C12 UNL     1      18.547  36.126  18.356  1.00  0.00     0.223 C 
HETATM   33  O2  UNL     1      18.472  35.124  19.092  1.00  0.00    -0.273 OA
ATOM     34  H4  UNL     1      19.704  37.149  16.946  1.00  0.00     0.170 HD
BRANCH  32  35
HETATM   35  C13 UNL     1      17.421  37.144  18.341  1.00  0.00     0.103 C 
BRANCH  35  36
HETATM   36  C14 UNL     1      16.399  36.621  17.361  1.00  0.00     0.009 C 
BRANCH  36  37
HETATM   37  C15 UNL     1      15.090  36.249  18.049  1.00  0.00     0.002 C 
BRANCH  37  38
HETATM   38  C16 UNL     1      14.595  34.922  17.621  1.00  0.00     0.030 C 
BRANCH  38  39
HETATM   39  C17 UNL     1      15.641  33.911  17.331  1.00  0.00     0.272 C 
BRANCH  39  40
HETATM   40  N5  UNL     1      15.584  33.272  16.057  1.00  0.00     0.088 N 
HETATM   41  C18 UNL     1      16.414  32.039  16.090  1.00  0.00     0.272 C 
HETATM   42  C19 UNL     1      17.830  32.508  15.975  1.00  0.00     0.032 C 
HETATM   43  C20 UNL     1      17.732  33.850  15.330  1.00  0.00     0.032 C 
HETATM   44  C21 UNL     1      16.253  34.007  14.986  1.00  0.00     0.272 C 
ENDBRANCH  39  40
ENDBRANCH  38  39
ENDBRANCH  37  38
ENDBRANCH  36  37
ENDBRANCH  35  36
ENDBRANCH  32  35
ENDBRANCH  27  31
ENDBRANCH  24  25
ENDBRANCH  23  24
ENDBRANCH   1  23
TORSDOF 18
ENDMDL
MODEL 4
REMARK VINA RESULT: -7.997969696      1.712      4.099
REMARK  18 active torsions:
REMARK  status: ('A' for Active; 'I' for Inactive)
REMARK    1  A    between atoms: O1_2  and  C2_3 
REMARK    2  A    between atoms: C2_3  and  C3_4 
REMARK    3  A    between atoms: C3_4  and  C4_5 
REMARK    4  A    between atoms: C4_5  and  N1_6 
REMARK    5  A    between atoms: N1_6  and  C5_8 
REMARK    6  A    between atoms: C6_11  and  N3_12 
REMARK    7  A    between atoms: N3_12  and  C7_14 
REMARK    8  A    between atoms: C7_14  and  C8_15 
REMARK    9  A    between atoms: C8_15  and  C9_16 
REMARK   10  A    between atoms: C11_18  and  N4_19 
REMARK       I    between atoms: N4_19  and  C12_21 
REMARK   11  A    between atoms: C12_21  and  C13_23 
REMARK   12  A    between atoms: C13_23  and  C14_24 
REMARK   13  A    between atoms: C14_24  and  C15_25 
REMARK   14  A    between atoms: C15_25  and  C16_26 
REMARK   15  A    between atoms: C16_26  and  C17_27 
REMARK   16  A    between atoms: C17_27  and  N5_28 
REMARK   17  A    between atoms: C25_40  and  C26_41 
REMARK   18  A    between atoms: C26_41  and  C27_43 
ROOT
HETATM    1  N3  UNL     1      18.345  28.725  14.384  1.00  0.00    -0.226 N 
ATOM      2  H3  UNL     1      17.784  28.305  15.126  1.00  0.00     0.177 HD
ENDROOT
BRANCH   1   3
HETATM    3  C6  UNL     1      18.813  27.965  13.453  1.00  0.00     0.680 A 
HETATM    4  N2  UNL     1      20.059  28.143  12.926  1.00  0.00    -0.176 N 
HETATM    5  C5  UNL     1      20.556  27.359  11.954  1.00  0.00     0.134 A 
ATOM      6  H2  UNL     1      20.637  28.902  13.286  1.00  0.00     0.186 HD
HETATM    7  C25 UNL     1      19.808  26.321  11.441  1.00  0.00     0.094 A 
HETATM    8  C24 UNL     1      18.547  26.127  11.961  1.00  0.00     0.137 A 
HETATM    9  N7  UNL     1      18.107  26.945  12.933  1.00  0.00    -0.180 N 
HETATM   10 CL1  UNL     1      17.597  24.810  11.311  1.00  0.00    -0.063 Cl
ATOM     11  H7  UNL     1      17.171  26.781  13.302  1.00  0.00     0.185 HD
BRANCH   5  12
HETATM   12  N1  UNL     1      21.723  27.547  11.475  1.00  0.00    -0.375 N 
ATOM     13  H1  UNL     1      21.819  27.429  10.467  1.00  0.00     0.161 HD
BRANCH  12  14
HETATM   14  C4  UNL     1      22.902  27.901  12.178  1.00  0.00     0.123 C 
BRANCH  14  15
HETATM   15  C3  UNL     1      24.080  27.676  11.223  1.00  0.00     0.046 C 
BRANCH  15  16
HETATM   16  C2  UNL     1      24.915  26.563  11.828  1.00  0.00     0.168 C 
BRANCH  16  17
HETATM   17  O1  UNL     1      24.248  25.363  11.736  1.00  0.00    -0.396 OA
HETATM   18  C1  UNL     1      24.260  24.826  10.464  1.00  0.00     0.201 C 
ENDBRANCH  16  17
ENDBRANCH  15  16
ENDBRANCH  14  15
ENDBRANCH  12  14
ENDBRANCH   5  12
BRANCH   7  19
HETATM   19  C26 UNL     1      20.302  25.426  10.372  1.00  0.00     0.176 C 
HETATM   20  O3  UNL     1      20.963  24.400  10.676  1.00  0.00    -0.291 OA
BRANCH  19  21
HETATM   21  C27 UNL     1      20.040  25.705   8.952  1.00  0.00     0.169 C 
HETATM   22 BR1  UNL     1      21.386  24.823   7.890  1.00  0.00    -0.088 Br
ENDBRANCH  19  21
ENDBRANCH   7  19
ENDBRANCH   1   3
BRANCH   1  23
HETATM   23  C7  UNL     1      18.583  30.123  14.415  1.00  0.00     0.142 C 
BRANCH  23  24
HETATM   24  C8  UNL     1      17.358  30.978  14.335  1.00  0.00     0.060 C 
BRANCH  24  25
HETATM   25  C9  UNL     1      17.195  31.930  15.440  1.00  0.00    -0.037 A 
HETATM   26  C10 UNL     1      18.271  32.343  16.242  1.00  0.00     0.057 A 
HETATM   27  C11 UNL     1      17.843  33.232  17.199  1.00  0.00     0.109 A 
HETATM   28  N6  UNL     1      16.495  33.359  16.977  1.00  0.00    -0.347 N 
HETATM   29  C22 UNL     1      15.600  34.188  17.731  1.00  0.00     0.157 C 
HETATM   30  C23 UNL     1      16.118  32.595  15.946  1.00  0.00     0.099 A 
BRANCH  27  31
HETATM   31  N4  UNL     1      18.509  33.929  18.225  1.00  0.00    -0.313 N 
HETATM   32  C12 UNL     1      19.248  35.104  18.008  1.00  0.00     0.223 C 
HETATM   33  O2  UNL     1      19.340  35.583  16.861  1.00  0.00    -0.273 OA
ATOM     34  H4  UNL     1      18.452  33.562  19.175  1.00  0.00     0.170 HD
BRANCH  32  35
HETATM   35  C13 UNL     1      19.934  35.789  19.175  1.00  0.00     0.103 C 
BRANCH  35  36
HETATM   36  C14 UNL     1      21.319  36.146  18.694  1.00  0.00     0.009 C 
BRANCH  36  37
HETATM   37  C15 UNL     1      22.291  34.981  18.842  1.00  0.00     0.002 C 
BRANCH  37  38
HETATM   38  C16 UNL     1      22.979  34.666  17.570  1.00  0.00     0.030 C 
BRANCH  38  39
HETATM   39  C17 UNL     1      22.819  33.274  17.083  1.00  0.00     0.272 C 
BRANCH  39  40
HETATM   40  N5  UNL     1      21.717  33.019  16.213  1.00  0.00     0.088 N 
HETATM   41  C18 UNL     1      21.813  31.627  15.697  1.00  0.00     0.272 C 
HETATM   42  C19 UNL     1      22.860  31.668  14.630  1.00  0.00     0.032 C 
HETATM   43  C20 UNL     1      22.901  33.095  14.196  1.00  0.00     0.032 C 
HETATM   44  C21 UNL     1      21.760  33.764  14.957  1.00  0.00     0.272 C 
ENDBRANCH  39  40
ENDBRANCH  38  39
ENDBRANCH  37  38
ENDBRANCH  36  37
ENDBRANCH  35  36
ENDBRANCH  32  35
ENDBRANCH  27  31
ENDBRANCH  24  25
ENDBRANCH  23  24
ENDBRANCH   1  23
TORSDOF 18
ENDMDL
MODEL 5
REMARK VINA RESULT: -7.995499077      1.396      1.843
REMARK  18 active torsions:
REMARK  status: ('A' for Active; 'I' for Inactive)
REMARK    1  A    between atoms: O1_2  and  C2_3 
REMARK    2  A    between atoms: C2_3  and  C3_4 
REMARK    3  A    between atoms: C3_4  and  C4_5 
REMARK    4  A    between atoms: C4_5  and  N1_6 
REMARK    5  A    between atoms: N1_6  and  C5_8 
REMARK    6  A    between atoms: C6_11  and  N3_12 
REMARK    7  A    between atoms: N3_12  and  C7_14 
REMARK    8  A    between atoms: C7_14  and  C8_15 
REMARK    9  A    between atoms: C8_15  and  C9_16 
REMARK   10  A    between atoms: C11_18  and  N4_19 
REMARK       I    between atoms: N4_19  and  C12_21 
REMARK   11  A    between atoms: C12_21  and  C13_23 
REMARK   12  A    between atoms: C13_23  and  C14_24 
REMARK   13  A    between atoms: C14_24  and  C15_25 
REMARK   14  A    between atoms: C15_25  and  C16_26 
REMARK   15  A    between atoms: C16_26  and  C17_27 
REMARK   16  A    between atoms: C17_27  and  N5_28 
REMARK   17  A    between atoms: C25_40  and  C26_41 
REMARK   18  A    between atoms: C26_41  and  C27_43 
ROOT
HETATM    1  N3  UNL     1      22.440  30.666  13.373  1.00  0.00    -0.226 N 
ATOM      2  H3  UNL     1      23.430  30.419  13.369  1.00  0.00     0.177 HD
ENDROOT
BRANCH   1   3
HETATM    3  C6  UNL     1      21.594  29.853  12.837  1.00  0.00     0.680 A 
HETATM    4  N2  UNL     1      21.986  28.719  12.189  1.00  0.00    -0.176 N 
HETATM    5  C5  UNL     1      21.115  27.866  11.624  1.00  0.00     0.134 A 
ATOM      6  H2  UNL     1      22.983  28.510  12.130  1.00  0.00     0.186 HD
HETATM    7  C25 UNL     1      19.759  28.110  11.682  1.00  0.00     0.094 A 
HETATM    8  C24 UNL     1      19.345  29.252  12.333  1.00  0.00     0.137 A 
HETATM    9  N7  UNL     1      20.267  30.065  12.877  1.00  0.00    -0.180 N 
HETATM   10 CL1  UNL     1      17.626  29.563  12.407  1.00  0.00    -0.063 Cl
ATOM     11  H7  UNL     1      19.935  30.904  13.354  1.00  0.00     0.185 HD
BRANCH   5  12
HETATM   12  N1  UNL     1      21.506  26.813  11.020  1.00  0.00    -0.375 N 
ATOM     13  H1  UNL     1      21.662  26.902  10.016  1.00  0.00     0.161 HD
BRANCH  12  14
HETATM   14  C4  UNL     1      21.749  25.533  11.579  1.00  0.00     0.123 C 
BRANCH  14  15
HETATM   15  C3  UNL     1      22.330  24.657  10.462  1.00  0.00     0.046 C 
BRANCH  15  16
HETATM   16  C2  UNL     1      23.810  24.983  10.390  1.00  0.00     0.168 C 
BRANCH  16  17
HETATM   17  O1  UNL     1      24.282  25.335  11.634  1.00  0.00    -0.396 OA
HETATM   18  C1  UNL     1      25.146  26.412  11.609  1.00  0.00     0.201 C 
ENDBRANCH  16  17
ENDBRANCH  15  16
ENDBRANCH  14  15
ENDBRANCH  12  14
ENDBRANCH   5  12
BRANCH   7  19
HETATM   19  C26 UNL     1      18.753  27.208  11.080  1.00  0.00     0.176 C 
HETATM   20  O3  UNL     1      18.490  27.301   9.854  1.00  0.00    -0.291 OA
BRANCH  19  21
HETATM   21  C27 UNL     1      18.046  26.198  11.881  1.00  0.00     0.169 C 
HETATM   22 BR1  UNL     1      18.122  24.509  10.954  1.00  0.00    -0.088 Br
ENDBRANCH  19  21
ENDBRANCH   7  19
ENDBRANCH   1   3
BRANCH   1  23
HETATM   23  C7  UNL     1      22.044  31.892  13.968  1.00  0.00     0.142 C 
BRANCH  23  24
HETATM   24  C8  UNL     1      23.135  32.645  14.661  1.00  0.00     0.060 C 
BRANCH  24  25
HETATM   25  C9  UNL     1      22.681  33.569  15.706  1.00  0.00    -0.037 A 
HETATM   26  C10 UNL     1      21.569  34.409  15.537  1.00  0.00     0.057 A 
HETATM   27  C11 UNL     1      21.364  35.169  16.663  1.00  0.00     0.109 A 
HETATM   28  N6  UNL     1      22.361  34.788  17.525  1.00  0.00    -0.347 N 
HETATM   29  C22 UNL     1      22.566  35.307  18.846  1.00  0.00     0.157 C 
HETATM   30  C23 UNL     1      23.131  33.850  16.961  1.00  0.00     0.099 A 
BRANCH  27  31
HETATM   31  N4  UNL     1      20.404  36.142  17.001  1.00  0.00    -0.313 N 
HETATM   32  C12 UNL     1      19.263  35.868  17.772  1.00  0.00     0.223 C 
HETATM   33  O2  UNL     1      19.057  34.714  18.196  1.00  0.00    -0.273 OA
ATOM     34  H4  UNL     1      20.545  37.096  16.668  1.00  0.00     0.170 HD
BRANCH  32  35
HETATM   35  C13 UNL     1      18.281  36.980  18.087  1.00  0.00     0.103 C 
BRANCH  35  36
HETATM   36  C14 UNL     1      17.062  36.714  17.237  1.00  0.00     0.009 C 
BRANCH  36  37
HETATM   37  C15 UNL     1      15.843  36.366  18.083  1.00  0.00     0.002 C 
BRANCH  37  38
HETATM   38  C16 UNL     1      15.074  35.237  17.512  1.00  0.00     0.030 C 
BRANCH  38  39
HETATM   39  C17 UNL     1      15.881  34.078  17.058  1.00  0.00     0.272 C 
BRANCH  39  40
HETATM   40  N5  UNL     1      15.679  33.641  15.714  1.00  0.00     0.088 N 
HETATM   41  C18 UNL     1      16.225  32.267  15.560  1.00  0.00     0.272 C 
HETATM   42  C19 UNL     1      17.707  32.435  15.458  1.00  0.00     0.032 C 
HETATM   43  C20 UNL     1      17.897  33.840  14.995  1.00  0.00     0.032 C 
HETATM   44  C21 UNL     1      16.485  34.353  14.724  1.00  0.00     0.272 C 
ENDBRANCH  39  40
ENDBRANCH  38  39
ENDBRANCH  37  38
ENDBRANCH  36  37
ENDBRANCH  35  36
ENDBRANCH  32  35
ENDBRANCH  27  31
ENDBRANCH  24  25
ENDBRANCH  23  24
ENDBRANCH   1  23
TORSDOF 18
ENDMDL
