MODEL 1
REMARK VINA RESULT: -8.912112387      0.000      0.000
REMARK  16 active torsions:
REMARK  status: ('A' for Active; 'I' for Inactive)
REMARK    1  A    between atoms: C2_2  and  C3_3 
REMARK    2  A    between atoms: C3_3  and  C4_4 
REMARK    3  A    between atoms: C4_4  and  C5_5 
REMARK    4  A    between atoms: C5_5  and  N1_6 
REMARK    5  A    between atoms: C5_5  and  C11_18 
REMARK       I    between atoms: N1_6  and  C6_8 
REMARK       I    between atoms: C6_8  and  N2_10 
REMARK       I    between atoms: C11_18  and  N4_20 
REMARK    6  A    between atoms: N4_20  and  C12_22 
REMARK    7  A    between atoms: C12_22  and  C13_23 
REMARK    8  A    between atoms: C12_22  and  C20_30 
REMARK    9  A    between atoms: C13_23  and  C14_24 
REMARK   10  A    between atoms: C20_30  and  C21_32 
REMARK   11  A    between atoms: C21_32  and  O4_33 
REMARK   12  A    between atoms: C21_32  and  C29_43 
REMARK   13  A    between atoms: O4_33  and  C22_34 
REMARK   14  A    between atoms: C22_34  and  O6_36 
REMARK   15  A    between atoms: O6_36  and  C23_37 
REMARK   16  A    between atoms: C29_43  and  O8_45 
ROOT
HETATM    1  C12 UNL     1      19.159  33.331  15.112  1.00  0.00     0.158 C 
ENDROOT
BRANCH   1   2
HETATM    2  N4  UNL     1      19.349  34.022  16.392  1.00  0.00    -0.348 N 
HETATM    3  C11 UNL     1      20.540  34.752  16.662  1.00  0.00     0.241 C 
HETATM    4  O2  UNL     1      21.435  34.802  15.786  1.00  0.00    -0.271 OA
ATOM      5  H4  UNL     1      18.616  33.977  17.099  1.00  0.00     0.163 HD
BRANCH   3   6
HETATM    6  C5  UNL     1      20.724  35.448  17.967  1.00  0.00     0.178 C 
BRANCH   6   7
HETATM    7  C4  UNL     1      22.100  35.304  18.506  1.00  0.00     0.035 C 
BRANCH   7   8
HETATM    8  C3  UNL     1      22.309  35.416  19.959  1.00  0.00     0.002 C 
BRANCH   8   9
HETATM    9  C2  UNL     1      23.311  36.381  20.470  1.00  0.00    -0.004 C 
HETATM   10  C1  UNL     1      24.309  35.629  21.383  1.00  0.00     0.005 C 
ENDBRANCH   8   9
ENDBRANCH   7   8
ENDBRANCH   6   7
BRANCH   6  11
HETATM   11  N1  UNL     1      20.242  36.809  17.908  1.00  0.00    -0.330 N 
HETATM   12  C6  UNL     1      18.893  37.149  18.177  1.00  0.00     0.319 C 
HETATM   13  O1  UNL     1      18.085  36.251  18.473  1.00  0.00    -0.247 OA
HETATM   14  N2  UNL     1      18.448  38.496  18.117  1.00  0.00    -0.331 N 
HETATM   15  C7  UNL     1      19.373  39.577  17.768  1.00  0.00     0.155 C 
HETATM   16  C10 UNL     1      17.054  38.757  18.417  1.00  0.00     0.155 C 
HETATM   17  C8  UNL     1      18.628  40.807  17.279  1.00  0.00     0.252 C 
HETATM   18  N3  UNL     1      17.343  40.392  16.693  1.00  0.00    -0.072 N 
HETATM   19  C9  UNL     1      16.490  39.977  17.787  1.00  0.00     0.252 C 
ATOM     20  H32 UNL     1      16.920  41.111  16.107  1.00  0.00     0.277 HD
ATOM     21  H31 UNL     1      17.445  39.678  15.972  1.00  0.00     0.277 HD
ATOM     22  H1  UNL     1      20.897  37.553  17.664  1.00  0.00     0.165 HD
ENDBRANCH   6  11
ENDBRANCH   3   6
ENDBRANCH   1   2
BRANCH   1  23
HETATM   23  C13 UNL     1      17.729  33.395  14.744  1.00  0.00     0.037 C 
BRANCH  23  24
HETATM   24  C14 UNL     1      16.755  34.000  15.657  1.00  0.00    -0.012 C 
HETATM   25  C15 UNL     1      16.015  35.213  15.235  1.00  0.00     0.005 C 
HETATM   26  C16 UNL     1      15.635  35.953  16.542  1.00  0.00     0.000 C 
HETATM   27  C17 UNL     1      14.720  35.052  17.339  1.00  0.00     0.000 C 
HETATM   28  C18 UNL     1      15.210  33.652  17.492  1.00  0.00     0.000 C 
HETATM   29  C19 UNL     1      15.725  33.030  16.208  1.00  0.00     0.005 C 
ENDBRANCH  23  24
ENDBRANCH   1  23
BRANCH   1  30
HETATM   30  C20 UNL     1      19.502  31.904  15.348  1.00  0.00     0.188 C 
HETATM   31  O3  UNL     1      19.239  31.411  16.428  1.00  0.00    -0.292 OA
BRANCH  30  32
HETATM   32  C21 UNL     1      20.151  30.996  14.371  1.00  0.00     0.304 C 
BRANCH  32  33
HETATM   33  O4  UNL     1      20.420  29.710  14.880  1.00  0.00    -0.275 OA
BRANCH  33  34
HETATM   34  C22 UNL     1      20.236  28.587  14.088  1.00  0.00     0.408 C 
HETATM   35  O5  UNL     1      21.255  27.974  13.660  1.00  0.00    -0.229 OA
BRANCH  34  36
HETATM   36  O6  UNL     1      19.001  28.080  13.726  1.00  0.00    -0.293 OA
BRANCH  36  37
HETATM   37  C23 UNL     1      18.532  28.152  12.369  1.00  0.00     0.134 C 
HETATM   38  C24 UNL     1      17.497  29.249  12.230  1.00  0.00     0.032 C 
HETATM   39  C25 UNL     1      16.685  29.014  10.978  1.00  0.00     0.002 C 
HETATM   40  C26 UNL     1      17.483  28.135  10.041  1.00  0.00     0.000 C 
HETATM   41  C27 UNL     1      17.599  26.724  10.576  1.00  0.00     0.002 C 
HETATM   42  C28 UNL     1      17.930  26.812  12.043  1.00  0.00     0.032 C 
ENDBRANCH  36  37
ENDBRANCH  34  36
ENDBRANCH  33  34
ENDBRANCH  32  33
BRANCH  32  43
HETATM   43  C29 UNL     1      21.435  31.552  13.866  1.00  0.00     0.295 C 
HETATM   44  O7  UNL     1      21.540  32.119  12.745  1.00  0.00    -0.262 OA
BRANCH  43  45
HETATM   45  O8  UNL     1      22.594  31.470  14.618  1.00  0.00    -0.324 OA
HETATM   46  C30 UNL     1      23.629  32.431  14.524  1.00  0.00     0.213 C 
ENDBRANCH  43  45
ENDBRANCH  32  43
ENDBRANCH  30  32
ENDBRANCH   1  30
TORSDOF 16
ENDMDL
MODEL 2
REMARK VINA RESULT: -8.789166354      3.802      9.828
REMARK  16 active torsions:
REMARK  status: ('A' for Active; 'I' for Inactive)
REMARK    1  A    between atoms: C2_2  and  C3_3 
REMARK    2  A    between atoms: C3_3  and  C4_4 
REMARK    3  A    between atoms: C4_4  and  C5_5 
REMARK    4  A    between atoms: C5_5  and  N1_6 
REMARK    5  A    between atoms: C5_5  and  C11_18 
REMARK       I    between atoms: N1_6  and  C6_8 
REMARK       I    between atoms: C6_8  and  N2_10 
REMARK       I    between atoms: C11_18  and  N4_20 
REMARK    6  A    between atoms: N4_20  and  C12_22 
REMARK    7  A    between atoms: C12_22  and  C13_23 
REMARK    8  A    between atoms: C12_22  and  C20_30 
REMARK    9  A    between atoms: C13_23  and  C14_24 
REMARK   10  A    between atoms: C20_30  and  C21_32 
REMARK   11  A    between atoms: C21_32  and  O4_33 
REMARK   12  A    between atoms: C21_32  and  C29_43 
REMARK   13  A    between atoms: O4_33  and  C22_34 
REMARK   14  A    between atoms: C22_34  and  O6_36 
REMARK   15  A    between atoms: O6_36  and  C23_37 
REMARK   16  A    between atoms: C29_43  and  O8_45 
ROOT
HETATM    1  C12 UNL     1      21.309  30.820  14.019  1.00  0.00     0.158 C 
ENDROOT
BRANCH   1   2
HETATM    2  N4  UNL     1      21.901  29.702  13.278  1.00  0.00    -0.348 N 
HETATM    3  C11 UNL     1      21.710  29.569  11.874  1.00  0.00     0.241 C 
HETATM    4  O2  UNL     1      21.024  30.427  11.270  1.00  0.00    -0.271 OA
ATOM      5  H4  UNL     1      22.459  29.008  13.776  1.00  0.00     0.163 HD
BRANCH   3   6
HETATM    6  C5  UNL     1      22.315  28.428  11.130  1.00  0.00     0.178 C 
BRANCH   6   7
HETATM    7  C4  UNL     1      23.330  27.696  11.929  1.00  0.00     0.035 C 
BRANCH   7   8
HETATM    8  C3  UNL     1      24.643  27.416  11.325  1.00  0.00     0.002 C 
BRANCH   8   9
HETATM    9  C2  UNL     1      25.065  26.007  11.137  1.00  0.00    -0.004 C 
HETATM   10  C1  UNL     1      25.177  25.717   9.621  1.00  0.00     0.005 C 
ENDBRANCH   8   9
ENDBRANCH   7   8
ENDBRANCH   6   7
BRANCH   6  11
HETATM   11  N1  UNL     1      21.298  27.590  10.537  1.00  0.00    -0.330 N 
HETATM   12  C6  UNL     1      20.259  27.003  11.301  1.00  0.00     0.319 C 
HETATM   13  O1  UNL     1      20.213  27.207  12.527  1.00  0.00    -0.247 OA
HETATM   14  N2  UNL     1      19.270  26.186  10.692  1.00  0.00    -0.331 N 
HETATM   15  C7  UNL     1      19.298  25.922   9.251  1.00  0.00     0.155 C 
HETATM   16  C10 UNL     1      18.237  25.633  11.545  1.00  0.00     0.155 C 
HETATM   17  C8  UNL     1      18.501  24.678   8.901  1.00  0.00     0.252 C 
HETATM   18  N3  UNL     1      18.485  23.772  10.061  1.00  0.00    -0.072 N 
HETATM   19  C9  UNL     1      17.624  24.372  11.059  1.00  0.00     0.252 C 
ATOM     20  H32 UNL     1      18.214  22.819   9.821  1.00  0.00     0.277 HD
ATOM     21  H31 UNL     1      19.418  23.558  10.414  1.00  0.00     0.277 HD
ATOM     22  H1  UNL     1      21.330  27.414   9.533  1.00  0.00     0.165 HD
ENDBRANCH   6  11
ENDBRANCH   3   6
ENDBRANCH   1   2
BRANCH   1  23
HETATM   23  C13 UNL     1      22.258  31.253  15.066  1.00  0.00     0.037 C 
BRANCH  23  24
HETATM   24  C14 UNL     1      22.125  32.573  15.687  1.00  0.00    -0.012 C 
HETATM   25  C15 UNL     1      22.692  32.805  17.037  1.00  0.00     0.005 C 
HETATM   26  C16 UNL     1      21.855  33.952  17.656  1.00  0.00     0.000 C 
HETATM   27  C17 UNL     1      22.051  35.186  16.804  1.00  0.00     0.000 C 
HETATM   28  C18 UNL     1      21.881  34.960  15.340  1.00  0.00     0.000 C 
HETATM   29  C19 UNL     1      22.590  33.726  14.815  1.00  0.00     0.005 C 
ENDBRANCH  23  24
ENDBRANCH   1  23
BRANCH   1  30
HETATM   30  C20 UNL     1      20.101  30.281  14.700  1.00  0.00     0.188 C 
HETATM   31  O3  UNL     1      20.248  29.471  15.595  1.00  0.00    -0.292 OA
BRANCH  30  32
HETATM   32  C21 UNL     1      18.697  30.642  14.386  1.00  0.00     0.304 C 
BRANCH  32  33
HETATM   33  O4  UNL     1      17.870  30.749  15.523  1.00  0.00    -0.275 OA
BRANCH  33  34
HETATM   34  C22 UNL     1      17.648  31.981  16.118  1.00  0.00     0.408 C 
HETATM   35  O5  UNL     1      18.620  32.572  16.669  1.00  0.00    -0.229 OA
BRANCH  34  36
HETATM   36  O6  UNL     1      16.422  32.621  16.155  1.00  0.00    -0.293 OA
BRANCH  36  37
HETATM   37  C23 UNL     1      16.278  33.929  16.733  1.00  0.00     0.134 C 
HETATM   38  C24 UNL     1      14.988  34.015  17.521  1.00  0.00     0.032 C 
HETATM   39  C25 UNL     1      14.616  35.467  17.713  1.00  0.00     0.002 C 
HETATM   40  C26 UNL     1      15.860  36.311  17.553  1.00  0.00     0.000 C 
HETATM   41  C27 UNL     1      16.333  36.325  16.114  1.00  0.00     0.002 C 
HETATM   42  C28 UNL     1      16.271  34.913  15.594  1.00  0.00     0.032 C 
ENDBRANCH  36  37
ENDBRANCH  34  36
ENDBRANCH  33  34
ENDBRANCH  32  33
BRANCH  32  43
HETATM   43  C29 UNL     1      18.064  29.662  13.465  1.00  0.00     0.295 C 
HETATM   44  O7  UNL     1      17.617  28.549  13.855  1.00  0.00    -0.262 OA
BRANCH  43  45
HETATM   45  O8  UNL     1      17.935  29.930  12.113  1.00  0.00    -0.324 OA
HETATM   46  C30 UNL     1      17.126  29.145  11.257  1.00  0.00     0.213 C 
ENDBRANCH  43  45
ENDBRANCH  32  43
ENDBRANCH  30  32
ENDBRANCH   1  30
TORSDOF 16
ENDMDL
MODEL 3
REMARK VINA RESULT: -8.787800899      2.591      5.813
REMARK  16 active torsions:
REMARK  status: ('A' for Active; 'I' for Inactive)
REMARK    1  A    between atoms: C2_2  and  C3_3 
REMARK    2  A    between atoms: C3_3  and  C4_4 
REMARK    3  A    between atoms: C4_4  and  C5_5 
REMARK    4  A    between atoms: C5_5  and  N1_6 
REMARK    5  A    between atoms: C5_5  and  C11_18 
REMARK       I    between atoms: N1_6  and  C6_8 
REMARK       I    between atoms: C6_8  and  N2_10 
REMARK       I    between atoms: C11_18  and  N4_20 
REMARK    6  A    between atoms: N4_20  and  C12_22 
REMARK    7  A    between atoms: C12_22  and  C13_23 
REMARK    8  A    between atoms: C12_22  and  C20_30 
REMARK    9  A    between atoms: C13_23  and  C14_24 
REMARK   10  A    between atoms: C20_30  and  C21_32 
REMARK   11  A    between atoms: C21_32  and  O4_33 
REMARK   12  A    between atoms: C21_32  and  C29_43 
REMARK   13  A    between atoms: O4_33  and  C22_34 
REMARK   14  A    between atoms: C22_34  and  O6_36 
REMARK   15  A    between atoms: O6_36  and  C23_37 
REMARK   16  A    between atoms: C29_43  and  O8_45 
ROOT
HETATM    1  C12 UNL     1      18.520  30.642  13.830  1.00  0.00     0.158 C 
ENDROOT
BRANCH   1   2
HETATM    2  N4  UNL     1      17.856  31.538  14.782  1.00  0.00    -0.348 N 
HETATM    3  C11 UNL     1      17.871  32.949  14.595  1.00  0.00     0.241 C 
HETATM    4  O2  UNL     1      18.462  33.424  13.596  1.00  0.00    -0.271 OA
ATOM      5  H4  UNL     1      17.377  31.144  15.592  1.00  0.00     0.163 HD
BRANCH   3   6
HETATM    6  C5  UNL     1      17.194  33.851  15.569  1.00  0.00     0.178 C 
BRANCH   6   7
HETATM    7  C4  UNL     1      16.289  33.121  16.494  1.00  0.00     0.035 C 
BRANCH   7   8
HETATM    8  C3  UNL     1      15.638  33.866  17.585  1.00  0.00     0.002 C 
BRANCH   8   9
HETATM    9  C2  UNL     1      14.595  34.866  17.253  1.00  0.00    -0.004 C 
HETATM   10  C1  UNL     1      15.098  36.269  17.669  1.00  0.00     0.005 C 
ENDBRANCH   8   9
ENDBRANCH   7   8
ENDBRANCH   6   7
BRANCH   6  11
HETATM   11  N1  UNL     1      18.142  34.724  16.222  1.00  0.00    -0.330 N 
HETATM   12  C6  UNL     1      19.330  34.240  16.824  1.00  0.00     0.319 C 
HETATM   13  O1  UNL     1      19.573  33.020  16.799  1.00  0.00    -0.247 OA
HETATM   14  N2  UNL     1      20.247  35.121  17.455  1.00  0.00    -0.331 N 
HETATM   15  C7  UNL     1      19.988  36.562  17.506  1.00  0.00     0.155 C 
HETATM   16  C10 UNL     1      21.441  34.543  18.037  1.00  0.00     0.155 C 
HETATM   17  C8  UNL     1      20.786  37.229  18.614  1.00  0.00     0.252 C 
HETATM   18  N3  UNL     1      21.054  36.245  19.675  1.00  0.00    -0.072 N 
HETATM   19  C9  UNL     1      22.036  35.315  19.157  1.00  0.00     0.252 C 
ATOM     20  H32 UNL     1      21.336  36.674  20.556  1.00  0.00     0.277 HD
ATOM     21  H31 UNL     1      20.210  35.786  20.017  1.00  0.00     0.277 HD
ATOM     22  H1  UNL     1      17.950  35.726  16.251  1.00  0.00     0.165 HD
ENDBRANCH   6  11
ENDBRANCH   3   6
ENDBRANCH   1   2
BRANCH   1  23
HETATM   23  C13 UNL     1      17.843  29.329  13.861  1.00  0.00     0.037 C 
BRANCH  23  24
HETATM   24  C14 UNL     1      17.849  28.464  12.678  1.00  0.00    -0.012 C 
HETATM   25  C15 UNL     1      17.523  27.025  12.824  1.00  0.00     0.005 C 
HETATM   26  C16 UNL     1      18.239  26.308  11.653  1.00  0.00     0.000 C 
HETATM   27  C17 UNL     1      17.656  26.832  10.359  1.00  0.00     0.000 C 
HETATM   28  C18 UNL     1      17.576  28.318  10.273  1.00  0.00     0.000 C 
HETATM   29  C19 UNL     1      17.018  28.983  11.518  1.00  0.00     0.005 C 
ENDBRANCH  23  24
ENDBRANCH   1  23
BRANCH   1  30
HETATM   30  C20 UNL     1      19.907  30.447  14.332  1.00  0.00     0.188 C 
HETATM   31  O3  UNL     1      20.072  30.208  15.514  1.00  0.00    -0.292 OA
BRANCH  30  32
HETATM   32  C21 UNL     1      21.142  30.517  13.514  1.00  0.00     0.304 C 
BRANCH  32  33
HETATM   33  O4  UNL     1      21.831  29.291  13.419  1.00  0.00    -0.275 OA
BRANCH  33  34
HETATM   34  C22 UNL     1      21.628  28.452  12.335  1.00  0.00     0.408 C 
HETATM   35  O5  UNL     1      21.034  28.910  11.317  1.00  0.00    -0.229 OA
BRANCH  34  36
HETATM   36  O6  UNL     1      22.031  27.130  12.283  1.00  0.00    -0.293 OA
BRANCH  36  37
HETATM   37  C23 UNL     1      22.900  26.652  11.243  1.00  0.00     0.134 C 
HETATM   38  C24 UNL     1      22.593  25.204  10.927  1.00  0.00     0.032 C 
HETATM   39  C25 UNL     1      23.773  24.587  10.213  1.00  0.00     0.002 C 
HETATM   40  C26 UNL     1      24.595  25.694   9.591  1.00  0.00     0.000 C 
HETATM   41  C27 UNL     1      25.300  26.516  10.650  1.00  0.00     0.002 C 
HETATM   42  C28 UNL     1      24.310  26.797  11.750  1.00  0.00     0.032 C 
ENDBRANCH  36  37
ENDBRANCH  34  36
ENDBRANCH  33  34
ENDBRANCH  32  33
BRANCH  32  43
HETATM   43  C29 UNL     1      22.099  31.526  14.039  1.00  0.00     0.295 C 
HETATM   44  O7  UNL     1      23.112  31.217  14.722  1.00  0.00    -0.262 OA
BRANCH  43  45
HETATM   45  O8  UNL     1      21.917  32.878  13.797  1.00  0.00    -0.324 OA
HETATM   46  C30 UNL     1      22.429  33.878  14.658  1.00  0.00     0.213 C 
ENDBRANCH  43  45
ENDBRANCH  32  43
ENDBRANCH  30  32
ENDBRANCH   1  30
TORSDOF 16
ENDMDL
MODEL 4
REMARK VINA RESULT: -8.784328367      2.516      3.286
REMARK  16 active torsions:
REMARK  status: ('A' for Active; 'I' for Inactive)
REMARK    1  A    between atoms: C2_2  and  C3_3 
REMARK    2  A    between atoms: C3_3  and  C4_4 
REMARK    3  A    between atoms: C4_4  and  C5_5 
REMARK    4  A    between atoms: C5_5  and  N1_6 
REMARK    5  A    between atoms: C5_5  and  C11_18 
REMARK       I    between atoms: N1_6  and  C6_8 
REMARK       I    between atoms: C6_8  and  N2_10 
REMARK       I    between atoms: C11_18  and  N4_20 
REMARK    6  A    between atoms: N4_20  and  C12_22 
REMARK    7  A    between atoms: C12_22  and  C13_23 
REMARK    8  A    between atoms: C12_22  and  C20_30 
REMARK    9  A    between atoms: C13_23  and  C14_24 
REMARK   10  A    between atoms: C20_30  and  C21_32 
REMARK   11  A    between atoms: C21_32  and  O4_33 
REMARK   12  A    between atoms: C21_32  and  C29_43 
REMARK   13  A    between atoms: O4_33  and  C22_34 
REMARK   14  A    between atoms: C22_34  and  O6_36 
REMARK   15  A    between atoms: O6_36  and  C23_37 
REMARK   16  A    between atoms: C29_43  and  O8_45 
ROOT
HETATM    1  C12 UNL     1      19.303  32.255  14.825  1.00  0.00     0.158 C 
ENDROOT
BRANCH   1   2
HETATM    2  N4  UNL     1      19.529  32.911  16.117  1.00  0.00    -0.348 N 
HETATM    3  C11 UNL     1      20.513  33.928  16.261  1.00  0.00     0.241 C 
HETATM    4  O2  UNL     1      21.192  34.263  15.262  1.00  0.00    -0.271 OA
ATOM      5  H4  UNL     1      18.972  32.633  16.924  1.00  0.00     0.163 HD
BRANCH   3   6
HETATM    6  C5  UNL     1      20.736  34.587  17.579  1.00  0.00     0.178 C 
BRANCH   6   7
HETATM    7  C4  UNL     1      22.174  34.674  17.942  1.00  0.00     0.035 C 
BRANCH   7   8
HETATM    8  C3  UNL     1      22.619  35.764  18.826  1.00  0.00     0.002 C 
BRANCH   8   9
HETATM    9  C2  UNL     1      22.409  35.638  20.288  1.00  0.00    -0.004 C 
HETATM   10  C1  UNL     1      23.775  35.777  21.002  1.00  0.00     0.005 C 
ENDBRANCH   8   9
ENDBRANCH   7   8
ENDBRANCH   6   7
BRANCH   6  11
HETATM   11  N1  UNL     1      20.018  35.838  17.669  1.00  0.00    -0.330 N 
HETATM   12  C6  UNL     1      18.671  35.911  18.102  1.00  0.00     0.319 C 
HETATM   13  O1  UNL     1      18.074  34.865  18.417  1.00  0.00    -0.247 OA
HETATM   14  N2  UNL     1      17.992  37.154  18.185  1.00  0.00    -0.331 N 
HETATM   15  C7  UNL     1      18.664  38.403  17.819  1.00  0.00     0.155 C 
HETATM   16  C10 UNL     1      16.618  37.140  18.648  1.00  0.00     0.155 C 
HETATM   17  C8  UNL     1      17.662  39.499  17.500  1.00  0.00     0.252 C 
HETATM   18  N3  UNL     1      16.411  38.886  17.025  1.00  0.00    -0.072 N 
HETATM   19  C9  UNL     1      15.778  38.266  18.169  1.00  0.00     0.252 C 
ATOM     20  H32 UNL     1      15.802  39.544  16.539  1.00  0.00     0.277 HD
ATOM     21  H31 UNL     1      16.553  38.241  16.247  1.00  0.00     0.277 HD
ATOM     22  H1  UNL     1      20.498  36.700  17.410  1.00  0.00     0.165 HD
ENDBRANCH   6  11
ENDBRANCH   3   6
ENDBRANCH   1   2
BRANCH   1  23
HETATM   23  C13 UNL     1      17.848  32.155  14.589  1.00  0.00     0.037 C 
BRANCH  23  24
HETATM   24  C14 UNL     1      16.924  33.072  15.262  1.00  0.00    -0.012 C 
HETATM   25  C15 UNL     1      16.422  34.264  14.537  1.00  0.00     0.005 C 
HETATM   26  C16 UNL     1      16.076  35.308  15.628  1.00  0.00     0.000 C 
HETATM   27  C17 UNL     1      14.973  34.736  16.489  1.00  0.00     0.000 C 
HETATM   28  C18 UNL     1      15.217  33.343  16.963  1.00  0.00     0.000 C 
HETATM   29  C19 UNL     1      15.714  32.399  15.884  1.00  0.00     0.005 C 
ENDBRANCH  23  24
ENDBRANCH   1  23
BRANCH   1  30
HETATM   30  C20 UNL     1      19.836  30.872  14.955  1.00  0.00     0.188 C 
HETATM   31  O3  UNL     1      19.990  30.409  16.069  1.00  0.00    -0.292 OA
BRANCH  30  32
HETATM   32  C21 UNL     1      20.208  29.978  13.832  1.00  0.00     0.304 C 
BRANCH  32  33
HETATM   33  O4  UNL     1      21.521  29.473  13.918  1.00  0.00    -0.275 OA
BRANCH  33  34
HETATM   34  C22 UNL     1      21.952  28.483  13.048  1.00  0.00     0.408 C 
HETATM   35  O5  UNL     1      21.185  27.506  12.813  1.00  0.00    -0.229 OA
BRANCH  34  36
HETATM   36  O6  UNL     1      23.178  28.485  12.408  1.00  0.00    -0.293 OA
BRANCH  36  37
HETATM   37  C23 UNL     1      23.608  27.370  11.611  1.00  0.00     0.134 C 
HETATM   38  C24 UNL     1      25.001  26.938  12.021  1.00  0.00     0.032 C 
HETATM   39  C25 UNL     1      25.618  26.120  10.911  1.00  0.00     0.002 C 
HETATM   40  C26 UNL     1      24.510  25.566  10.044  1.00  0.00     0.000 C 
HETATM   41  C27 UNL     1      23.832  26.662   9.249  1.00  0.00     0.002 C 
HETATM   42  C28 UNL     1      23.596  27.826  10.176  1.00  0.00     0.032 C 
ENDBRANCH  36  37
ENDBRANCH  34  36
ENDBRANCH  33  34
ENDBRANCH  32  33
BRANCH  32  43
HETATM   43  C29 UNL     1      20.078  30.658  12.516  1.00  0.00     0.295 C 
HETATM   44  O7  UNL     1      20.924  31.490  12.090  1.00  0.00    -0.262 OA
BRANCH  43  45
HETATM   45  O8  UNL     1      19.002  30.403  11.683  1.00  0.00    -0.324 OA
HETATM   46  C30 UNL     1      18.033  29.414  11.976  1.00  0.00     0.213 C 
ENDBRANCH  43  45
ENDBRANCH  32  43
ENDBRANCH  30  32
ENDBRANCH   1  30
TORSDOF 16
ENDMDL
MODEL 5
REMARK VINA RESULT: -8.735335841      1.312      1.536
REMARK  16 active torsions:
REMARK  status: ('A' for Active; 'I' for Inactive)
REMARK    1  A    between atoms: C2_2  and  C3_3 
REMARK    2  A    between atoms: C3_3  and  C4_4 
REMARK    3  A    between atoms: C4_4  and  C5_5 
REMARK    4  A    between atoms: C5_5  and  N1_6 
REMARK    5  A    between atoms: C5_5  and  C11_18 
REMARK       I    between atoms: N1_6  and  C6_8 
REMARK       I    between atoms: C6_8  and  N2_10 
REMARK       I    between atoms: C11_18  and  N4_20 
REMARK    6  A    between atoms: N4_20  and  C12_22 
REMARK    7  A    between atoms: C12_22  and  C13_23 
REMARK    8  A    between atoms: C12_22  and  C20_30 
REMARK    9  A    between atoms: C13_23  and  C14_24 
REMARK   10  A    between atoms: C20_30  and  C21_32 
REMARK   11  A    between atoms: C21_32  and  O4_33 
REMARK   12  A    between atoms: C21_32  and  C29_43 
REMARK   13  A    between atoms: O4_33  and  C22_34 
REMARK   14  A    between atoms: C22_34  and  O6_36 
REMARK   15  A    between atoms: O6_36  and  C23_37 
REMARK   16  A    between atoms: C29_43  and  O8_45 
ROOT
HETATM    1  C12 UNL     1      19.080  33.219  15.312  1.00  0.00     0.158 C 
ENDROOT
BRANCH   1   2
HETATM    2  N4  UNL     1      19.416  34.036  16.483  1.00  0.00    -0.348 N 
HETATM    3  C11 UNL     1      20.562  34.879  16.485  1.00  0.00     0.241 C 
HETATM    4  O2  UNL     1      21.289  34.920  15.465  1.00  0.00    -0.271 OA
ATOM      5  H4  UNL     1      18.819  33.998  17.309  1.00  0.00     0.163 HD
BRANCH   3   6
HETATM    6  C5  UNL     1      20.895  35.704  17.681  1.00  0.00     0.178 C 
BRANCH   6   7
HETATM    7  C4  UNL     1      21.954  35.091  18.523  1.00  0.00     0.035 C 
BRANCH   7   8
HETATM    8  C3  UNL     1      22.048  35.479  19.940  1.00  0.00     0.002 C 
BRANCH   8   9
HETATM    9  C2  UNL     1      23.140  36.385  20.368  1.00  0.00    -0.004 C 
HETATM   10  C1  UNL     1      24.111  35.599  21.282  1.00  0.00     0.005 C 
ENDBRANCH   8   9
ENDBRANCH   7   8
ENDBRANCH   6   7
BRANCH   6  11
HETATM   11  N1  UNL     1      21.139  37.081  17.318  1.00  0.00    -0.330 N 
HETATM   12  C6  UNL     1      20.537  38.165  18.004  1.00  0.00     0.319 C 
HETATM   13  O1  UNL     1      19.766  37.933  18.953  1.00  0.00    -0.247 OA
HETATM   14  N2  UNL     1      20.799  39.509  17.629  1.00  0.00    -0.331 N 
HETATM   15  C7  UNL     1      21.698  39.815  16.514  1.00  0.00     0.155 C 
HETATM   16  C10 UNL     1      20.149  40.557  18.390  1.00  0.00     0.155 C 
HETATM   17  C8  UNL     1      21.453  41.213  15.973  1.00  0.00     0.252 C 
HETATM   18  N3  UNL     1      20.056  41.594  16.235  1.00  0.00    -0.072 N 
HETATM   19  C9  UNL     1      19.938  41.831  17.658  1.00  0.00     0.252 C 
ATOM     20  H32 UNL     1      19.744  42.384  15.671  1.00  0.00     0.277 HD
ATOM     21  H31 UNL     1      19.383  40.911  15.886  1.00  0.00     0.277 HD
ATOM     22  H1  UNL     1      21.768  37.280  16.539  1.00  0.00     0.165 HD
ENDBRANCH   6  11
ENDBRANCH   3   6
ENDBRANCH   1   2
BRANCH   1  23
HETATM   23  C13 UNL     1      17.635  33.356  15.035  1.00  0.00     0.037 C 
BRANCH  23  24
HETATM   24  C14 UNL     1      16.774  34.114  15.947  1.00  0.00    -0.012 C 
HETATM   25  C15 UNL     1      16.248  35.435  15.526  1.00  0.00     0.005 C 
HETATM   26  C16 UNL     1      15.994  36.225  16.833  1.00  0.00     0.000 C 
HETATM   27  C17 UNL     1      14.939  35.488  17.627  1.00  0.00     0.000 C 
HETATM   28  C18 UNL     1      15.187  34.026  17.778  1.00  0.00     0.000 C 
HETATM   29  C19 UNL     1      15.595  33.329  16.493  1.00  0.00     0.005 C 
ENDBRANCH  23  24
ENDBRANCH   1  23
BRANCH   1  30
HETATM   30  C20 UNL     1      19.334  31.805  15.697  1.00  0.00     0.188 C 
HETATM   31  O3  UNL     1      18.559  31.260  16.459  1.00  0.00    -0.292 OA
BRANCH  30  32
HETATM   32  C21 UNL     1      20.469  30.972  15.232  1.00  0.00     0.304 C 
BRANCH  32  33
HETATM   33  O4  UNL     1      20.353  29.610  15.575  1.00  0.00    -0.275 OA
BRANCH  33  34
HETATM   34  C22 UNL     1      20.197  28.647  14.590  1.00  0.00     0.408 C 
HETATM   35  O5  UNL     1      21.231  28.177  14.033  1.00  0.00    -0.229 OA
BRANCH  34  36
HETATM   36  O6  UNL     1      18.977  28.153  14.165  1.00  0.00    -0.293 OA
BRANCH  36  37
HETATM   37  C23 UNL     1      18.582  28.222  12.785  1.00  0.00     0.134 C 
HETATM   38  C24 UNL     1      17.633  29.381  12.568  1.00  0.00     0.032 C 
HETATM   39  C25 UNL     1      16.871  29.170  11.281  1.00  0.00     0.002 C 
HETATM   40  C26 UNL     1      17.654  28.215  10.406  1.00  0.00     0.000 C 
HETATM   41  C27 UNL     1      17.645  26.813  10.978  1.00  0.00     0.002 C 
HETATM   42  C28 UNL     1      17.908  26.916  12.457  1.00  0.00     0.032 C 
ENDBRANCH  36  37
ENDBRANCH  34  36
ENDBRANCH  33  34
ENDBRANCH  32  33
BRANCH  32  43
HETATM   43  C29 UNL     1      21.769  31.456  15.766  1.00  0.00     0.295 C 
HETATM   44  O7  UNL     1      21.896  31.930  16.928  1.00  0.00    -0.262 OA
BRANCH  43  45
HETATM   45  O8  UNL     1      22.920  31.408  14.999  1.00  0.00    -0.324 OA
HETATM   46  C30 UNL     1      23.495  32.564  14.419  1.00  0.00     0.213 C 
ENDBRANCH  43  45
ENDBRANCH  32  43
ENDBRANCH  30  32
ENDBRANCH   1  30
TORSDOF 16
ENDMDL
