MODEL 1
REMARK VINA RESULT: -8.407540178      0.000      0.000
REMARK  16 active torsions:
REMARK  status: ('A' for Active; 'I' for Inactive)
REMARK    1  A    between atoms: C2_2  and  C4_4 
REMARK    2  A    between atoms: C4_4  and  C5_5 
REMARK    3  A    between atoms: C5_5  and  N1_6 
REMARK    4  A    between atoms: C5_5  and  C23_33 
REMARK       I    between atoms: N1_6  and  C6_8 
REMARK    5  A    between atoms: C6_8  and  C7_10 
REMARK    6  A    between atoms: C7_10  and  N2_12 
REMARK       I    between atoms: N2_12  and  C9_14 
REMARK    7  A    between atoms: C9_14  and  C10_16 
REMARK    8  A    between atoms: C10_16  and  C11_17 
REMARK    9  A    between atoms: C10_16  and  N3_24 
REMARK   10  A    between atoms: C11_17  and  C12_18 
REMARK       I    between atoms: N3_24  and  C18_26 
REMARK   11  A    between atoms: C18_26  and  O4_28 
REMARK   12  A    between atoms: O4_28  and  C19_29 
REMARK   13  A    between atoms: C23_33  and  C24_35 
REMARK   14  A    between atoms: C24_35  and  S1_36 
REMARK   15  A    between atoms: S1_36  and  C25_37 
REMARK   16  A    between atoms: C25_37  and  C27_39 
REMARK       I    between atoms: C27_39  and  N4_41 
ROOT
HETATM    1  C7  UNL     1      21.724  32.257  13.756  1.00  0.00     0.172 C 
HETATM    2  C8  UNL     1      22.714  31.229  14.372  1.00  0.00     0.042 C 
ENDROOT
BRANCH   1   3
HETATM    3  C6  UNL     1      20.842  31.517  12.832  1.00  0.00     0.240 C 
HETATM    4  N1  UNL     1      20.781  30.109  12.888  1.00  0.00    -0.348 N 
ATOM      5  H1  UNL     1      21.364  29.626  13.571  1.00  0.00     0.163 HD
HETATM    6  O1  UNL     1      20.146  32.131  11.998  1.00  0.00    -0.271 OA
BRANCH   4   7
HETATM    7  C5  UNL     1      19.916  29.295  12.006  1.00  0.00     0.159 C 
BRANCH   7   8
HETATM    8  C4  UNL     1      19.029  28.524  12.958  1.00  0.00     0.037 C 
BRANCH   8   9
HETATM    9  C2  UNL     1      17.627  29.052  12.983  1.00  0.00    -0.020 C 
HETATM   10  C1  UNL     1      17.161  29.232  11.541  1.00  0.00     0.009 C 
HETATM   11  C3  UNL     1      17.491  30.393  13.640  1.00  0.00     0.009 C 
ENDBRANCH   8   9
ENDBRANCH   7   8
BRANCH   7  12
HETATM   12  C23 UNL     1      20.744  28.336  11.258  1.00  0.00     0.178 C 
HETATM   13  O5  UNL     1      20.149  27.299  10.826  1.00  0.00    -0.290 OA
BRANCH  12  14
HETATM   14  C24 UNL     1      22.148  28.410  10.932  1.00  0.00     0.098 C 
BRANCH  14  15
HETATM   15  S1  UNL     1      23.383  27.525  11.784  1.00  0.00    -0.124 SA
BRANCH  15  16
HETATM   16  C25 UNL     1      24.039  26.021  11.162  1.00  0.00     0.139 C 
HETATM   17  C26 UNL     1      25.509  26.008  11.010  1.00  0.00     0.031 C 
BRANCH  16  18
HETATM   18  C27 UNL     1      23.446  25.712   9.807  1.00  0.00     0.232 C 
HETATM   19  O6  UNL     1      23.957  26.182   8.790  1.00  0.00    -0.272 OA
HETATM   20  N4  UNL     1      22.300  24.881   9.702  1.00  0.00    -0.360 N 
HETATM   21  C28 UNL     1      21.748  24.601   8.405  1.00  0.00     0.152 C 
HETATM   22  C29 UNL     1      21.678  24.309  10.886  1.00  0.00     0.152 C 
ENDBRANCH  16  18
ENDBRANCH  15  16
ENDBRANCH  14  15
ENDBRANCH  12  14
ENDBRANCH   7  12
ENDBRANCH   4   7
ENDBRANCH   1   3
BRANCH   1  23
HETATM   23  N2  UNL     1      21.034  32.798  14.883  1.00  0.00    -0.346 N 
HETATM   24  C9  UNL     1      21.393  34.012  15.532  1.00  0.00     0.241 C 
HETATM   25  O2  UNL     1      22.383  34.635  15.069  1.00  0.00    -0.271 OA
ATOM     26  H2  UNL     1      20.233  32.281  15.246  1.00  0.00     0.163 HD
BRANCH  24  27
HETATM   27  C10 UNL     1      20.639  34.521  16.706  1.00  0.00     0.179 C 
BRANCH  27  28
HETATM   28  C11 UNL     1      21.402  34.433  17.991  1.00  0.00     0.039 C 
BRANCH  28  29
HETATM   29  C12 UNL     1      20.989  35.313  19.089  1.00  0.00    -0.012 C 
HETATM   30  C13 UNL     1      21.755  35.215  20.363  1.00  0.00     0.005 C 
HETATM   31  C14 UNL     1      23.103  35.894  20.332  1.00  0.00     0.000 C 
HETATM   32  C15 UNL     1      22.962  37.360  19.900  1.00  0.00     0.000 C 
HETATM   33  C16 UNL     1      22.421  37.279  18.464  1.00  0.00     0.000 C 
HETATM   34  C17 UNL     1      21.026  36.744  18.575  1.00  0.00     0.005 C 
ENDBRANCH  28  29
ENDBRANCH  27  28
BRANCH  27  35
HETATM   35  N3  UNL     1      19.440  33.725  16.868  1.00  0.00    -0.324 N 
HETATM   36  C18 UNL     1      18.161  34.338  17.114  1.00  0.00     0.362 C 
HETATM   37  O3  UNL     1      18.085  35.588  17.199  1.00  0.00    -0.238 OA
ATOM     38  H3  UNL     1      19.503  32.708  16.807  1.00  0.00     0.165 HD
BRANCH  36  39
HETATM   39  O4  UNL     1      17.016  33.600  17.260  1.00  0.00    -0.294 OA
BRANCH  39  40
HETATM   40  C19 UNL     1      15.875  33.691  16.430  1.00  0.00     0.061 C 
HETATM   41  C20 UNL     1      15.372  32.291  16.129  1.00  0.00     0.046 C 
HETATM   42  C21 UNL     1      14.761  34.508  16.996  1.00  0.00     0.046 C 
HETATM   43  C22 UNL     1      16.247  34.309  15.076  1.00  0.00     0.046 C 
ENDBRANCH  39  40
ENDBRANCH  36  39
ENDBRANCH  27  35
ENDBRANCH  24  27
ENDBRANCH   1  23
TORSDOF 16
ENDMDL
MODEL 2
REMARK VINA RESULT: -8.258990379      1.649      2.486
REMARK  16 active torsions:
REMARK  status: ('A' for Active; 'I' for Inactive)
REMARK    1  A    between atoms: C2_2  and  C4_4 
REMARK    2  A    between atoms: C4_4  and  C5_5 
REMARK    3  A    between atoms: C5_5  and  N1_6 
REMARK    4  A    between atoms: C5_5  and  C23_33 
REMARK       I    between atoms: N1_6  and  C6_8 
REMARK    5  A    between atoms: C6_8  and  C7_10 
REMARK    6  A    between atoms: C7_10  and  N2_12 
REMARK       I    between atoms: N2_12  and  C9_14 
REMARK    7  A    between atoms: C9_14  and  C10_16 
REMARK    8  A    between atoms: C10_16  and  C11_17 
REMARK    9  A    between atoms: C10_16  and  N3_24 
REMARK   10  A    between atoms: C11_17  and  C12_18 
REMARK       I    between atoms: N3_24  and  C18_26 
REMARK   11  A    between atoms: C18_26  and  O4_28 
REMARK   12  A    between atoms: O4_28  and  C19_29 
REMARK   13  A    between atoms: C23_33  and  C24_35 
REMARK   14  A    between atoms: C24_35  and  S1_36 
REMARK   15  A    between atoms: S1_36  and  C25_37 
REMARK   16  A    between atoms: C25_37  and  C27_39 
REMARK       I    between atoms: C27_39  and  N4_41 
ROOT
HETATM    1  C7  UNL     1      21.637  31.544  13.406  1.00  0.00     0.172 C 
HETATM    2  C8  UNL     1      22.260  30.291  14.084  1.00  0.00     0.042 C 
ENDROOT
BRANCH   1   3
HETATM    3  C6  UNL     1      20.686  31.061  12.385  1.00  0.00     0.240 C 
HETATM    4  N1  UNL     1      20.371  29.688  12.303  1.00  0.00    -0.348 N 
ATOM      5  H1  UNL     1      20.823  29.049  12.957  1.00  0.00     0.163 HD
HETATM    6  O1  UNL     1      20.153  31.863  11.591  1.00  0.00    -0.271 OA
BRANCH   4   7
HETATM    7  C5  UNL     1      19.420  29.127  11.319  1.00  0.00     0.159 C 
BRANCH   7   8
HETATM    8  C4  UNL     1      18.119  29.008  12.079  1.00  0.00     0.037 C 
BRANCH   8   9
HETATM    9  C2  UNL     1      18.334  28.714  13.533  1.00  0.00    -0.020 C 
HETATM   10  C1  UNL     1      17.562  27.445  13.881  1.00  0.00     0.009 C 
HETATM   11  C3  UNL     1      17.823  29.783  14.453  1.00  0.00     0.009 C 
ENDBRANCH   8   9
ENDBRANCH   7   8
BRANCH   7  12
HETATM   12  C23 UNL     1      19.859  27.778  10.929  1.00  0.00     0.178 C 
HETATM   13  O5  UNL     1      21.012  27.426  11.334  1.00  0.00    -0.290 OA
BRANCH  12  14
HETATM   14  C24 UNL     1      19.157  26.782  10.155  1.00  0.00     0.098 C 
BRANCH  14  15
HETATM   15  S1  UNL     1      18.429  25.361  10.847  1.00  0.00    -0.124 SA
BRANCH  15  16
HETATM   16  C25 UNL     1      19.253  23.811  10.860  1.00  0.00     0.139 C 
HETATM   17  C26 UNL     1      19.061  23.023  12.095  1.00  0.00     0.031 C 
BRANCH  16  18
HETATM   18  C27 UNL     1      20.740  24.008  10.681  1.00  0.00     0.232 C 
HETATM   19  O6  UNL     1      21.463  24.166  11.665  1.00  0.00    -0.272 OA
HETATM   20  N4  UNL     1      21.307  24.012   9.379  1.00  0.00    -0.360 N 
HETATM   21  C28 UNL     1      22.724  24.204   9.228  1.00  0.00     0.152 C 
HETATM   22  C29 UNL     1      20.478  23.823   8.199  1.00  0.00     0.152 C 
ENDBRANCH  16  18
ENDBRANCH  15  16
ENDBRANCH  14  15
ENDBRANCH  12  14
ENDBRANCH   7  12
ENDBRANCH   4   7
ENDBRANCH   1   3
BRANCH   1  23
HETATM   23  N2  UNL     1      21.008  32.247  14.477  1.00  0.00    -0.346 N 
HETATM   24  C9  UNL     1      21.470  33.487  14.998  1.00  0.00     0.241 C 
HETATM   25  O2  UNL     1      22.499  33.981  14.469  1.00  0.00    -0.271 OA
ATOM     26  H2  UNL     1      20.174  31.833  14.895  1.00  0.00     0.163 HD
BRANCH  24  27
HETATM   27  C10 UNL     1      20.774  34.168  16.120  1.00  0.00     0.179 C 
BRANCH  27  28
HETATM   28  C11 UNL     1      21.521  34.098  17.417  1.00  0.00     0.039 C 
BRANCH  28  29
HETATM   29  C12 UNL     1      22.458  35.184  17.721  1.00  0.00    -0.012 C 
HETATM   30  C13 UNL     1      22.323  36.440  16.933  1.00  0.00     0.005 C 
HETATM   31  C14 UNL     1      21.173  37.320  17.358  1.00  0.00     0.000 C 
HETATM   32  C15 UNL     1      21.253  37.633  18.858  1.00  0.00     0.000 C 
HETATM   33  C16 UNL     1      21.100  36.263  19.537  1.00  0.00     0.000 C 
HETATM   34  C17 UNL     1      22.341  35.493  19.207  1.00  0.00     0.005 C 
ENDBRANCH  28  29
ENDBRANCH  27  28
BRANCH  27  35
HETATM   35  N3  UNL     1      19.494  33.526  16.331  1.00  0.00    -0.324 N 
HETATM   36  C18 UNL     1      18.385  34.237  16.913  1.00  0.00     0.362 C 
HETATM   37  O3  UNL     1      18.535  35.436  17.252  1.00  0.00    -0.238 OA
ATOM     38  H3  UNL     1      19.374  32.549  16.062  1.00  0.00     0.165 HD
BRANCH  36  39
HETATM   39  O4  UNL     1      17.165  33.647  17.110  1.00  0.00    -0.294 OA
BRANCH  39  40
HETATM   40  C19 UNL     1      16.047  33.778  16.254  1.00  0.00     0.061 C 
HETATM   41  C20 UNL     1      14.923  34.460  17.013  1.00  0.00     0.046 C 
HETATM   42  C21 UNL     1      16.319  34.524  14.991  1.00  0.00     0.046 C 
HETATM   43  C22 UNL     1      15.513  32.395  15.857  1.00  0.00     0.046 C 
ENDBRANCH  39  40
ENDBRANCH  36  39
ENDBRANCH  27  35
ENDBRANCH  24  27
ENDBRANCH   1  23
TORSDOF 16
ENDMDL
MODEL 3
REMARK VINA RESULT: -8.190628560      2.060      4.045
REMARK  16 active torsions:
REMARK  status: ('A' for Active; 'I' for Inactive)
REMARK    1  A    between atoms: C2_2  and  C4_4 
REMARK    2  A    between atoms: C4_4  and  C5_5 
REMARK    3  A    between atoms: C5_5  and  N1_6 
REMARK    4  A    between atoms: C5_5  and  C23_33 
REMARK       I    between atoms: N1_6  and  C6_8 
REMARK    5  A    between atoms: C6_8  and  C7_10 
REMARK    6  A    between atoms: C7_10  and  N2_12 
REMARK       I    between atoms: N2_12  and  C9_14 
REMARK    7  A    between atoms: C9_14  and  C10_16 
REMARK    8  A    between atoms: C10_16  and  C11_17 
REMARK    9  A    between atoms: C10_16  and  N3_24 
REMARK   10  A    between atoms: C11_17  and  C12_18 
REMARK       I    between atoms: N3_24  and  C18_26 
REMARK   11  A    between atoms: C18_26  and  O4_28 
REMARK   12  A    between atoms: O4_28  and  C19_29 
REMARK   13  A    between atoms: C23_33  and  C24_35 
REMARK   14  A    between atoms: C24_35  and  S1_36 
REMARK   15  A    between atoms: S1_36  and  C25_37 
REMARK   16  A    between atoms: C25_37  and  C27_39 
REMARK       I    between atoms: C27_39  and  N4_41 
ROOT
HETATM    1  C7  UNL     1      21.777  32.806  14.880  1.00  0.00     0.172 C 
HETATM    2  C8  UNL     1      22.869  32.130  15.756  1.00  0.00     0.042 C 
ENDROOT
BRANCH   1   3
HETATM    3  C6  UNL     1      21.292  31.789  13.926  1.00  0.00     0.240 C 
HETATM    4  N1  UNL     1      20.548  30.683  14.387  1.00  0.00    -0.348 N 
ATOM      5  H1  UNL     1      20.367  30.605  15.387  1.00  0.00     0.163 HD
HETATM    6  O1  UNL     1      21.534  31.903  12.707  1.00  0.00    -0.271 OA
BRANCH   4   7
HETATM    7  C5  UNL     1      20.017  29.628  13.495  1.00  0.00     0.159 C 
BRANCH   7   8
HETATM    8  C4  UNL     1      18.808  29.091  14.228  1.00  0.00     0.037 C 
BRANCH   8   9
HETATM    9  C2  UNL     1      17.649  28.844  13.311  1.00  0.00    -0.020 C 
HETATM   10  C1  UNL     1      17.564  27.344  13.045  1.00  0.00     0.009 C 
HETATM   11  C3  UNL     1      17.782  29.502  11.969  1.00  0.00     0.009 C 
ENDBRANCH   8   9
ENDBRANCH   7   8
BRANCH   7  12
HETATM   12  C23 UNL     1      21.008  28.548  13.370  1.00  0.00     0.178 C 
HETATM   13  O5  UNL     1      21.628  28.232  14.434  1.00  0.00    -0.290 OA
BRANCH  12  14
HETATM   14  C24 UNL     1      21.372  27.780  12.204  1.00  0.00     0.098 C 
BRANCH  14  15
HETATM   15  S1  UNL     1      23.009  27.611  11.635  1.00  0.00    -0.124 SA
BRANCH  15  16
HETATM   16  C25 UNL     1      23.691  26.044  11.231  1.00  0.00     0.139 C 
HETATM   17  C26 UNL     1      25.169  26.004  11.215  1.00  0.00     0.031 C 
BRANCH  16  18
HETATM   18  C27 UNL     1      23.215  25.602   9.868  1.00  0.00     0.232 C 
HETATM   19  O6  UNL     1      23.800  25.990   8.856  1.00  0.00    -0.272 OA
HETATM   20  N4  UNL     1      22.092  24.740   9.749  1.00  0.00    -0.360 N 
HETATM   21  C28 UNL     1      21.652  24.334   8.443  1.00  0.00     0.152 C 
HETATM   22  C29 UNL     1      21.384  24.264  10.927  1.00  0.00     0.152 C 
ENDBRANCH  16  18
ENDBRANCH  15  16
ENDBRANCH  14  15
ENDBRANCH  12  14
ENDBRANCH   7  12
ENDBRANCH   4   7
ENDBRANCH   1   3
BRANCH   1  23
HETATM   23  N2  UNL     1      20.782  33.221  15.817  1.00  0.00    -0.346 N 
HETATM   24  C9  UNL     1      20.604  34.564  16.249  1.00  0.00     0.241 C 
HETATM   25  O2  UNL     1      21.380  35.427  15.763  1.00  0.00    -0.271 OA
ATOM     26  H2  UNL     1      20.161  32.509  16.201  1.00  0.00     0.163 HD
BRANCH  24  27
HETATM   27  C10 UNL     1      19.554  34.933  17.232  1.00  0.00     0.179 C 
BRANCH  27  28
HETATM   28  C11 UNL     1      18.343  34.055  17.172  1.00  0.00     0.039 C 
BRANCH  28  29
HETATM   29  C12 UNL     1      17.475  34.171  15.995  1.00  0.00    -0.012 C 
HETATM   30  C13 UNL     1      17.448  33.018  15.054  1.00  0.00     0.005 C 
HETATM   31  C14 UNL     1      16.631  31.842  15.534  1.00  0.00     0.000 C 
HETATM   32  C15 UNL     1      15.204  32.282  15.889  1.00  0.00     0.000 C 
HETATM   33  C16 UNL     1      15.390  33.260  17.058  1.00  0.00     0.000 C 
HETATM   34  C17 UNL     1      16.066  34.469  16.487  1.00  0.00     0.005 C 
ENDBRANCH  28  29
ENDBRANCH  27  28
BRANCH  27  35
HETATM   35  N3  UNL     1      19.114  36.285  16.955  1.00  0.00    -0.324 N 
HETATM   36  C18 UNL     1      19.332  37.352  17.896  1.00  0.00     0.362 C 
HETATM   37  O3  UNL     1      19.908  37.103  18.983  1.00  0.00    -0.238 OA
ATOM     38  H3  UNL     1      18.639  36.485  16.074  1.00  0.00     0.165 HD
BRANCH  36  39
HETATM   39  O4  UNL     1      18.931  38.638  17.645  1.00  0.00    -0.294 OA
BRANCH  39  40
HETATM   40  C19 UNL     1      17.684  39.191  18.018  1.00  0.00     0.061 C 
HETATM   41  C20 UNL     1      17.197  40.101  16.905  1.00  0.00     0.046 C 
HETATM   42  C21 UNL     1      16.630  38.184  18.335  1.00  0.00     0.046 C 
HETATM   43  C22 UNL     1      17.844  40.084  19.256  1.00  0.00     0.046 C 
ENDBRANCH  39  40
ENDBRANCH  36  39
ENDBRANCH  27  35
ENDBRANCH  24  27
ENDBRANCH   1  23
TORSDOF 16
ENDMDL
MODEL 4
REMARK VINA RESULT: -8.186575805      2.032      4.157
REMARK  16 active torsions:
REMARK  status: ('A' for Active; 'I' for Inactive)
REMARK    1  A    between atoms: C2_2  and  C4_4 
REMARK    2  A    between atoms: C4_4  and  C5_5 
REMARK    3  A    between atoms: C5_5  and  N1_6 
REMARK    4  A    between atoms: C5_5  and  C23_33 
REMARK       I    between atoms: N1_6  and  C6_8 
REMARK    5  A    between atoms: C6_8  and  C7_10 
REMARK    6  A    between atoms: C7_10  and  N2_12 
REMARK       I    between atoms: N2_12  and  C9_14 
REMARK    7  A    between atoms: C9_14  and  C10_16 
REMARK    8  A    between atoms: C10_16  and  C11_17 
REMARK    9  A    between atoms: C10_16  and  N3_24 
REMARK   10  A    between atoms: C11_17  and  C12_18 
REMARK       I    between atoms: N3_24  and  C18_26 
REMARK   11  A    between atoms: C18_26  and  O4_28 
REMARK   12  A    between atoms: O4_28  and  C19_29 
REMARK   13  A    between atoms: C23_33  and  C24_35 
REMARK   14  A    between atoms: C24_35  and  S1_36 
REMARK   15  A    between atoms: S1_36  and  C25_37 
REMARK   16  A    between atoms: C25_37  and  C27_39 
REMARK       I    between atoms: C27_39  and  N4_41 
ROOT
HETATM    1  C7  UNL     1      21.801  32.540  14.128  1.00  0.00     0.172 C 
HETATM    2  C8  UNL     1      23.049  31.858  14.757  1.00  0.00     0.042 C 
ENDROOT
BRANCH   1   3
HETATM    3  C6  UNL     1      21.165  31.552  13.235  1.00  0.00     0.240 C 
HETATM    4  N1  UNL     1      20.924  30.238  13.689  1.00  0.00    -0.348 N 
ATOM      5  H1  UNL     1      21.208  29.996  14.638  1.00  0.00     0.163 HD
HETATM    6  O1  UNL     1      20.835  31.872  12.075  1.00  0.00    -0.271 OA
BRANCH   4   7
HETATM    7  C5  UNL     1      20.282  29.194  12.862  1.00  0.00     0.159 C 
BRANCH   7   8
HETATM    8  C4  UNL     1      19.433  28.411  13.838  1.00  0.00     0.037 C 
BRANCH   8   9
HETATM    9  C2  UNL     1      17.967  28.585  13.584  1.00  0.00    -0.020 C 
HETATM   10  C1  UNL     1      17.374  27.217  13.261  1.00  0.00     0.009 C 
HETATM   11  C3  UNL     1      17.651  29.467  12.411  1.00  0.00     0.009 C 
ENDBRANCH   8   9
ENDBRANCH   7   8
BRANCH   7  12
HETATM   12  C23 UNL     1      21.315  28.298  12.317  1.00  0.00     0.178 C 
HETATM   13  O5  UNL     1      22.392  28.214  12.986  1.00  0.00    -0.290 OA
BRANCH  12  14
HETATM   14  C24 UNL     1      21.275  27.486  11.125  1.00  0.00     0.098 C 
BRANCH  14  15
HETATM   15  S1  UNL     1      20.057  26.278  10.823  1.00  0.00    -0.124 SA
BRANCH  15  16
HETATM   16  C25 UNL     1      20.475  24.644  10.335  1.00  0.00     0.139 C 
HETATM   17  C26 UNL     1      20.021  23.590  11.266  1.00  0.00     0.031 C 
BRANCH  16  18
HETATM   18  C27 UNL     1      21.973  24.506  10.198  1.00  0.00     0.232 C 
HETATM   19  O6  UNL     1      22.677  24.418  11.204  1.00  0.00    -0.272 OA
HETATM   20  N4  UNL     1      22.572  24.479   8.911  1.00  0.00    -0.360 N 
HETATM   21  C28 UNL     1      23.999  24.351   8.800  1.00  0.00     0.152 C 
HETATM   22  C29 UNL     1      21.764  24.578   7.705  1.00  0.00     0.152 C 
ENDBRANCH  16  18
ENDBRANCH  15  16
ENDBRANCH  14  15
ENDBRANCH  12  14
ENDBRANCH   7  12
ENDBRANCH   4   7
ENDBRANCH   1   3
BRANCH   1  23
HETATM   23  N2  UNL     1      20.990  32.891  15.251  1.00  0.00    -0.346 N 
HETATM   24  C9  UNL     1      20.880  34.208  15.774  1.00  0.00     0.241 C 
HETATM   25  O2  UNL     1      21.545  35.109  15.199  1.00  0.00    -0.271 OA
ATOM     26  H2  UNL     1      20.457  32.150  15.705  1.00  0.00     0.163 HD
BRANCH  24  27
HETATM   27  C10 UNL     1      20.023  34.511  16.950  1.00  0.00     0.179 C 
BRANCH  27  28
HETATM   28  C11 UNL     1      18.714  33.784  16.938  1.00  0.00     0.039 C 
BRANCH  28  29
HETATM   29  C12 UNL     1      17.841  33.973  15.775  1.00  0.00    -0.012 C 
HETATM   30  C13 UNL     1      17.662  32.809  14.864  1.00  0.00     0.005 C 
HETATM   31  C14 UNL     1      16.725  31.748  15.388  1.00  0.00     0.000 C 
HETATM   32  C15 UNL     1      15.365  32.357  15.757  1.00  0.00     0.000 C 
HETATM   33  C16 UNL     1      15.688  33.334  16.898  1.00  0.00     0.000 C 
HETATM   34  C17 UNL     1      16.486  34.443  16.284  1.00  0.00     0.005 C 
ENDBRANCH  28  29
ENDBRANCH  27  28
BRANCH  27  35
HETATM   35  N3  UNL     1      19.724  35.927  16.954  1.00  0.00    -0.324 N 
HETATM   36  C18 UNL     1      19.788  36.704  18.165  1.00  0.00     0.362 C 
HETATM   37  O3  UNL     1      20.102  36.137  19.241  1.00  0.00    -0.238 OA
ATOM     38  H3  UNL     1      19.462  36.385  16.081  1.00  0.00     0.165 HD
BRANCH  36  39
HETATM   39  O4  UNL     1      19.518  38.046  18.184  1.00  0.00    -0.294 OA
BRANCH  39  40
HETATM   40  C19 UNL     1      18.233  38.622  18.052  1.00  0.00     0.061 C 
HETATM   41  C20 UNL     1      18.137  39.304  16.700  1.00  0.00     0.046 C 
HETATM   42  C21 UNL     1      17.104  37.658  18.205  1.00  0.00     0.046 C 
HETATM   43  C22 UNL     1      18.031  39.725  19.100  1.00  0.00     0.046 C 
ENDBRANCH  39  40
ENDBRANCH  36  39
ENDBRANCH  27  35
ENDBRANCH  24  27
ENDBRANCH   1  23
TORSDOF 16
ENDMDL
MODEL 5
REMARK VINA RESULT: -8.169896987      3.033     11.053
REMARK  16 active torsions:
REMARK  status: ('A' for Active; 'I' for Inactive)
REMARK    1  A    between atoms: C2_2  and  C4_4 
REMARK    2  A    between atoms: C4_4  and  C5_5 
REMARK    3  A    between atoms: C5_5  and  N1_6 
REMARK    4  A    between atoms: C5_5  and  C23_33 
REMARK       I    between atoms: N1_6  and  C6_8 
REMARK    5  A    between atoms: C6_8  and  C7_10 
REMARK    6  A    between atoms: C7_10  and  N2_12 
REMARK       I    between atoms: N2_12  and  C9_14 
REMARK    7  A    between atoms: C9_14  and  C10_16 
REMARK    8  A    between atoms: C10_16  and  C11_17 
REMARK    9  A    between atoms: C10_16  and  N3_24 
REMARK   10  A    between atoms: C11_17  and  C12_18 
REMARK       I    between atoms: N3_24  and  C18_26 
REMARK   11  A    between atoms: C18_26  and  O4_28 
REMARK   12  A    between atoms: O4_28  and  C19_29 
REMARK   13  A    between atoms: C23_33  and  C24_35 
REMARK   14  A    between atoms: C24_35  and  S1_36 
REMARK   15  A    between atoms: S1_36  and  C25_37 
REMARK   16  A    between atoms: C25_37  and  C27_39 
REMARK       I    between atoms: C27_39  and  N4_41 
ROOT
HETATM    1  C7  UNL     1      18.880  30.028  14.718  1.00  0.00     0.172 C 
HETATM    2  C8  UNL     1      19.929  29.595  15.780  1.00  0.00     0.042 C 
ENDROOT
BRANCH   1   3
HETATM    3  C6  UNL     1      18.954  31.498  14.604  1.00  0.00     0.240 C 
HETATM    4  N1  UNL     1      19.807  32.232  15.454  1.00  0.00    -0.348 N 
ATOM      5  H1  UNL     1      20.357  31.722  16.144  1.00  0.00     0.163 HD
HETATM    6  O1  UNL     1      18.263  32.100  13.756  1.00  0.00    -0.271 OA
BRANCH   4   7
HETATM    7  C5  UNL     1      19.947  33.704  15.395  1.00  0.00     0.159 C 
BRANCH   7   8
HETATM    8  C4  UNL     1      21.439  33.936  15.304  1.00  0.00     0.037 C 
BRANCH   8   9
HETATM    9  C2  UNL     1      22.226  32.694  15.590  1.00  0.00    -0.020 C 
HETATM   10  C1  UNL     1      22.788  32.802  17.005  1.00  0.00     0.009 C 
HETATM   11  C3  UNL     1      23.405  32.496  14.683  1.00  0.00     0.009 C 
ENDBRANCH   8   9
ENDBRANCH   7   8
BRANCH   7  12
HETATM   12  C23 UNL     1      19.458  34.292  16.652  1.00  0.00     0.178 C 
HETATM   13  O5  UNL     1      18.976  33.477  17.501  1.00  0.00    -0.290 OA
BRANCH  12  14
HETATM   14  C24 UNL     1      19.457  35.674  17.068  1.00  0.00     0.098 C 
BRANCH  14  15
HETATM   15  S1  UNL     1      18.132  36.425  17.912  1.00  0.00    -0.124 SA
BRANCH  15  16
HETATM   16  C25 UNL     1      16.483  36.331  17.315  1.00  0.00     0.139 C 
HETATM   17  C26 UNL     1      15.512  37.159  18.060  1.00  0.00     0.031 C 
BRANCH  16  18
HETATM   18  C27 UNL     1      15.989  34.905  17.365  1.00  0.00     0.232 C 
HETATM   19  O6  UNL     1      15.660  34.405  18.442  1.00  0.00    -0.272 OA
HETATM   20  N4  UNL     1      15.902  34.137  16.174  1.00  0.00    -0.360 N 
HETATM   21  C28 UNL     1      15.433  32.780  16.243  1.00  0.00     0.152 C 
HETATM   22  C29 UNL     1      16.280  34.702  14.888  1.00  0.00     0.152 C 
ENDBRANCH  16  18
ENDBRANCH  15  16
ENDBRANCH  14  15
ENDBRANCH  12  14
ENDBRANCH   7  12
ENDBRANCH   4   7
ENDBRANCH   1   3
BRANCH   1  23
HETATM   23  N2  UNL     1      19.283  29.348  13.529  1.00  0.00    -0.346 N 
HETATM   24  C9  UNL     1      18.790  28.076  13.131  1.00  0.00     0.241 C 
HETATM   25  O2  UNL     1      17.945  27.529  13.887  1.00  0.00    -0.271 OA
ATOM     26  H2  UNL     1      19.969  29.805  12.927  1.00  0.00     0.163 HD
BRANCH  24  27
HETATM   27  C10 UNL     1      19.253  27.415  11.883  1.00  0.00     0.179 C 
BRANCH  27  28
HETATM   28  C11 UNL     1      18.427  26.229  11.493  1.00  0.00     0.039 C 
BRANCH  28  29
HETATM   29  C12 UNL     1      19.131  25.048  10.981  1.00  0.00    -0.012 C 
HETATM   30  C13 UNL     1      18.742  23.727  11.546  1.00  0.00     0.005 C 
HETATM   31  C14 UNL     1      17.442  23.179  11.008  1.00  0.00     0.000 C 
HETATM   32  C15 UNL     1      17.470  23.122   9.474  1.00  0.00     0.000 C 
HETATM   33  C16 UNL     1      17.599  24.591   9.045  1.00  0.00     0.000 C 
HETATM   34  C17 UNL     1      18.967  25.031   9.468  1.00  0.00     0.005 C 
ENDBRANCH  28  29
ENDBRANCH  27  28
BRANCH  27  35
HETATM   35  N3  UNL     1      20.608  26.944  12.083  1.00  0.00    -0.324 N 
HETATM   36  C18 UNL     1      21.744  27.760  11.742  1.00  0.00     0.362 C 
HETATM   37  O3  UNL     1      21.555  28.901  11.253  1.00  0.00    -0.238 OA
ATOM     38  H3  UNL     1      20.761  26.014  12.474  1.00  0.00     0.165 HD
BRANCH  36  39
HETATM   39  O4  UNL     1      23.031  27.333  11.934  1.00  0.00    -0.294 OA
BRANCH  39  40
HETATM   40  C19 UNL     1      23.753  26.498  11.052  1.00  0.00     0.061 C 
HETATM   41  C20 UNL     1      25.139  26.260  11.624  1.00  0.00     0.046 C 
HETATM   42  C21 UNL     1      23.101  25.186  10.768  1.00  0.00     0.046 C 
HETATM   43  C22 UNL     1      23.965  27.199   9.703  1.00  0.00     0.046 C 
ENDBRANCH  39  40
ENDBRANCH  36  39
ENDBRANCH  27  35
ENDBRANCH  24  27
ENDBRANCH   1  23
TORSDOF 16
ENDMDL
