MODEL 1
REMARK VINA RESULT: -7.441860291      0.000      0.000
REMARK  3 active torsions:
REMARK  status: ('A' for Active; 'I' for Inactive)
REMARK    1  A    between atoms: N1_7  and  C7_8 
REMARK    2  A    between atoms: C9_10  and  N2_11 
REMARK       I    between atoms: N2_11  and  C10_13 
REMARK    3  A    between atoms: C13_18  and  O3_19 
ROOT
HETATM    1  C1  UNL     1      23.730  15.053  21.770  1.00  0.00     0.014 C 
HETATM    2  C2  UNL     1      23.855  14.085  21.063  1.00  0.00    -0.089 C 
HETATM    3  C3  UNL     1      23.990  12.903  20.183  1.00  0.00     0.140 C 
HETATM    4  C4  UNL     1      22.667  12.311  19.958  1.00  0.00    -0.089 C 
HETATM    5  C5  UNL     1      21.578  11.813  19.778  1.00  0.00     0.014 C 
HETATM    6  C6  UNL     1      24.885  11.864  20.771  1.00  0.00     0.276 C 
HETATM    7  N1  UNL     1      25.888  11.419  19.821  1.00  0.00    -0.058 N 
HETATM    8  C11 UNL     1      26.765  12.532  19.481  1.00  0.00     0.241 C 
HETATM    9  C12 UNL     1      26.018  13.791  19.175  1.00  0.00     0.068 C 
HETATM   10  C13 UNL     1      24.582  13.414  18.870  1.00  0.00     0.092 C 
HETATM   11  C14 UNL     1      24.626  12.239  17.922  1.00  0.00     0.068 C 
HETATM   12  C15 UNL     1      25.204  11.035  18.604  1.00  0.00     0.241 C 
ENDROOT
BRANCH  10  13
HETATM   13  O3  UNL     1      23.884  14.477  18.354  1.00  0.00    -0.387 OA
ATOM     14  H3  UNL     1      23.140  14.207  17.829  1.00  0.00     0.210 HD
ENDBRANCH  10  13
BRANCH   7  15
HETATM   15  C7  UNL     1      26.700  10.375  20.360  1.00  0.00     0.215 A 
HETATM   16  C8  UNL     1      27.739   9.735  19.487  1.00  0.00     0.063 A 
HETATM   17  C9  UNL     1      28.111  10.557  20.735  1.00  0.00     0.120 A 
BRANCH  17  18
HETATM   18  N2  UNL     1      28.668   9.743  21.800  1.00  0.00    -0.329 N 
HETATM   19  C10 UNL     1      29.124  10.264  23.019  1.00  0.00     0.283 C 
HETATM   20  O1  UNL     1      29.069  11.501  23.254  1.00  0.00    -0.630 OA
HETATM   21  O2  UNL     1      29.638   9.438  23.977  1.00  0.00    -0.630 OA
ATOM     22  H2  UNL     1      28.732   8.736  21.654  1.00  0.00     0.166 HD
ENDBRANCH  17  18
ENDBRANCH   7  15
TORSDOF 3
ENDMDL
MODEL 2
REMARK VINA RESULT: -7.184342778      4.488      7.162
REMARK  3 active torsions:
REMARK  status: ('A' for Active; 'I' for Inactive)
REMARK    1  A    between atoms: N1_7  and  C7_8 
REMARK    2  A    between atoms: C9_10  and  N2_11 
REMARK       I    between atoms: N2_11  and  C10_13 
REMARK    3  A    between atoms: C13_18  and  O3_19 
ROOT
HETATM    1  C1  UNL     1      23.486  14.692  22.099  1.00  0.00     0.014 C 
HETATM    2  C2  UNL     1      23.208  13.716  21.450  1.00  0.00    -0.089 C 
HETATM    3  C3  UNL     1      22.888  12.516  20.645  1.00  0.00     0.140 C 
HETATM    4  C4  UNL     1      23.402  12.694  19.283  1.00  0.00    -0.089 C 
HETATM    5  C5  UNL     1      23.817  12.842  18.154  1.00  0.00     0.014 C 
HETATM    6  C6  UNL     1      21.420  12.264  20.572  1.00  0.00     0.276 C 
HETATM    7  N1  UNL     1      21.096  10.886  20.893  1.00  0.00    -0.058 N 
HETATM    8  C11 UNL     1      21.463  10.608  22.275  1.00  0.00     0.241 C 
HETATM    9  C12 UNL     1      22.829  11.108  22.628  1.00  0.00     0.068 C 
HETATM   10  C13 UNL     1      23.583  11.341  21.333  1.00  0.00     0.092 C 
HETATM   11  C14 UNL     1      23.357  10.128  20.465  1.00  0.00     0.068 C 
HETATM   12  C15 UNL     1      21.916  10.033  20.059  1.00  0.00     0.241 C 
ENDROOT
BRANCH  10  13
HETATM   13  O3  UNL     1      24.915  11.578  21.567  1.00  0.00    -0.387 OA
ATOM     14  H3  UNL     1      25.481  11.096  20.975  1.00  0.00     0.210 HD
ENDBRANCH  10  13
BRANCH   7  15
HETATM   15  C7  UNL     1      19.698  10.626  20.756  1.00  0.00     0.215 A 
HETATM   16  C8  UNL     1      18.988  11.084  19.516  1.00  0.00     0.063 A 
HETATM   17  C9  UNL     1      19.148   9.593  19.865  1.00  0.00     0.120 A 
BRANCH  17  18
HETATM   18  N2  UNL     1      17.890   8.957  20.213  1.00  0.00    -0.329 N 
HETATM   19  C10 UNL     1      17.361   7.855  19.528  1.00  0.00     0.283 C 
HETATM   20  O1  UNL     1      17.971   7.349  18.548  1.00  0.00    -0.630 OA
HETATM   21  O2  UNL     1      16.170   7.308  19.911  1.00  0.00    -0.630 OA
ATOM     22  H2  UNL     1      17.362   9.334  21.000  1.00  0.00     0.166 HD
ENDBRANCH  17  18
ENDBRANCH   7  15
TORSDOF 3
ENDMDL
MODEL 3
REMARK VINA RESULT: -7.140046315      3.302      6.341
REMARK  3 active torsions:
REMARK  status: ('A' for Active; 'I' for Inactive)
REMARK    1  A    between atoms: N1_7  and  C7_8 
REMARK    2  A    between atoms: C9_10  and  N2_11 
REMARK       I    between atoms: N2_11  and  C10_13 
REMARK    3  A    between atoms: C13_18  and  O3_19 
ROOT
HETATM    1  C1  UNL     1      27.455  10.200  20.339  1.00  0.00     0.014 C 
HETATM    2  C2  UNL     1      26.527  10.957  20.205  1.00  0.00    -0.089 C 
HETATM    3  C3  UNL     1      25.401  11.901  20.028  1.00  0.00     0.140 C 
HETATM    4  C4  UNL     1      25.865  13.266  20.300  1.00  0.00    -0.089 C 
HETATM    5  C5  UNL     1      26.241  14.394  20.533  1.00  0.00     0.014 C 
HETATM    6  C6  UNL     1      24.262  11.594  20.941  1.00  0.00     0.276 C 
HETATM    7  N1  UNL     1      23.000  11.542  20.224  1.00  0.00    -0.058 N 
HETATM    8  C11 UNL     1      23.029  10.446  19.265  1.00  0.00     0.241 C 
HETATM    9  C12 UNL     1      24.292  10.404  18.464  1.00  0.00     0.068 C 
HETATM   10  C13 UNL     1      24.953  11.764  18.574  1.00  0.00     0.092 C 
HETATM   11  C14 UNL     1      23.876  12.798  18.347  1.00  0.00     0.068 C 
HETATM   12  C15 UNL     1      22.874  12.766  19.462  1.00  0.00     0.241 C 
ENDROOT
BRANCH  10  13
HETATM   13  O3  UNL     1      25.993  11.888  17.686  1.00  0.00    -0.387 OA
ATOM     14  H3  UNL     1      25.870  11.362  16.904  1.00  0.00     0.210 HD
ENDBRANCH  10  13
BRANCH   7  15
HETATM   15  C7  UNL     1      21.900  11.316  21.107  1.00  0.00     0.215 A 
HETATM   16  C8  UNL     1      21.386  12.454  21.939  1.00  0.00     0.063 A 
HETATM   17  C9  UNL     1      20.534  11.792  20.840  1.00  0.00     0.120 A 
BRANCH  17  18
HETATM   18  N2  UNL     1      19.409  11.045  21.372  1.00  0.00    -0.329 N 
HETATM   19  C10 UNL     1      18.368  10.540  20.582  1.00  0.00     0.283 C 
HETATM   20  O1  UNL     1      18.358  10.718  19.334  1.00  0.00    -0.630 OA
HETATM   21  O2  UNL     1      17.340   9.846  21.152  1.00  0.00    -0.630 OA
ATOM     22  H2  UNL     1      19.375  10.877  22.378  1.00  0.00     0.166 HD
ENDBRANCH  17  18
ENDBRANCH   7  15
TORSDOF 3
ENDMDL
MODEL 4
REMARK VINA RESULT: -7.040607141      4.368      7.013
REMARK  3 active torsions:
REMARK  status: ('A' for Active; 'I' for Inactive)
REMARK    1  A    between atoms: N1_7  and  C7_8 
REMARK    2  A    between atoms: C9_10  and  N2_11 
REMARK       I    between atoms: N2_11  and  C10_13 
REMARK    3  A    between atoms: C13_18  and  O3_19 
ROOT
HETATM    1  C1  UNL     1      24.331  14.058  18.731  1.00  0.00     0.014 C 
HETATM    2  C2  UNL     1      23.818  13.059  19.169  1.00  0.00    -0.089 C 
HETATM    3  C3  UNL     1      23.208  11.823  19.706  1.00  0.00     0.140 C 
HETATM    4  C4  UNL     1      23.718  10.666  18.962  1.00  0.00    -0.089 C 
HETATM    5  C5  UNL     1      24.130   9.710  18.343  1.00  0.00     0.014 C 
HETATM    6  C6  UNL     1      21.720  11.839  19.602  1.00  0.00     0.276 C 
HETATM    7  N1  UNL     1      21.091  11.486  20.861  1.00  0.00    -0.058 N 
HETATM    8  C11 UNL     1      21.415  12.488  21.867  1.00  0.00     0.241 C 
HETATM    9  C12 UNL     1      22.867  12.848  21.886  1.00  0.00     0.068 C 
HETATM   10  C13 UNL     1      23.625  11.744  21.175  1.00  0.00     0.092 C 
HETATM   11  C14 UNL     1      23.101  10.433  21.710  1.00  0.00     0.068 C 
HETATM   12  C15 UNL     1      21.670  10.237  21.309  1.00  0.00     0.241 C 
ENDROOT
BRANCH  10  13
HETATM   13  O3  UNL     1      24.980  11.877  21.348  1.00  0.00    -0.387 OA
ATOM     14  H3  UNL     1      25.320  11.305  22.026  1.00  0.00     0.210 HD
ENDBRANCH  10  13
BRANCH   7  15
HETATM   15  C7  UNL     1      19.668  11.433  20.744  1.00  0.00     0.215 A 
HETATM   16  C8  UNL     1      19.058  10.780  19.539  1.00  0.00     0.063 A 
HETATM   17  C9  UNL     1      18.880  10.209  20.959  1.00  0.00     0.120 A 
BRANCH  17  18
HETATM   18  N2  UNL     1      17.518  10.323  21.446  1.00  0.00    -0.329 N 
HETATM   19  C10 UNL     1      17.176  10.329  22.805  1.00  0.00     0.283 C 
HETATM   20  O1  UNL     1      18.063  10.232  23.695  1.00  0.00    -0.630 OA
HETATM   21  O2  UNL     1      15.871  10.438  23.190  1.00  0.00    -0.630 OA
ATOM     22  H2  UNL     1      16.767  10.403  20.760  1.00  0.00     0.166 HD
ENDBRANCH  17  18
ENDBRANCH   7  15
TORSDOF 3
ENDMDL
MODEL 5
REMARK VINA RESULT: -6.929890187      3.687      5.394
REMARK  3 active torsions:
REMARK  status: ('A' for Active; 'I' for Inactive)
REMARK    1  A    between atoms: N1_7  and  C7_8 
REMARK    2  A    between atoms: C9_10  and  N2_11 
REMARK       I    between atoms: N2_11  and  C10_13 
REMARK    3  A    between atoms: C13_18  and  O3_19 
ROOT
HETATM    1  C1  UNL     1      19.525  10.870  19.431  1.00  0.00     0.014 C 
HETATM    2  C2  UNL     1      20.413  11.287  20.132  1.00  0.00    -0.089 C 
HETATM    3  C3  UNL     1      21.490  11.792  21.012  1.00  0.00     0.140 C 
HETATM    4  C4  UNL     1      20.899  12.578  22.101  1.00  0.00    -0.089 C 
HETATM    5  C5  UNL     1      20.416  13.236  22.995  1.00  0.00     0.014 C 
HETATM    6  C6  UNL     1      22.460  12.651  20.274  1.00  0.00     0.276 C 
HETATM    7  N1  UNL     1      23.832  12.250  20.527  1.00  0.00    -0.058 N 
HETATM    8  C11 UNL     1      24.049  10.903  20.017  1.00  0.00     0.241 C 
HETATM    9  C12 UNL     1      22.958   9.952  20.398  1.00  0.00     0.068 C 
HETATM   10  C13 UNL     1      22.204  10.559  21.565  1.00  0.00     0.092 C 
HETATM   11  C14 UNL     1      23.236  11.054  22.548  1.00  0.00     0.068 C 
HETATM   12  C15 UNL     1      24.018  12.191  21.962  1.00  0.00     0.241 C 
ENDROOT
BRANCH  10  13
HETATM   13  O3  UNL     1      21.338   9.653  22.125  1.00  0.00    -0.387 OA
ATOM     14  H3  UNL     1      20.676   9.353  21.514  1.00  0.00     0.210 HD
ENDBRANCH  10  13
BRANCH   7  15
HETATM   15  C7  UNL     1      24.765  13.115  19.877  1.00  0.00     0.215 A 
HETATM   16  C8  UNL     1      25.175  12.817  18.466  1.00  0.00     0.063 A 
HETATM   17  C9  UNL     1      24.384  14.084  18.838  1.00  0.00     0.120 A 
BRANCH  17  18
HETATM   18  N2  UNL     1      25.163  15.300  18.687  1.00  0.00    -0.329 N 
HETATM   19  C10 UNL     1      24.989  16.439  19.485  1.00  0.00     0.283 C 
HETATM   20  O1  UNL     1      24.121  16.462  20.398  1.00  0.00    -0.630 OA
HETATM   21  O2  UNL     1      25.758  17.549  19.285  1.00  0.00    -0.630 OA
ATOM     22  H2  UNL     1      25.877  15.327  17.959  1.00  0.00     0.166 HD
ENDBRANCH  17  18
ENDBRANCH   7  15
TORSDOF 3
ENDMDL
