MODEL 1
REMARK VINA RESULT: -7.261064991      0.000      0.000
REMARK  4 active torsions:
REMARK  status: ('A' for Active; 'I' for Inactive)
REMARK       I    between atoms: C1_2  and  N2_4 
REMARK       I    between atoms: N3_7  and  C4_8 
REMARK       I    between atoms: C4_8  and  N4_10 
REMARK    1  A    between atoms: N4_10  and  C5_12 
REMARK    2  A    between atoms: C5_12  and  C6_13 
REMARK    3  A    between atoms: C7_14  and  C8_15 
REMARK    4  A    between atoms: C8_15  and  C9_16 
ROOT
HETATM    1  N1  UNL     1      28.821   8.380  22.412  1.00  0.00    -0.040 NA
HETATM    2  C1  UNL     1      29.042   9.780  22.476  1.00  0.00     0.330 C 
HETATM    3  O1  UNL     1      29.429  10.333  23.559  1.00  0.00    -0.251 OA
HETATM    4  N2  UNL     1      28.850  10.627  21.360  1.00  0.00    -0.333 N 
HETATM    5  C2  UNL     1      29.069  12.049  21.403  1.00  0.00     0.147 C 
HETATM    6  C3  UNL     1      28.068  12.851  20.653  1.00  0.00     0.147 C 
HETATM    7  N3  UNL     1      27.035  12.075  20.004  1.00  0.00    -0.331 N 
HETATM    8  C4  UNL     1      25.861  12.767  19.612  1.00  0.00     0.319 C 
HETATM    9  O2  UNL     1      25.704  14.021  19.815  1.00  0.00    -0.247 OA
HETATM   10  N4  UNL     1      24.806  12.076  18.971  1.00  0.00    -0.333 N 
ATOM     11  H4  UNL     1      24.912  11.076  18.802  1.00  0.00     0.165 HD
HETATM   12  C12 UNL     1      27.116  10.672  19.734  1.00  0.00     0.147 C 
HETATM   13  C13 UNL     1      28.414  10.044  20.113  1.00  0.00     0.147 C 
ENDROOT
BRANCH  10  14
HETATM   14  C5  UNL     1      23.586  12.719  18.546  1.00  0.00     0.218 C 
BRANCH  14  15
HETATM   15  C6  UNL     1      22.423  12.189  19.258  1.00  0.00    -0.087 C 
HETATM   16  C7  UNL     1      21.462  11.773  19.831  1.00  0.00    -0.104 C 
BRANCH  16  17
HETATM   17  C8  UNL     1      20.270  11.277  20.518  1.00  0.00     0.098 C 
BRANCH  17  18
HETATM   18  C9  UNL     1      19.309  10.618  19.560  1.00  0.00    -0.003 A 
HETATM   19  C10 UNL     1      18.923   9.216  19.682  1.00  0.00     0.006 A 
HETATM   20  C11 UNL     1      17.945  10.272  20.186  1.00  0.00     0.006 A 
ENDBRANCH  17  18
ENDBRANCH  16  17
ENDBRANCH  14  15
ENDBRANCH  10  14
TORSDOF 4
ENDMDL
MODEL 2
REMARK VINA RESULT: -6.907447479      6.282     10.355
REMARK  4 active torsions:
REMARK  status: ('A' for Active; 'I' for Inactive)
REMARK       I    between atoms: C1_2  and  N2_4 
REMARK       I    between atoms: N3_7  and  C4_8 
REMARK       I    between atoms: C4_8  and  N4_10 
REMARK    1  A    between atoms: N4_10  and  C5_12 
REMARK    2  A    between atoms: C5_12  and  C6_13 
REMARK    3  A    between atoms: C7_14  and  C8_15 
REMARK    4  A    between atoms: C8_15  and  C9_16 
ROOT
HETATM    1  N1  UNL     1      15.129  11.980  25.720  1.00  0.00    -0.040 NA
HETATM    2  C1  UNL     1      14.880  10.749  25.061  1.00  0.00     0.330 C 
HETATM    3  O1  UNL     1      14.651   9.685  25.726  1.00  0.00    -0.251 OA
HETATM    4  N2  UNL     1      14.873  10.634  23.652  1.00  0.00    -0.333 N 
HETATM    5  C2  UNL     1      14.622   9.395  22.963  1.00  0.00     0.147 C 
HETATM    6  C3  UNL     1      15.471   9.173  21.764  1.00  0.00     0.147 C 
HETATM    7  N3  UNL     1      16.413  10.233  21.485  1.00  0.00    -0.331 N 
HETATM    8  C4  UNL     1      17.491   9.923  20.617  1.00  0.00     0.319 C 
HETATM    9  O2  UNL     1      17.641   8.764  20.096  1.00  0.00    -0.247 OA
HETATM   10  N4  UNL     1      18.454  10.909  20.296  1.00  0.00    -0.333 N 
ATOM     11  H4  UNL     1      18.352  11.839  20.702  1.00  0.00     0.165 HD
HETATM   12  C12 UNL     1      16.332  11.559  22.017  1.00  0.00     0.147 C 
HETATM   13  C13 UNL     1      15.127  11.813  22.858  1.00  0.00     0.147 C 
ENDROOT
BRANCH  10  14
HETATM   14  C5  UNL     1      19.574  10.661  19.421  1.00  0.00     0.218 C 
BRANCH  14  15
HETATM   15  C6  UNL     1      20.757  11.416  19.834  1.00  0.00    -0.087 C 
HETATM   16  C7  UNL     1      21.716  12.048  20.158  1.00  0.00    -0.104 C 
BRANCH  16  17
HETATM   17  C8  UNL     1      22.881  12.843  20.545  1.00  0.00     0.098 C 
BRANCH  17  18
HETATM   18  C9  UNL     1      24.013  12.688  19.560  1.00  0.00    -0.003 A 
HETATM   19  C10 UNL     1      23.833  12.884  18.125  1.00  0.00     0.006 A 
HETATM   20  C11 UNL     1      24.473  14.014  18.924  1.00  0.00     0.006 A 
ENDBRANCH  17  18
ENDBRANCH  16  17
ENDBRANCH  14  15
ENDBRANCH  10  14
TORSDOF 4
ENDMDL
MODEL 3
REMARK VINA RESULT: -6.776513581      0.938      1.518
REMARK  4 active torsions:
REMARK  status: ('A' for Active; 'I' for Inactive)
REMARK       I    between atoms: C1_2  and  N2_4 
REMARK       I    between atoms: N3_7  and  C4_8 
REMARK       I    between atoms: C4_8  and  N4_10 
REMARK    1  A    between atoms: N4_10  and  C5_12 
REMARK    2  A    between atoms: C5_12  and  C6_13 
REMARK    3  A    between atoms: C7_14  and  C8_15 
REMARK    4  A    between atoms: C8_15  and  C9_16 
ROOT
HETATM    1  N1  UNL     1      28.822   8.384  22.402  1.00  0.00    -0.040 NA
HETATM    2  C1  UNL     1      29.028   9.786  22.461  1.00  0.00     0.330 C 
HETATM    3  O1  UNL     1      29.411  10.347  23.541  1.00  0.00    -0.251 OA
HETATM    4  N2  UNL     1      28.825  10.628  21.342  1.00  0.00    -0.333 N 
HETATM    5  C2  UNL     1      29.029  12.052  21.380  1.00  0.00     0.147 C 
HETATM    6  C3  UNL     1      28.018  12.840  20.629  1.00  0.00     0.147 C 
HETATM    7  N3  UNL     1      26.993  12.052  19.985  1.00  0.00    -0.331 N 
HETATM    8  C4  UNL     1      25.811  12.730  19.593  1.00  0.00     0.319 C 
HETATM    9  O2  UNL     1      25.641  13.983  19.792  1.00  0.00    -0.247 OA
HETATM   10  N4  UNL     1      24.761  12.026  18.956  1.00  0.00    -0.333 N 
ATOM     11  H4  UNL     1      24.877  11.026  18.790  1.00  0.00     0.165 HD
HETATM   12  C12 UNL     1      27.088  10.649  19.719  1.00  0.00     0.147 C 
HETATM   13  C13 UNL     1      28.392  10.036  20.098  1.00  0.00     0.147 C 
ENDROOT
BRANCH  10  14
HETATM   14  C5  UNL     1      23.534  12.655  18.532  1.00  0.00     0.218 C 
BRANCH  14  15
HETATM   15  C6  UNL     1      22.385  12.157  19.288  1.00  0.00    -0.087 C 
HETATM   16  C7  UNL     1      21.435  11.759  19.891  1.00  0.00    -0.104 C 
BRANCH  16  17
HETATM   17  C8  UNL     1      20.256  11.277  20.609  1.00  0.00     0.098 C 
BRANCH  17  18
HETATM   18  C9  UNL     1      20.407  11.440  22.101  1.00  0.00    -0.003 A 
HETATM   19  C10 UNL     1      20.460  12.748  22.744  1.00  0.00     0.006 A 
HETATM   20  C11 UNL     1      19.145  11.978  22.801  1.00  0.00     0.006 A 
ENDBRANCH  17  18
ENDBRANCH  16  17
ENDBRANCH  14  15
ENDBRANCH  10  14
TORSDOF 4
ENDMDL
MODEL 4
REMARK VINA RESULT: -6.596066942      2.499      2.816
REMARK  4 active torsions:
REMARK  status: ('A' for Active; 'I' for Inactive)
REMARK       I    between atoms: C1_2  and  N2_4 
REMARK       I    between atoms: N3_7  and  C4_8 
REMARK       I    between atoms: C4_8  and  N4_10 
REMARK    1  A    between atoms: N4_10  and  C5_12 
REMARK    2  A    between atoms: C5_12  and  C6_13 
REMARK    3  A    between atoms: C7_14  and  C8_15 
REMARK    4  A    between atoms: C8_15  and  C9_16 
ROOT
HETATM    1  N1  UNL     1      28.426  14.032  24.694  1.00  0.00    -0.040 NA
HETATM    2  C1  UNL     1      28.749  14.805  23.549  1.00  0.00     0.330 C 
HETATM    3  O1  UNL     1      29.046  16.041  23.655  1.00  0.00    -0.251 OA
HETATM    4  N2  UNL     1      28.761  14.256  22.246  1.00  0.00    -0.333 N 
HETATM    5  C2  UNL     1      29.086  15.021  21.071  1.00  0.00     0.147 C 
HETATM    6  C3  UNL     1      28.250  14.712  19.882  1.00  0.00     0.147 C 
HETATM    7  N3  UNL     1      27.244  13.697  20.097  1.00  0.00    -0.331 N 
HETATM    8  C4  UNL     1      26.185  13.632  19.157  1.00  0.00     0.319 C 
HETATM    9  O2  UNL     1      26.105  14.427  18.156  1.00  0.00    -0.247 OA
HETATM   10  N4  UNL     1      25.161  12.665  19.300  1.00  0.00    -0.333 N 
ATOM     11  H4  UNL     1      25.206  12.023  20.092  1.00  0.00     0.165 HD
HETATM   12  C12 UNL     1      27.244  12.765  21.183  1.00  0.00     0.147 C 
HETATM   13  C13 UNL     1      28.432  12.860  22.078  1.00  0.00     0.147 C 
ENDROOT
BRANCH  10  14
HETATM   14  C5  UNL     1      24.057  12.543  18.380  1.00  0.00     0.218 C 
BRANCH  14  15
HETATM   15  C6  UNL     1      22.825  12.157  19.067  1.00  0.00    -0.087 C 
HETATM   16  C7  UNL     1      21.814  11.862  19.629  1.00  0.00    -0.104 C 
BRANCH  16  17
HETATM   17  C8  UNL     1      20.567  11.525  20.314  1.00  0.00     0.098 C 
BRANCH  17  18
HETATM   18  C9  UNL     1      19.620  10.777  19.410  1.00  0.00    -0.003 A 
HETATM   19  C10 UNL     1      19.000   9.515  19.799  1.00  0.00     0.006 A 
HETATM   20  C11 UNL     1      18.158  10.783  19.896  1.00  0.00     0.006 A 
ENDBRANCH  17  18
ENDBRANCH  16  17
ENDBRANCH  14  15
ENDBRANCH  10  14
TORSDOF 4
ENDMDL
MODEL 5
REMARK VINA RESULT: -6.571827591      6.378     10.219
REMARK  4 active torsions:
REMARK  status: ('A' for Active; 'I' for Inactive)
REMARK       I    between atoms: C1_2  and  N2_4 
REMARK       I    between atoms: N3_7  and  C4_8 
REMARK       I    between atoms: C4_8  and  N4_10 
REMARK    1  A    between atoms: N4_10  and  C5_12 
REMARK    2  A    between atoms: C5_12  and  C6_13 
REMARK    3  A    between atoms: C7_14  and  C8_15 
REMARK    4  A    between atoms: C8_15  and  C9_16 
ROOT
HETATM    1  N1  UNL     1      15.307  11.900  25.735  1.00  0.00    -0.040 NA
HETATM    2  C1  UNL     1      15.045  10.678  25.065  1.00  0.00     0.330 C 
HETATM    3  O1  UNL     1      14.832   9.604  25.718  1.00  0.00    -0.251 OA
HETATM    4  N2  UNL     1      15.005  10.584  23.654  1.00  0.00    -0.333 N 
HETATM    5  C2  UNL     1      14.740   9.355  22.953  1.00  0.00     0.147 C 
HETATM    6  C3  UNL     1      15.562   9.153  21.731  1.00  0.00     0.147 C 
HETATM    7  N3  UNL     1      16.495  10.219  21.446  1.00  0.00    -0.331 N 
HETATM    8  C4  UNL     1      17.554   9.924  20.549  1.00  0.00     0.319 C 
HETATM    9  O2  UNL     1      17.694   8.773  20.008  1.00  0.00    -0.247 OA
HETATM   10  N4  UNL     1      18.508  10.917  20.221  1.00  0.00    -0.333 N 
ATOM     11  H4  UNL     1      18.414  11.840  20.643  1.00  0.00     0.165 HD
HETATM   12  C12 UNL     1      16.425  11.536  22.000  1.00  0.00     0.147 C 
HETATM   13  C13 UNL     1      15.240  11.776  22.872  1.00  0.00     0.147 C 
ENDROOT
BRANCH  10  14
HETATM   14  C5  UNL     1      19.607  10.684  19.316  1.00  0.00     0.218 C 
BRANCH  14  15
HETATM   15  C6  UNL     1      20.808  11.409  19.732  1.00  0.00    -0.087 C 
HETATM   16  C7  UNL     1      21.787  11.991  20.090  1.00  0.00    -0.104 C 
BRANCH  16  17
HETATM   17  C8  UNL     1      22.988  12.688  20.548  1.00  0.00     0.098 C 
BRANCH  17  18
HETATM   18  C9  UNL     1      22.676  13.672  21.647  1.00  0.00    -0.003 A 
HETATM   19  C10 UNL     1      21.823  13.333  22.781  1.00  0.00     0.006 A 
HETATM   20  C11 UNL     1      23.332  13.327  22.998  1.00  0.00     0.006 A 
ENDBRANCH  17  18
ENDBRANCH  16  17
ENDBRANCH  14  15
ENDBRANCH  10  14
TORSDOF 4
ENDMDL
