MODEL 1
REMARK VINA RESULT: -8.485848691      0.000      0.000
REMARK  5 active torsions:
REMARK  status: ('A' for Active; 'I' for Inactive)
REMARK       I    between atoms: C1_2  and  N1_3 
REMARK    1  A    between atoms: C1_2  and  C17_23 
REMARK    2  A    between atoms: N1_3  and  C2_5 
REMARK    3  A    between atoms: C2_5  and  C3_6 
REMARK    4  A    between atoms: C6_9  and  N2_10 
REMARK       I    between atoms: N2_10  and  C7_12 
REMARK    5  A    between atoms: C7_12  and  C8_14 
REMARK       I    between atoms: C17_23  and  N3_25 
ROOT
HETATM    1  C3  UNL     1      20.678  11.861  22.296  1.00  0.00     0.003 C 
HETATM    2  C4  UNL     1      20.919  12.725  21.106  1.00  0.00     0.008 C 
HETATM    3  C5  UNL     1      20.937  11.979  19.797  1.00  0.00     0.026 C 
HETATM    4  C6  UNL     1      21.764  10.729  19.916  1.00  0.00     0.084 C 
HETATM    5  C15 UNL     1      21.014   9.811  20.825  1.00  0.00     0.026 C 
HETATM    6  C16 UNL     1      20.443  10.426  22.042  1.00  0.00     0.008 C 
ENDROOT
BRANCH   1   7
HETATM    7  C2  UNL     1      19.497  12.435  23.081  1.00  0.00     0.127 C 
BRANCH   7   8
HETATM    8  N1  UNL     1      18.390  11.532  23.016  1.00  0.00    -0.353 N 
HETATM    9  C1  UNL     1      17.324  11.797  22.113  1.00  0.00     0.309 C 
HETATM   10  O1  UNL     1      17.355  12.811  21.379  1.00  0.00    -0.262 OA
ATOM     11  H1  UNL     1      18.365  10.706  23.614  1.00  0.00     0.162 HD
BRANCH   9  12
HETATM   12  C17 UNL     1      16.199  10.882  22.048  1.00  0.00     0.311 C 
HETATM   13  O3  UNL     1      15.133  11.107  22.718  1.00  0.00    -0.262 OA
HETATM   14  N3  UNL     1      16.264   9.724  21.240  1.00  0.00    -0.344 N 
HETATM   15  C18 UNL     1      17.392   9.325  20.434  1.00  0.00     0.126 C 
HETATM   16  C21 UNL     1      15.186   8.733  21.080  1.00  0.00     0.126 C 
HETATM   17  C19 UNL     1      16.974   8.038  19.755  1.00  0.00     0.021 C 
HETATM   18  C20 UNL     1      15.468   8.170  19.696  1.00  0.00     0.021 C 
ENDBRANCH   9  12
ENDBRANCH   7   8
ENDBRANCH   1   7
BRANCH   4  19
HETATM   19  N2  UNL     1      23.082  10.967  20.420  1.00  0.00    -0.356 N 
HETATM   20  C7  UNL     1      24.196  10.395  19.755  1.00  0.00     0.222 C 
HETATM   21  O2  UNL     1      24.034   9.680  18.723  1.00  0.00    -0.273 OA
ATOM     22  H2  UNL     1      23.218  11.543  21.251  1.00  0.00     0.162 HD
BRANCH  20  23
HETATM   23  C8  UNL     1      25.541  10.656  20.298  1.00  0.00     0.082 C 
HETATM   24  C9  UNL     1      25.684  12.104  20.756  1.00  0.00     0.019 C 
HETATM   25  C10 UNL     1      26.834  12.599  19.936  1.00  0.00    -0.013 C 
HETATM   26  C11 UNL     1      28.108  11.848  20.311  1.00  0.00     0.005 C 
HETATM   27  C14 UNL     1      26.535  11.909  18.593  1.00  0.00     0.010 C 
HETATM   28  C12 UNL     1      27.905  10.427  19.762  1.00  0.00     0.006 C 
HETATM   29  C13 UNL     1      26.533  10.483  19.170  1.00  0.00    -0.001 C 
ENDBRANCH  20  23
ENDBRANCH   4  19
TORSDOF 5
ENDMDL
MODEL 2
REMARK VINA RESULT: -8.463050005      0.618      1.121
REMARK  5 active torsions:
REMARK  status: ('A' for Active; 'I' for Inactive)
REMARK       I    between atoms: C1_2  and  N1_3 
REMARK    1  A    between atoms: C1_2  and  C17_23 
REMARK    2  A    between atoms: N1_3  and  C2_5 
REMARK    3  A    between atoms: C2_5  and  C3_6 
REMARK    4  A    between atoms: C6_9  and  N2_10 
REMARK       I    between atoms: N2_10  and  C7_12 
REMARK    5  A    between atoms: C7_12  and  C8_14 
REMARK       I    between atoms: C17_23  and  N3_25 
ROOT
HETATM    1  C3  UNL     1      20.638  12.074  22.119  1.00  0.00     0.003 C 
HETATM    2  C4  UNL     1      20.542  12.737  20.787  1.00  0.00     0.008 C 
HETATM    3  C5  UNL     1      20.620  11.788  19.620  1.00  0.00     0.026 C 
HETATM    4  C6  UNL     1      21.740  10.803  19.816  1.00  0.00     0.084 C 
HETATM    5  C15 UNL     1      21.332   9.921  20.951  1.00  0.00     0.026 C 
HETATM    6  C16 UNL     1      20.744  10.601  22.125  1.00  0.00     0.008 C 
ENDROOT
BRANCH   1   7
HETATM    7  C2  UNL     1      19.432  12.496  22.959  1.00  0.00     0.127 C 
BRANCH   7   8
HETATM    8  N1  UNL     1      18.410  11.499  22.873  1.00  0.00    -0.353 N 
HETATM    9  C1  UNL     1      17.250  11.752  22.089  1.00  0.00     0.309 C 
HETATM   10  O1  UNL     1      17.126  12.838  21.479  1.00  0.00    -0.262 OA
ATOM     11  H1  UNL     1      18.512  10.614  23.370  1.00  0.00     0.162 HD
BRANCH   9  12
HETATM   12  C17 UNL     1      16.213  10.742  22.002  1.00  0.00     0.311 C 
HETATM   13  O3  UNL     1      15.121  10.867  22.656  1.00  0.00    -0.262 OA
HETATM   14  N3  UNL     1      16.393   9.599  21.190  1.00  0.00    -0.344 N 
HETATM   15  C18 UNL     1      17.564   9.306  20.400  1.00  0.00     0.126 C 
HETATM   16  C21 UNL     1      15.409   8.518  21.009  1.00  0.00     0.126 C 
HETATM   17  C19 UNL     1      17.272   7.992  19.709  1.00  0.00     0.021 C 
HETATM   18  C20 UNL     1      15.762   7.990  19.627  1.00  0.00     0.021 C 
ENDBRANCH   9  12
ENDBRANCH   7   8
ENDBRANCH   1   7
BRANCH   4  19
HETATM   19  N2  UNL     1      22.998  11.425  20.093  1.00  0.00    -0.356 N 
HETATM   20  C7  UNL     1      24.055  11.308  19.153  1.00  0.00     0.222 C 
HETATM   21  O2  UNL     1      23.891  10.662  18.076  1.00  0.00    -0.273 OA
ATOM     22  H2  UNL     1      23.135  11.947  20.958  1.00  0.00     0.162 HD
BRANCH  20  23
HETATM   23  C8  UNL     1      25.340  11.958  19.465  1.00  0.00     0.082 C 
HETATM   24  C9  UNL     1      26.437  11.510  18.504  1.00  0.00     0.019 C 
HETATM   25  C10 UNL     1      27.465  10.930  19.424  1.00  0.00    -0.013 C 
HETATM   26  C11 UNL     1      28.034  12.018  20.329  1.00  0.00     0.005 C 
HETATM   27  C14 UNL     1      26.557  10.220  20.443  1.00  0.00     0.010 C 
HETATM   28  C12 UNL     1      26.891  12.364  21.296  1.00  0.00     0.006 C 
HETATM   29  C13 UNL     1      25.774  11.485  20.833  1.00  0.00    -0.001 C 
ENDBRANCH  20  23
ENDBRANCH   4  19
TORSDOF 5
ENDMDL
MODEL 3
REMARK VINA RESULT: -8.236054498      2.108      3.044
REMARK  5 active torsions:
REMARK  status: ('A' for Active; 'I' for Inactive)
REMARK       I    between atoms: C1_2  and  N1_3 
REMARK    1  A    between atoms: C1_2  and  C17_23 
REMARK    2  A    between atoms: N1_3  and  C2_5 
REMARK    3  A    between atoms: C2_5  and  C3_6 
REMARK    4  A    between atoms: C6_9  and  N2_10 
REMARK       I    between atoms: N2_10  and  C7_12 
REMARK    5  A    between atoms: C7_12  and  C8_14 
REMARK       I    between atoms: C17_23  and  N3_25 
ROOT
HETATM    1  C3  UNL     1      23.128  10.210  21.103  1.00  0.00     0.003 C 
HETATM    2  C4  UNL     1      23.560  11.607  20.812  1.00  0.00     0.008 C 
HETATM    3  C5  UNL     1      23.647  11.931  19.343  1.00  0.00     0.026 C 
HETATM    4  C6  UNL     1      24.350  10.827  18.602  1.00  0.00     0.084 C 
HETATM    5  C15 UNL     1      23.438   9.645  18.641  1.00  0.00     0.026 C 
HETATM    6  C16 UNL     1      22.800   9.358  19.943  1.00  0.00     0.008 C 
ENDROOT
BRANCH   1   7
HETATM    7  C2  UNL     1      21.926  10.261  22.048  1.00  0.00     0.127 C 
BRANCH   7   8
HETATM    8  N1  UNL     1      20.793   9.653  21.422  1.00  0.00    -0.353 N 
HETATM    9  C1  UNL     1      19.702  10.467  21.009  1.00  0.00     0.309 C 
HETATM   10  O1  UNL     1      19.734  11.705  21.191  1.00  0.00    -0.262 OA
ATOM     11  H1  UNL     1      20.768   8.644  21.273  1.00  0.00     0.162 HD
BRANCH   9  12
HETATM   12  C17 UNL     1      18.552   9.851  20.375  1.00  0.00     0.311 C 
HETATM   13  O3  UNL     1      18.601   9.474  19.154  1.00  0.00    -0.262 OA
HETATM   14  N3  UNL     1      17.354   9.658  21.099  1.00  0.00    -0.344 N 
HETATM   15  C18 UNL     1      17.133  10.034  22.474  1.00  0.00     0.126 C 
HETATM   16  C21 UNL     1      16.129   9.032  20.571  1.00  0.00     0.126 C 
HETATM   17  C19 UNL     1      15.715   9.613  22.791  1.00  0.00     0.021 C 
HETATM   18  C20 UNL     1      15.488   8.468  21.829  1.00  0.00     0.021 C 
ENDBRANCH   9  12
ENDBRANCH   7   8
ENDBRANCH   1   7
BRANCH   4  19
HETATM   19  N2  UNL     1      25.625  10.494  19.158  1.00  0.00    -0.356 N 
HETATM   20  C7  UNL     1      26.750  11.306  18.859  1.00  0.00     0.222 C 
HETATM   21  O2  UNL     1      26.632  12.318  18.108  1.00  0.00    -0.273 OA
ATOM     22  H2  UNL     1      25.725   9.680  19.765  1.00  0.00     0.162 HD
BRANCH  20  23
HETATM   23  C8  UNL     1      28.050  10.938  19.446  1.00  0.00     0.082 C 
HETATM   24  C9  UNL     1      27.952   9.648  20.254  1.00  0.00     0.019 C 
HETATM   25  C10 UNL     1      28.405  10.075  21.615  1.00  0.00    -0.013 C 
HETATM   26  C11 UNL     1      29.868  10.504  21.571  1.00  0.00     0.005 C 
HETATM   27  C14 UNL     1      27.750  11.465  21.703  1.00  0.00     0.010 C 
HETATM   28  C12 UNL     1      29.867  11.832  20.798  1.00  0.00     0.006 C 
HETATM   29  C13 UNL     1      28.429  12.016  20.437  1.00  0.00    -0.001 C 
ENDBRANCH  20  23
ENDBRANCH   4  19
TORSDOF 5
ENDMDL
MODEL 4
REMARK VINA RESULT: -8.213335911      2.147      2.993
REMARK  5 active torsions:
REMARK  status: ('A' for Active; 'I' for Inactive)
REMARK       I    between atoms: C1_2  and  N1_3 
REMARK    1  A    between atoms: C1_2  and  C17_23 
REMARK    2  A    between atoms: N1_3  and  C2_5 
REMARK    3  A    between atoms: C2_5  and  C3_6 
REMARK    4  A    between atoms: C6_9  and  N2_10 
REMARK       I    between atoms: N2_10  and  C7_12 
REMARK    5  A    between atoms: C7_12  and  C8_14 
REMARK       I    between atoms: C17_23  and  N3_25 
ROOT
HETATM    1  C3  UNL     1      22.030  12.571  20.864  1.00  0.00     0.003 C 
HETATM    2  C4  UNL     1      22.878  13.720  21.288  1.00  0.00     0.008 C 
HETATM    3  C5  UNL     1      23.708  14.315  20.180  1.00  0.00     0.026 C 
HETATM    4  C6  UNL     1      24.374  13.229  19.380  1.00  0.00     0.084 C 
HETATM    5  C15 UNL     1      23.284  12.514  18.650  1.00  0.00     0.026 C 
HETATM    6  C16 UNL     1      22.070  12.203  19.435  1.00  0.00     0.008 C 
ENDROOT
BRANCH   1   7
HETATM    7  C2  UNL     1      20.583  12.861  21.269  1.00  0.00     0.127 C 
BRANCH   7   8
HETATM    8  N1  UNL     1      19.696  12.022  20.526  1.00  0.00    -0.353 N 
HETATM    9  C1  UNL     1      19.300  10.768  21.069  1.00  0.00     0.309 C 
HETATM   10  O1  UNL     1      19.725  10.402  22.188  1.00  0.00    -0.262 OA
ATOM     11  H1  UNL     1      19.349  12.319  19.614  1.00  0.00     0.162 HD
BRANCH   9  12
HETATM   12  C17 UNL     1      18.401   9.915  20.315  1.00  0.00     0.311 C 
HETATM   13  O3  UNL     1      18.729   9.477  19.158  1.00  0.00    -0.262 OA
HETATM   14  N3  UNL     1      17.143   9.552  20.848  1.00  0.00    -0.344 N 
HETATM   15  C18 UNL     1      16.622   9.967  22.127  1.00  0.00     0.126 C 
HETATM   16  C21 UNL     1      16.155   8.682  20.187  1.00  0.00     0.126 C 
HETATM   17  C19 UNL     1      15.261   9.316  22.245  1.00  0.00     0.021 C 
HETATM   18  C20 UNL     1      15.405   8.091  21.370  1.00  0.00     0.021 C 
ENDBRANCH   9  12
ENDBRANCH   7   8
ENDBRANCH   1   7
BRANCH   4  19
HETATM   19  N2  UNL     1      25.123  12.313  20.184  1.00  0.00    -0.356 N 
HETATM   20  C7  UNL     1      26.521  12.498  20.332  1.00  0.00     0.222 C 
HETATM   21  O2  UNL     1      27.107  13.465  19.761  1.00  0.00    -0.273 OA
ATOM     22  H2  UNL     1      24.655  11.533  20.646  1.00  0.00     0.162 HD
BRANCH  20  23
HETATM   23  C8  UNL     1      27.267  11.538  21.165  1.00  0.00     0.082 C 
HETATM   24  C9  UNL     1      28.706  11.994  21.386  1.00  0.00     0.019 C 
HETATM   25  C10 UNL     1      29.503  10.853  20.836  1.00  0.00    -0.013 C 
HETATM   26  C11 UNL     1      29.264   9.597  21.666  1.00  0.00     0.005 C 
HETATM   27  C14 UNL     1      28.655  10.491  19.603  1.00  0.00     0.010 C 
HETATM   28  C12 UNL     1      27.823   9.174  21.339  1.00  0.00     0.006 C 
HETATM   29  C13 UNL     1      27.361  10.239  20.397  1.00  0.00    -0.001 C 
ENDBRANCH  20  23
ENDBRANCH   4  19
TORSDOF 5
ENDMDL
MODEL 5
REMARK VINA RESULT: -8.211303080      1.798      2.866
REMARK  5 active torsions:
REMARK  status: ('A' for Active; 'I' for Inactive)
REMARK       I    between atoms: C1_2  and  N1_3 
REMARK    1  A    between atoms: C1_2  and  C17_23 
REMARK    2  A    between atoms: N1_3  and  C2_5 
REMARK    3  A    between atoms: C2_5  and  C3_6 
REMARK    4  A    between atoms: C6_9  and  N2_10 
REMARK       I    between atoms: N2_10  and  C7_12 
REMARK    5  A    between atoms: C7_12  and  C8_14 
REMARK       I    between atoms: C17_23  and  N3_25 
ROOT
HETATM    1  C3  UNL     1      19.957  13.004  22.971  1.00  0.00     0.003 C 
HETATM    2  C4  UNL     1      20.571  12.118  24.000  1.00  0.00     0.008 C 
HETATM    3  C5  UNL     1      21.886  12.620  24.539  1.00  0.00     0.026 C 
HETATM    4  C6  UNL     1      22.772  13.084  23.416  1.00  0.00     0.084 C 
HETATM    5  C15 UNL     1      22.136  14.315  22.857  1.00  0.00     0.026 C 
HETATM    6  C16 UNL     1      20.672  14.256  22.655  1.00  0.00     0.008 C 
ENDROOT
BRANCH   1   7
HETATM    7  C2  UNL     1      18.528  13.335  23.407  1.00  0.00     0.127 C 
BRANCH   7   8
HETATM    8  N1  UNL     1      17.710  12.166  23.309  1.00  0.00    -0.353 N 
HETATM    9  C1  UNL     1      16.746  12.073  22.268  1.00  0.00     0.309 C 
HETATM   10  O1  UNL     1      16.615  13.006  21.443  1.00  0.00    -0.262 OA
ATOM     11  H1  UNL     1      17.817  11.406  23.981  1.00  0.00     0.162 HD
BRANCH   9  12
HETATM   12  C17 UNL     1      15.914  10.888  22.168  1.00  0.00     0.311 C 
HETATM   13  O3  UNL     1      14.812  10.805  22.813  1.00  0.00    -0.262 OA
HETATM   14  N3  UNL     1      16.310   9.802  21.355  1.00  0.00    -0.344 N 
HETATM   15  C18 UNL     1      17.522   9.734  20.576  1.00  0.00     0.126 C 
HETATM   16  C21 UNL     1      15.546   8.557  21.162  1.00  0.00     0.126 C 
HETATM   17  C19 UNL     1      17.486   8.392  19.878  1.00  0.00     0.021 C 
HETATM   18  C20 UNL     1      16.002   8.111  19.782  1.00  0.00     0.021 C 
ENDBRANCH   9  12
ENDBRANCH   7   8
ENDBRANCH   1   7
BRANCH   4  19
HETATM   19  N2  UNL     1      22.948  12.101  22.391  1.00  0.00    -0.356 N 
HETATM   20  C7  UNL     1      24.171  12.053  21.675  1.00  0.00     0.222 C 
HETATM   21  O2  UNL     1      25.104  12.868  21.937  1.00  0.00    -0.273 OA
ATOM     22  H2  UNL     1      22.199  11.442  22.177  1.00  0.00     0.162 HD
BRANCH  20  23
HETATM   23  C8  UNL     1      24.324  11.031  20.624  1.00  0.00     0.082 C 
HETATM   24  C9  UNL     1      25.289  11.492  19.536  1.00  0.00     0.019 C 
HETATM   25  C10 UNL     1      24.447  11.432  18.300  1.00  0.00    -0.013 C 
HETATM   26  C11 UNL     1      24.045   9.990  18.007  1.00  0.00     0.005 C 
HETATM   27  C14 UNL     1      23.106  11.947  18.853  1.00  0.00     0.010 C 
HETATM   28  C12 UNL     1      23.034   9.630  19.107  1.00  0.00     0.006 C 
HETATM   29  C13 UNL     1      22.984  10.868  19.943  1.00  0.00    -0.001 C 
ENDBRANCH  20  23
ENDBRANCH   4  19
TORSDOF 5
ENDMDL
