MODEL 1
REMARK VINA RESULT: -7.950830958      0.000      0.000
REMARK  4 active torsions:
REMARK  status: ('A' for Active; 'I' for Inactive)
REMARK       I    between atoms: C2_2  and  N1_4 
REMARK    1  A    between atoms: C6_8  and  C7_9 
REMARK       I    between atoms: C7_9  and  N2_11 
REMARK    2  A    between atoms: N2_11  and  C8_13 
REMARK    3  A    between atoms: C8_13  and  C9_14 
REMARK       I    between atoms: N3_18  and  C13_19 
REMARK       I    between atoms: C13_19  and  N4_21 
REMARK    4  A    between atoms: N4_21  and  C14_23 
ROOT
HETATM    1  C9  UNL     1      20.255  10.833  20.528  1.00  0.00     0.021 C 
HETATM    2  C10 UNL     1      20.285  12.352  20.415  1.00  0.00     0.009 C 
HETATM    3  C11 UNL     1      21.333  12.823  21.393  1.00  0.00     0.020 C 
HETATM    4  C12 UNL     1      22.574  12.000  21.372  1.00  0.00     0.127 C 
HETATM    5  N3  UNL     1      22.658  10.987  20.370  1.00  0.00    -0.334 N 
HETATM    6  C13 UNL     1      23.937  10.582  19.877  1.00  0.00     0.318 C 
HETATM    7  O3  UNL     1      23.972   9.687  18.979  1.00  0.00    -0.247 OA
HETATM    8  N4  UNL     1      25.168  11.098  20.311  1.00  0.00    -0.338 N 
ATOM      9  H4  UNL     1      25.161  11.818  21.033  1.00  0.00     0.164 HD
HETATM   10  C19 UNL     1      21.469  10.327  19.821  1.00  0.00     0.133 C 
ENDROOT
BRANCH   1  11
HETATM   11  C8  UNL     1      18.973  10.282  19.945  1.00  0.00     0.128 C 
BRANCH  11  12
HETATM   12  N2  UNL     1      17.840  10.646  20.747  1.00  0.00    -0.359 N 
HETATM   13  C7  UNL     1      16.791   9.737  21.004  1.00  0.00     0.240 C 
HETATM   14  O2  UNL     1      16.861   8.588  20.514  1.00  0.00    -0.271 OA
ATOM     15  H2  UNL     1      17.792  11.585  21.141  1.00  0.00     0.162 HD
BRANCH  13  16
HETATM   16  C6  UNL     1      15.656  10.134  21.821  1.00  0.00     0.179 C 
HETATM   17  N1  UNL     1      15.995  11.024  22.907  1.00  0.00    -0.339 N 
HETATM   18  C2  UNL     1      15.767  12.403  23.006  1.00  0.00     0.216 C 
HETATM   19  C3  UNL     1      16.633  10.197  23.901  1.00  0.00     0.127 C 
HETATM   20  C1  UNL     1      16.187  13.155  24.197  1.00  0.00     0.117 C 
HETATM   21  O1  UNL     1      15.199  13.005  22.067  1.00  0.00    -0.274 OA
HETATM   22  C4  UNL     1      15.845   8.887  23.810  1.00  0.00     0.022 C 
HETATM   23  C5  UNL     1      15.006   8.985  22.555  1.00  0.00     0.037 C 
ENDBRANCH  13  16
ENDBRANCH  11  12
ENDBRANCH   1  11
BRANCH   8  24
HETATM   24  C14 UNL     1      26.446  10.668  19.792  1.00  0.00     0.086 C 
HETATM   25  C15 UNL     1      27.107   9.644  20.691  1.00  0.00     0.025 C 
HETATM   26  C16 UNL     1      28.567   9.808  20.321  1.00  0.00     0.002 C 
HETATM   27  C17 UNL     1      28.721  11.311  20.312  1.00  0.00     0.002 C 
HETATM   28  C18 UNL     1      27.447  11.807  19.695  1.00  0.00     0.025 C 
ENDBRANCH   8  24
TORSDOF 4
ENDMDL
MODEL 2
REMARK VINA RESULT: -7.860242115      2.162      3.392
REMARK  4 active torsions:
REMARK  status: ('A' for Active; 'I' for Inactive)
REMARK       I    between atoms: C2_2  and  N1_4 
REMARK    1  A    between atoms: C6_8  and  C7_9 
REMARK       I    between atoms: C7_9  and  N2_11 
REMARK    2  A    between atoms: N2_11  and  C8_13 
REMARK    3  A    between atoms: C8_13  and  C9_14 
REMARK       I    between atoms: N3_18  and  C13_19 
REMARK       I    between atoms: C13_19  and  N4_21 
REMARK    4  A    between atoms: N4_21  and  C14_23 
ROOT
HETATM    1  C9  UNL     1      21.434  12.504  23.545  1.00  0.00     0.021 C 
HETATM    2  C10 UNL     1      21.545  13.856  22.851  1.00  0.00     0.009 C 
HETATM    3  C11 UNL     1      22.984  14.284  22.998  1.00  0.00     0.020 C 
HETATM    4  C12 UNL     1      23.957  13.183  22.753  1.00  0.00     0.127 C 
HETATM    5  N3  UNL     1      23.422  11.941  22.298  1.00  0.00    -0.334 N 
HETATM    6  C13 UNL     1      24.226  11.076  21.492  1.00  0.00     0.318 C 
HETATM    7  O3  UNL     1      23.713   9.986  21.096  1.00  0.00    -0.247 OA
HETATM    8  N4  UNL     1      25.547  11.338  21.100  1.00  0.00    -0.338 N 
ATOM      9  H4  UNL     1      25.977  12.210  21.408  1.00  0.00     0.164 HD
HETATM   10  C19 UNL     1      22.063  11.502  22.634  1.00  0.00     0.133 C 
ENDROOT
BRANCH   1  11
HETATM   11  C8  UNL     1      19.989  12.182  23.852  1.00  0.00     0.128 C 
BRANCH  11  12
HETATM   12  N2  UNL     1      19.205  12.115  22.653  1.00  0.00    -0.359 N 
HETATM   13  C7  UNL     1      18.375  11.009  22.369  1.00  0.00     0.240 C 
HETATM   14  O2  UNL     1      18.331  10.067  23.192  1.00  0.00    -0.271 OA
ATOM     15  H2  UNL     1      19.249  12.887  21.988  1.00  0.00     0.162 HD
BRANCH  13  16
HETATM   16  C6  UNL     1      17.593  10.970  21.145  1.00  0.00     0.179 C 
HETATM   17  N1  UNL     1      17.664   9.711  20.440  1.00  0.00    -0.339 N 
HETATM   18  C2  UNL     1      16.697   8.699  20.366  1.00  0.00     0.216 C 
HETATM   19  C3  UNL     1      18.960   9.692  19.809  1.00  0.00     0.127 C 
HETATM   20  C1  UNL     1      16.945   7.471  19.598  1.00  0.00     0.117 C 
HETATM   21  O1  UNL     1      15.606   8.841  20.963  1.00  0.00    -0.274 OA
HETATM   22  C4  UNL     1      19.157  11.152  19.393  1.00  0.00     0.022 C 
HETATM   23  C5  UNL     1      18.070  11.940  20.090  1.00  0.00     0.037 C 
ENDBRANCH  13  16
ENDBRANCH  11  12
ENDBRANCH   1  11
BRANCH   8  24
HETATM   24  C14 UNL     1      26.334  10.443  20.284  1.00  0.00     0.086 C 
HETATM   25  C15 UNL     1      27.367   9.692  21.098  1.00  0.00     0.025 C 
HETATM   26  C16 UNL     1      28.394   9.338  20.042  1.00  0.00     0.002 C 
HETATM   27  C17 UNL     1      28.533  10.643  19.293  1.00  0.00     0.002 C 
HETATM   28  C18 UNL     1      27.134  11.177  19.221  1.00  0.00     0.025 C 
ENDBRANCH   8  24
TORSDOF 4
ENDMDL
MODEL 3
REMARK VINA RESULT: -7.806246938      1.701      2.157
REMARK  4 active torsions:
REMARK  status: ('A' for Active; 'I' for Inactive)
REMARK       I    between atoms: C2_2  and  N1_4 
REMARK    1  A    between atoms: C6_8  and  C7_9 
REMARK       I    between atoms: C7_9  and  N2_11 
REMARK    2  A    between atoms: N2_11  and  C8_13 
REMARK    3  A    between atoms: C8_13  and  C9_14 
REMARK       I    between atoms: N3_18  and  C13_19 
REMARK       I    between atoms: C13_19  and  N4_21 
REMARK    4  A    between atoms: N4_21  and  C14_23 
ROOT
HETATM    1  C9  UNL     1      18.719  10.650  20.963  1.00  0.00     0.021 C 
HETATM    2  C10 UNL     1      18.687  12.149  20.692  1.00  0.00     0.009 C 
HETATM    3  C11 UNL     1      19.804  12.745  21.512  1.00  0.00     0.020 C 
HETATM    4  C12 UNL     1      21.065  11.955  21.457  1.00  0.00     0.127 C 
HETATM    5  N3  UNL     1      21.090  10.844  20.561  1.00  0.00    -0.334 N 
HETATM    6  C13 UNL     1      22.331  10.420  19.993  1.00  0.00     0.318 C 
HETATM    7  O3  UNL     1      22.313   9.437  19.192  1.00  0.00    -0.247 OA
HETATM    8  N4  UNL     1      23.579  11.008  20.251  1.00  0.00    -0.338 N 
ATOM      9  H4  UNL     1      23.614  11.800  20.893  1.00  0.00     0.164 HD
HETATM   10  C19 UNL     1      19.878  10.101  20.199  1.00  0.00     0.133 C 
ENDROOT
BRANCH   1  11
HETATM   11  C8  UNL     1      17.407  10.010  20.565  1.00  0.00     0.128 C 
BRANCH  11  12
HETATM   12  N2  UNL     1      16.692   9.534  21.714  1.00  0.00    -0.359 N 
HETATM   13  C7  UNL     1      15.673  10.298  22.322  1.00  0.00     0.240 C 
HETATM   14  O2  UNL     1      15.395  11.419  21.839  1.00  0.00    -0.271 OA
ATOM     15  H2  UNL     1      16.926   8.621  22.101  1.00  0.00     0.162 HD
BRANCH  13  16
HETATM   16  C6  UNL     1      14.965   9.789  23.486  1.00  0.00     0.179 C 
HETATM   17  N1  UNL     1      14.762  10.770  24.527  1.00  0.00    -0.339 N 
HETATM   18  C2  UNL     1      13.582  11.446  24.868  1.00  0.00     0.216 C 
HETATM   19  C3  UNL     1      16.044  10.926  25.167  1.00  0.00     0.127 C 
HETATM   20  C1  UNL     1      13.561  12.422  25.965  1.00  0.00     0.117 C 
HETATM   21  O1  UNL     1      12.531  11.215  24.229  1.00  0.00    -0.274 OA
HETATM   22  C4  UNL     1      16.611   9.504  25.147  1.00  0.00     0.022 C 
HETATM   23  C5  UNL     1      15.716   8.706  24.225  1.00  0.00     0.037 C 
ENDBRANCH  13  16
ENDBRANCH  11  12
ENDBRANCH   1  11
BRANCH   8  24
HETATM   24  C14 UNL     1      24.817  10.556  19.660  1.00  0.00     0.086 C 
HETATM   25  C15 UNL     1      26.011  10.863  20.539  1.00  0.00     0.025 C 
HETATM   26  C16 UNL     1      27.140  10.881  19.529  1.00  0.00     0.002 C 
HETATM   27  C17 UNL     1      26.544  11.701  18.409  1.00  0.00     0.002 C 
HETATM   28  C18 UNL     1      25.116  11.247  18.340  1.00  0.00     0.025 C 
ENDBRANCH   8  24
TORSDOF 4
ENDMDL
MODEL 4
REMARK VINA RESULT: -7.768901050      2.916      4.377
REMARK  4 active torsions:
REMARK  status: ('A' for Active; 'I' for Inactive)
REMARK       I    between atoms: C2_2  and  N1_4 
REMARK    1  A    between atoms: C6_8  and  C7_9 
REMARK       I    between atoms: C7_9  and  N2_11 
REMARK    2  A    between atoms: N2_11  and  C8_13 
REMARK    3  A    between atoms: C8_13  and  C9_14 
REMARK       I    between atoms: N3_18  and  C13_19 
REMARK       I    between atoms: C13_19  and  N4_21 
REMARK    4  A    between atoms: N4_21  and  C14_23 
ROOT
HETATM    1  C9  UNL     1      19.927  14.825  24.065  1.00  0.00     0.021 C 
HETATM    2  C10 UNL     1      20.612  16.111  23.620  1.00  0.00     0.009 C 
HETATM    3  C11 UNL     1      22.073  15.772  23.458  1.00  0.00     0.020 C 
HETATM    4  C12 UNL     1      22.305  14.470  22.772  1.00  0.00     0.127 C 
HETATM    5  N3  UNL     1      21.155  13.799  22.259  1.00  0.00    -0.334 N 
HETATM    6  C13 UNL     1      21.286  12.933  21.129  1.00  0.00     0.318 C 
HETATM    7  O3  UNL     1      20.240  12.362  20.693  1.00  0.00    -0.247 OA
HETATM    8  N4  UNL     1      22.487  12.661  20.456  1.00  0.00    -0.338 N 
ATOM      9  H4  UNL     1      23.339  13.111  20.792  1.00  0.00     0.164 HD
HETATM   10  C19 UNL     1      19.825  13.954  22.857  1.00  0.00     0.133 C 
ENDROOT
BRANCH   1  11
HETATM   11  C8  UNL     1      18.578  15.126  24.679  1.00  0.00     0.128 C 
BRANCH  11  12
HETATM   12  N2  UNL     1      17.537  14.372  24.042  1.00  0.00    -0.359 N 
HETATM   13  C7  UNL     1      16.945  13.252  24.665  1.00  0.00     0.240 C 
HETATM   14  O2  UNL     1      17.347  12.918  25.802  1.00  0.00    -0.271 OA
ATOM     15  H2  UNL     1      17.218  14.652  23.115  1.00  0.00     0.162 HD
BRANCH  13  16
HETATM   16  C6  UNL     1      15.892  12.507  23.994  1.00  0.00     0.179 C 
HETATM   17  N1  UNL     1      16.106  11.079  23.969  1.00  0.00    -0.339 N 
HETATM   18  C2  UNL     1      15.474  10.091  24.737  1.00  0.00     0.216 C 
HETATM   19  C3  UNL     1      17.125  10.857  22.975  1.00  0.00     0.127 C 
HETATM   20  C1  UNL     1      15.823   8.673  24.578  1.00  0.00     0.117 C 
HETATM   21  O1  UNL     1      14.599  10.419  25.569  1.00  0.00    -0.274 OA
HETATM   22  C4  UNL     1      16.788  11.897  21.903  1.00  0.00     0.022 C 
HETATM   23  C5  UNL     1      15.768  12.826  22.523  1.00  0.00     0.037 C 
ENDBRANCH  13  16
ENDBRANCH  11  12
ENDBRANCH   1  11
BRANCH   8  24
HETATM   24  C14 UNL     1      22.586  11.781  19.316  1.00  0.00     0.086 C 
HETATM   25  C15 UNL     1      23.017  10.385  19.712  1.00  0.00     0.025 C 
HETATM   26  C16 UNL     1      23.618   9.870  18.420  1.00  0.00     0.002 C 
HETATM   27  C17 UNL     1      24.465  11.042  17.981  1.00  0.00     0.002 C 
HETATM   28  C18 UNL     1      23.632  12.243  18.315  1.00  0.00     0.025 C 
ENDBRANCH   8  24
TORSDOF 4
ENDMDL
MODEL 5
REMARK VINA RESULT: -7.755635495      3.753      6.911
REMARK  4 active torsions:
REMARK  status: ('A' for Active; 'I' for Inactive)
REMARK       I    between atoms: C2_2  and  N1_4 
REMARK    1  A    between atoms: C6_8  and  C7_9 
REMARK       I    between atoms: C7_9  and  N2_11 
REMARK    2  A    between atoms: N2_11  and  C8_13 
REMARK    3  A    between atoms: C8_13  and  C9_14 
REMARK       I    between atoms: N3_18  and  C13_19 
REMARK       I    between atoms: C13_19  and  N4_21 
REMARK    4  A    between atoms: N4_21  and  C14_23 
ROOT
HETATM    1  C9  UNL     1      27.175  11.754  19.145  1.00  0.00     0.021 C 
HETATM    2  C10 UNL     1      27.341  10.502  19.999  1.00  0.00     0.009 C 
HETATM    3  C11 UNL     1      28.732  10.573  20.578  1.00  0.00     0.020 C 
HETATM    4  C12 UNL     1      29.098  11.928  21.075  1.00  0.00     0.127 C 
HETATM    5  N3  UNL     1      28.071  12.918  21.059  1.00  0.00    -0.334 N 
HETATM    6  C13 UNL     1      28.102  13.987  22.008  1.00  0.00     0.318 C 
HETATM    7  O3  UNL     1      27.167  14.842  21.972  1.00  0.00    -0.247 OA
HETATM    8  N4  UNL     1      29.093  14.167  22.986  1.00  0.00    -0.338 N 
ATOM      9  H4  UNL     1      29.854  13.490  23.031  1.00  0.00     0.164 HD
HETATM   10  C19 UNL     1      26.971  12.893  20.089  1.00  0.00     0.133 C 
ENDROOT
BRANCH   1  11
HETATM   11  C8  UNL     1      26.024  11.589  18.178  1.00  0.00     0.128 C 
BRANCH  11  12
HETATM   12  N2  UNL     1      24.941  10.866  18.779  1.00  0.00    -0.359 N 
HETATM   13  C7  UNL     1      23.641  11.410  18.860  1.00  0.00     0.240 C 
HETATM   14  O2  UNL     1      23.440  12.554  18.394  1.00  0.00    -0.271 OA
ATOM     15  H2  UNL     1      25.114   9.935  19.156  1.00  0.00     0.162 HD
BRANCH  13  16
HETATM   16  C6  UNL     1      22.562  10.654  19.475  1.00  0.00     0.179 C 
HETATM   17  N1  UNL     1      21.768  11.415  20.411  1.00  0.00    -0.339 N 
HETATM   18  C2  UNL     1      20.479  11.937  20.235  1.00  0.00     0.216 C 
HETATM   19  C3  UNL     1      22.579  11.541  21.596  1.00  0.00     0.127 C 
HETATM   20  C1  UNL     1      19.819  12.696  21.306  1.00  0.00     0.117 C 
HETATM   21  O1  UNL     1      19.880  11.754  19.152  1.00  0.00    -0.274 OA
HETATM   22  C4  UNL     1      23.292  10.187  21.666  1.00  0.00     0.022 C 
HETATM   23  C5  UNL     1      23.041   9.509  20.337  1.00  0.00     0.037 C 
ENDBRANCH  13  16
ENDBRANCH  11  12
ENDBRANCH   1  11
BRANCH   8  24
HETATM   24  C14 UNL     1      29.096  15.258  23.933  1.00  0.00     0.086 C 
HETATM   25  C15 UNL     1      30.497  15.757  24.219  1.00  0.00     0.025 C 
HETATM   26  C16 UNL     1      30.323  16.397  25.581  1.00  0.00     0.002 C 
HETATM   27  C17 UNL     1      29.513  15.353  26.315  1.00  0.00     0.002 C 
HETATM   28  C18 UNL     1      28.542  14.853  25.288  1.00  0.00     0.025 C 
ENDBRANCH   8  24
TORSDOF 4
ENDMDL
