MODEL 1
REMARK VINA RESULT: -7.435611884      0.000      0.000
REMARK  8 active torsions:
REMARK  status: ('A' for Active; 'I' for Inactive)
REMARK       I    between atoms: C1_2  and  N1_3 
REMARK    1  A    between atoms: C1_2  and  C8_11 
REMARK    2  A    between atoms: N1_3  and  C2_5 
REMARK    3  A    between atoms: C2_5  and  C3_6 
REMARK    4  A    between atoms: C4_7  and  C5_8 
REMARK    5  A    between atoms: N2_14  and  C11_15 
REMARK    6  A    between atoms: C11_15  and  O2_16 
REMARK    7  A    between atoms: C11_15  and  N3_18 
REMARK    8  A    between atoms: C16_23  and  C17_24 
ROOT
HETATM    1  C8  UNL     1      20.560  11.107  19.837  1.00  0.00     0.109 A 
HETATM    2  C9  UNL     1      21.412  11.976  20.614  1.00  0.00     0.042 A 
HETATM    3  C10 UNL     1      22.047  11.696  21.977  1.00  0.00     0.134 C 
HETATM    4  N2  UNL     1      22.725  10.682  21.228  1.00  0.00    -0.341 N 
HETATM    5  C18 UNL     1      21.351  10.419  20.804  1.00  0.00     0.107 A 
ENDROOT
BRANCH   4   6
HETATM    6  C11 UNL     1      23.979  10.147  20.977  1.00  0.00     0.218 C 
BRANCH   6   7
HETATM    7  O2  UNL     1      24.295   9.160  21.787  1.00  0.00    -0.332 OA
ATOM      8  H2  UNL     1      25.071   8.683  21.515  1.00  0.00     0.220 HD
ENDBRANCH   6   7
BRANCH   6   9
HETATM    9  N3  UNL     1      24.942  10.478  20.028  1.00  0.00    -0.333 N 
HETATM   10  C12 UNL     1      24.839  10.241  18.637  1.00  0.00     0.127 C 
HETATM   11  C13 UNL     1      24.640  11.639  18.014  1.00  0.00     0.020 C 
HETATM   12  C14 UNL     1      25.961  12.349  18.235  1.00  0.00     0.004 C 
HETATM   13  C15 UNL     1      26.425  12.393  19.639  1.00  0.00     0.036 C 
HETATM   14  C16 UNL     1      26.193  11.149  20.455  1.00  0.00     0.188 C 
BRANCH  14  15
HETATM   15  C17 UNL     1      27.323  10.186  20.393  1.00  0.00     0.196 C 
HETATM   16  O3  UNL     1      27.453   9.242  21.212  1.00  0.00    -0.646 OA
HETATM   17  O4  UNL     1      28.323  10.274  19.406  1.00  0.00    -0.646 OA
ENDBRANCH  14  15
ENDBRANCH   6   9
ENDBRANCH   4   6
BRANCH   1  18
HETATM   18  C1  UNL     1      19.101  11.344  20.010  1.00  0.00     0.225 C 
HETATM   19  O1  UNL     1      18.292  11.075  19.085  1.00  0.00    -0.273 OA
HETATM   20  N1  UNL     1      18.578  11.879  21.214  1.00  0.00    -0.350 N 
ATOM     21  H1  UNL     1      19.216  12.106  21.978  1.00  0.00     0.163 HD
BRANCH  20  22
HETATM   22  C2  UNL     1      17.165  12.110  21.383  1.00  0.00     0.217 C 
BRANCH  22  23
HETATM   23  C3  UNL     1      16.615  11.052  22.230  1.00  0.00    -0.086 C 
HETATM   24  C4  UNL     1      16.182  10.182  22.934  1.00  0.00    -0.100 C 
BRANCH  24  25
HETATM   25  C5  UNL     1      15.675   9.119  23.802  1.00  0.00     0.065 A 
HETATM   26  C6  UNL     1      15.982   9.185  25.252  1.00  0.00     0.018 A 
HETATM   27  C7  UNL     1      14.622   9.595  24.810  1.00  0.00     0.018 A 
ENDBRANCH  24  25
ENDBRANCH  22  23
ENDBRANCH  20  22
ENDBRANCH   1  18
TORSDOF 8
ENDMDL
MODEL 2
REMARK VINA RESULT: -7.306400817      0.996      1.148
REMARK  8 active torsions:
REMARK  status: ('A' for Active; 'I' for Inactive)
REMARK       I    between atoms: C1_2  and  N1_3 
REMARK    1  A    between atoms: C1_2  and  C8_11 
REMARK    2  A    between atoms: N1_3  and  C2_5 
REMARK    3  A    between atoms: C2_5  and  C3_6 
REMARK    4  A    between atoms: C4_7  and  C5_8 
REMARK    5  A    between atoms: N2_14  and  C11_15 
REMARK    6  A    between atoms: C11_15  and  O2_16 
REMARK    7  A    between atoms: C11_15  and  N3_18 
REMARK    8  A    between atoms: C16_23  and  C17_24 
ROOT
HETATM    1  C8  UNL     1      20.405  10.206  19.539  1.00  0.00     0.109 A 
HETATM    2  C9  UNL     1      21.045  11.403  20.030  1.00  0.00     0.042 A 
HETATM    3  C10 UNL     1      21.644  11.648  21.415  1.00  0.00     0.134 C 
HETATM    4  N2  UNL     1      22.532  10.606  20.994  1.00  0.00    -0.341 N 
HETATM    5  C18 UNL     1      21.251   9.983  20.664  1.00  0.00     0.107 A 
ENDROOT
BRANCH   4   6
HETATM    6  C11 UNL     1      23.872  10.264  20.911  1.00  0.00     0.218 C 
BRANCH   6   7
HETATM    7  O2  UNL     1      24.276   9.496  21.900  1.00  0.00    -0.332 OA
ATOM      8  H2  UNL     1      24.873   9.932  22.496  1.00  0.00     0.220 HD
ENDBRANCH   6   7
BRANCH   6   9
HETATM    9  N3  UNL     1      24.845  10.597  19.972  1.00  0.00    -0.333 N 
HETATM   10  C12 UNL     1      24.753  10.366  18.579  1.00  0.00     0.127 C 
HETATM   11  C13 UNL     1      24.564  11.768  17.961  1.00  0.00     0.020 C 
HETATM   12  C14 UNL     1      25.885  12.473  18.196  1.00  0.00     0.004 C 
HETATM   13  C15 UNL     1      26.337  12.509  19.604  1.00  0.00     0.036 C 
HETATM   14  C16 UNL     1      26.094  11.261  20.413  1.00  0.00     0.188 C 
BRANCH  14  15
HETATM   15  C17 UNL     1      27.222  10.295  20.356  1.00  0.00     0.196 C 
HETATM   16  O3  UNL     1      27.344   9.350  21.174  1.00  0.00    -0.646 OA
HETATM   17  O4  UNL     1      28.227  10.381  19.374  1.00  0.00    -0.646 OA
ENDBRANCH  14  15
ENDBRANCH   6   9
ENDBRANCH   4   6
BRANCH   1  18
HETATM   18  C1  UNL     1      18.919  10.207  19.634  1.00  0.00     0.225 C 
HETATM   19  O1  UNL     1      18.252  11.204  19.255  1.00  0.00    -0.273 OA
HETATM   20  N1  UNL     1      18.213   9.093  20.151  1.00  0.00    -0.350 N 
ATOM     21  H1  UNL     1      18.734   8.273  20.465  1.00  0.00     0.163 HD
BRANCH  20  22
HETATM   22  C2  UNL     1      16.775   9.092  20.244  1.00  0.00     0.217 C 
BRANCH  22  23
HETATM   23  C3  UNL     1      16.391   9.503  21.594  1.00  0.00    -0.086 C 
HETATM   24  C4  UNL     1      16.077   9.861  22.696  1.00  0.00    -0.100 C 
BRANCH  24  25
HETATM   25  C5  UNL     1      15.695  10.318  24.031  1.00  0.00     0.065 A 
HETATM   26  C6  UNL     1      14.647   9.564  24.764  1.00  0.00     0.018 A 
HETATM   27  C7  UNL     1      16.066   9.336  25.150  1.00  0.00     0.018 A 
ENDBRANCH  24  25
ENDBRANCH  22  23
ENDBRANCH  20  22
ENDBRANCH   1  18
TORSDOF 8
ENDMDL
MODEL 3
REMARK VINA RESULT: -7.280021789      2.029      2.777
REMARK  8 active torsions:
REMARK  status: ('A' for Active; 'I' for Inactive)
REMARK       I    between atoms: C1_2  and  N1_3 
REMARK    1  A    between atoms: C1_2  and  C8_11 
REMARK    2  A    between atoms: N1_3  and  C2_5 
REMARK    3  A    between atoms: C2_5  and  C3_6 
REMARK    4  A    between atoms: C4_7  and  C5_8 
REMARK    5  A    between atoms: N2_14  and  C11_15 
REMARK    6  A    between atoms: C11_15  and  O2_16 
REMARK    7  A    between atoms: C11_15  and  N3_18 
REMARK    8  A    between atoms: C16_23  and  C17_24 
ROOT
HETATM    1  C8  UNL     1      19.163  10.013  19.903  1.00  0.00     0.109 A 
HETATM    2  C9  UNL     1      19.140  11.440  20.122  1.00  0.00     0.042 A 
HETATM    3  C10 UNL     1      19.463  12.197  21.410  1.00  0.00     0.134 C 
HETATM    4  N2  UNL     1      20.758  11.632  21.181  1.00  0.00    -0.341 N 
HETATM    5  C18 UNL     1      19.938  10.432  21.023  1.00  0.00     0.107 A 
ENDROOT
BRANCH   4   6
HETATM    6  C11 UNL     1      22.107  11.948  21.127  1.00  0.00     0.218 C 
BRANCH   6   7
HETATM    7  O2  UNL     1      22.415  13.032  21.805  1.00  0.00    -0.332 OA
ATOM      8  H2  UNL     1      22.411  13.821  21.276  1.00  0.00     0.220 HD
ENDBRANCH   6   7
BRANCH   6   9
HETATM    9  N3  UNL     1      23.169  11.320  20.483  1.00  0.00    -0.333 N 
HETATM   10  C12 UNL     1      23.509   9.951  20.605  1.00  0.00     0.127 C 
HETATM   11  C13 UNL     1      23.128   9.329  19.245  1.00  0.00     0.020 C 
HETATM   12  C14 UNL     1      24.108   9.932  18.259  1.00  0.00     0.004 C 
HETATM   13  C15 UNL     1      24.150  11.410  18.236  1.00  0.00     0.036 C 
HETATM   14  C16 UNL     1      24.040  12.099  19.572  1.00  0.00     0.188 C 
BRANCH  14  15
HETATM   15  C17 UNL     1      25.355  12.339  20.220  1.00  0.00     0.196 C 
HETATM   16  O3  UNL     1      26.446  12.105  19.643  1.00  0.00    -0.646 OA
HETATM   17  O4  UNL     1      25.458  12.847  21.528  1.00  0.00    -0.646 OA
ENDBRANCH  14  15
ENDBRANCH   6   9
ENDBRANCH   4   6
BRANCH   1  18
HETATM   18  C1  UNL     1      17.844   9.338  20.041  1.00  0.00     0.225 C 
HETATM   19  O1  UNL     1      17.466   8.484  19.198  1.00  0.00    -0.273 OA
HETATM   20  N1  UNL     1      16.975   9.634  21.121  1.00  0.00    -0.350 N 
ATOM     21  H1  UNL     1      17.260  10.323  21.818  1.00  0.00     0.163 HD
BRANCH  20  22
HETATM   22  C2  UNL     1      15.696   8.981  21.257  1.00  0.00     0.217 C 
BRANCH  22  23
HETATM   23  C3  UNL     1      14.965   9.605  22.359  1.00  0.00    -0.086 C 
HETATM   24  C4  UNL     1      14.374  10.136  23.259  1.00  0.00    -0.100 C 
BRANCH  24  25
HETATM   25  C5  UNL     1      13.666  10.802  24.352  1.00  0.00     0.065 A 
HETATM   26  C6  UNL     1      12.535  10.091  24.997  1.00  0.00     0.018 A 
HETATM   27  C7  UNL     1      13.840  10.113  25.711  1.00  0.00     0.018 A 
ENDBRANCH  24  25
ENDBRANCH  22  23
ENDBRANCH  20  22
ENDBRANCH   1  18
TORSDOF 8
ENDMDL
MODEL 4
REMARK VINA RESULT: -7.222766540      2.017      2.602
REMARK  8 active torsions:
REMARK  status: ('A' for Active; 'I' for Inactive)
REMARK       I    between atoms: C1_2  and  N1_3 
REMARK    1  A    between atoms: C1_2  and  C8_11 
REMARK    2  A    between atoms: N1_3  and  C2_5 
REMARK    3  A    between atoms: C2_5  and  C3_6 
REMARK    4  A    between atoms: C4_7  and  C5_8 
REMARK    5  A    between atoms: N2_14  and  C11_15 
REMARK    6  A    between atoms: C11_15  and  O2_16 
REMARK    7  A    between atoms: C11_15  and  N3_18 
REMARK    8  A    between atoms: C16_23  and  C17_24 
ROOT
HETATM    1  C8  UNL     1      20.206  10.638  19.695  1.00  0.00     0.109 A 
HETATM    2  C9  UNL     1      20.635  11.271  20.920  1.00  0.00     0.042 A 
HETATM    3  C10 UNL     1      21.211  10.605  22.170  1.00  0.00     0.134 C 
HETATM    4  N2  UNL     1      22.260  10.260  21.258  1.00  0.00    -0.341 N 
HETATM    5  C18 UNL     1      21.104   9.843  20.468  1.00  0.00     0.107 A 
ENDROOT
BRANCH   4   6
HETATM    6  C11 UNL     1      23.638  10.264  21.109  1.00  0.00     0.218 C 
BRANCH   6   7
HETATM    7  O2  UNL     1      24.230   9.257  21.714  1.00  0.00    -0.332 OA
ATOM      8  H2  UNL     1      25.175   9.265  21.621  1.00  0.00     0.220 HD
ENDBRANCH   6   7
BRANCH   6   9
HETATM    9  N3  UNL     1      24.483  11.142  20.437  1.00  0.00    -0.333 N 
HETATM   10  C12 UNL     1      25.868  11.297  20.683  1.00  0.00     0.127 C 
HETATM   11  C13 UNL     1      26.557  10.674  19.450  1.00  0.00     0.020 C 
HETATM   12  C14 UNL     1      26.214  11.606  18.306  1.00  0.00     0.004 C 
HETATM   13  C15 UNL     1      24.769  11.854  18.107  1.00  0.00     0.036 C 
HETATM   14  C16 UNL     1      23.942  12.001  19.357  1.00  0.00     0.188 C 
BRANCH  14  15
HETATM   15  C17 UNL     1      23.843  13.404  19.835  1.00  0.00     0.196 C 
HETATM   16  O3  UNL     1      24.328  14.371  19.198  1.00  0.00    -0.646 OA
HETATM   17  O4  UNL     1      23.195  13.736  21.040  1.00  0.00    -0.646 OA
ENDBRANCH  14  15
ENDBRANCH   6   9
ENDBRANCH   4   6
BRANCH   1  18
HETATM   18  C1  UNL     1      18.747  10.358  19.613  1.00  0.00     0.225 C 
HETATM   19  O1  UNL     1      17.947  11.236  19.199  1.00  0.00    -0.273 OA
HETATM   20  N1  UNL     1      18.215   9.101  19.996  1.00  0.00    -0.350 N 
ATOM     21  H1  UNL     1      18.845   8.374  20.335  1.00  0.00     0.163 HD
BRANCH  20  22
HETATM   22  C2  UNL     1      16.801   8.829  19.917  1.00  0.00     0.217 C 
BRANCH  22  23
HETATM   23  C3  UNL     1      16.197   9.097  21.221  1.00  0.00    -0.086 C 
HETATM   24  C4  UNL     1      15.719   9.327  22.298  1.00  0.00    -0.100 C 
BRANCH  24  25
HETATM   25  C5  UNL     1      15.155   9.619  23.615  1.00  0.00     0.065 A 
HETATM   26  C6  UNL     1      15.677   8.874  24.788  1.00  0.00     0.018 A 
HETATM   27  C7  UNL     1      16.152  10.269  24.583  1.00  0.00     0.018 A 
ENDBRANCH  24  25
ENDBRANCH  22  23
ENDBRANCH  20  22
ENDBRANCH   1  18
TORSDOF 8
ENDMDL
MODEL 5
REMARK VINA RESULT: -7.210949913      2.545      9.280
REMARK  8 active torsions:
REMARK  status: ('A' for Active; 'I' for Inactive)
REMARK       I    between atoms: C1_2  and  N1_3 
REMARK    1  A    between atoms: C1_2  and  C8_11 
REMARK    2  A    between atoms: N1_3  and  C2_5 
REMARK    3  A    between atoms: C2_5  and  C3_6 
REMARK    4  A    between atoms: C4_7  and  C5_8 
REMARK    5  A    between atoms: N2_14  and  C11_15 
REMARK    6  A    between atoms: C11_15  and  O2_16 
REMARK    7  A    between atoms: C11_15  and  N3_18 
REMARK    8  A    between atoms: C16_23  and  C17_24 
ROOT
HETATM    1  C8  UNL     1      20.953  11.389  19.430  1.00  0.00     0.109 A 
HETATM    2  C9  UNL     1      20.883  10.150  20.169  1.00  0.00     0.042 A 
HETATM    3  C10 UNL     1      20.227   9.902  21.527  1.00  0.00     0.134 C 
HETATM    4  N2  UNL     1      19.046  10.247  20.794  1.00  0.00    -0.341 N 
HETATM    5  C18 UNL     1      19.909  11.359  20.401  1.00  0.00     0.107 A 
ENDROOT
BRANCH   4   6
HETATM    6  C11 UNL     1      17.747   9.837  20.537  1.00  0.00     0.218 C 
BRANCH   6   7
HETATM    7  O2  UNL     1      17.566   9.426  19.300  1.00  0.00    -0.332 OA
ATOM      8  H2  UNL     1      17.601  10.129  18.662  1.00  0.00     0.220 HD
ENDBRANCH   6   7
BRANCH   6   9
HETATM    9  N3  UNL     1      16.623   9.790  21.357  1.00  0.00    -0.333 N 
HETATM   10  C12 UNL     1      15.486   8.975  21.144  1.00  0.00     0.127 C 
HETATM   11  C13 UNL     1      15.566   7.896  22.245  1.00  0.00     0.020 C 
HETATM   12  C14 UNL     1      15.323   8.648  23.538  1.00  0.00     0.004 C 
HETATM   13  C15 UNL     1      16.224   9.797  23.777  1.00  0.00     0.036 C 
HETATM   14  C16 UNL     1      16.566  10.635  22.573  1.00  0.00     0.188 C 
BRANCH  14  15
HETATM   15  C17 UNL     1      15.624  11.763  22.355  1.00  0.00     0.196 C 
HETATM   16  O3  UNL     1      15.933  12.784  21.693  1.00  0.00    -0.646 OA
HETATM   17  O4  UNL     1      14.318  11.754  22.881  1.00  0.00    -0.646 OA
ENDBRANCH  14  15
ENDBRANCH   6   9
ENDBRANCH   4   6
BRANCH   1  18
HETATM   18  C1  UNL     1      22.211  12.161  19.621  1.00  0.00     0.225 C 
HETATM   19  O1  UNL     1      22.407  12.821  20.674  1.00  0.00    -0.273 OA
HETATM   20  N1  UNL     1      23.223  12.178  18.628  1.00  0.00    -0.350 N 
ATOM     21  H1  UNL     1      23.086  11.650  17.766  1.00  0.00     0.163 HD
BRANCH  20  22
HETATM   22  C2  UNL     1      24.442  12.925  18.812  1.00  0.00     0.217 C 
BRANCH  22  23
HETATM   23  C3  UNL     1      25.538  11.986  19.048  1.00  0.00    -0.086 C 
HETATM   24  C4  UNL     1      26.442  11.216  19.221  1.00  0.00    -0.100 C 
BRANCH  24  25
HETATM   25  C5  UNL     1      27.549  10.279  19.410  1.00  0.00     0.065 A 
HETATM   26  C6  UNL     1      28.749  10.743  20.151  1.00  0.00     0.018 A 
HETATM   27  C7  UNL     1      27.777   9.879  20.874  1.00  0.00     0.018 A 
ENDBRANCH  24  25
ENDBRANCH  22  23
ENDBRANCH  20  22
ENDBRANCH   1  18
TORSDOF 8
ENDMDL
