MODEL 1
REMARK VINA RESULT: -7.252437534      0.000      0.000
REMARK  3 active torsions:
REMARK  status: ('A' for Active; 'I' for Inactive)
REMARK       I    between atoms: C1_2  and  N1_3 
REMARK       I    between atoms: C1_2  and  N3_18 
REMARK    1  A    between atoms: N1_3  and  C2_5 
REMARK    2  A    between atoms: C2_5  and  C3_6 
REMARK    3  A    between atoms: C3_6  and  C4_7 
ROOT
HETATM    1  C3  UNL     1      22.323  11.519  19.412  1.00  0.00     0.024 C 
ENDROOT
BRANCH   1   2
HETATM    2  C2  UNL     1      23.610  12.202  19.063  1.00  0.00     0.125 C 
BRANCH   2   3
HETATM    3  N1  UNL     1      24.771  11.605  19.652  1.00  0.00    -0.343 N 
HETATM    4  C1  UNL     1      26.088  11.770  19.190  1.00  0.00     0.318 C 
HETATM    5  O1  UNL     1      26.310  12.483  18.189  1.00  0.00    -0.247 OA
HETATM    6  N3  UNL     1      27.183  11.144  19.831  1.00  0.00    -0.330 N 
HETATM    7  C11 UNL     1      27.014  10.294  21.006  1.00  0.00     0.153 C 
HETATM    8  C14 UNL     1      28.554  11.304  19.365  1.00  0.00     0.153 C 
HETATM    9  C12 UNL     1      28.340   9.605  21.235  1.00  0.00     0.187 C 
HETATM   10  O2  UNL     1      29.360  10.513  21.499  1.00  0.00    -0.388 OA
HETATM   11  C13 UNL     1      29.462  11.513  20.563  1.00  0.00     0.187 C 
ATOM     12  H1  UNL     1      24.631  11.014  20.472  1.00  0.00     0.164 HD
ENDBRANCH   2   3
ENDBRANCH   1   2
BRANCH   1  13
HETATM   13  C4  UNL     1      22.150  11.398  20.905  1.00  0.00    -0.011 C 
HETATM   14  C5  UNL     1      21.676  12.694  21.526  1.00  0.00     0.021 C 
HETATM   15  C6  UNL     1      21.283  12.237  22.915  1.00  0.00     0.070 C 
HETATM   16 BR1  UNL     1      20.014  13.447  23.736  1.00  0.00    -0.090 Br
HETATM   17  C7  UNL     1      20.724  10.869  22.706  1.00  0.00     0.021 C 
HETATM   18  C8  UNL     1      21.118   9.863  23.766  1.00  0.00     0.244 C 
HETATM   19  C9  UNL     1      19.313  10.644  23.135  1.00  0.00     0.244 C 
HETATM   20  C10 UNL     1      21.069  10.443  21.296  1.00  0.00     0.018 C 
HETATM   21  N2  UNL     1      19.800  10.009  24.344  1.00  0.00    -0.073 N 
ATOM     22  H22 UNL     1      19.318   9.187  24.711  1.00  0.00     0.277 HD
ATOM     23  H21 UNL     1      19.693  10.483  25.240  1.00  0.00     0.277 HD
ENDBRANCH   1  13
TORSDOF 3
ENDMDL
MODEL 2
REMARK VINA RESULT: -7.125524383      1.731      1.806
REMARK  3 active torsions:
REMARK  status: ('A' for Active; 'I' for Inactive)
REMARK       I    between atoms: C1_2  and  N1_3 
REMARK       I    between atoms: C1_2  and  N3_18 
REMARK    1  A    between atoms: N1_3  and  C2_5 
REMARK    2  A    between atoms: C2_5  and  C3_6 
REMARK    3  A    between atoms: C3_6  and  C4_7 
ROOT
HETATM    1  C3  UNL     1      22.511  11.663  19.526  1.00  0.00     0.024 C 
ENDROOT
BRANCH   1   2
HETATM    2  C2  UNL     1      23.663  12.577  19.238  1.00  0.00     0.125 C 
BRANCH   2   3
HETATM    3  N1  UNL     1      24.852  12.275  19.978  1.00  0.00    -0.343 N 
HETATM    4  C1  UNL     1      25.565  13.190  20.770  1.00  0.00     0.318 C 
HETATM    5  O1  UNL     1      25.169  14.370  20.866  1.00  0.00    -0.247 OA
HETATM    6  N3  UNL     1      26.734  12.811  21.472  1.00  0.00    -0.330 N 
HETATM    7  C11 UNL     1      27.268  11.452  21.417  1.00  0.00     0.153 C 
HETATM    8  C14 UNL     1      27.485  13.747  22.298  1.00  0.00     0.153 C 
HETATM    9  C12 UNL     1      28.638  11.500  22.055  1.00  0.00     0.187 C 
HETATM   10  O2  UNL     1      28.578  11.890  23.389  1.00  0.00    -0.388 OA
HETATM   11  C13 UNL     1      27.882  13.057  23.591  1.00  0.00     0.187 C 
ATOM     12  H1  UNL     1      25.209  11.320  19.925  1.00  0.00     0.164 HD
ENDBRANCH   2   3
ENDBRANCH   1   2
BRANCH   1  13
HETATM   13  C4  UNL     1      22.277  11.522  21.010  1.00  0.00    -0.011 C 
HETATM   14  C5  UNL     1      21.716  12.789  21.617  1.00  0.00     0.021 C 
HETATM   15  C6  UNL     1      21.284  12.302  22.984  1.00  0.00     0.070 C 
HETATM   16 BR1  UNL     1      19.924  13.445  23.755  1.00  0.00    -0.090 Br
HETATM   17  C7  UNL     1      20.798  10.911  22.741  1.00  0.00     0.021 C 
HETATM   18  C8  UNL     1      21.191   9.915  23.811  1.00  0.00     0.244 C 
HETATM   19  C9  UNL     1      19.381  10.617  23.104  1.00  0.00     0.244 C 
HETATM   20  C10 UNL     1      21.226  10.514  21.345  1.00  0.00     0.018 C 
HETATM   21  N2  UNL     1      19.843   9.995  24.330  1.00  0.00    -0.073 N 
ATOM     22  H22 UNL     1      19.384   9.149  24.669  1.00  0.00     0.277 HD
ATOM     23  H21 UNL     1      19.674  10.456  25.223  1.00  0.00     0.277 HD
ENDBRANCH   1  13
TORSDOF 3
ENDMDL
MODEL 3
REMARK VINA RESULT: -7.069073368      4.889      7.312
REMARK  3 active torsions:
REMARK  status: ('A' for Active; 'I' for Inactive)
REMARK       I    between atoms: C1_2  and  N1_3 
REMARK       I    between atoms: C1_2  and  N3_18 
REMARK    1  A    between atoms: N1_3  and  C2_5 
REMARK    2  A    between atoms: C2_5  and  C3_6 
REMARK    3  A    between atoms: C3_6  and  C4_7 
ROOT
HETATM    1  C3  UNL     1      22.320  14.437  21.960  1.00  0.00     0.024 C 
ENDROOT
BRANCH   1   2
HETATM    2  C2  UNL     1      23.118  14.036  23.163  1.00  0.00     0.125 C 
BRANCH   2   3
HETATM    3  N1  UNL     1      22.491  14.346  24.414  1.00  0.00    -0.343 N 
HETATM    4  C1  UNL     1      22.212  13.417  25.430  1.00  0.00     0.318 C 
HETATM    5  O1  UNL     1      22.516  12.215  25.274  1.00  0.00    -0.247 OA
HETATM    6  N3  UNL     1      21.590  13.804  26.640  1.00  0.00    -0.330 N 
HETATM    7  C11 UNL     1      21.202  15.187  26.906  1.00  0.00     0.153 C 
HETATM    8  C14 UNL     1      21.294  12.854  27.704  1.00  0.00     0.153 C 
HETATM    9  C12 UNL     1      20.343  15.163  28.150  1.00  0.00     0.187 C 
HETATM   10  O2  UNL     1      21.040  14.687  29.255  1.00  0.00    -0.388 OA
HETATM   11  C13 UNL     1      21.656  13.479  29.039  1.00  0.00     0.187 C 
ATOM     12  H1  UNL     1      22.227  15.317  24.579  1.00  0.00     0.164 HD
ENDBRANCH   2   3
ENDBRANCH   1   2
BRANCH   1  13
HETATM   13  C4  UNL     1      22.066  13.261  21.050  1.00  0.00    -0.011 C 
HETATM   14  C5  UNL     1      23.020  13.239  19.875  1.00  0.00     0.021 C 
HETATM   15  C6  UNL     1      22.783  11.851  19.320  1.00  0.00     0.070 C 
HETATM   16 BR1  UNL     1      24.289  11.231  18.274  1.00  0.00    -0.090 Br
HETATM   17  C7  UNL     1      22.535  11.010  20.529  1.00  0.00     0.021 C 
HETATM   18  C8  UNL     1      21.434   9.985  20.363  1.00  0.00     0.244 C 
HETATM   19  C9  UNL     1      23.459   9.861  20.754  1.00  0.00     0.244 C 
HETATM   20  C10 UNL     1      22.333  11.944  21.703  1.00  0.00     0.018 C 
HETATM   21  N2  UNL     1      22.453   8.969  20.211  1.00  0.00    -0.073 N 
ATOM     22  H22 UNL     1      22.314   8.050  20.634  1.00  0.00     0.277 HD
ATOM     23  H21 UNL     1      22.601   8.537  19.299  1.00  0.00     0.277 HD
ENDBRANCH   1  13
TORSDOF 3
ENDMDL
MODEL 4
REMARK VINA RESULT: -7.066142509      1.349      1.637
REMARK  3 active torsions:
REMARK  status: ('A' for Active; 'I' for Inactive)
REMARK       I    between atoms: C1_2  and  N1_3 
REMARK       I    between atoms: C1_2  and  N3_18 
REMARK    1  A    between atoms: N1_3  and  C2_5 
REMARK    2  A    between atoms: C2_5  and  C3_6 
REMARK    3  A    between atoms: C3_6  and  C4_7 
ROOT
HETATM    1  C3  UNL     1      23.025  13.659  18.768  1.00  0.00     0.024 C 
ENDROOT
BRANCH   1   2
HETATM    2  C2  UNL     1      24.430  13.809  18.273  1.00  0.00     0.125 C 
BRANCH   2   3
HETATM    3  N1  UNL     1      25.341  12.827  18.783  1.00  0.00    -0.343 N 
HETATM    4  C1  UNL     1      26.664  13.082  19.182  1.00  0.00     0.318 C 
HETATM    5  O1  UNL     1      27.125  14.240  19.102  1.00  0.00    -0.247 OA
HETATM    6  N3  UNL     1      27.501  12.054  19.677  1.00  0.00    -0.330 N 
HETATM    7  C11 UNL     1      27.043  10.673  19.804  1.00  0.00     0.153 C 
HETATM    8  C14 UNL     1      28.875  12.300  20.095  1.00  0.00     0.153 C 
HETATM    9  C12 UNL     1      28.268   9.838  20.102  1.00  0.00     0.187 C 
HETATM   10  O2  UNL     1      28.873  10.207  21.298  1.00  0.00    -0.388 OA
HETATM   11  C13 UNL     1      29.140  11.551  21.388  1.00  0.00     0.187 C 
ATOM     12  H1  UNL     1      25.002  11.869  18.864  1.00  0.00     0.164 HD
ENDBRANCH   2   3
ENDBRANCH   1   2
BRANCH   1  13
HETATM   13  C4  UNL     1      22.982  12.963  20.106  1.00  0.00    -0.011 C 
HETATM   14  C5  UNL     1      22.183  13.745  21.125  1.00  0.00     0.021 C 
HETATM   15  C6  UNL     1      22.024  12.724  22.232  1.00  0.00     0.070 C 
HETATM   16 BR1  UNL     1      20.504  13.123  23.362  1.00  0.00    -0.090 Br
HETATM   17  C7  UNL     1      21.882  11.423  21.513  1.00  0.00     0.021 C 
HETATM   18  C8  UNL     1      22.616  10.268  22.158  1.00  0.00     0.244 C 
HETATM   19  C9  UNL     1      20.628  10.652  21.752  1.00  0.00     0.244 C 
HETATM   20  C10 UNL     1      22.256  11.657  20.065  1.00  0.00     0.018 C 
HETATM   21  N2  UNL     1      21.350   9.799  22.675  1.00  0.00    -0.073 N 
ATOM     22  H22 UNL     1      21.154   8.797  22.694  1.00  0.00     0.277 HD
ATOM     23  H21 UNL     1      21.159   9.863  23.675  1.00  0.00     0.277 HD
ENDBRANCH   1  13
TORSDOF 3
ENDMDL
MODEL 5
REMARK VINA RESULT: -7.060450862      1.290      1.391
REMARK  3 active torsions:
REMARK  status: ('A' for Active; 'I' for Inactive)
REMARK       I    between atoms: C1_2  and  N1_3 
REMARK       I    between atoms: C1_2  and  N3_18 
REMARK    1  A    between atoms: N1_3  and  C2_5 
REMARK    2  A    between atoms: C2_5  and  C3_6 
REMARK    3  A    between atoms: C3_6  and  C4_7 
ROOT
HETATM    1  C3  UNL     1      22.363  11.697  19.514  1.00  0.00     0.024 C 
ENDROOT
BRANCH   1   2
HETATM    2  C2  UNL     1      23.658  11.937  18.801  1.00  0.00     0.125 C 
BRANCH   2   3
HETATM    3  N1  UNL     1      24.806  11.401  19.471  1.00  0.00    -0.343 N 
HETATM    4  C1  UNL     1      26.140  11.617  19.086  1.00  0.00     0.318 C 
HETATM    5  O1  UNL     1      26.392  12.323  18.087  1.00  0.00    -0.247 OA
HETATM    6  N3  UNL     1      27.220  11.051  19.803  1.00  0.00    -0.330 N 
HETATM    7  C11 UNL     1      27.016  10.213  20.982  1.00  0.00     0.153 C 
HETATM    8  C14 UNL     1      28.609  11.264  19.418  1.00  0.00     0.153 C 
HETATM    9  C12 UNL     1      28.354   9.587  21.304  1.00  0.00     0.187 C 
HETATM   10  O2  UNL     1      29.316  10.543  21.612  1.00  0.00    -0.388 OA
HETATM   11  C13 UNL     1      29.432  11.532  20.665  1.00  0.00     0.187 C 
ATOM     12  H1  UNL     1      24.641  10.818  20.291  1.00  0.00     0.164 HD
ENDBRANCH   2   3
ENDBRANCH   1   2
BRANCH   1  13
HETATM   13  C4  UNL     1      22.456  12.080  20.971  1.00  0.00    -0.011 C 
HETATM   14  C5  UNL     1      22.571  13.577  21.156  1.00  0.00     0.021 C 
HETATM   15  C6  UNL     1      22.330  13.716  22.644  1.00  0.00     0.070 C 
HETATM   16 BR1  UNL     1      21.723  15.495  23.108  1.00  0.00    -0.090 Br
HETATM   17  C7  UNL     1      21.318  12.663  22.951  1.00  0.00     0.021 C 
HETATM   18  C8  UNL     1      21.555  11.928  24.253  1.00  0.00     0.244 C 
HETATM   19  C9  UNL     1      20.025  13.119  23.540  1.00  0.00     0.244 C 
HETATM   20  C10 UNL     1      21.218  11.757  21.743  1.00  0.00     0.018 C 
HETATM   21  N2  UNL     1      20.501  12.717  24.850  1.00  0.00    -0.073 N 
ATOM     22  H22 UNL     1      19.855  12.280  25.508  1.00  0.00     0.277 HD
ATOM     23  H21 UNL     1      20.736  13.430  25.541  1.00  0.00     0.277 HD
ENDBRANCH   1  13
TORSDOF 3
ENDMDL
