MODEL 1
REMARK VINA RESULT: -9.931101637      0.000      0.000
REMARK  4 active torsions:
REMARK  status: ('A' for Active; 'I' for Inactive)
REMARK       I    between atoms: C1_2  and  N1_3 
REMARK       I    between atoms: C1_2  and  N2_13 
REMARK    1  A    between atoms: N1_3  and  C2_5 
REMARK    2  A    between atoms: C10_16  and  C11_17 
REMARK    3  A    between atoms: C11_17  and  O2_18 
REMARK    4  A    between atoms: O2_18  and  C12_19 
ROOT
HETATM    1  O1  UNL     1      41.016  64.037  40.064  1.00  0.00    -0.247 OA
HETATM    2  C1  UNL     1      40.591  65.193  40.248  1.00  0.00     0.318 C 
HETATM    3  N1  UNL     1      41.383  66.133  40.940  1.00  0.00    -0.338 N 
ATOM      4  H1  UNL     1      41.013  67.074  41.079  1.00  0.00     0.164 HD
HETATM    5  N2  UNL     1      39.309  65.567  39.763  1.00  0.00    -0.334 N 
HETATM    6  C8  UNL     1      38.366  64.730  39.035  1.00  0.00     0.128 C 
HETATM    7  C9  UNL     1      37.069  65.029  39.755  1.00  0.00     0.028 C 
HETATM    8  C10 UNL     1      37.179  66.523  39.983  1.00  0.00     0.030 C 
HETATM    9  C17 UNL     1      38.650  66.858  39.882  1.00  0.00     0.134 C 
ENDROOT
BRANCH   3  10
HETATM   10  C2  UNL     1      42.704  65.821  41.463  1.00  0.00     0.086 C 
HETATM   11  C3  UNL     1      42.779  65.937  42.944  1.00  0.00     0.031 C 
HETATM   12  C4  UNL     1      43.197  67.257  43.469  1.00  0.00     0.081 C 
HETATM   13  C5  UNL     1      44.305  67.917  42.695  1.00  0.00     0.243 C 
HETATM   14  F1  UNL     1      45.299  68.427  43.477  1.00  0.00    -0.206 F 
HETATM   15  F2  UNL     1      43.754  68.966  41.976  1.00  0.00    -0.206 F 
HETATM   16  C6  UNL     1      44.864  66.950  41.643  1.00  0.00     0.081 C 
HETATM   17  C7  UNL     1      43.693  66.661  40.718  1.00  0.00     0.031 C 
ENDBRANCH   3  10
BRANCH   8  18
HETATM   18  C11 UNL     1      36.371  67.307  38.953  1.00  0.00     0.183 C 
BRANCH  18  19
HETATM   19  O2  UNL     1      37.230  68.087  38.148  1.00  0.00    -0.335 OA
BRANCH  19  20
HETATM   20  C12 UNL     1      37.569  67.701  36.850  1.00  0.00     0.146 A 
HETATM   21  C13 UNL     1      38.554  68.376  36.159  1.00  0.00     0.101 A 
HETATM   22  C14 UNL     1      38.882  67.995  34.888  1.00  0.00     0.162 A 
HETATM   23  F3  UNL     1      39.863  68.677  34.215  1.00  0.00    -0.203 F 
HETATM   24  C15 UNL     1      38.253  66.945  34.268  1.00  0.00     0.193 A 
HETATM   25  F4  UNL     1      38.581  66.573  33.015  1.00  0.00    -0.199 F 
HETATM   26  C16 UNL     1      37.271  66.288  34.988  1.00  0.00     0.147 A 
HETATM   27 CL1  UNL     1      36.472  64.942  34.179  1.00  0.00    -0.061 Cl
HETATM   28  N3  UNL     1      36.958  66.672  36.233  1.00  0.00    -0.325 N 
ATOM     29  H3  UNL     1      36.228  66.165  36.733  1.00  0.00     0.169 HD
ENDBRANCH  19  20
ENDBRANCH  18  19
ENDBRANCH   8  18
TORSDOF 4
ENDMDL
MODEL 2
REMARK VINA RESULT: -9.658859800      2.351      2.864
REMARK  4 active torsions:
REMARK  status: ('A' for Active; 'I' for Inactive)
REMARK       I    between atoms: C1_2  and  N1_3 
REMARK       I    between atoms: C1_2  and  N2_13 
REMARK    1  A    between atoms: N1_3  and  C2_5 
REMARK    2  A    between atoms: C10_16  and  C11_17 
REMARK    3  A    between atoms: C11_17  and  O2_18 
REMARK    4  A    between atoms: O2_18  and  C12_19 
ROOT
HETATM    1  O1  UNL     1      38.871  66.058  42.422  1.00  0.00    -0.247 OA
HETATM    2  C1  UNL     1      39.238  66.880  41.561  1.00  0.00     0.318 C 
HETATM    3  N1  UNL     1      40.402  67.649  41.773  1.00  0.00    -0.338 N 
ATOM      4  H1  UNL     1      40.682  68.317  41.054  1.00  0.00     0.164 HD
HETATM    5  N2  UNL     1      38.487  67.045  40.368  1.00  0.00    -0.334 N 
HETATM    6  C8  UNL     1      37.270  66.340  39.989  1.00  0.00     0.128 C 
HETATM    7  C9  UNL     1      36.396  67.475  39.504  1.00  0.00     0.028 C 
HETATM    8  C10 UNL     1      37.388  68.327  38.740  1.00  0.00     0.030 C 
HETATM    9  C17 UNL     1      38.756  67.948  39.260  1.00  0.00     0.134 C 
ENDROOT
BRANCH   3  10
HETATM   10  C2  UNL     1      41.221  67.533  42.970  1.00  0.00     0.086 C 
HETATM   11  C3  UNL     1      41.872  68.815  43.349  1.00  0.00     0.031 C 
HETATM   12  C4  UNL     1      43.225  69.041  42.793  1.00  0.00     0.081 C 
HETATM   13  C5  UNL     1      44.110  67.825  42.782  1.00  0.00     0.243 C 
HETATM   14  F1  UNL     1      45.371  68.054  43.248  1.00  0.00    -0.206 F 
HETATM   15  F2  UNL     1      44.218  67.391  41.471  1.00  0.00    -0.206 F 
HETATM   16  C6  UNL     1      43.435  66.674  43.540  1.00  0.00     0.081 C 
HETATM   17  C7  UNL     1      42.161  66.389  42.762  1.00  0.00     0.031 C 
ENDBRANCH   3  10
BRANCH   8  18
HETATM   18  C11 UNL     1      37.292  68.086  37.236  1.00  0.00     0.183 C 
BRANCH  18  19
HETATM   19  O2  UNL     1      38.430  67.387  36.779  1.00  0.00    -0.335 OA
BRANCH  19  20
HETATM   20  C12 UNL     1      38.389  66.018  36.505  1.00  0.00     0.146 A 
HETATM   21  C13 UNL     1      39.332  65.172  37.049  1.00  0.00     0.101 A 
HETATM   22  C14 UNL     1      39.288  63.833  36.777  1.00  0.00     0.162 A 
HETATM   23  F3  UNL     1      40.234  63.005  37.326  1.00  0.00    -0.203 F 
HETATM   24  C15 UNL     1      38.319  63.295  35.968  1.00  0.00     0.193 A 
HETATM   25  F4  UNL     1      38.280  61.974  35.704  1.00  0.00    -0.199 F 
HETATM   26  C16 UNL     1      37.387  64.171  35.438  1.00  0.00     0.147 A 
HETATM   27 CL1  UNL     1      36.149  63.467  34.401  1.00  0.00    -0.061 Cl
HETATM   28  N3  UNL     1      37.442  65.481  35.712  1.00  0.00    -0.325 N 
ATOM     29  H3  UNL     1      36.739  66.096  35.303  1.00  0.00     0.169 HD
ENDBRANCH  19  20
ENDBRANCH  18  19
ENDBRANCH   8  18
TORSDOF 4
ENDMDL
MODEL 3
REMARK VINA RESULT: -9.553895386      1.365      1.771
REMARK  4 active torsions:
REMARK  status: ('A' for Active; 'I' for Inactive)
REMARK       I    between atoms: C1_2  and  N1_3 
REMARK       I    between atoms: C1_2  and  N2_13 
REMARK    1  A    between atoms: N1_3  and  C2_5 
REMARK    2  A    between atoms: C10_16  and  C11_17 
REMARK    3  A    between atoms: C11_17  and  O2_18 
REMARK    4  A    between atoms: O2_18  and  C12_19 
ROOT
HETATM    1  O1  UNL     1      42.904  65.034  41.075  1.00  0.00    -0.247 OA
HETATM    2  C1  UNL     1      41.801  65.588  41.245  1.00  0.00     0.318 C 
HETATM    3  N1  UNL     1      41.655  66.576  42.242  1.00  0.00    -0.338 N 
ATOM      4  H1  UNL     1      40.742  67.015  42.363  1.00  0.00     0.164 HD
HETATM    5  N2  UNL     1      40.690  65.227  40.437  1.00  0.00    -0.334 N 
HETATM    6  C8  UNL     1      40.663  64.235  39.371  1.00  0.00     0.128 C 
HETATM    7  C9  UNL     1      39.396  63.474  39.692  1.00  0.00     0.028 C 
HETATM    8  C10 UNL     1      38.458  64.590  40.103  1.00  0.00     0.030 C 
HETATM    9  C17 UNL     1      39.337  65.758  40.490  1.00  0.00     0.134 C 
ENDROOT
BRANCH   3  10
HETATM   10  C2  UNL     1      42.749  66.996  43.105  1.00  0.00     0.086 C 
HETATM   11  C3  UNL     1      42.435  68.232  43.872  1.00  0.00     0.031 C 
HETATM   12  C4  UNL     1      42.829  69.506  43.231  1.00  0.00     0.081 C 
HETATM   13  C5  UNL     1      44.166  69.475  42.542  1.00  0.00     0.243 C 
HETATM   14  F1  UNL     1      44.960  70.547  42.824  1.00  0.00    -0.206 F 
HETATM   15  F2  UNL     1      43.938  69.469  41.175  1.00  0.00    -0.206 F 
HETATM   16  C6  UNL     1      44.884  68.153  42.842  1.00  0.00     0.081 C 
HETATM   17  C7  UNL     1      43.981  67.077  42.261  1.00  0.00     0.031 C 
ENDBRANCH   3  10
BRANCH   8  18
HETATM   18  C11 UNL     1      37.514  64.974  38.966  1.00  0.00     0.183 C 
BRANCH  18  19
HETATM   19  O2  UNL     1      37.711  66.324  38.601  1.00  0.00    -0.335 OA
BRANCH  19  20
HETATM   20  C12 UNL     1      38.062  66.687  37.299  1.00  0.00     0.146 A 
HETATM   21  C13 UNL     1      39.051  67.624  37.081  1.00  0.00     0.101 A 
HETATM   22  C14 UNL     1      39.390  67.976  35.805  1.00  0.00     0.162 A 
HETATM   23  F3  UNL     1      40.375  68.909  35.606  1.00  0.00    -0.203 F 
HETATM   24  C15 UNL     1      38.770  67.417  34.716  1.00  0.00     0.193 A 
HETATM   25  F4  UNL     1      39.110  67.768  33.460  1.00  0.00    -0.199 F 
HETATM   26  C16 UNL     1      37.783  66.480  34.968  1.00  0.00     0.147 A 
HETATM   27 CL1  UNL     1      36.995  65.772  33.561  1.00  0.00    -0.061 Cl
HETATM   28  N3  UNL     1      37.460  66.144  36.224  1.00  0.00    -0.325 N 
ATOM     29  H3  UNL     1      36.727  65.450  36.371  1.00  0.00     0.169 HD
ENDBRANCH  19  20
ENDBRANCH  18  19
ENDBRANCH   8  18
TORSDOF 4
ENDMDL
MODEL 4
REMARK VINA RESULT: -9.341579809      1.369      1.580
REMARK  4 active torsions:
REMARK  status: ('A' for Active; 'I' for Inactive)
REMARK       I    between atoms: C1_2  and  N1_3 
REMARK       I    between atoms: C1_2  and  N2_13 
REMARK    1  A    between atoms: N1_3  and  C2_5 
REMARK    2  A    between atoms: C10_16  and  C11_17 
REMARK    3  A    between atoms: C11_17  and  O2_18 
REMARK    4  A    between atoms: O2_18  and  C12_19 
ROOT
HETATM    1  O1  UNL     1      41.514  65.193  41.526  1.00  0.00    -0.247 OA
HETATM    2  C1  UNL     1      40.810  66.217  41.441  1.00  0.00     0.318 C 
HETATM    3  N1  UNL     1      41.183  67.388  42.135  1.00  0.00    -0.338 N 
ATOM      4  H1  UNL     1      40.590  68.214  42.052  1.00  0.00     0.164 HD
HETATM    5  N2  UNL     1      39.632  66.209  40.648  1.00  0.00    -0.334 N 
HETATM    6  C8  UNL     1      39.103  65.097  39.872  1.00  0.00     0.128 C 
HETATM    7  C9  UNL     1      37.638  65.128  40.250  1.00  0.00     0.028 C 
HETATM    8  C10 UNL     1      37.354  66.615  40.270  1.00  0.00     0.030 C 
HETATM    9  C17 UNL     1      38.693  67.298  40.431  1.00  0.00     0.134 C 
ENDROOT
BRANCH   3  10
HETATM   10  C2  UNL     1      42.375  67.470  42.965  1.00  0.00     0.086 C 
HETATM   11  C3  UNL     1      42.370  68.653  43.866  1.00  0.00     0.031 C 
HETATM   12  C4  UNL     1      43.008  69.876  43.329  1.00  0.00     0.081 C 
HETATM   13  C5  UNL     1      44.277  69.635  42.558  1.00  0.00     0.243 C 
HETATM   14  F1  UNL     1      45.297  70.476  42.893  1.00  0.00    -0.206 F 
HETATM   15  F2  UNL     1      43.999  69.826  41.214  1.00  0.00    -0.206 F 
HETATM   16  C6  UNL     1      44.700  68.165  42.683  1.00  0.00     0.081 C 
HETATM   17  C7  UNL     1      43.561  67.377  42.058  1.00  0.00     0.031 C 
ENDBRANCH   3  10
BRANCH   8  18
HETATM   18  C11 UNL     1      36.662  67.070  38.987  1.00  0.00     0.183 C 
BRANCH  18  19
HETATM   19  O2  UNL     1      36.963  66.184  37.929  1.00  0.00    -0.335 OA
BRANCH  19  20
HETATM   20  C12 UNL     1      37.634  66.613  36.782  1.00  0.00     0.146 A 
HETATM   21  C13 UNL     1      38.717  67.460  36.887  1.00  0.00     0.101 A 
HETATM   22  C14 UNL     1      39.370  67.878  35.761  1.00  0.00     0.162 A 
HETATM   23  F3  UNL     1      40.446  68.720  35.882  1.00  0.00    -0.203 F 
HETATM   24  C15 UNL     1      38.976  67.475  34.510  1.00  0.00     0.193 A 
HETATM   25  F4  UNL     1      39.623  67.890  33.404  1.00  0.00    -0.199 F 
HETATM   26  C16 UNL     1      37.885  66.625  34.440  1.00  0.00     0.147 A 
HETATM   27 CL1  UNL     1      37.390  66.117  32.827  1.00  0.00    -0.061 Cl
HETATM   28  N3  UNL     1      37.254  66.224  35.551  1.00  0.00    -0.325 N 
ATOM     29  H3  UNL     1      36.454  65.598  35.460  1.00  0.00     0.169 HD
ENDBRANCH  19  20
ENDBRANCH  18  19
ENDBRANCH   8  18
TORSDOF 4
ENDMDL
MODEL 5
REMARK VINA RESULT: -9.340289233      1.747      2.090
REMARK  4 active torsions:
REMARK  status: ('A' for Active; 'I' for Inactive)
REMARK       I    between atoms: C1_2  and  N1_3 
REMARK       I    between atoms: C1_2  and  N2_13 
REMARK    1  A    between atoms: N1_3  and  C2_5 
REMARK    2  A    between atoms: C10_16  and  C11_17 
REMARK    3  A    between atoms: C11_17  and  O2_18 
REMARK    4  A    between atoms: O2_18  and  C12_19 
ROOT
HETATM    1  O1  UNL     1      38.785  65.849  42.687  1.00  0.00    -0.247 OA
HETATM    2  C1  UNL     1      39.067  66.622  41.752  1.00  0.00     0.318 C 
HETATM    3  N1  UNL     1      40.231  67.417  41.821  1.00  0.00    -0.338 N 
ATOM      4  H1  UNL     1      40.441  68.043  41.043  1.00  0.00     0.164 HD
HETATM    5  N2  UNL     1      38.219  66.706  40.616  1.00  0.00    -0.334 N 
HETATM    6  C8  UNL     1      36.988  65.965  40.382  1.00  0.00     0.128 C 
HETATM    7  C9  UNL     1      36.057  67.057  39.903  1.00  0.00     0.028 C 
HETATM    8  C10 UNL     1      36.970  67.874  39.011  1.00  0.00     0.030 C 
HETATM    9  C17 UNL     1      38.382  67.543  39.438  1.00  0.00     0.134 C 
ENDROOT
BRANCH   3  10
HETATM   10  C2  UNL     1      41.146  67.383  42.952  1.00  0.00     0.086 C 
HETATM   11  C3  UNL     1      41.907  68.651  43.116  1.00  0.00     0.031 C 
HETATM   12  C4  UNL     1      43.215  68.713  42.426  1.00  0.00     0.081 C 
HETATM   13  C5  UNL     1      44.020  67.444  42.492  1.00  0.00     0.243 C 
HETATM   14  F1  UNL     1      45.329  67.635  42.820  1.00  0.00    -0.206 F 
HETATM   15  F2  UNL     1      43.982  66.852  41.239  1.00  0.00    -0.206 F 
HETATM   16  C6  UNL     1      43.347  66.440  43.438  1.00  0.00     0.081 C 
HETATM   17  C7  UNL     1      41.993  66.158  42.808  1.00  0.00     0.031 C 
ENDBRANCH   3  10
BRANCH   8  18
HETATM   18  C11 UNL     1      36.756  67.541  37.537  1.00  0.00     0.183 C 
BRANCH  18  19
HETATM   19  O2  UNL     1      37.359  68.522  36.721  1.00  0.00    -0.335 OA
BRANCH  19  20
HETATM   20  C12 UNL     1      38.175  68.177  35.641  1.00  0.00     0.146 A 
HETATM   21  C13 UNL     1      39.506  68.536  35.634  1.00  0.00     0.101 A 
HETATM   22  C14 UNL     1      40.300  68.197  34.575  1.00  0.00     0.162 A 
HETATM   23  F3  UNL     1      41.623  68.561  34.583  1.00  0.00    -0.203 F 
HETATM   24  C15 UNL     1      39.807  67.499  33.501  1.00  0.00     0.193 A 
HETATM   25  F4  UNL     1      40.595  67.167  32.459  1.00  0.00    -0.199 F 
HETATM   26  C16 UNL     1      38.467  67.154  33.539  1.00  0.00     0.147 A 
HETATM   27 CL1  UNL     1      37.848  66.259  32.154  1.00  0.00    -0.061 Cl
HETATM   28  N3  UNL     1      37.700  67.493  34.583  1.00  0.00    -0.325 N 
ATOM     29  H3  UNL     1      36.717  67.222  34.576  1.00  0.00     0.169 HD
ENDBRANCH  19  20
ENDBRANCH  18  19
ENDBRANCH   8  18
TORSDOF 4
ENDMDL
