MODEL 1
REMARK VINA RESULT: -5.552166307      0.000      0.000
REMARK  3 active torsions:
REMARK  status: ('A' for Active; 'I' for Inactive)
REMARK    1  A    between atoms: N2_12  and  C8_14 
REMARK    2  A    between atoms: C8_14  and  C9_15 
REMARK    3  A    between atoms: C9_15  and  N3_16 
ROOT
HETATM    1  C1  UNL     1      29.520  -9.912  33.053  1.00  0.00     0.070 C 
HETATM    2  C2  UNL     1      29.676 -11.222  33.772  1.00  0.00     0.028 A 
HETATM    3  N1  UNL     1      30.763 -11.981  33.538  1.00  0.00    -0.326 N 
ATOM      4  H1  UNL     1      31.488 -11.692  32.881  1.00  0.00     0.169 HD
HETATM    5  C3  UNL     1      30.843 -13.145  34.216  1.00  0.00     0.258 A 
HETATM    6  O1  UNL     1      31.853 -13.878  34.014  1.00  0.00    -0.267 OA
HETATM    7  C4  UNL     1      29.887 -13.564  35.106  1.00  0.00     0.061 A 
HETATM    8  C5  UNL     1      29.969 -14.751  35.797  1.00  0.00     0.042 A 
HETATM    9  C6  UNL     1      28.942 -15.099  36.688  1.00  0.00     0.055 A 
HETATM   10 BR1  UNL     1      29.195 -16.776  37.575  1.00  0.00    -0.047 Br
HETATM   11  C7  UNL     1      27.863 -14.299  36.893  1.00  0.00     0.119 A 
HETATM   12  N2  UNL     1      26.921 -14.519  37.648  1.00  0.00    -0.374 N 
ATOM     13  H2  UNL     1      26.221 -13.777  37.641  1.00  0.00     0.161 HD
HETATM   14  N4  UNL     1      27.812 -13.121  36.186  1.00  0.00    -0.340 N 
ATOM     15  H4  UNL     1      27.015 -12.498  36.315  1.00  0.00     0.167 HD
HETATM   16  C10 UNL     1      28.788 -12.769  35.326  1.00  0.00     0.069 A 
HETATM   17  C11 UNL     1      28.675 -11.568  34.646  1.00  0.00     0.061 A 
HETATM   18 BR2  UNL     1      27.154 -10.460  34.947  1.00  0.00    -0.046 Br
ENDROOT
BRANCH  12  19
HETATM   19  C8  UNL     1      26.600 -15.565  38.514  1.00  0.00     0.148 C 
BRANCH  19  20
HETATM   20  C9  UNL     1      26.362 -15.077  39.954  1.00  0.00     0.249 C 
BRANCH  20  21
HETATM   21  N3  UNL     1      27.653 -15.192  40.625  1.00  0.00    -0.078 N 
ATOM     22  H33 UNL     1      27.700 -14.690  41.512  1.00  0.00     0.274 HD
ATOM     23  H32 UNL     1      27.837 -16.121  41.004  1.00  0.00     0.274 HD
ATOM     24  H31 UNL     1      28.347 -14.884  39.944  1.00  0.00     0.274 HD
ENDBRANCH  20  21
ENDBRANCH  19  20
ENDBRANCH  12  19
TORSDOF 3
ENDMDL
MODEL 2
REMARK VINA RESULT: -5.293789252      4.404      6.222
REMARK  3 active torsions:
REMARK  status: ('A' for Active; 'I' for Inactive)
REMARK    1  A    between atoms: N2_12  and  C8_14 
REMARK    2  A    between atoms: C8_14  and  C9_15 
REMARK    3  A    between atoms: C9_15  and  N3_16 
ROOT
HETATM    1  C1  UNL     1      26.943 -15.530  37.125  1.00  0.00     0.070 C 
HETATM    2  C2  UNL     1      28.381 -15.323  36.740  1.00  0.00     0.028 A 
HETATM    3  N1  UNL     1      28.832 -14.077  36.504  1.00  0.00    -0.326 N 
ATOM      4  H1  UNL     1      28.222 -13.263  36.578  1.00  0.00     0.169 HD
HETATM    5  C3  UNL     1      30.132 -13.961  36.163  1.00  0.00     0.258 A 
HETATM    6  O1  UNL     1      30.581 -12.801  35.935  1.00  0.00    -0.267 OA
HETATM    7  C4  UNL     1      30.980 -15.034  36.054  1.00  0.00     0.061 A 
HETATM    8  C5  UNL     1      32.306 -14.915  35.706  1.00  0.00     0.042 A 
HETATM    9  C6  UNL     1      33.099 -16.069  35.618  1.00  0.00     0.055 A 
HETATM   10 BR1  UNL     1      34.919 -15.746  35.126  1.00  0.00    -0.047 Br
HETATM   11  C7  UNL     1      32.599 -17.308  35.867  1.00  0.00     0.119 A 
HETATM   12  N2  UNL     1      33.213 -18.370  35.816  1.00  0.00    -0.374 N 
ATOM     13  H2  UNL     1      32.634 -19.178  36.042  1.00  0.00     0.161 HD
HETATM   14  N4  UNL     1      31.270 -17.391  36.211  1.00  0.00    -0.340 N 
ATOM     15  H4  UNL     1      30.863 -18.307  36.403  1.00  0.00     0.167 HD
HETATM   16  C10 UNL     1      30.493 -16.294  36.301  1.00  0.00     0.069 A 
HETATM   17  C11 UNL     1      29.163 -16.449  36.653  1.00  0.00     0.061 A 
HETATM   18 BR2  UNL     1      28.481 -18.195  36.997  1.00  0.00    -0.046 Br
ENDROOT
BRANCH  12  19
HETATM   19  C8  UNL     1      34.532 -18.710  35.514  1.00  0.00     0.148 C 
BRANCH  19  20
HETATM   20  C9  UNL     1      34.729 -20.231  35.394  1.00  0.00     0.249 C 
BRANCH  20  21
HETATM   21  N3  UNL     1      33.756 -20.826  36.307  1.00  0.00    -0.078 N 
ATOM     22  H33 UNL     1      32.843 -20.372  36.284  1.00  0.00     0.274 HD
ATOM     23  H32 UNL     1      33.438 -21.751  36.020  1.00  0.00     0.274 HD
ATOM     24  H31 UNL     1      34.198 -20.811  37.226  1.00  0.00     0.274 HD
ENDBRANCH  20  21
ENDBRANCH  19  20
ENDBRANCH  12  19
TORSDOF 3
ENDMDL
MODEL 3
REMARK VINA RESULT: -5.287222607      4.319      7.551
REMARK  3 active torsions:
REMARK  status: ('A' for Active; 'I' for Inactive)
REMARK    1  A    between atoms: N2_12  and  C8_14 
REMARK    2  A    between atoms: C8_14  and  C9_15 
REMARK    3  A    between atoms: C9_15  and  N3_16 
ROOT
HETATM    1  C1  UNL     1      25.952 -13.700  44.792  1.00  0.00     0.070 C 
HETATM    2  C2  UNL     1      25.842 -14.073  43.341  1.00  0.00     0.028 A 
HETATM    3  N1  UNL     1      24.641 -14.027  42.734  1.00  0.00    -0.326 N 
ATOM      4  H1  UNL     1      23.798 -13.746  43.234  1.00  0.00     0.169 HD
HETATM    5  C3  UNL     1      24.610 -14.373  41.430  1.00  0.00     0.258 A 
HETATM    6  O1  UNL     1      23.494 -14.339  40.836  1.00  0.00    -0.267 OA
HETATM    7  C4  UNL     1      25.724 -14.756  40.727  1.00  0.00     0.061 A 
HETATM    8  C5  UNL     1      25.692 -15.108  39.398  1.00  0.00     0.042 A 
HETATM    9  C6  UNL     1      26.883 -15.488  38.759  1.00  0.00     0.055 A 
HETATM   10 BR1  UNL     1      26.682 -15.949  36.913  1.00  0.00    -0.047 Br
HETATM   11  C7  UNL     1      28.074 -15.518  39.413  1.00  0.00     0.119 A 
HETATM   12  N2  UNL     1      29.162 -15.835  38.940  1.00  0.00    -0.374 N 
ATOM     13  H2  UNL     1      29.922 -15.784  39.618  1.00  0.00     0.161 HD
HETATM   14  N4  UNL     1      28.070 -15.160  40.741  1.00  0.00    -0.340 N 
ATOM     15  H4  UNL     1      28.947 -15.174  41.262  1.00  0.00     0.167 HD
HETATM   16  C10 UNL     1      26.937 -14.793  41.371  1.00  0.00     0.069 A 
HETATM   17  C11 UNL     1      27.003 -14.445  42.710  1.00  0.00     0.061 A 
HETATM   18 BR2  UNL     1      28.683 -14.494  43.609  1.00  0.00    -0.046 Br
ENDROOT
BRANCH  12  19
HETATM   19  C8  UNL     1      29.582 -16.249  37.676  1.00  0.00     0.148 C 
BRANCH  19  20
HETATM   20  C9  UNL     1      30.691 -15.347  37.107  1.00  0.00     0.249 C 
BRANCH  20  21
HETATM   21  N3  UNL     1      30.030 -14.098  36.737  1.00  0.00    -0.078 N 
ATOM     22  H33 UNL     1      29.056 -14.217  36.461  1.00  0.00     0.274 HD
ATOM     23  H32 UNL     1      29.857 -13.477  37.527  1.00  0.00     0.274 HD
ATOM     24  H31 UNL     1      30.613 -13.684  36.010  1.00  0.00     0.274 HD
ENDBRANCH  20  21
ENDBRANCH  19  20
ENDBRANCH  12  19
TORSDOF 3
ENDMDL
MODEL 4
REMARK VINA RESULT: -5.223662062     10.302     11.258
REMARK  3 active torsions:
REMARK  status: ('A' for Active; 'I' for Inactive)
REMARK    1  A    between atoms: N2_12  and  C8_14 
REMARK    2  A    between atoms: C8_14  and  C9_15 
REMARK    3  A    between atoms: C9_15  and  N3_16 
ROOT
HETATM    1  C1  UNL     1      19.988  -8.355  26.955  1.00  0.00     0.070 C 
HETATM    2  C2  UNL     1      21.024  -9.406  27.234  1.00  0.00     0.028 A 
HETATM    3  N1  UNL     1      22.302  -9.038  27.445  1.00  0.00    -0.326 N 
ATOM      4  H1  UNL     1      22.589  -8.059  27.419  1.00  0.00     0.169 HD
HETATM    5  C3  UNL     1      23.183 -10.030  27.691  1.00  0.00     0.258 A 
HETATM    6  O1  UNL     1      24.390  -9.711  27.891  1.00  0.00    -0.267 OA
HETATM    7  C4  UNL     1      22.831 -11.355  27.732  1.00  0.00     0.061 A 
HETATM    8  C5  UNL     1      23.730 -12.366  27.983  1.00  0.00     0.042 A 
HETATM    9  C6  UNL     1      23.279 -13.695  28.005  1.00  0.00     0.055 A 
HETATM   10 BR1  UNL     1      24.641 -14.989  28.367  1.00  0.00    -0.047 Br
HETATM   11  C7  UNL     1      21.977 -14.019  27.787  1.00  0.00     0.119 A 
HETATM   12  N2  UNL     1      21.493 -15.147  27.788  1.00  0.00    -0.374 N 
ATOM     13  H2  UNL     1      20.491 -15.152  27.600  1.00  0.00     0.161 HD
HETATM   14  N4  UNL     1      21.106 -12.984  27.539  1.00  0.00    -0.340 N 
ATOM     15  H4  UNL     1      20.122 -13.193  27.370  1.00  0.00     0.167 HD
HETATM   16  C10 UNL     1      21.520 -11.702  27.514  1.00  0.00     0.069 A 
HETATM   17  C11 UNL     1      20.590 -10.708  27.258  1.00  0.00     0.061 A 
HETATM   18 BR2  UNL     1      18.769 -11.183  26.954  1.00  0.00    -0.046 Br
ENDROOT
BRANCH  12  19
HETATM   19  C8  UNL     1      22.018 -16.424  27.989  1.00  0.00     0.148 C 
BRANCH  19  20
HETATM   20  C9  UNL     1      21.002 -17.374  28.646  1.00  0.00     0.249 C 
BRANCH  20  21
HETATM   21  N3  UNL     1      19.776 -17.240  27.864  1.00  0.00    -0.078 N 
ATOM     22  H33 UNL     1      19.481 -16.274  27.727  1.00  0.00     0.274 HD
ATOM     23  H32 UNL     1      19.893 -17.471  26.877  1.00  0.00     0.274 HD
ATOM     24  H31 UNL     1      19.082 -17.817  28.340  1.00  0.00     0.274 HD
ENDBRANCH  20  21
ENDBRANCH  19  20
ENDBRANCH  12  19
TORSDOF 3
ENDMDL
MODEL 5
REMARK VINA RESULT: -5.222296420      2.862      5.709
REMARK  3 active torsions:
REMARK  status: ('A' for Active; 'I' for Inactive)
REMARK    1  A    between atoms: N2_12  and  C8_14 
REMARK    2  A    between atoms: C8_14  and  C9_15 
REMARK    3  A    between atoms: C9_15  and  N3_16 
ROOT
HETATM    1  C1  UNL     1      28.534 -18.020  36.977  1.00  0.00     0.070 C 
HETATM    2  C2  UNL     1      28.275 -17.023  35.884  1.00  0.00     0.028 A 
HETATM    3  N1  UNL     1      28.084 -17.456  34.624  1.00  0.00    -0.326 N 
ATOM      4  H1  UNL     1      28.111 -18.448  34.387  1.00  0.00     0.169 HD
HETATM    5  C3  UNL     1      27.855 -16.510  33.689  1.00  0.00     0.258 A 
HETATM    6  O1  UNL     1      27.673 -16.890  32.497  1.00  0.00    -0.267 OA
HETATM    7  C4  UNL     1      27.812 -15.168  33.972  1.00  0.00     0.061 A 
HETATM    8  C5  UNL     1      27.579 -14.205  33.018  1.00  0.00     0.042 A 
HETATM    9  C6  UNL     1      27.553 -12.854  33.400  1.00  0.00     0.055 A 
HETATM   10 BR1  UNL     1      27.217 -11.631  31.967  1.00  0.00    -0.047 Br
HETATM   11  C7  UNL     1      27.750 -12.464  34.687  1.00  0.00     0.119 A 
HETATM   12  N2  UNL     1      27.745 -11.313  35.112  1.00  0.00    -0.374 N 
ATOM     13  H2  UNL     1      27.916 -11.257  36.116  1.00  0.00     0.161 HD
HETATM   14  N4  UNL     1      27.981 -13.453  35.614  1.00  0.00    -0.340 N 
ATOM     15  H4  UNL     1      28.134 -13.194  36.588  1.00  0.00     0.167 HD
HETATM   16  C10 UNL     1      28.009 -14.755  35.267  1.00  0.00     0.069 A 
HETATM   17  C11 UNL     1      28.247 -15.700  36.250  1.00  0.00     0.061 A 
HETATM   18 BR2  UNL     1      28.522 -15.133  38.049  1.00  0.00    -0.046 Br
ENDROOT
BRANCH  12  19
HETATM   19  C8  UNL     1      27.556 -10.064  34.519  1.00  0.00     0.148 C 
BRANCH  19  20
HETATM   20  C9  UNL     1      28.888  -9.365  34.198  1.00  0.00     0.249 C 
BRANCH  20  21
HETATM   21  N3  UNL     1      29.274  -8.672  35.424  1.00  0.00    -0.078 N 
ATOM     22  H33 UNL     1      29.691  -9.284  36.125  1.00  0.00     0.274 HD
ATOM     23  H32 UNL     1      30.078  -8.055  35.309  1.00  0.00     0.274 HD
ATOM     24  H31 UNL     1      28.433  -8.194  35.746  1.00  0.00     0.274 HD
ENDBRANCH  20  21
ENDBRANCH  19  20
ENDBRANCH  12  19
TORSDOF 3
ENDMDL
