MODEL 1
REMARK VINA RESULT: -5.469095449      0.000      0.000
REMARK  3 active torsions:
REMARK  status: ('A' for Active; 'I' for Inactive)
REMARK    1  A    between atoms: N1_1  and  C1_5 
REMARK    2  A    between atoms: C4_11  and  C5_12 
REMARK    3  A    between atoms: C5_12  and  C6_13 
ROOT
HETATM    1  C1  UNL     1      28.902 -16.807  37.758  1.00  0.00     0.187 C 
HETATM    2  C2  UNL     1      27.465 -16.842  37.316  1.00  0.00     0.060 C 
HETATM    3  C3  UNL     1      26.723 -15.617  37.753  1.00  0.00     0.235 C 
HETATM    4  N2  UNL     1      27.432 -14.448  37.345  1.00  0.00    -0.071 N 
ATOM      5  H21 UNL     1      27.675 -13.877  38.155  1.00  0.00     0.277 HD
ATOM      6  H22 UNL     1      26.807 -13.804  36.859  1.00  0.00     0.277 HD
HETATM    7  C4  UNL     1      28.598 -14.710  36.549  1.00  0.00     0.189 C 
HETATM    8  C11 UNL     1      29.617 -15.554  37.326  1.00  0.00     0.066 C 
ENDROOT
BRANCH   7   9
HETATM    9  C5  UNL     1      29.197 -13.407  36.129  1.00  0.00     0.055 C 
BRANCH   9  10
HETATM   10  C6  UNL     1      29.022 -13.162  34.658  1.00  0.00     0.043 C 
HETATM   11 BR1  UNL     1      29.262 -14.735  33.571  1.00  0.00    -0.084 Br
HETATM   12  C7  UNL     1      30.070 -12.139  34.273  1.00  0.00     0.042 C 
HETATM   13  C8  UNL     1      29.573 -11.124  33.273  1.00  0.00     0.124 C 
HETATM   14  N3  UNL     1      28.406 -10.411  33.777  1.00  0.00    -0.360 N 
HETATM   15  C9  UNL     1      27.527 -11.194  34.579  1.00  0.00     0.233 C 
ATOM     16  H3  UNL     1      28.232  -9.427  33.572  1.00  0.00     0.162 HD
HETATM   17  O1  UNL     1      26.731 -10.698  35.395  1.00  0.00    -0.272 OA
HETATM   18  C10 UNL     1      27.614 -12.674  34.383  1.00  0.00     0.169 C 
HETATM   19 BR2  UNL     1      27.070 -13.131  32.579  1.00  0.00    -0.079 Br
ENDBRANCH   9  10
ENDBRANCH   7   9
BRANCH   1  20
HETATM   20  N1  UNL     1      29.597 -18.005  37.371  1.00  0.00    -0.075 N 
ATOM     21  H13 UNL     1      29.053 -18.840  37.588  1.00  0.00     0.274 HD
ATOM     22  H12 UNL     1      29.637 -18.103  36.357  1.00  0.00     0.274 HD
ATOM     23  H11 UNL     1      30.527 -18.044  37.788  1.00  0.00     0.274 HD
ENDBRANCH   1  20
TORSDOF 3
ENDMDL
MODEL 2
REMARK VINA RESULT: -5.322734969      2.535      5.584
REMARK  3 active torsions:
REMARK  status: ('A' for Active; 'I' for Inactive)
REMARK    1  A    between atoms: N1_1  and  C1_5 
REMARK    2  A    between atoms: C4_11  and  C5_12 
REMARK    3  A    between atoms: C5_12  and  C6_13 
ROOT
HETATM    1  C1  UNL     1      29.235 -10.354  34.143  1.00  0.00     0.187 C 
HETATM    2  C2  UNL     1      27.744 -10.542  34.084  1.00  0.00     0.060 C 
HETATM    3  C3  UNL     1      27.354 -11.525  33.024  1.00  0.00     0.235 C 
HETATM    4  N2  UNL     1      28.089 -12.737  33.190  1.00  0.00    -0.071 N 
ATOM      5  H21 UNL     1      28.636 -12.939  32.353  1.00  0.00     0.277 HD
ATOM      6  H22 UNL     1      27.460 -13.539  33.185  1.00  0.00     0.277 HD
HETATM    7  C4  UNL     1      28.928 -12.765  34.355  1.00  0.00     0.189 C 
HETATM    8  C11 UNL     1      29.982 -11.651  34.303  1.00  0.00     0.066 C 
ENDROOT
BRANCH   7   9
HETATM    9  C5  UNL     1      29.577 -14.108  34.448  1.00  0.00     0.055 C 
BRANCH   9  10
HETATM   10  C6  UNL     1      28.816 -15.032  35.354  1.00  0.00     0.043 C 
HETATM   11 BR1  UNL     1      27.295 -15.869  34.518  1.00  0.00    -0.084 Br
HETATM   12  C7  UNL     1      28.332 -14.185  36.512  1.00  0.00     0.042 C 
HETATM   13  C8  UNL     1      28.403 -14.895  37.842  1.00  0.00     0.124 C 
HETATM   14  N3  UNL     1      29.762 -15.331  38.137  1.00  0.00    -0.360 N 
HETATM   15  C9  UNL     1      30.517 -15.747  37.002  1.00  0.00     0.233 C 
ATOM     16  H3  UNL     1      30.144 -15.338  39.083  1.00  0.00     0.162 HD
HETATM   17  O1  UNL     1      31.759 -15.769  36.986  1.00  0.00    -0.272 OA
HETATM   18  C10 UNL     1      29.718 -16.163  35.809  1.00  0.00     0.169 C 
HETATM   19 BR2  UNL     1      28.677 -17.742  36.233  1.00  0.00    -0.079 Br
ENDBRANCH   9  10
ENDBRANCH   7   9
BRANCH   1  20
HETATM   20  N1  UNL     1      29.599  -9.378  35.135  1.00  0.00    -0.075 N 
ATOM     21  H13 UNL     1      29.125  -8.489  34.977  1.00  0.00     0.274 HD
ATOM     22  H12 UNL     1      29.205  -9.605  36.047  1.00  0.00     0.274 HD
ATOM     23  H11 UNL     1      30.611  -9.260  35.184  1.00  0.00     0.274 HD
ENDBRANCH   1  20
TORSDOF 3
ENDMDL
MODEL 3
REMARK VINA RESULT: -5.171759032      3.646      4.987
REMARK  3 active torsions:
REMARK  status: ('A' for Active; 'I' for Inactive)
REMARK    1  A    between atoms: N1_1  and  C1_5 
REMARK    2  A    between atoms: C4_11  and  C5_12 
REMARK    3  A    between atoms: C5_12  and  C6_13 
ROOT
HETATM    1  C1  UNL     1      34.220 -16.362  36.151  1.00  0.00     0.187 C 
HETATM    2  C2  UNL     1      34.006 -14.880  36.294  1.00  0.00     0.060 C 
HETATM    3  C3  UNL     1      33.513 -14.269  35.018  1.00  0.00     0.235 C 
HETATM    4  N2  UNL     1      32.371 -14.982  34.546  1.00  0.00    -0.071 N 
ATOM      5  H21 UNL     1      32.546 -15.358  33.614  1.00  0.00     0.277 HD
ATOM      6  H22 UNL     1      31.611 -14.336  34.334  1.00  0.00     0.277 HD
HETATM    7  C4  UNL     1      31.915 -16.020  35.427  1.00  0.00     0.189 C 
HETATM    8  C11 UNL     1      33.002 -17.083  35.636  1.00  0.00     0.066 C 
ENDROOT
BRANCH   7   9
HETATM    9  C5  UNL     1      30.678 -16.630  34.853  1.00  0.00     0.055 C 
BRANCH   9  10
HETATM   10  C6  UNL     1      29.496 -16.454  35.762  1.00  0.00     0.043 C 
HETATM   11 BR1  UNL     1      29.221 -17.923  36.979  1.00  0.00    -0.084 Br
HETATM   12  C7  UNL     1      28.285 -16.333  34.862  1.00  0.00     0.042 C 
HETATM   13  C8  UNL     1      27.280 -15.316  35.347  1.00  0.00     0.124 C 
HETATM   14  N3  UNL     1      27.884 -13.996  35.475  1.00  0.00    -0.360 N 
HETATM   15  C9  UNL     1      29.243 -13.998  35.903  1.00  0.00     0.233 C 
ATOM     16  H3  UNL     1      27.373 -13.136  35.275  1.00  0.00     0.162 HD
HETATM   17  O1  UNL     1      30.020 -13.049  35.696  1.00  0.00    -0.272 OA
HETATM   18  C10 UNL     1      29.693 -15.225  36.628  1.00  0.00     0.169 C 
HETATM   19 BR2  UNL     1      28.719 -15.398  38.295  1.00  0.00    -0.079 Br
ENDBRANCH   9  10
ENDBRANCH   7   9
BRANCH   1  20
HETATM   20  N1  UNL     1      34.732 -16.935  37.366  1.00  0.00    -0.075 N 
ATOM     21  H13 UNL     1      35.169 -17.841  37.198  1.00  0.00     0.274 HD
ATOM     22  H12 UNL     1      35.549 -16.428  37.705  1.00  0.00     0.274 HD
ATOM     23  H11 UNL     1      34.006 -16.996  38.081  1.00  0.00     0.274 HD
ENDBRANCH   1  20
TORSDOF 3
ENDMDL
MODEL 4
REMARK VINA RESULT: -5.034430257      1.401      1.530
REMARK  3 active torsions:
REMARK  status: ('A' for Active; 'I' for Inactive)
REMARK    1  A    between atoms: N1_1  and  C1_5 
REMARK    2  A    between atoms: C4_11  and  C5_12 
REMARK    3  A    between atoms: C5_12  and  C6_13 
ROOT
HETATM    1  C1  UNL     1      28.897 -16.768  37.720  1.00  0.00     0.187 C 
HETATM    2  C2  UNL     1      27.422 -16.728  37.432  1.00  0.00     0.060 C 
HETATM    3  C3  UNL     1      26.804 -15.444  37.893  1.00  0.00     0.235 C 
HETATM    4  N2  UNL     1      27.533 -14.337  37.364  1.00  0.00    -0.071 N 
ATOM      5  H21 UNL     1      27.895 -13.755  38.120  1.00  0.00     0.277 HD
ATOM      6  H22 UNL     1      26.900 -13.673  36.920  1.00  0.00     0.277 HD
HETATM    7  C4  UNL     1      28.591 -14.701  36.463  1.00  0.00     0.189 C 
HETATM    8  C11 UNL     1      29.635 -15.580  37.163  1.00  0.00     0.066 C 
ENDROOT
BRANCH   7   9
HETATM    9  C5  UNL     1      29.218 -13.454  35.929  1.00  0.00     0.055 C 
BRANCH   9  10
HETATM   10  C6  UNL     1      28.955 -13.284  34.460  1.00  0.00     0.043 C 
HETATM   11 BR1  UNL     1      27.482 -14.338  33.803  1.00  0.00    -0.084 Br
HETATM   12  C7  UNL     1      30.221 -13.719  33.751  1.00  0.00     0.042 C 
HETATM   13  C8  UNL     1      30.563 -12.859  32.559  1.00  0.00     0.124 C 
HETATM   14  N3  UNL     1      30.715 -11.461  32.941  1.00  0.00    -0.360 N 
HETATM   15  C9  UNL     1      29.840 -11.025  33.977  1.00  0.00     0.233 C 
ATOM     16  H3  UNL     1      31.396 -10.842  32.502  1.00  0.00     0.162 HD
HETATM   17  O1  UNL     1      30.074 -10.034  34.690  1.00  0.00    -0.272 OA
HETATM   18  C10 UNL     1      28.600 -11.840  34.165  1.00  0.00     0.169 C 
HETATM   19 BR2  UNL     1      27.486 -11.716  32.584  1.00  0.00    -0.079 Br
ENDBRANCH   9  10
ENDBRANCH   7   9
BRANCH   1  20
HETATM   20  N1  UNL     1      29.475 -18.021  37.313  1.00  0.00    -0.075 N 
ATOM     21  H13 UNL     1      30.294 -18.256  37.875  1.00  0.00     0.274 HD
ATOM     22  H12 UNL     1      28.880 -18.808  37.568  1.00  0.00     0.274 HD
ATOM     23  H11 UNL     1      29.690 -18.023  36.316  1.00  0.00     0.274 HD
ENDBRANCH   1  20
TORSDOF 3
ENDMDL
MODEL 5
REMARK VINA RESULT: -4.928194591      1.560      1.988
REMARK  3 active torsions:
REMARK  status: ('A' for Active; 'I' for Inactive)
REMARK    1  A    between atoms: N1_1  and  C1_5 
REMARK    2  A    between atoms: C4_11  and  C5_12 
REMARK    3  A    between atoms: C5_12  and  C6_13 
ROOT
HETATM    1  C1  UNL     1      28.393 -16.278  37.715  1.00  0.00     0.187 C 
HETATM    2  C2  UNL     1      29.513 -16.910  36.935  1.00  0.00     0.060 C 
HETATM    3  C3  UNL     1      29.012 -17.568  35.686  1.00  0.00     0.235 C 
HETATM    4  N2  UNL     1      28.223 -16.647  34.934  1.00  0.00    -0.071 N 
ATOM      5  H21 UNL     1      27.278 -17.010  34.805  1.00  0.00     0.277 HD
ATOM      6  H22 UNL     1      28.534 -16.621  33.963  1.00  0.00     0.277 HD
HETATM    7  C4  UNL     1      28.179 -15.320  35.482  1.00  0.00     0.189 C 
HETATM    8  C11 UNL     1      27.570 -15.324  36.890  1.00  0.00     0.066 C 
ENDROOT
BRANCH   7   9
HETATM    9  C5  UNL     1      27.388 -14.447  34.563  1.00  0.00     0.055 C 
BRANCH   9  10
HETATM   10  C6  UNL     1      28.272 -13.529  33.769  1.00  0.00     0.043 C 
HETATM   11 BR1  UNL     1      28.795 -14.238  32.055  1.00  0.00    -0.084 Br
HETATM   12  C7  UNL     1      29.514 -13.310  34.606  1.00  0.00     0.042 C 
HETATM   13  C8  UNL     1      30.034 -11.894  34.545  1.00  0.00     0.124 C 
HETATM   14  N3  UNL     1      29.021 -10.940  34.978  1.00  0.00    -0.360 N 
HETATM   15  C9  UNL     1      27.684 -11.284  34.625  1.00  0.00     0.233 C 
ATOM     16  H3  UNL     1      29.251 -10.091  35.494  1.00  0.00     0.162 HD
HETATM   17  O1  UNL     1      26.689 -10.835  35.220  1.00  0.00    -0.272 OA
HETATM   18  C10 UNL     1      27.540 -12.234  33.479  1.00  0.00     0.169 C 
HETATM   19 BR2  UNL     1      28.212 -11.413  31.857  1.00  0.00    -0.079 Br
ENDBRANCH   9  10
ENDBRANCH   7   9
BRANCH   1  20
HETATM   20  N1  UNL     1      28.876 -15.684  38.933  1.00  0.00    -0.075 N 
ATOM     21  H13 UNL     1      29.391 -16.358  39.500  1.00  0.00     0.274 HD
ATOM     22  H12 UNL     1      29.630 -15.022  38.754  1.00  0.00     0.274 HD
ATOM     23  H11 UNL     1      28.117 -15.253  39.461  1.00  0.00     0.274 HD
ENDBRANCH   1  20
TORSDOF 3
ENDMDL
