MODEL 1
REMARK VINA RESULT: -5.186320481      0.000      0.000
REMARK  5 active torsions:
REMARK  status: ('A' for Active; 'I' for Inactive)
REMARK    1  A    between atoms: C3_3  and  C4_4 
REMARK    2  A    between atoms: C4_4  and  C6_7 
REMARK    3  A    between atoms: C6_7  and  C7_8 
REMARK    4  A    between atoms: C8_11  and  N2_12 
REMARK    5  A    between atoms: C9_17  and  N4_18 
ROOT
HETATM    1  C1  UNL     1      25.373 -14.581  40.376  1.00  0.00     0.112 C 
HETATM    2  C2  UNL     1      26.265 -14.974  39.280  1.00  0.00    -0.109 C 
HETATM    3  C3  UNL     1      27.009 -15.304  38.393  1.00  0.00    -0.085 C 
ENDROOT
BRANCH   3   4
HETATM    4  C4  UNL     1      27.949 -15.715  37.307  1.00  0.00     0.083 C 
HETATM    5  C5  UNL     1      28.356 -17.180  37.563  1.00  0.00     0.042 C 
HETATM    6 BR1  UNL     1      26.967 -15.653  35.693  1.00  0.00    -0.071 Br
BRANCH   4   7
HETATM    7  C6  UNL     1      29.188 -14.914  37.422  1.00  0.00     0.093 C 
BRANCH   7   8
HETATM    8  C7  UNL     1      29.622 -14.131  36.286  1.00  0.00     0.050 A 
HETATM    9  N1  UNL     1      29.145 -12.875  36.114  1.00  0.00    -0.194 N 
HETATM   10  C8  UNL     1      29.471 -12.114  35.056  1.00  0.00     0.677 A 
ATOM     11  H1  UNL     1      28.514 -12.490  36.817  1.00  0.00     0.184 HD
HETATM   12  N3  UNL     1      30.291 -12.540  34.096  1.00  0.00    -0.176 N 
HETATM   13  C9  UNL     1      30.794 -13.782  34.223  1.00  0.00     0.134 A 
ATOM     14  H3  UNL     1      30.528 -11.948  33.299  1.00  0.00     0.186 HD
HETATM   15  C10 UNL     1      30.468 -14.596  35.318  1.00  0.00     0.078 A 
HETATM   16 BR2  UNL     1      31.320 -16.298  35.380  1.00  0.00    -0.045 Br
BRANCH  10  17
HETATM   17  N2  UNL     1      28.978 -10.907  34.942  1.00  0.00    -0.234 N 
ATOM     18  H22 UNL     1      28.390 -10.562  35.701  1.00  0.00     0.174 HD
ATOM     19  H21 UNL     1      29.187 -10.348  34.115  1.00  0.00     0.174 HD
ENDBRANCH  10  17
BRANCH  13  20
HETATM   20  N4  UNL     1      31.592 -14.193  33.286  1.00  0.00    -0.384 N 
ATOM     21  H42 UNL     1      31.925 -13.564  32.556  1.00  0.00     0.157 HD
ATOM     22  H41 UNL     1      31.871 -15.174  33.312  1.00  0.00     0.157 HD
ENDBRANCH  13  20
ENDBRANCH   7   8
ENDBRANCH   4   7
ENDBRANCH   3   4
TORSDOF 5
ENDMDL
MODEL 2
REMARK VINA RESULT: -5.094556821      1.249      1.504
REMARK  5 active torsions:
REMARK  status: ('A' for Active; 'I' for Inactive)
REMARK    1  A    between atoms: C3_3  and  C4_4 
REMARK    2  A    between atoms: C4_4  and  C6_7 
REMARK    3  A    between atoms: C6_7  and  C7_8 
REMARK    4  A    between atoms: C8_11  and  N2_12 
REMARK    5  A    between atoms: C9_17  and  N4_18 
ROOT
HETATM    1  C1  UNL     1      25.443 -14.648  40.651  1.00  0.00     0.112 C 
HETATM    2  C2  UNL     1      26.299 -14.985  39.508  1.00  0.00    -0.109 C 
HETATM    3  C3  UNL     1      27.015 -15.266  38.583  1.00  0.00    -0.085 C 
ENDROOT
BRANCH   3   4
HETATM    4  C4  UNL     1      27.921 -15.613  37.446  1.00  0.00     0.083 C 
HETATM    5  C5  UNL     1      28.723 -16.866  37.848  1.00  0.00     0.042 C 
HETATM    6 BR1  UNL     1      26.807 -16.072  35.990  1.00  0.00    -0.071 Br
BRANCH   4   7
HETATM    7  C6  UNL     1      28.909 -14.525  37.277  1.00  0.00     0.093 C 
BRANCH   7   8
HETATM    8  C7  UNL     1      28.708 -13.557  36.219  1.00  0.00     0.050 A 
HETATM    9  N1  UNL     1      27.733 -12.625  36.337  1.00  0.00    -0.194 N 
HETATM   10  C8  UNL     1      27.465 -11.731  35.372  1.00  0.00     0.677 A 
ATOM     11  H1  UNL     1      27.180 -12.600  37.195  1.00  0.00     0.184 HD
HETATM   12  N3  UNL     1      28.141 -11.693  34.225  1.00  0.00    -0.176 N 
HETATM   13  C9  UNL     1      29.123 -12.599  34.060  1.00  0.00     0.134 A 
ATOM     14  H3  UNL     1      27.924 -11.007  33.502  1.00  0.00     0.186 HD
HETATM   15  C10 UNL     1      29.422 -13.544  35.054  1.00  0.00     0.078 A 
HETATM   16 BR2  UNL     1      30.886 -14.706  34.691  1.00  0.00    -0.045 Br
BRANCH  10  17
HETATM   17  N2  UNL     1      26.509 -10.853  35.541  1.00  0.00    -0.234 N 
ATOM     18  H22 UNL     1      26.767  -9.937  35.909  1.00  0.00     0.174 HD
ATOM     19  H21 UNL     1      25.546 -11.097  35.308  1.00  0.00     0.174 HD
ENDBRANCH  10  17
BRANCH  13  20
HETATM   20  N4  UNL     1      29.780 -12.560  32.942  1.00  0.00    -0.384 N 
ATOM     21  H42 UNL     1      30.757 -12.269  32.907  1.00  0.00     0.157 HD
ATOM     22  H41 UNL     1      29.276 -12.834  32.098  1.00  0.00     0.157 HD
ENDBRANCH  13  20
ENDBRANCH   7   8
ENDBRANCH   4   7
ENDBRANCH   3   4
TORSDOF 5
ENDMDL
MODEL 3
REMARK VINA RESULT: -5.087819281      2.566      2.764
REMARK  5 active torsions:
REMARK  status: ('A' for Active; 'I' for Inactive)
REMARK    1  A    between atoms: C3_3  and  C4_4 
REMARK    2  A    between atoms: C4_4  and  C6_7 
REMARK    3  A    between atoms: C6_7  and  C7_8 
REMARK    4  A    between atoms: C8_11  and  N2_12 
REMARK    5  A    between atoms: C9_17  and  N4_18 
ROOT
HETATM    1  C1  UNL     1      25.997 -14.984  40.546  1.00  0.00     0.112 C 
HETATM    2  C2  UNL     1      26.659 -15.054  39.238  1.00  0.00    -0.109 C 
HETATM    3  C3  UNL     1      27.192 -15.128  38.162  1.00  0.00    -0.085 C 
ENDROOT
BRANCH   3   4
HETATM    4  C4  UNL     1      27.851 -15.241  36.825  1.00  0.00     0.083 C 
HETATM    5  C5  UNL     1      26.805 -15.773  35.827  1.00  0.00     0.042 C 
HETATM    6 BR1  UNL     1      28.318 -13.485  36.305  1.00  0.00    -0.071 Br
BRANCH   4   7
HETATM    7  C6  UNL     1      28.911 -16.270  36.904  1.00  0.00     0.093 C 
BRANCH   7   8
HETATM    8  C7  UNL     1      30.226 -15.959  36.386  1.00  0.00     0.050 A 
HETATM    9  N1  UNL     1      31.130 -15.334  37.177  1.00  0.00    -0.194 N 
HETATM   10  C8  UNL     1      32.349 -14.975  36.742  1.00  0.00     0.677 A 
ATOM     11  H1  UNL     1      30.875 -15.127  38.143  1.00  0.00     0.184 HD
HETATM   12  N3  UNL     1      32.761 -15.212  35.497  1.00  0.00    -0.176 N 
HETATM   13  C9  UNL     1      31.898 -15.834  34.672  1.00  0.00     0.134 A 
ATOM     14  H3  UNL     1      33.690 -14.933  35.183  1.00  0.00     0.186 HD
HETATM   15  C10 UNL     1      30.619 -16.218  35.102  1.00  0.00     0.078 A 
HETATM   16 BR2  UNL     1      29.552 -17.151  33.831  1.00  0.00    -0.045 Br
BRANCH  10  17
HETATM   17  N2  UNL     1      33.181 -14.372  37.551  1.00  0.00    -0.234 N 
ATOM     18  H22 UNL     1      33.372 -14.814  38.450  1.00  0.00     0.174 HD
ATOM     19  H21 UNL     1      33.612 -13.489  37.274  1.00  0.00     0.174 HD
ENDBRANCH  10  17
BRANCH  13  20
HETATM   20  N4  UNL     1      32.303 -16.062  33.460  1.00  0.00    -0.384 N 
ATOM     21  H42 UNL     1      33.268 -15.890  33.179  1.00  0.00     0.157 HD
ATOM     22  H41 UNL     1      31.612 -16.423  32.801  1.00  0.00     0.157 HD
ENDBRANCH  13  20
ENDBRANCH   7   8
ENDBRANCH   4   7
ENDBRANCH   3   4
TORSDOF 5
ENDMDL
MODEL 4
REMARK VINA RESULT: -4.820260868      1.907      2.272
REMARK  5 active torsions:
REMARK  status: ('A' for Active; 'I' for Inactive)
REMARK    1  A    between atoms: C3_3  and  C4_4 
REMARK    2  A    between atoms: C4_4  and  C6_7 
REMARK    3  A    between atoms: C6_7  and  C7_8 
REMARK    4  A    between atoms: C8_11  and  N2_12 
REMARK    5  A    between atoms: C9_17  and  N4_18 
ROOT
HETATM    1  C1  UNL     1      25.526 -14.611  40.283  1.00  0.00     0.112 C 
HETATM    2  C2  UNL     1      26.321 -14.967  39.103  1.00  0.00    -0.109 C 
HETATM    3  C3  UNL     1      26.988 -15.248  38.141  1.00  0.00    -0.085 C 
ENDROOT
BRANCH   3   4
HETATM    4  C4  UNL     1      27.828 -15.581  36.951  1.00  0.00     0.083 C 
HETATM    5  C5  UNL     1      29.107 -14.724  37.021  1.00  0.00     0.042 C 
HETATM    6 BR1  UNL     1      28.325 -17.394  37.132  1.00  0.00    -0.071 Br
BRANCH   4   7
HETATM    7  C6  UNL     1      27.110 -15.153  35.729  1.00  0.00     0.093 C 
BRANCH   7   8
HETATM    8  C7  UNL     1      27.490 -13.910  35.094  1.00  0.00     0.050 A 
HETATM    9  N1  UNL     1      27.007 -12.738  35.569  1.00  0.00    -0.194 N 
HETATM   10  C8  UNL     1      27.283 -11.555  34.996  1.00  0.00     0.677 A 
ATOM     11  H1  UNL     1      26.410 -12.753  36.396  1.00  0.00     0.184 HD
HETATM   12  N3  UNL     1      28.056 -11.447  33.917  1.00  0.00    -0.176 N 
HETATM   13  C9  UNL     1      28.563 -12.586  33.407  1.00  0.00     0.134 A 
ATOM     14  H3  UNL     1      28.255 -10.541  33.494  1.00  0.00     0.186 HD
HETATM   15  C10 UNL     1      28.289 -13.833  33.988  1.00  0.00     0.078 A 
HETATM   16 BR2  UNL     1      29.142 -15.336  33.186  1.00  0.00    -0.045 Br
BRANCH  10  17
HETATM   17  N2  UNL     1      26.787 -10.453  35.499  1.00  0.00    -0.234 N 
ATOM     18  H22 UNL     1      26.033 -10.542  36.181  1.00  0.00     0.174 HD
ATOM     19  H21 UNL     1      27.154  -9.548  35.205  1.00  0.00     0.174 HD
ENDBRANCH  10  17
BRANCH  13  20
HETATM   20  N4  UNL     1      29.315 -12.477  32.356  1.00  0.00    -0.384 N 
ATOM     21  H42 UNL     1      28.943 -12.145  31.466  1.00  0.00     0.157 HD
ATOM     22  H41 UNL     1      30.296 -12.739  32.458  1.00  0.00     0.157 HD
ENDBRANCH  13  20
ENDBRANCH   7   8
ENDBRANCH   4   7
ENDBRANCH   3   4
TORSDOF 5
ENDMDL
MODEL 5
REMARK VINA RESULT: -4.742409276      2.060      2.901
REMARK  5 active torsions:
REMARK  status: ('A' for Active; 'I' for Inactive)
REMARK    1  A    between atoms: C3_3  and  C4_4 
REMARK    2  A    between atoms: C4_4  and  C6_7 
REMARK    3  A    between atoms: C6_7  and  C7_8 
REMARK    4  A    between atoms: C8_11  and  N2_12 
REMARK    5  A    between atoms: C9_17  and  N4_18 
ROOT
HETATM    1  C1  UNL     1      25.994 -15.504  33.106  1.00  0.00     0.112 C 
HETATM    2  C2  UNL     1      26.476 -15.521  34.492  1.00  0.00    -0.109 C 
HETATM    3  C3  UNL     1      26.878 -15.553  35.626  1.00  0.00    -0.085 C 
ENDROOT
BRANCH   3   4
HETATM    4  C4  UNL     1      27.377 -15.613  37.033  1.00  0.00     0.083 C 
HETATM    5  C5  UNL     1      26.155 -15.741  37.963  1.00  0.00     0.042 C 
HETATM    6 BR1  UNL     1      28.393 -17.200  37.176  1.00  0.00    -0.071 Br
BRANCH   4   7
HETATM    7  C6  UNL     1      28.018 -14.321  37.365  1.00  0.00     0.093 C 
BRANCH   7   8
HETATM    8  C7  UNL     1      28.270 -13.373  36.301  1.00  0.00     0.050 A 
HETATM    9  N1  UNL     1      27.341 -12.435  36.002  1.00  0.00    -0.194 N 
HETATM   10  C8  UNL     1      27.493 -11.558  34.997  1.00  0.00     0.677 A 
ATOM     11  H1  UNL     1      26.489 -12.393  36.563  1.00  0.00     0.184 HD
HETATM   12  N3  UNL     1      28.575 -11.544  34.219  1.00  0.00    -0.176 N 
HETATM   13  C9  UNL     1      29.530 -12.456  34.478  1.00  0.00     0.134 A 
ATOM     14  H3  UNL     1      28.675 -10.871  33.460  1.00  0.00     0.186 HD
HETATM   15  C10 UNL     1      29.394 -13.384  35.523  1.00  0.00     0.078 A 
HETATM   16 BR2  UNL     1      30.868 -14.558  35.799  1.00  0.00    -0.045 Br
BRANCH  10  17
HETATM   17  N2  UNL     1      26.560 -10.675  34.753  1.00  0.00    -0.234 N 
ATOM     18  H22 UNL     1      25.918 -10.442  35.511  1.00  0.00     0.174 HD
ATOM     19  H21 UNL     1      26.493 -10.246  33.829  1.00  0.00     0.174 HD
ENDBRANCH  10  17
BRANCH  13  20
HETATM   20  N4  UNL     1      30.583 -12.440  33.719  1.00  0.00    -0.384 N 
ATOM     21  H42 UNL     1      30.568 -12.837  32.779  1.00  0.00     0.157 HD
ATOM     22  H41 UNL     1      31.426 -12.013  34.103  1.00  0.00     0.157 HD
ENDBRANCH  13  20
ENDBRANCH   7   8
ENDBRANCH   4   7
ENDBRANCH   3   4
TORSDOF 5
ENDMDL
