MODEL 1
REMARK VINA RESULT: -7.407517313      0.000      0.000
REMARK  8 active torsions:
REMARK  status: ('A' for Active; 'I' for Inactive)
REMARK    1  A    between atoms: C4_7  and  C5_8 
REMARK    2  A    between atoms: C5_8  and  C6_9 
REMARK    3  A    between atoms: C7_12  and  N3_13 
REMARK    4  A    between atoms: N3_13  and  C8_15 
REMARK    5  A    between atoms: C8_15  and  N4_17 
REMARK    6  A    between atoms: N4_17  and  C9_18 
REMARK    7  A    between atoms: N4_17  and  C11_23 
REMARK    8  A    between atoms: C9_18  and  C10_19 
ROOT
HETATM    1  C6  UNL     1      -4.186 -15.805  15.030  1.00  0.00     0.076 A 
HETATM    2  N2  UNL     1      -2.868 -16.085  14.677  1.00  0.00    -0.189 N 
ATOM      3  H2  UNL     1      -2.131 -16.325  15.340  1.00  0.00     0.184 HD
HETATM    4  C7  UNL     1      -2.702 -15.999  13.384  1.00  0.00     0.685 A 
HETATM    5  N5  UNL     1      -3.831 -15.679  12.822  1.00  0.00    -0.190 N 
ATOM      6  H5  UNL     1      -3.991 -15.543  11.824  1.00  0.00     0.184 HD
HETATM    7  C14 UNL     1      -4.779 -15.558  13.832  1.00  0.00     0.067 A 
HETATM    8  C15 UNL     1      -6.045 -15.455  13.496  1.00  0.00     0.046 C 
ENDROOT
BRANCH   4   9
HETATM    9  N3  UNL     1      -1.586 -16.198  12.725  1.00  0.00    -0.166 N 
ATOM     10  H3  UNL     1      -0.765 -15.617  12.896  1.00  0.00     0.186 HD
BRANCH   9  11
HETATM   11  C8  UNL     1      -1.551 -17.274  11.741  1.00  0.00     0.189 C 
HETATM   12  S1  UNL     1      -2.251 -18.669  12.217  1.00  0.00    -0.040 SA
BRANCH  11  13
HETATM   13  N4  UNL     1      -0.914 -17.019  10.526  1.00  0.00    -0.344 N 
BRANCH  13  14
HETATM   14  C9  UNL     1      -1.760 -17.073   9.321  1.00  0.00     0.243 C 
BRANCH  14  15
HETATM   15  C10 UNL     1      -2.769 -15.974   9.261  1.00  0.00     0.403 C 
HETATM   16  F1  UNL     1      -2.967 -15.710   7.897  1.00  0.00    -0.169 F 
HETATM   17  F2  UNL     1      -4.000 -16.414   9.723  1.00  0.00    -0.169 F 
HETATM   18  F3  UNL     1      -2.381 -14.830   9.898  1.00  0.00    -0.169 F 
ENDBRANCH  14  15
ENDBRANCH  13  14
BRANCH  13  19
HETATM   19  C11 UNL     1       0.464 -16.733  10.347  1.00  0.00     0.087 A 
HETATM   20  C12 UNL     1       0.963 -16.081   9.103  1.00  0.00     0.027 A 
HETATM   21  C13 UNL     1       1.087 -15.358  10.397  1.00  0.00     0.027 A 
ENDBRANCH  13  19
ENDBRANCH  11  13
ENDBRANCH   9  11
ENDBRANCH   4   9
BRANCH   1  22
HETATM   22  C5  UNL     1      -4.539 -15.956  16.263  1.00  0.00     0.051 C 
BRANCH  22  23
HETATM   23  C4  UNL     1      -5.251 -15.327  17.314  1.00  0.00     0.056 A 
HETATM   24  C3  UNL     1      -6.641 -15.340  17.691  1.00  0.00     0.259 A 
HETATM   25  N1  UNL     1      -7.159 -14.883  18.938  1.00  0.00    -0.309 N 
HETATM   26  O1  UNL     1      -7.502 -15.764  16.853  1.00  0.00    -0.267 OA
HETATM   27  C2  UNL     1      -6.241 -14.375  19.870  1.00  0.00     0.098 A 
ATOM     28  H1  UNL     1      -8.157 -14.924  19.145  1.00  0.00     0.170 HD
HETATM   29  C1  UNL     1      -6.649 -13.940  21.032  1.00  0.00     0.063 C 
HETATM   30  N6  UNL     1      -4.857 -14.331  19.544  1.00  0.00    -0.346 N 
HETATM   31  C16 UNL     1      -4.406 -14.798  18.296  1.00  0.00     0.022 A 
ATOM     32  H6  UNL     1      -4.188 -13.959  20.218  1.00  0.00     0.167 HD
HETATM   33  C17 UNL     1      -2.953 -14.733  18.023  1.00  0.00     0.069 C 
ENDBRANCH  22  23
ENDBRANCH   1  22
TORSDOF 8
ENDMDL
MODEL 2
REMARK VINA RESULT: -7.392198063      1.366      2.285
REMARK  8 active torsions:
REMARK  status: ('A' for Active; 'I' for Inactive)
REMARK    1  A    between atoms: C4_7  and  C5_8 
REMARK    2  A    between atoms: C5_8  and  C6_9 
REMARK    3  A    between atoms: C7_12  and  N3_13 
REMARK    4  A    between atoms: N3_13  and  C8_15 
REMARK    5  A    between atoms: C8_15  and  N4_17 
REMARK    6  A    between atoms: N4_17  and  C9_18 
REMARK    7  A    between atoms: N4_17  and  C11_23 
REMARK    8  A    between atoms: C9_18  and  C10_19 
ROOT
HETATM    1  C6  UNL     1      -4.247 -15.786  15.070  1.00  0.00     0.076 A 
HETATM    2  N2  UNL     1      -2.930 -16.057  14.704  1.00  0.00    -0.189 N 
ATOM      3  H2  UNL     1      -2.184 -16.287  15.360  1.00  0.00     0.184 HD
HETATM    4  C7  UNL     1      -2.779 -15.976  13.408  1.00  0.00     0.685 A 
HETATM    5  N5  UNL     1      -3.917 -15.669  12.857  1.00  0.00    -0.190 N 
ATOM      6  H5  UNL     1      -4.089 -15.540  11.860  1.00  0.00     0.184 HD
HETATM    7  C14 UNL     1      -4.855 -15.551  13.877  1.00  0.00     0.067 A 
HETATM    8  C15 UNL     1      -6.126 -15.462  13.554  1.00  0.00     0.046 C 
ENDROOT
BRANCH   4   9
HETATM    9  N3  UNL     1      -1.669 -16.168  12.738  1.00  0.00    -0.166 N 
ATOM     10  H3  UNL     1      -0.839 -15.604  12.925  1.00  0.00     0.186 HD
BRANCH   9  11
HETATM   11  C8  UNL     1      -1.653 -17.212  11.719  1.00  0.00     0.189 C 
HETATM   12  S1  UNL     1      -2.181 -18.672  12.217  1.00  0.00    -0.040 SA
BRANCH  11  13
HETATM   13  N4  UNL     1      -1.173 -16.871  10.454  1.00  0.00    -0.344 N 
BRANCH  13  14
HETATM   14  C9  UNL     1       0.289 -16.929  10.273  1.00  0.00     0.243 C 
BRANCH  14  15
HETATM   15  C10 UNL     1       0.983 -15.676  10.694  1.00  0.00     0.403 C 
HETATM   16  F1  UNL     1       1.463 -15.921  11.990  1.00  0.00    -0.169 F 
HETATM   17  F2  UNL     1       2.119 -15.464   9.926  1.00  0.00    -0.169 F 
HETATM   18  F3  UNL     1       0.179 -14.573  10.703  1.00  0.00    -0.169 F 
ENDBRANCH  14  15
ENDBRANCH  13  14
BRANCH  13  19
HETATM   19  C11 UNL     1      -1.955 -16.460   9.343  1.00  0.00     0.087 A 
HETATM   20  C12 UNL     1      -3.444 -16.480   9.398  1.00  0.00     0.027 A 
HETATM   21  C13 UNL     1      -2.743 -15.175   9.255  1.00  0.00     0.027 A 
ENDBRANCH  13  19
ENDBRANCH  11  13
ENDBRANCH   9  11
ENDBRANCH   4   9
BRANCH   1  22
HETATM   22  C5  UNL     1      -4.585 -15.935  16.308  1.00  0.00     0.051 C 
BRANCH  22  23
HETATM   23  C4  UNL     1      -5.289 -15.305  17.364  1.00  0.00     0.056 A 
HETATM   24  C3  UNL     1      -6.675 -15.324  17.755  1.00  0.00     0.259 A 
HETATM   25  N1  UNL     1      -7.182 -14.865  19.006  1.00  0.00    -0.309 N 
HETATM   26  O1  UNL     1      -7.543 -15.756  16.929  1.00  0.00    -0.267 OA
HETATM   27  C2  UNL     1      -6.257 -14.348  19.926  1.00  0.00     0.098 A 
ATOM     28  H1  UNL     1      -8.177 -14.911  19.224  1.00  0.00     0.170 HD
HETATM   29  C1  UNL     1      -6.655 -13.912  21.092  1.00  0.00     0.063 C 
HETATM   30  N6  UNL     1      -4.876 -14.298  19.585  1.00  0.00    -0.346 N 
HETATM   31  C16 UNL     1      -4.437 -14.768  18.334  1.00  0.00     0.022 A 
ATOM     32  H6  UNL     1      -4.203 -13.920  20.251  1.00  0.00     0.167 HD
HETATM   33  C17 UNL     1      -2.987 -14.696  18.046  1.00  0.00     0.069 C 
ENDBRANCH  22  23
ENDBRANCH   1  22
TORSDOF 8
ENDMDL
MODEL 3
REMARK VINA RESULT: -7.342823517      1.287      1.660
REMARK  8 active torsions:
REMARK  status: ('A' for Active; 'I' for Inactive)
REMARK    1  A    between atoms: C4_7  and  C5_8 
REMARK    2  A    between atoms: C5_8  and  C6_9 
REMARK    3  A    between atoms: C7_12  and  N3_13 
REMARK    4  A    between atoms: N3_13  and  C8_15 
REMARK    5  A    between atoms: C8_15  and  N4_17 
REMARK    6  A    between atoms: N4_17  and  C9_18 
REMARK    7  A    between atoms: N4_17  and  C11_23 
REMARK    8  A    between atoms: C9_18  and  C10_19 
ROOT
HETATM    1  C6  UNL     1      -3.967 -15.857  14.890  1.00  0.00     0.076 A 
HETATM    2  N2  UNL     1      -2.829 -16.463  14.361  1.00  0.00    -0.189 N 
ATOM      3  H2  UNL     1      -2.057 -16.830  14.918  1.00  0.00     0.184 HD
HETATM    4  C7  UNL     1      -2.883 -16.498  13.056  1.00  0.00     0.685 A 
HETATM    5  N5  UNL     1      -3.994 -15.955  12.652  1.00  0.00    -0.190 N 
ATOM      6  H5  UNL     1      -4.296 -15.846  11.684  1.00  0.00     0.184 HD
HETATM    7  C14 UNL     1      -4.694 -15.550  13.784  1.00  0.00     0.067 A 
HETATM    8  C15 UNL     1      -5.945 -15.171  13.646  1.00  0.00     0.046 C 
ENDROOT
BRANCH   4   9
HETATM    9  N3  UNL     1      -1.976 -16.996  12.250  1.00  0.00    -0.166 N 
ATOM     10  H3  UNL     1      -1.348 -17.737  12.562  1.00  0.00     0.186 HD
BRANCH   9  11
HETATM   11  C8  UNL     1      -1.891 -16.461  10.896  1.00  0.00     0.189 C 
HETATM   12  S1  UNL     1      -2.701 -17.313   9.765  1.00  0.00    -0.040 SA
BRANCH  11  13
HETATM   13  N4  UNL     1      -1.120 -15.314  10.701  1.00  0.00    -0.344 N 
BRANCH  13  14
HETATM   14  C9  UNL     1      -1.855 -14.038  10.637  1.00  0.00     0.243 C 
BRANCH  14  15
HETATM   15  C10 UNL     1      -1.956 -13.487   9.253  1.00  0.00     0.403 C 
HETATM   16  F1  UNL     1      -3.149 -12.748   9.222  1.00  0.00    -0.169 F 
HETATM   17  F2  UNL     1      -0.953 -12.556   9.023  1.00  0.00    -0.169 F 
HETATM   18  F3  UNL     1      -1.980 -14.441   8.277  1.00  0.00    -0.169 F 
ENDBRANCH  14  15
ENDBRANCH  13  14
BRANCH  13  19
HETATM   19  C11 UNL     1       0.289 -15.268  10.542  1.00  0.00     0.087 A 
HETATM   20  C12 UNL     1       1.097 -16.517  10.454  1.00  0.00     0.027 A 
HETATM   21  C13 UNL     1       1.039 -15.610   9.276  1.00  0.00     0.027 A 
ENDBRANCH  13  19
ENDBRANCH  11  13
ENDBRANCH   9  11
ENDBRANCH   4   9
BRANCH   1  22
HETATM   22  C5  UNL     1      -4.118 -15.845  16.173  1.00  0.00     0.051 C 
BRANCH  22  23
HETATM   23  C4  UNL     1      -4.905 -15.281  17.207  1.00  0.00     0.056 A 
HETATM   24  C3  UNL     1      -6.308 -15.374  17.520  1.00  0.00     0.259 A 
HETATM   25  N1  UNL     1      -6.902 -14.978  18.755  1.00  0.00    -0.309 N 
HETATM   26  O1  UNL     1      -7.109 -15.819  16.635  1.00  0.00    -0.267 OA
HETATM   27  C2  UNL     1      -6.053 -14.449  19.738  1.00  0.00     0.098 A 
ATOM     28  H1  UNL     1      -7.904 -15.075  18.916  1.00  0.00     0.170 HD
HETATM   29  C1  UNL     1      -6.532 -14.068  20.892  1.00  0.00     0.063 C 
HETATM   30  N6  UNL     1      -4.660 -14.326  19.475  1.00  0.00    -0.346 N 
HETATM   31  C16 UNL     1      -4.132 -14.736  18.237  1.00  0.00     0.022 A 
ATOM     32  H6  UNL     1      -4.041 -13.939  20.188  1.00  0.00     0.167 HD
HETATM   33  C17 UNL     1      -2.674 -14.590  18.031  1.00  0.00     0.069 C 
ENDBRANCH  22  23
ENDBRANCH   1  22
TORSDOF 8
ENDMDL
MODEL 4
REMARK VINA RESULT: -7.319207917      1.627      2.233
REMARK  8 active torsions:
REMARK  status: ('A' for Active; 'I' for Inactive)
REMARK    1  A    between atoms: C4_7  and  C5_8 
REMARK    2  A    between atoms: C5_8  and  C6_9 
REMARK    3  A    between atoms: C7_12  and  N3_13 
REMARK    4  A    between atoms: N3_13  and  C8_15 
REMARK    5  A    between atoms: C8_15  and  N4_17 
REMARK    6  A    between atoms: N4_17  and  C9_18 
REMARK    7  A    between atoms: N4_17  and  C11_23 
REMARK    8  A    between atoms: C9_18  and  C10_19 
ROOT
HETATM    1  C6  UNL     1      -4.186 -15.866  15.064  1.00  0.00     0.076 A 
HETATM    2  N2  UNL     1      -2.901 -16.256  14.692  1.00  0.00    -0.189 N 
ATOM      3  H2  UNL     1      -2.176 -16.554  15.344  1.00  0.00     0.184 HD
HETATM    4  C7  UNL     1      -2.750 -16.189  13.396  1.00  0.00     0.685 A 
HETATM    5  N5  UNL     1      -3.857 -15.778  12.850  1.00  0.00    -0.190 N 
ATOM      6  H5  UNL     1      -4.022 -15.633  11.854  1.00  0.00     0.184 HD
HETATM    7  C14 UNL     1      -4.775 -15.575  13.875  1.00  0.00     0.067 A 
HETATM    8  C15 UNL     1      -6.034 -15.369  13.558  1.00  0.00     0.046 C 
ENDROOT
BRANCH   4   9
HETATM    9  N3  UNL     1      -1.665 -16.482  12.720  1.00  0.00    -0.166 N 
ATOM     10  H3  UNL     1      -0.804 -16.745  13.199  1.00  0.00     0.186 HD
BRANCH   9  11
HETATM   11  C8  UNL     1      -1.725 -16.423  11.264  1.00  0.00     0.189 C 
HETATM   12  S1  UNL     1      -2.284 -17.774  10.540  1.00  0.00    -0.040 SA
BRANCH  11  13
HETATM   13  N4  UNL     1      -1.282 -15.253  10.646  1.00  0.00    -0.344 N 
BRANCH  13  14
HETATM   14  C9  UNL     1       0.178 -15.081  10.544  1.00  0.00     0.243 C 
BRANCH  14  15
HETATM   15  C10 UNL     1       0.802 -15.961   9.511  1.00  0.00     0.403 C 
HETATM   16  F1  UNL     1       1.959 -15.291   9.087  1.00  0.00    -0.169 F 
HETATM   17  F2  UNL     1       1.259 -17.139  10.084  1.00  0.00    -0.169 F 
HETATM   18  F3  UNL     1      -0.003 -16.212   8.437  1.00  0.00    -0.169 F 
ENDBRANCH  14  15
ENDBRANCH  13  14
BRANCH  13  19
HETATM   19  C11 UNL     1      -2.102 -14.216  10.130  1.00  0.00     0.087 A 
HETATM   20  C12 UNL     1      -1.556 -13.191   9.198  1.00  0.00     0.027 A 
HETATM   21  C13 UNL     1      -2.607 -14.123   8.710  1.00  0.00     0.027 A 
ENDBRANCH  13  19
ENDBRANCH  11  13
ENDBRANCH   9  11
ENDBRANCH   4   9
BRANCH   1  22
HETATM   22  C5  UNL     1      -4.530 -15.983  16.304  1.00  0.00     0.051 C 
BRANCH  22  23
HETATM   23  C4  UNL     1      -5.249 -15.334  17.337  1.00  0.00     0.056 A 
HETATM   24  C3  UNL     1      -6.641 -15.343  17.707  1.00  0.00     0.259 A 
HETATM   25  N1  UNL     1      -7.166 -14.860  18.942  1.00  0.00    -0.309 N 
HETATM   26  O1  UNL     1      -7.496 -15.789  16.876  1.00  0.00    -0.267 OA
HETATM   27  C2  UNL     1      -6.254 -14.328  19.866  1.00  0.00     0.098 A 
ATOM     28  H1  UNL     1      -8.165 -14.900  19.145  1.00  0.00     0.170 HD
HETATM   29  C1  UNL     1      -6.669 -13.869  21.017  1.00  0.00     0.063 C 
HETATM   30  N6  UNL     1      -4.869 -14.286  19.546  1.00  0.00    -0.346 N 
HETATM   31  C16 UNL     1      -4.411 -14.779  18.311  1.00  0.00     0.022 A 
ATOM     32  H6  UNL     1      -4.205 -13.896  20.214  1.00  0.00     0.167 HD
HETATM   33  C17 UNL     1      -2.956 -14.715  18.043  1.00  0.00     0.069 C 
ENDBRANCH  22  23
ENDBRANCH   1  22
TORSDOF 8
ENDMDL
MODEL 5
REMARK VINA RESULT: -7.100046163      1.408      1.986
REMARK  8 active torsions:
REMARK  status: ('A' for Active; 'I' for Inactive)
REMARK    1  A    between atoms: C4_7  and  C5_8 
REMARK    2  A    between atoms: C5_8  and  C6_9 
REMARK    3  A    between atoms: C7_12  and  N3_13 
REMARK    4  A    between atoms: N3_13  and  C8_15 
REMARK    5  A    between atoms: C8_15  and  N4_17 
REMARK    6  A    between atoms: N4_17  and  C9_18 
REMARK    7  A    between atoms: N4_17  and  C11_23 
REMARK    8  A    between atoms: C9_18  and  C10_19 
ROOT
HETATM    1  C6  UNL     1      -3.796 -15.899  14.792  1.00  0.00     0.076 A 
HETATM    2  N2  UNL     1      -2.767 -16.677  14.267  1.00  0.00    -0.189 N 
ATOM      3  H2  UNL     1      -2.019 -17.097  14.820  1.00  0.00     0.184 HD
HETATM    4  C7  UNL     1      -2.887 -16.797  12.971  1.00  0.00     0.685 A 
HETATM    5  N5  UNL     1      -3.942 -16.150  12.570  1.00  0.00    -0.190 N 
ATOM      6  H5  UNL     1      -4.275 -16.073  11.610  1.00  0.00     0.184 HD
HETATM    7  C14 UNL     1      -4.533 -15.583  13.695  1.00  0.00     0.067 A 
HETATM    8  C15 UNL     1      -5.734 -15.063  13.577  1.00  0.00     0.046 C 
ENDROOT
BRANCH   4   9
HETATM    9  N3  UNL     1      -2.086 -17.459  12.170  1.00  0.00    -0.166 N 
ATOM     10  H3  UNL     1      -2.045 -18.478  12.196  1.00  0.00     0.186 HD
BRANCH   9  11
HETATM   11  C8  UNL     1      -1.258 -16.698  11.242  1.00  0.00     0.189 C 
HETATM   12  S1  UNL     1       0.233 -16.328  11.791  1.00  0.00    -0.040 SA
BRANCH  11  13
HETATM   13  N4  UNL     1      -1.820 -16.346  10.014  1.00  0.00    -0.344 N 
BRANCH  13  14
HETATM   14  C9  UNL     1      -1.298 -15.120   9.386  1.00  0.00     0.243 C 
BRANCH  14  15
HETATM   15  C10 UNL     1      -2.119 -13.910   9.687  1.00  0.00     0.403 C 
HETATM   16  F1  UNL     1      -1.287 -12.809   9.429  1.00  0.00    -0.169 F 
HETATM   17  F2  UNL     1      -3.163 -13.789   8.783  1.00  0.00    -0.169 F 
HETATM   18  F3  UNL     1      -2.570 -13.852  10.975  1.00  0.00    -0.169 F 
ENDBRANCH  14  15
ENDBRANCH  13  14
BRANCH  13  19
HETATM   19  C11 UNL     1      -2.850 -17.045   9.333  1.00  0.00     0.087 A 
HETATM   20  C12 UNL     1      -2.884 -17.113   7.845  1.00  0.00     0.027 A 
HETATM   21  C13 UNL     1      -2.688 -18.367   8.621  1.00  0.00     0.027 A 
ENDBRANCH  13  19
ENDBRANCH  11  13
ENDBRANCH   9  11
ENDBRANCH   4   9
BRANCH   1  22
HETATM   22  C5  UNL     1      -3.883 -15.778  16.075  1.00  0.00     0.051 C 
BRANCH  22  23
HETATM   23  C4  UNL     1      -4.711 -15.262  17.102  1.00  0.00     0.056 A 
HETATM   24  C3  UNL     1      -6.121 -15.388  17.369  1.00  0.00     0.259 A 
HETATM   25  N1  UNL     1      -6.759 -15.044  18.596  1.00  0.00    -0.309 N 
HETATM   26  O1  UNL     1      -6.887 -15.816  16.445  1.00  0.00    -0.267 OA
HETATM   27  C2  UNL     1      -5.950 -14.535  19.623  1.00  0.00     0.098 A 
ATOM     28  H1  UNL     1      -7.764 -15.163  18.722  1.00  0.00     0.170 HD
HETATM   29  C1  UNL     1      -6.471 -14.201  20.774  1.00  0.00     0.063 C 
HETATM   30  N6  UNL     1      -4.552 -14.381  19.408  1.00  0.00    -0.346 N 
HETATM   31  C16 UNL     1      -3.980 -14.741  18.174  1.00  0.00     0.022 A 
ATOM     32  H6  UNL     1      -3.962 -14.009  20.152  1.00  0.00     0.167 HD
HETATM   33  C17 UNL     1      -2.518 -14.564  18.019  1.00  0.00     0.069 C 
ENDBRANCH  22  23
ENDBRANCH   1  22
TORSDOF 8
ENDMDL
