MODEL 1
REMARK VINA RESULT: -5.208654999      0.000      0.000
REMARK  4 active torsions:
REMARK  status: ('A' for Active; 'I' for Inactive)
REMARK    1  A    between atoms: C5_6  and  C6_7 
REMARK    2  A    between atoms: C6_7  and  N1_8 
REMARK    3  A    between atoms: C12_17  and  O1_18 
REMARK    4  A    between atoms: C12_17  and  C13_20 
REMARK       I    between atoms: N3_23  and  C15_25 
ROOT
HETATM    1  C1  UNL     1      21.409 -25.317  30.656  1.00  0.00     0.034 C 
HETATM    2  C2  UNL     1      21.242 -23.948  31.238  1.00  0.00     0.056 C 
HETATM    3 BR1  UNL     1      19.564 -23.885  32.194  1.00  0.00    -0.079 Br
HETATM    4  C3  UNL     1      22.336 -23.706  32.254  1.00  0.00     0.027 C 
HETATM    5  C4  UNL     1      23.615 -23.221  31.607  1.00  0.00     0.011 C 
HETATM    6  C5  UNL     1      23.452 -21.855  31.069  1.00  0.00     0.054 C 
HETATM    7  C12 UNL     1      22.022 -21.602  30.693  1.00  0.00     0.128 C 
HETATM    8  C14 UNL     1      21.301 -22.857  30.276  1.00  0.00     0.045 C 
HETATM    9  N3  UNL     1      20.782 -22.917  29.141  1.00  0.00    -0.334 N 
ATOM     10  H3  UNL     1      20.928 -22.056  28.615  1.00  0.00     0.168 HD
HETATM   11  C15 UNL     1      20.070 -23.835  28.420  1.00  0.00     0.186 C 
HETATM   12  N4  UNL     1      18.783 -23.935  28.585  1.00  0.00    -0.374 N 
ATOM     13  H41 UNL     1      18.252 -24.620  28.047  1.00  0.00     0.158 HD
ATOM     14  H42 UNL     1      18.408 -23.291  29.281  1.00  0.00     0.158 HD
HETATM   15  N5  UNL     1      20.597 -24.740  27.444  1.00  0.00    -0.064 NA
ENDROOT
BRANCH   6  16
HETATM   16  C6  UNL     1      24.312 -21.469  29.933  1.00  0.00     0.245 C 
BRANCH  16  17
HETATM   17  N1  UNL     1      25.380 -20.540  30.201  1.00  0.00    -0.067 N 
HETATM   18  C7  UNL     1      25.453 -19.447  29.270  1.00  0.00     0.272 C 
HETATM   19  C8  UNL     1      26.593 -21.282  30.334  1.00  0.00     0.264 C 
HETATM   20  C9  UNL     1      27.694 -20.563  31.059  1.00  0.00     0.260 C 
HETATM   21  N2  UNL     1      27.219 -20.204  32.391  1.00  0.00    -0.072 N 
HETATM   22  C10 UNL     1      26.140 -19.233  32.162  1.00  0.00     0.260 C 
ATOM     23  H22 UNL     1      26.941 -21.003  32.961  1.00  0.00     0.277 HD
ATOM     24  H21 UNL     1      27.952 -19.866  33.014  1.00  0.00     0.277 HD
HETATM   25  C11 UNL     1      25.025 -19.942  31.487  1.00  0.00     0.264 C 
ENDBRANCH  16  17
ENDBRANCH   6  16
BRANCH   7  26
HETATM   26  O1  UNL     1      21.299 -21.135  31.819  1.00  0.00    -0.381 OA
ATOM     27  H1  UNL     1      21.273 -21.807  32.490  1.00  0.00     0.211 HD
ENDBRANCH   7  26
BRANCH   7  28
HETATM   28  C13 UNL     1      21.814 -20.595  29.628  1.00  0.00     0.266 C 
HETATM   29  F1  UNL     1      21.814 -19.339  30.206  1.00  0.00    -0.252 F 
ENDBRANCH   7  28
TORSDOF 4
ENDMDL
MODEL 2
REMARK VINA RESULT: -5.141376411      9.222     11.886
REMARK  4 active torsions:
REMARK  status: ('A' for Active; 'I' for Inactive)
REMARK    1  A    between atoms: C5_6  and  C6_7 
REMARK    2  A    between atoms: C6_7  and  N1_8 
REMARK    3  A    between atoms: C12_17  and  O1_18 
REMARK    4  A    between atoms: C12_17  and  C13_20 
REMARK       I    between atoms: N3_23  and  C15_25 
ROOT
HETATM    1  C1  UNL     1      30.670 -17.087  32.967  1.00  0.00     0.034 C 
HETATM    2  C2  UNL     1      31.022 -16.171  34.098  1.00  0.00     0.056 C 
HETATM    3 BR1  UNL     1      32.172 -17.123  35.326  1.00  0.00    -0.079 Br
HETATM    4  C3  UNL     1      31.822 -15.007  33.561  1.00  0.00     0.027 C 
HETATM    5  C4  UNL     1      30.933 -13.910  33.016  1.00  0.00     0.011 C 
HETATM    6  C5  UNL     1      30.193 -13.238  34.104  1.00  0.00     0.054 C 
HETATM    7  C12 UNL     1      29.976 -14.176  35.254  1.00  0.00     0.128 C 
HETATM    8  C14 UNL     1      29.886 -15.615  34.820  1.00  0.00     0.045 C 
HETATM    9  N3  UNL     1      28.860 -16.275  35.092  1.00  0.00    -0.334 N 
ATOM     10  H3  UNL     1      28.177 -15.714  35.601  1.00  0.00     0.168 HD
HETATM   11  C15 UNL     1      28.414 -17.550  34.886  1.00  0.00     0.186 C 
HETATM   12  N4  UNL     1      28.766 -18.502  35.701  1.00  0.00    -0.374 N 
ATOM     13  H41 UNL     1      28.433 -19.454  35.547  1.00  0.00     0.158 HD
ATOM     14  H42 UNL     1      29.384 -18.192  36.450  1.00  0.00     0.158 HD
HETATM   15  N5  UNL     1      27.547 -17.986  33.834  1.00  0.00    -0.064 NA
ENDROOT
BRANCH   6  16
HETATM   16  C6  UNL     1      28.900 -12.614  33.757  1.00  0.00     0.245 C 
BRANCH  16  17
HETATM   17  N1  UNL     1      28.908 -11.206  33.456  1.00  0.00    -0.067 N 
HETATM   18  C7  UNL     1      28.550 -10.895  32.099  1.00  0.00     0.272 C 
HETATM   19  C8  UNL     1      30.165 -10.668  33.871  1.00  0.00     0.264 C 
HETATM   20  C9  UNL     1      30.178  -9.180  34.067  1.00  0.00     0.260 C 
HETATM   21  N2  UNL     1      29.170  -8.830  35.063  1.00  0.00    -0.072 N 
HETATM   22  C10 UNL     1      27.885  -9.178  34.441  1.00  0.00     0.260 C 
ATOM     23  H22 UNL     1      29.320  -9.266  35.973  1.00  0.00     0.277 HD
ATOM     24  H21 UNL     1      29.225  -7.864  35.385  1.00  0.00     0.277 HD
HETATM   25  C11 UNL     1      27.838 -10.652  34.285  1.00  0.00     0.264 C 
ENDBRANCH  16  17
ENDBRANCH   6  16
BRANCH   7  26
HETATM   26  O1  UNL     1      31.092 -14.138  36.128  1.00  0.00    -0.381 OA
ATOM     27  H1  UNL     1      31.875 -14.414  35.666  1.00  0.00     0.211 HD
ENDBRANCH   7  26
BRANCH   7  28
HETATM   28  C13 UNL     1      28.791 -13.890  36.093  1.00  0.00     0.266 C 
HETATM   29  F1  UNL     1      29.042 -14.340  37.375  1.00  0.00    -0.252 F 
ENDBRANCH   7  28
TORSDOF 4
ENDMDL
MODEL 3
REMARK VINA RESULT: -5.117741345      3.340      6.527
REMARK  4 active torsions:
REMARK  status: ('A' for Active; 'I' for Inactive)
REMARK    1  A    between atoms: C5_6  and  C6_7 
REMARK    2  A    between atoms: C6_7  and  N1_8 
REMARK    3  A    between atoms: C12_17  and  O1_18 
REMARK    4  A    between atoms: C12_17  and  C13_20 
REMARK       I    between atoms: N3_23  and  C15_25 
ROOT
HETATM    1  C1  UNL     1      23.494 -18.919  31.668  1.00  0.00     0.034 C 
HETATM    2  C2  UNL     1      23.789 -19.191  30.226  1.00  0.00     0.056 C 
HETATM    3 BR1  UNL     1      25.203 -18.005  29.652  1.00  0.00    -0.079 Br
HETATM    4  C3  UNL     1      24.315 -20.602  30.086  1.00  0.00     0.027 C 
HETATM    5  C4  UNL     1      23.198 -21.618  29.997  1.00  0.00     0.011 C 
HETATM    6  C5  UNL     1      22.462 -21.487  28.722  1.00  0.00     0.054 C 
HETATM    7  C12 UNL     1      22.528 -20.076  28.216  1.00  0.00     0.128 C 
HETATM    8  C14 UNL     1      22.649 -19.067  29.328  1.00  0.00     0.045 C 
HETATM    9  N3  UNL     1      21.787 -18.170  29.438  1.00  0.00    -0.334 N 
ATOM     10  H3  UNL     1      21.070 -18.247  28.718  1.00  0.00     0.168 HD
HETATM   11  C15 UNL     1      21.554 -17.111  30.271  1.00  0.00     0.186 C 
HETATM   12  N4  UNL     1      22.146 -15.972  30.058  1.00  0.00    -0.374 N 
ATOM     13  H41 UNL     1      21.972 -15.182  30.679  1.00  0.00     0.158 HD
ATOM     14  H42 UNL     1      22.771 -15.980  29.251  1.00  0.00     0.158 HD
HETATM   15  N5  UNL     1      20.678 -17.099  31.403  1.00  0.00    -0.064 NA
ENDROOT
BRANCH   6  16
HETATM   16  C6  UNL     1      21.052 -21.926  28.708  1.00  0.00     0.245 C 
BRANCH  16  17
HETATM   17  N1  UNL     1      20.754 -23.162  28.032  1.00  0.00    -0.067 N 
HETATM   18  C7  UNL     1      21.854 -23.694  27.274  1.00  0.00     0.272 C 
HETATM   19  C8  UNL     1      19.553 -22.981  27.279  1.00  0.00     0.264 C 
HETATM   20  C9  UNL     1      18.851 -24.252  26.900  1.00  0.00     0.260 C 
HETATM   21  N2  UNL     1      18.530 -24.990  28.118  1.00  0.00    -0.072 N 
HETATM   22  C10 UNL     1      19.832 -25.364  28.690  1.00  0.00     0.260 C 
ATOM     23  H22 UNL     1      17.927 -24.480  28.763  1.00  0.00     0.277 HD
ATOM     24  H21 UNL     1      17.903 -25.780  27.970  1.00  0.00     0.277 HD
HETATM   25  C11 UNL     1      20.517 -24.118  29.112  1.00  0.00     0.264 C 
ENDBRANCH  16  17
ENDBRANCH   6  16
BRANCH   7  26
HETATM   26  O1  UNL     1      23.700 -19.893  27.440  1.00  0.00    -0.381 OA
ATOM     27  H1  UNL     1      23.501 -20.010  26.519  1.00  0.00     0.211 HD
ENDBRANCH   7  26
BRANCH   7  28
HETATM   28  C13 UNL     1      21.399 -19.656  27.357  1.00  0.00     0.266 C 
HETATM   29  F1  UNL     1      21.907 -18.968  26.271  1.00  0.00    -0.252 F 
ENDBRANCH   7  28
TORSDOF 4
ENDMDL
MODEL 4
REMARK VINA RESULT: -5.102452433      0.951      1.502
REMARK  4 active torsions:
REMARK  status: ('A' for Active; 'I' for Inactive)
REMARK    1  A    between atoms: C5_6  and  C6_7 
REMARK    2  A    between atoms: C6_7  and  N1_8 
REMARK    3  A    between atoms: C12_17  and  O1_18 
REMARK    4  A    between atoms: C12_17  and  C13_20 
REMARK       I    between atoms: N3_23  and  C15_25 
ROOT
HETATM    1  C1  UNL     1      21.801 -25.154  30.194  1.00  0.00     0.034 C 
HETATM    2  C2  UNL     1      21.513 -23.891  30.945  1.00  0.00     0.056 C 
HETATM    3 BR1  UNL     1      19.815 -24.086  31.848  1.00  0.00    -0.079 Br
HETATM    4  C3  UNL     1      22.562 -23.704  32.019  1.00  0.00     0.027 C 
HETATM    5  C4  UNL     1      23.811 -23.040  31.482  1.00  0.00     0.011 C 
HETATM    6  C5  UNL     1      23.550 -21.631  31.124  1.00  0.00     0.054 C 
HETATM    7  C12 UNL     1      22.112 -21.440  30.739  1.00  0.00     0.128 C 
HETATM    8  C14 UNL     1      21.504 -22.680  30.138  1.00  0.00     0.045 C 
HETATM    9  N3  UNL     1      21.016 -22.628  28.989  1.00  0.00    -0.334 N 
ATOM     10  H3  UNL     1      21.103 -21.696  28.586  1.00  0.00     0.168 HD
HETATM   11  C15 UNL     1      20.396 -23.494  28.132  1.00  0.00     0.186 C 
HETATM   12  N4  UNL     1      19.117 -23.713  28.240  1.00  0.00    -0.374 N 
ATOM     13  H41 UNL     1      18.655 -24.359  27.601  1.00  0.00     0.158 HD
ATOM     14  H42 UNL     1      18.677 -23.199  29.003  1.00  0.00     0.158 HD
HETATM   15  N5  UNL     1      21.013 -24.216  27.062  1.00  0.00    -0.064 NA
ENDROOT
BRANCH   6  16
HETATM   16  C6  UNL     1      24.400 -21.031  30.076  1.00  0.00     0.245 C 
BRANCH  16  17
HETATM   17  N1  UNL     1      25.388 -20.072  30.498  1.00  0.00    -0.067 N 
HETATM   18  C7  UNL     1      26.740 -20.554  30.428  1.00  0.00     0.272 C 
HETATM   19  C8  UNL     1      25.006 -19.574  31.781  1.00  0.00     0.264 C 
HETATM   20  C9  UNL     1      25.635 -18.264  32.160  1.00  0.00     0.260 C 
HETATM   21  N2  UNL     1      25.286 -17.269  31.151  1.00  0.00    -0.072 N 
HETATM   22  C10 UNL     1      25.942 -17.729  29.920  1.00  0.00     0.260 C 
ATOM     23  H22 UNL     1      24.282 -17.116  31.052  1.00  0.00     0.277 HD
ATOM     24  H21 UNL     1      25.524 -16.313  31.414  1.00  0.00     0.277 HD
HETATM   25  C11 UNL     1      25.298 -18.999  29.508  1.00  0.00     0.264 C 
ENDBRANCH  16  17
ENDBRANCH   6  16
BRANCH   7  26
HETATM   26  O1  UNL     1      21.331 -21.185  31.894  1.00  0.00    -0.381 OA
ATOM     27  H1  UNL     1      20.483 -20.838  31.642  1.00  0.00     0.211 HD
ENDBRANCH   7  26
BRANCH   7  28
HETATM   28  C13 UNL     1      21.847 -20.319  29.810  1.00  0.00     0.266 C 
HETATM   29  F1  UNL     1      21.788 -19.148  30.542  1.00  0.00    -0.252 F 
ENDBRANCH   7  28
TORSDOF 4
ENDMDL
MODEL 5
REMARK VINA RESULT: -5.101344367     10.179     11.919
REMARK  4 active torsions:
REMARK  status: ('A' for Active; 'I' for Inactive)
REMARK    1  A    between atoms: C5_6  and  C6_7 
REMARK    2  A    between atoms: C6_7  and  N1_8 
REMARK    3  A    between atoms: C12_17  and  O1_18 
REMARK    4  A    between atoms: C12_17  and  C13_20 
REMARK       I    between atoms: N3_23  and  C15_25 
ROOT
HETATM    1  C1  UNL     1      31.546 -15.943  36.543  1.00  0.00     0.034 C 
HETATM    2  C2  UNL     1      30.165 -15.884  35.968  1.00  0.00     0.056 C 
HETATM    3 BR1  UNL     1      29.236 -17.515  36.431  1.00  0.00    -0.079 Br
HETATM    4  C3  UNL     1      29.407 -14.748  36.616  1.00  0.00     0.027 C 
HETATM    5  C4  UNL     1      29.689 -13.422  35.945  1.00  0.00     0.011 C 
HETATM    6  C5  UNL     1      29.108 -13.381  34.587  1.00  0.00     0.054 C 
HETATM    7  C12 UNL     1      29.027 -14.761  34.005  1.00  0.00     0.128 C 
HETATM    8  C14 UNL     1      30.104 -15.676  34.528  1.00  0.00     0.045 C 
HETATM    9  N3  UNL     1      30.891 -16.218  33.725  1.00  0.00    -0.334 N 
ATOM     10  H3  UNL     1      30.689 -15.951  32.762  1.00  0.00     0.168 HD
HETATM   11  C15 UNL     1      31.952 -17.077  33.798  1.00  0.00     0.186 C 
HETATM   12  N4  UNL     1      31.747 -18.361  33.858  1.00  0.00    -0.374 N 
ATOM     13  H41 UNL     1      32.539 -19.002  33.913  1.00  0.00     0.158 HD
ATOM     14  H42 UNL     1      30.761 -18.619  33.855  1.00  0.00     0.158 HD
HETATM   15  N5  UNL     1      33.337 -16.716  33.803  1.00  0.00    -0.064 NA
ENDROOT
BRANCH   6  16
HETATM   16  C6  UNL     1      29.756 -12.493  33.601  1.00  0.00     0.245 C 
BRANCH  16  17
HETATM   17  N1  UNL     1      29.174 -11.190  33.405  1.00  0.00    -0.067 N 
HETATM   18  C7  UNL     1      28.893 -10.875  32.031  1.00  0.00     0.272 C 
HETATM   19  C8  UNL     1      29.993 -10.231  34.074  1.00  0.00     0.264 C 
HETATM   20  C9  UNL     1      29.315  -8.925  34.372  1.00  0.00     0.260 C 
HETATM   21  N2  UNL     1      28.138  -9.186  35.195  1.00  0.00    -0.072 N 
HETATM   22  C10 UNL     1      27.235  -9.960  34.331  1.00  0.00     0.260 C 
ATOM     23  H22 UNL     1      28.347  -9.639  36.084  1.00  0.00     0.277 HD
ATOM     24  H21 UNL     1      27.714  -8.346  35.588  1.00  0.00     0.277 HD
HETATM   25  C11 UNL     1      27.872 -11.272  34.066  1.00  0.00     0.264 C 
ENDBRANCH  16  17
ENDBRANCH   6  16
BRANCH   7  26
HETATM   26  O1  UNL     1      27.814 -15.382  34.394  1.00  0.00    -0.381 OA
ATOM     27  H1  UNL     1      27.441 -14.926  35.140  1.00  0.00     0.211 HD
ENDBRANCH   7  26
BRANCH   7  28
HETATM   28  C13 UNL     1      29.065 -14.831  32.527  1.00  0.00     0.266 C 
HETATM   29  F1  UNL     1      27.775 -14.700  32.049  1.00  0.00    -0.252 F 
ENDBRANCH   7  28
TORSDOF 4
ENDMDL
