MODEL 1
REMARK VINA RESULT: -7.527617336      0.000      0.000
REMARK  8 active torsions:
REMARK  status: ('A' for Active; 'I' for Inactive)
REMARK    1  A    between atoms: O1_2  and  C2_3 
REMARK    2  A    between atoms: C2_3  and  C3_4 
REMARK    3  A    between atoms: C5_6  and  O2_7 
REMARK    4  A    between atoms: N1_10  and  C7_11 
REMARK    5  A    between atoms: C7_11  and  C8_12 
REMARK    6  A    between atoms: C8_12  and  N2_13 
REMARK       I    between atoms: N2_13  and  C9_15 
REMARK       I    between atoms: C9_15  and  N3_17 
REMARK    7  A    between atoms: N3_17  and  C10_19 
REMARK    8  A    between atoms: C10_19  and  C11_20 
ROOT
HETATM    1  N2  UNL     1       2.860  35.571 101.920  1.00  0.00    -0.341 N 
ATOM      2  H2  UNL     1       2.910  36.430 101.373  1.00  0.00     0.164 HD
HETATM    3  C9  UNL     1       3.848  34.557 101.783  1.00  0.00     0.316 C 
HETATM    4  O3  UNL     1       3.776  33.495 102.465  1.00  0.00    -0.247 OA
HETATM    5  N3  UNL     1       4.898  34.782 100.868  1.00  0.00    -0.340 N 
ATOM      6  H3  UNL     1       4.936  35.646 100.328  1.00  0.00     0.164 HD
ENDROOT
BRANCH   1   7
HETATM    7  C8  UNL     1       1.780  35.343 102.860  1.00  0.00     0.154 C 
BRANCH   7   8
HETATM    8  C7  UNL     1       0.554  36.108 102.552  1.00  0.00     0.292 C 
BRANCH   8   9
HETATM    9  N1  UNL     1       0.415  37.370 103.181  1.00  0.00     0.099 N 
HETATM   10  C3  UNL     1      -0.905  37.948 103.056  1.00  0.00     0.249 C 
HETATM   11  C4  UNL     1      -0.811  38.681 101.747  1.00  0.00     0.071 C 
HETATM   12  C5  UNL     1       0.584  39.255 101.755  1.00  0.00     0.148 C 
HETATM   13  C6  UNL     1       1.284  38.403 102.762  1.00  0.00     0.304 C 
BRANCH  10  14
HETATM   14  C2  UNL     1      -1.991  36.909 103.062  1.00  0.00     0.203 C 
BRANCH  14  15
HETATM   15  O1  UNL     1      -2.840  36.973 101.998  1.00  0.00    -0.394 OA
HETATM   16  C1  UNL     1      -3.212  35.775 101.452  1.00  0.00     0.201 C 
ENDBRANCH  14  15
ENDBRANCH  10  14
BRANCH  12  17
HETATM   17  O2  UNL     1       0.555  40.613 102.126  1.00  0.00    -0.394 OA
ATOM     18  H2  UNL     1       1.389  40.873 102.498  1.00  0.00     0.210 HD
ENDBRANCH  12  17
ENDBRANCH   8   9
ENDBRANCH   7   8
ENDBRANCH   1   7
BRANCH   5  19
HETATM   19  C10 UNL     1       5.915  33.778 100.704  1.00  0.00     0.167 C 
BRANCH  19  20
HETATM   20  C11 UNL     1       7.028  34.296  99.815  1.00  0.00     0.119 C 
HETATM   21  F1  UNL     1       6.892  35.646  99.702  1.00  0.00    -0.241 F 
HETATM   22  C12 UNL     1       8.376  33.835 100.261  1.00  0.00     0.045 C 
HETATM   23  C13 UNL     1       8.941  33.021  99.107  1.00  0.00     0.004 C 
HETATM   24  C14 UNL     1       8.191  33.562  97.908  1.00  0.00     0.004 C 
HETATM   25  C15 UNL     1       6.786  33.666  98.436  1.00  0.00     0.045 C 
ENDBRANCH  19  20
ENDBRANCH   5  19
TORSDOF 8
ENDMDL
MODEL 2
REMARK VINA RESULT: -7.525482101      1.365      1.681
REMARK  8 active torsions:
REMARK  status: ('A' for Active; 'I' for Inactive)
REMARK    1  A    between atoms: O1_2  and  C2_3 
REMARK    2  A    between atoms: C2_3  and  C3_4 
REMARK    3  A    between atoms: C5_6  and  O2_7 
REMARK    4  A    between atoms: N1_10  and  C7_11 
REMARK    5  A    between atoms: C7_11  and  C8_12 
REMARK    6  A    between atoms: C8_12  and  N2_13 
REMARK       I    between atoms: N2_13  and  C9_15 
REMARK       I    between atoms: C9_15  and  N3_17 
REMARK    7  A    between atoms: N3_17  and  C10_19 
REMARK    8  A    between atoms: C10_19  and  C11_20 
ROOT
HETATM    1  N2  UNL     1       2.850  35.498 101.970  1.00  0.00    -0.341 N 
ATOM      2  H2  UNL     1       2.868  36.361 101.425  1.00  0.00     0.164 HD
HETATM    3  C9  UNL     1       3.853  34.504 101.802  1.00  0.00     0.316 C 
HETATM    4  O3  UNL     1       3.820  33.439 102.481  1.00  0.00    -0.247 OA
HETATM    5  N3  UNL     1       4.872  34.752 100.858  1.00  0.00    -0.340 N 
ATOM      6  H3  UNL     1       4.878  35.618 100.320  1.00  0.00     0.164 HD
ENDROOT
BRANCH   1   7
HETATM    7  C8  UNL     1       1.802  35.248 102.939  1.00  0.00     0.154 C 
BRANCH   7   8
HETATM    8  C7  UNL     1       0.445  35.539 102.435  1.00  0.00     0.292 C 
BRANCH   8   9
HETATM    9  N1  UNL     1      -0.248  36.612 103.048  1.00  0.00     0.099 N 
HETATM   10  C3  UNL     1      -1.634  36.323 103.349  1.00  0.00     0.249 C 
HETATM   11  C4  UNL     1      -2.323  36.695 102.067  1.00  0.00     0.071 C 
HETATM   12  C5  UNL     1      -1.589  37.931 101.606  1.00  0.00     0.148 C 
HETATM   13  C6  UNL     1      -0.296  37.838 102.347  1.00  0.00     0.304 C 
BRANCH  10  14
HETATM   14  C2  UNL     1      -1.853  34.887 103.731  1.00  0.00     0.203 C 
BRANCH  14  15
HETATM   15  O1  UNL     1      -2.704  34.704 104.779  1.00  0.00    -0.394 OA
HETATM   16  C1  UNL     1      -3.772  33.881 104.551  1.00  0.00     0.201 C 
ENDBRANCH  14  15
ENDBRANCH  10  14
BRANCH  12  17
HETATM   17  O2  UNL     1      -2.319  39.088 101.939  1.00  0.00    -0.394 OA
ATOM     18  H2  UNL     1      -1.761  39.855 101.896  1.00  0.00     0.210 HD
ENDBRANCH  12  17
ENDBRANCH   8   9
ENDBRANCH   7   8
ENDBRANCH   1   7
BRANCH   5  19
HETATM   19  C10 UNL     1       5.903  33.768 100.662  1.00  0.00     0.167 C 
BRANCH  19  20
HETATM   20  C11 UNL     1       7.026  34.341  99.821  1.00  0.00     0.119 C 
HETATM   21  F1  UNL     1       6.902  35.697  99.809  1.00  0.00    -0.241 F 
HETATM   22  C12 UNL     1       8.367  33.837 100.239  1.00  0.00     0.045 C 
HETATM   23  C13 UNL     1       8.933  33.107  99.030  1.00  0.00     0.004 C 
HETATM   24  C14 UNL     1       8.196  33.743  97.871  1.00  0.00     0.004 C 
HETATM   25  C15 UNL     1       6.787  33.819  98.398  1.00  0.00     0.045 C 
ENDBRANCH  19  20
ENDBRANCH   5  19
TORSDOF 8
ENDMDL
MODEL 3
REMARK VINA RESULT: -7.500354673      1.614      2.905
REMARK  8 active torsions:
REMARK  status: ('A' for Active; 'I' for Inactive)
REMARK    1  A    between atoms: O1_2  and  C2_3 
REMARK    2  A    between atoms: C2_3  and  C3_4 
REMARK    3  A    between atoms: C5_6  and  O2_7 
REMARK    4  A    between atoms: N1_10  and  C7_11 
REMARK    5  A    between atoms: C7_11  and  C8_12 
REMARK    6  A    between atoms: C8_12  and  N2_13 
REMARK       I    between atoms: N2_13  and  C9_15 
REMARK       I    between atoms: C9_15  and  N3_17 
REMARK    7  A    between atoms: N3_17  and  C10_19 
REMARK    8  A    between atoms: C10_19  and  C11_20 
ROOT
HETATM    1  N2  UNL     1       2.298  35.135 101.560  1.00  0.00    -0.341 N 
ATOM      2  H2  UNL     1       2.236  35.838 100.824  1.00  0.00     0.164 HD
HETATM    3  C9  UNL     1       3.489  34.382 101.757  1.00  0.00     0.316 C 
HETATM    4  O3  UNL     1       3.554  33.513 102.671  1.00  0.00    -0.247 OA
HETATM    5  N3  UNL     1       4.579  34.642 100.899  1.00  0.00    -0.340 N 
ATOM      6  H3  UNL     1       4.504  35.348 100.167  1.00  0.00     0.164 HD
ENDROOT
BRANCH   1   7
HETATM    7  C8  UNL     1       1.176  34.872 102.440  1.00  0.00     0.154 C 
BRANCH   7   8
HETATM    8  C7  UNL     1      -0.096  35.456 101.970  1.00  0.00     0.292 C 
BRANCH   8   9
HETATM    9  N1  UNL     1      -1.272  34.701 102.206  1.00  0.00     0.099 N 
HETATM   10  C3  UNL     1      -2.467  35.502 102.357  1.00  0.00     0.249 C 
HETATM   11  C4  UNL     1      -2.454  35.821 103.825  1.00  0.00     0.071 C 
HETATM   12  C5  UNL     1      -1.961  34.548 104.468  1.00  0.00     0.148 C 
HETATM   13  C6  UNL     1      -1.281  33.852 103.336  1.00  0.00     0.304 C 
BRANCH  10  14
HETATM   14  C2  UNL     1      -2.447  36.732 101.495  1.00  0.00     0.203 C 
BRANCH  14  15
HETATM   15  O1  UNL     1      -2.521  37.906 102.183  1.00  0.00    -0.394 OA
HETATM   16  C1  UNL     1      -1.783  38.944 101.684  1.00  0.00     0.201 C 
ENDBRANCH  14  15
ENDBRANCH  10  14
BRANCH  12  17
HETATM   17  O2  UNL     1      -3.043  33.809 104.984  1.00  0.00    -0.394 OA
ATOM     18  H2  UNL     1      -2.773  32.919 105.178  1.00  0.00     0.210 HD
ENDBRANCH  12  17
ENDBRANCH   8   9
ENDBRANCH   7   8
ENDBRANCH   1   7
BRANCH   5  19
HETATM   19  C10 UNL     1       5.799  33.899 101.069  1.00  0.00     0.167 C 
BRANCH  19  20
HETATM   20  C11 UNL     1       6.848  34.375 100.084  1.00  0.00     0.119 C 
HETATM   21  F1  UNL     1       6.678  35.713  99.892  1.00  0.00    -0.241 F 
HETATM   22  C12 UNL     1       8.229  33.967 100.478  1.00  0.00     0.045 C 
HETATM   23  C13 UNL     1       8.741  33.089  99.348  1.00  0.00     0.004 C 
HETATM   24  C14 UNL     1       7.913  33.537  98.163  1.00  0.00     0.004 C 
HETATM   25  C15 UNL     1       6.538  33.653  98.766  1.00  0.00     0.045 C 
ENDBRANCH  19  20
ENDBRANCH   5  19
TORSDOF 8
ENDMDL
MODEL 4
REMARK VINA RESULT: -7.429741851      1.010      2.596
REMARK  8 active torsions:
REMARK  status: ('A' for Active; 'I' for Inactive)
REMARK    1  A    between atoms: O1_2  and  C2_3 
REMARK    2  A    between atoms: C2_3  and  C3_4 
REMARK    3  A    between atoms: C5_6  and  O2_7 
REMARK    4  A    between atoms: N1_10  and  C7_11 
REMARK    5  A    between atoms: C7_11  and  C8_12 
REMARK    6  A    between atoms: C8_12  and  N2_13 
REMARK       I    between atoms: N2_13  and  C9_15 
REMARK       I    between atoms: C9_15  and  N3_17 
REMARK    7  A    between atoms: N3_17  and  C10_19 
REMARK    8  A    between atoms: C10_19  and  C11_20 
ROOT
HETATM    1  N2  UNL     1       2.984  34.891 101.407  1.00  0.00    -0.341 N 
ATOM      2  H2  UNL     1       2.842  35.734 100.849  1.00  0.00     0.164 HD
HETATM    3  C9  UNL     1       4.267  34.288 101.510  1.00  0.00     0.316 C 
HETATM    4  O3  UNL     1       4.431  33.244 102.202  1.00  0.00    -0.247 OA
HETATM    5  N3  UNL     1       5.337  34.895 100.817  1.00  0.00    -0.340 N 
ATOM      6  H3  UNL     1       5.181  35.737 100.264  1.00  0.00     0.164 HD
ENDROOT
BRANCH   1   7
HETATM    7  C8  UNL     1       1.883  34.271 102.118  1.00  0.00     0.154 C 
BRANCH   7   8
HETATM    8  C7  UNL     1       0.986  35.238 102.783  1.00  0.00     0.292 C 
BRANCH   8   9
HETATM    9  N1  UNL     1       0.143  36.009 101.943  1.00  0.00     0.099 N 
HETATM   10  C3  UNL     1      -0.143  37.332 102.452  1.00  0.00     0.249 C 
HETATM   11  C4  UNL     1      -1.342  37.087 103.323  1.00  0.00     0.071 C 
HETATM   12  C5  UNL     1      -2.145  36.066 102.555  1.00  0.00     0.148 C 
HETATM   13  C6  UNL     1      -1.128  35.475 101.635  1.00  0.00     0.304 C 
BRANCH  10  14
HETATM   14  C2  UNL     1       1.013  37.921 103.208  1.00  0.00     0.203 C 
BRANCH  14  15
HETATM   15  O1  UNL     1       1.071  39.283 103.182  1.00  0.00    -0.394 OA
HETATM   16  C1  UNL     1       0.999  39.864 101.946  1.00  0.00     0.201 C 
ENDBRANCH  14  15
ENDBRANCH  10  14
BRANCH  12  17
HETATM   17  O2  UNL     1      -3.200  36.692 101.862  1.00  0.00    -0.394 OA
ATOM     18  H2  UNL     1      -3.596  36.087 101.245  1.00  0.00     0.210 HD
ENDBRANCH  12  17
ENDBRANCH   8   9
ENDBRANCH   7   8
ENDBRANCH   1   7
BRANCH   5  19
HETATM   19  C10 UNL     1       6.649  34.311 100.900  1.00  0.00     0.167 C 
BRANCH  19  20
HETATM   20  C11 UNL     1       7.345  34.390  99.556  1.00  0.00     0.119 C 
HETATM   21  F1  UNL     1       6.907  35.506  98.911  1.00  0.00    -0.241 F 
HETATM   22  C12 UNL     1       8.829  34.275  99.674  1.00  0.00     0.045 C 
HETATM   23  C13 UNL     1       9.215  33.034  98.885  1.00  0.00     0.004 C 
HETATM   24  C14 UNL     1       8.072  32.885  97.902  1.00  0.00     0.004 C 
HETATM   25  C15 UNL     1       6.873  33.158  98.770  1.00  0.00     0.045 C 
ENDBRANCH  19  20
ENDBRANCH   5  19
TORSDOF 8
ENDMDL
MODEL 5
REMARK VINA RESULT: -7.287777825      1.615      2.047
REMARK  8 active torsions:
REMARK  status: ('A' for Active; 'I' for Inactive)
REMARK    1  A    between atoms: O1_2  and  C2_3 
REMARK    2  A    between atoms: C2_3  and  C3_4 
REMARK    3  A    between atoms: C5_6  and  O2_7 
REMARK    4  A    between atoms: N1_10  and  C7_11 
REMARK    5  A    between atoms: C7_11  and  C8_12 
REMARK    6  A    between atoms: C8_12  and  N2_13 
REMARK       I    between atoms: N2_13  and  C9_15 
REMARK       I    between atoms: C9_15  and  N3_17 
REMARK    7  A    between atoms: N3_17  and  C10_19 
REMARK    8  A    between atoms: C10_19  and  C11_20 
ROOT
HETATM    1  N2  UNL     1       3.887  34.894 101.157  1.00  0.00    -0.341 N 
ATOM      2  H2  UNL     1       3.685  35.720 100.594  1.00  0.00     0.164 HD
HETATM    3  C9  UNL     1       5.145  34.236 101.067  1.00  0.00     0.316 C 
HETATM    4  O3  UNL     1       5.384  33.212 101.767  1.00  0.00    -0.247 OA
HETATM    5  N3  UNL     1       6.101  34.766 100.174  1.00  0.00    -0.340 N 
ATOM      6  H3  UNL     1       5.885  35.593  99.618  1.00  0.00     0.164 HD
ENDROOT
BRANCH   1   7
HETATM    7  C8  UNL     1       2.902  34.353 102.073  1.00  0.00     0.154 C 
BRANCH   7   8
HETATM    8  C7  UNL     1       1.546  34.904 101.881  1.00  0.00     0.292 C 
BRANCH   8   9
HETATM    9  N1  UNL     1       1.041  35.733 102.913  1.00  0.00     0.099 N 
HETATM   10  C3  UNL     1      -0.252  36.313 102.624  1.00  0.00     0.249 C 
HETATM   11  C4  UNL     1       0.118  37.567 101.885  1.00  0.00     0.071 C 
HETATM   12  C5  UNL     1       1.347  38.063 102.606  1.00  0.00     0.148 C 
HETATM   13  C6  UNL     1       1.834  36.836 103.305  1.00  0.00     0.304 C 
BRANCH  10  14
HETATM   14  C2  UNL     1      -1.125  35.398 101.813  1.00  0.00     0.203 C 
BRANCH  14  15
HETATM   15  O1  UNL     1      -2.261  34.992 102.448  1.00  0.00    -0.394 OA
HETATM   16  C1  UNL     1      -2.109  34.005 103.382  1.00  0.00     0.201 C 
ENDBRANCH  14  15
ENDBRANCH  10  14
BRANCH  12  17
HETATM   17  O2  UNL     1       1.009  39.095 103.502  1.00  0.00    -0.394 OA
ATOM     18  H2  UNL     1       0.175  39.482 103.262  1.00  0.00     0.210 HD
ENDBRANCH  12  17
ENDBRANCH   8   9
ENDBRANCH   7   8
ENDBRANCH   1   7
BRANCH   5  19
HETATM   19  C10 UNL     1       7.384  34.126 100.058  1.00  0.00     0.167 C 
BRANCH  19  20
HETATM   20  C11 UNL     1       7.494  33.405  98.729  1.00  0.00     0.119 C 
HETATM   21  F1  UNL     1       6.783  32.246  98.811  1.00  0.00    -0.241 F 
HETATM   22  C12 UNL     1       7.138  34.280  97.573  1.00  0.00     0.045 C 
HETATM   23  C13 UNL     1       8.386  34.355  96.708  1.00  0.00     0.004 C 
HETATM   24  C14 UNL     1       9.131  33.088  97.072  1.00  0.00     0.004 C 
HETATM   25  C15 UNL     1       8.979  33.053  98.569  1.00  0.00     0.045 C 
ENDBRANCH  19  20
ENDBRANCH   5  19
TORSDOF 8
ENDMDL
