MODEL 1
REMARK VINA RESULT: -4.545933976      0.000      0.000
REMARK  3 active torsions:
REMARK  status: ('A' for Active; 'I' for Inactive)
REMARK    1  A    between atoms: C2_2  and  C3_3 
REMARK    2  A    between atoms: C3_3  and  N1_4 
REMARK    3  A    between atoms: C9_10  and  N2_11 
ROOT
HETATM    1  N1  UNL     1       4.923 -14.053 -20.731  1.00  0.00     0.122 N 
HETATM    2  C4  UNL     1       5.139 -13.992 -22.199  1.00  0.00     0.275 C 
HETATM    3  C5  UNL     1       4.452 -12.755 -22.737  1.00  0.00     0.030 C 
HETATM    4  C6  UNL     1       2.945 -12.867 -22.668  1.00  0.00     0.002 C 
HETATM    5  C7  UNL     1       2.437 -13.338 -21.342  1.00  0.00     0.004 C 
HETATM    6  C8  UNL     1       2.631 -14.816 -21.109  1.00  0.00     0.065 C 
HETATM    7  C9  UNL     1       3.988 -15.157 -20.585  1.00  0.00     0.417 C 
ENDROOT
BRANCH   7   8
HETATM    8  N2  UNL     1       3.889 -15.717 -19.287  1.00  0.00    -0.048 N 
ATOM      9  H23 UNL     1       3.713 -16.720 -19.354  1.00  0.00     0.276 HD
ATOM     10  H22 UNL     1       4.806 -15.722 -18.840  1.00  0.00     0.276 HD
ATOM     11  H21 UNL     1       3.203 -15.287 -18.667  1.00  0.00     0.276 HD
ENDBRANCH   7   8
BRANCH   1  12
HETATM   12  C3  UNL     1       6.231 -14.351 -20.167  1.00  0.00     0.301 C 
BRANCH  12  13
HETATM   13  C2  UNL     1       7.065 -15.229 -20.990  1.00  0.00    -0.007 C 
HETATM   14  C1  UNL     1       8.128 -15.897 -20.636  1.00  0.00     0.008 C 
ENDBRANCH  12  13
ENDBRANCH   1  12
TORSDOF 3
ENDMDL
MODEL 2
REMARK VINA RESULT: -4.436400097      1.236      2.603
REMARK  3 active torsions:
REMARK  status: ('A' for Active; 'I' for Inactive)
REMARK    1  A    between atoms: C2_2  and  C3_3 
REMARK    2  A    between atoms: C3_3  and  N1_4 
REMARK    3  A    between atoms: C9_10  and  N2_11 
ROOT
HETATM    1  N1  UNL     1       4.891 -14.361 -21.613  1.00  0.00     0.122 N 
HETATM    2  C4  UNL     1       4.766 -14.417 -20.134  1.00  0.00     0.275 C 
HETATM    3  C5  UNL     1       3.862 -15.575 -19.769  1.00  0.00     0.030 C 
HETATM    4  C6  UNL     1       2.427 -15.325 -20.173  1.00  0.00     0.002 C 
HETATM    5  C7  UNL     1       2.274 -14.831 -21.577  1.00  0.00     0.004 C 
HETATM    6  C8  UNL     1       2.655 -13.381 -21.754  1.00  0.00     0.065 C 
HETATM    7  C9  UNL     1       4.120 -13.177 -21.960  1.00  0.00     0.417 C 
ENDROOT
BRANCH   7   8
HETATM    8  N2  UNL     1       4.367 -12.632 -23.245  1.00  0.00    -0.048 N 
ATOM      9  H23 UNL     1       5.361 -12.702 -23.466  1.00  0.00     0.276 HD
ATOM     10  H22 UNL     1       3.978 -13.244 -23.962  1.00  0.00     0.276 HD
ATOM     11  H21 UNL     1       4.046 -11.676 -23.392  1.00  0.00     0.276 HD
ENDBRANCH   7   8
BRANCH   1  12
HETATM   12  C3  UNL     1       6.313 -14.195 -21.868  1.00  0.00     0.301 C 
BRANCH  12  13
HETATM   13  C2  UNL     1       7.132 -15.366 -21.549  1.00  0.00    -0.007 C 
HETATM   14  C1  UNL     1       7.929 -15.542 -20.531  1.00  0.00     0.008 C 
ENDBRANCH  12  13
ENDBRANCH   1  12
TORSDOF 3
ENDMDL
MODEL 3
REMARK VINA RESULT: -4.162049595      0.959      1.004
REMARK  3 active torsions:
REMARK  status: ('A' for Active; 'I' for Inactive)
REMARK    1  A    between atoms: C2_2  and  C3_3 
REMARK    2  A    between atoms: C3_3  and  N1_4 
REMARK    3  A    between atoms: C9_10  and  N2_11 
ROOT
HETATM    1  N1  UNL     1       5.373 -14.247 -21.292  1.00  0.00     0.122 N 
HETATM    2  C4  UNL     1       4.869 -13.681 -22.568  1.00  0.00     0.275 C 
HETATM    3  C5  UNL     1       4.137 -12.390 -22.268  1.00  0.00     0.030 C 
HETATM    4  C6  UNL     1       2.843 -12.630 -21.523  1.00  0.00     0.002 C 
HETATM    5  C7  UNL     1       2.983 -13.556 -20.357  1.00  0.00     0.004 C 
HETATM    6  C8  UNL     1       3.114 -15.008 -20.747  1.00  0.00     0.065 C 
HETATM    7  C9  UNL     1       4.514 -15.403 -21.086  1.00  0.00     0.417 C 
ENDROOT
BRANCH   7   8
HETATM    8  N2  UNL     1       4.990 -16.372 -20.168  1.00  0.00    -0.048 N 
ATOM      9  H23 UNL     1       4.606 -17.288 -20.400  1.00  0.00     0.276 HD
ATOM     10  H22 UNL     1       5.983 -16.544 -20.328  1.00  0.00     0.276 HD
ATOM     11  H21 UNL     1       4.828 -16.169 -19.182  1.00  0.00     0.276 HD
ENDBRANCH   7   8
BRANCH   1  12
HETATM   12  C3  UNL     1       6.754 -14.619 -21.562  1.00  0.00     0.301 C 
BRANCH  12  13
HETATM   13  C2  UNL     1       7.599 -14.734 -20.373  1.00  0.00    -0.007 C 
HETATM   14  C1  UNL     1       8.357 -15.734 -20.013  1.00  0.00     0.008 C 
ENDBRANCH  12  13
ENDBRANCH   1  12
TORSDOF 3
ENDMDL
MODEL 4
REMARK VINA RESULT: -3.591293062      1.352      4.020
REMARK  3 active torsions:
REMARK  status: ('A' for Active; 'I' for Inactive)
REMARK    1  A    between atoms: C2_2  and  C3_3 
REMARK    2  A    between atoms: C3_3  and  N1_4 
REMARK    3  A    between atoms: C9_10  and  N2_11 
ROOT
HETATM    1  N1  UNL     1       3.635 -14.518 -21.864  1.00  0.00     0.122 N 
HETATM    2  C4  UNL     1       4.633 -13.423 -21.784  1.00  0.00     0.275 C 
HETATM    3  C5  UNL     1       5.985 -13.972 -22.186  1.00  0.00     0.030 C 
HETATM    4  C6  UNL     1       6.533 -14.941 -21.162  1.00  0.00     0.002 C 
HETATM    5  C7  UNL     1       5.544 -15.973 -20.722  1.00  0.00     0.004 C 
HETATM    6  C8  UNL     1       4.498 -15.444 -19.771  1.00  0.00     0.065 C 
HETATM    7  C9  UNL     1       3.345 -14.797 -20.465  1.00  0.00     0.417 C 
ENDROOT
BRANCH   7   8
HETATM    8  N2  UNL     1       2.149 -15.515 -20.212  1.00  0.00    -0.048 N 
ATOM      9  H23 UNL     1       1.728 -15.811 -21.093  1.00  0.00     0.276 HD
ATOM     10  H22 UNL     1       2.370 -16.422 -19.801  1.00  0.00     0.276 HD
ATOM     11  H21 UNL     1       1.454 -15.035 -19.640  1.00  0.00     0.276 HD
ENDBRANCH   7   8
BRANCH   1  12
HETATM   12  C3  UNL     1       2.497 -13.944 -22.565  1.00  0.00     0.301 C 
BRANCH  12  13
HETATM   13  C2  UNL     1       1.889 -12.789 -21.903  1.00  0.00    -0.007 C 
HETATM   14  C1  UNL     1       0.634 -12.434 -21.888  1.00  0.00     0.008 C 
ENDBRANCH  12  13
ENDBRANCH   1  12
TORSDOF 3
ENDMDL
MODEL 5
REMARK VINA RESULT: -3.489932198      1.500      4.611
REMARK  3 active torsions:
REMARK  status: ('A' for Active; 'I' for Inactive)
REMARK    1  A    between atoms: C2_2  and  C3_3 
REMARK    2  A    between atoms: C3_3  and  N1_4 
REMARK    3  A    between atoms: C9_10  and  N2_11 
ROOT
HETATM    1  N1  UNL     1       3.635 -13.465 -21.020  1.00  0.00     0.122 N 
HETATM    2  C4  UNL     1       3.299 -14.905 -20.886  1.00  0.00     0.275 C 
HETATM    3  C5  UNL     1       4.294 -15.547 -19.943  1.00  0.00     0.030 C 
HETATM    4  C6  UNL     1       5.679 -15.625 -20.544  1.00  0.00     0.002 C 
HETATM    5  C7  UNL     1       6.140 -14.343 -21.162  1.00  0.00     0.004 C 
HETATM    6  C8  UNL     1       5.497 -14.047 -22.495  1.00  0.00     0.065 C 
HETATM    7  C9  UNL     1       4.166 -13.379 -22.372  1.00  0.00     0.417 C 
ENDROOT
BRANCH   7   8
HETATM    8  N2  UNL     1       4.210 -12.081 -22.939  1.00  0.00    -0.048 N 
ATOM      9  H23 UNL     1       3.339 -11.888 -23.434  1.00  0.00     0.276 HD
ATOM     10  H22 UNL     1       4.160 -11.378 -22.201  1.00  0.00     0.276 HD
ATOM     11  H21 UNL     1       5.005 -11.888 -23.548  1.00  0.00     0.276 HD
ENDBRANCH   7   8
BRANCH   1  12
HETATM   12  C3  UNL     1       2.368 -12.765 -20.873  1.00  0.00     0.301 C 
BRANCH  12  13
HETATM   13  C2  UNL     1       1.406 -13.010 -21.949  1.00  0.00    -0.007 C 
HETATM   14  C1  UNL     1       0.249 -12.439 -22.144  1.00  0.00     0.008 C 
ENDBRANCH  12  13
ENDBRANCH   1  12
TORSDOF 3
ENDMDL
