MODEL 1
REMARK VINA RESULT: -6.278546541      0.000      0.000
REMARK  2 active torsions:
REMARK  status: ('A' for Active; 'I' for Inactive)
REMARK    1  A    between atoms: N1_1  and  C1_4 
REMARK    2  A    between atoms: N5_16  and  N6_18 
ROOT
HETATM    1  C1  UNL     1      58.820  -6.017  19.457  1.00  0.00     0.149 C 
HETATM    2  N2  UNL     1      58.359  -5.597  20.663  1.00  0.00    -0.292 N 
ATOM      3  H2  UNL     1      58.441  -6.264  21.430  1.00  0.00     0.172 HD
HETATM    4  C2  UNL     1      57.808  -4.416  20.971  1.00  0.00     0.329 C 
HETATM    5  O1  UNL     1      57.359  -4.238  22.126  1.00  0.00    -0.246 OA
HETATM    6  N3  UNL     1      57.655  -3.328  20.183  1.00  0.00    -0.260 N 
ATOM      7  H3  UNL     1      57.350  -2.480  20.661  1.00  0.00     0.175 HD
HETATM    8  C3  UNL     1      57.848  -3.206  18.851  1.00  0.00     0.329 C 
HETATM    9  O2  UNL     1      57.374  -2.180  18.299  1.00  0.00    -0.246 OA
HETATM   10  N4  UNL     1      58.493  -4.062  18.046  1.00  0.00    -0.290 N 
ATOM     11  H4  UNL     1      58.694  -3.699  17.114  1.00  0.00     0.172 HD
HETATM   12  C4  UNL     1      58.926  -5.332  18.264  1.00  0.00     0.168 C 
HETATM   13  N5  UNL     1      59.479  -5.974  17.317  1.00  0.00    -0.289 N 
ATOM     14  H5  UNL     1      59.787  -6.924  17.525  1.00  0.00     0.188 HD
ENDROOT
BRANCH   1  15
HETATM   15  N1  UNL     1      59.204  -7.238  19.471  1.00  0.00    -0.382 N 
ATOM     16  H12 UNL     1      59.898  -7.519  18.778  1.00  0.00     0.157 HD
ATOM     17  H11 UNL     1      58.748  -7.788  20.199  1.00  0.00     0.157 HD
ENDBRANCH   1  15
BRANCH  13  18
HETATM   18  N6  UNL     1      59.702  -5.516  16.040  1.00  0.00    -0.344 N 
ATOM     19  H62 UNL     1      60.020  -6.216  15.370  1.00  0.00     0.176 HD
ATOM     20  H61 UNL     1      59.581  -4.560  15.708  1.00  0.00     0.176 HD
ENDBRANCH  13  18
TORSDOF 2
ENDMDL
MODEL 2
REMARK VINA RESULT: -6.127682967      1.492      2.906
REMARK  2 active torsions:
REMARK  status: ('A' for Active; 'I' for Inactive)
REMARK    1  A    between atoms: N1_1  and  C1_4 
REMARK    2  A    between atoms: N5_16  and  N6_18 
ROOT
HETATM    1  C1  UNL     1      58.459  -5.293  20.063  1.00  0.00     0.149 C 
HETATM    2  N2  UNL     1      58.035  -4.031  19.799  1.00  0.00    -0.292 N 
ATOM      3  H2  UNL     1      57.708  -3.492  20.601  1.00  0.00     0.172 HD
HETATM    4  C2  UNL     1      57.991  -3.406  18.616  1.00  0.00     0.329 C 
HETATM    5  O1  UNL     1      57.483  -2.263  18.552  1.00  0.00    -0.246 OA
HETATM    6  N3  UNL     1      58.435  -3.842  17.416  1.00  0.00    -0.260 N 
ATOM      7  H3  UNL     1      58.444  -3.144  16.671  1.00  0.00     0.175 HD
HETATM    8  C3  UNL     1      58.867  -5.073  17.063  1.00  0.00     0.329 C 
HETATM    9  O2  UNL     1      58.962  -5.312  15.832  1.00  0.00    -0.246 OA
HETATM   10  N4  UNL     1      59.211  -6.075  17.885  1.00  0.00    -0.290 N 
ATOM     11  H4  UNL     1      59.688  -6.853  17.429  1.00  0.00     0.172 HD
HETATM   12  C4  UNL     1      59.029  -6.229  19.224  1.00  0.00     0.168 C 
HETATM   13  N5  UNL     1      59.401  -7.306  19.784  1.00  0.00    -0.289 N 
ATOM     14  H5  UNL     1      59.245  -7.378  20.790  1.00  0.00     0.188 HD
ENDROOT
BRANCH   1  15
HETATM   15  N1  UNL     1      58.287  -5.629  21.287  1.00  0.00    -0.382 N 
ATOM     16  H12 UNL     1      58.345  -4.890  21.988  1.00  0.00     0.157 HD
ATOM     17  H11 UNL     1      58.108  -6.626  21.402  1.00  0.00     0.157 HD
ENDBRANCH   1  15
BRANCH  13  18
HETATM   18  N6  UNL     1      59.994  -8.385  19.171  1.00  0.00    -0.344 N 
ATOM     19  H62 UNL     1      59.914  -9.273  19.666  1.00  0.00     0.176 HD
ATOM     20  H61 UNL     1      60.496  -8.378  18.283  1.00  0.00     0.176 HD
ENDBRANCH  13  18
TORSDOF 2
ENDMDL
MODEL 3
REMARK VINA RESULT: -5.984054295      1.524      3.494
REMARK  2 active torsions:
REMARK  status: ('A' for Active; 'I' for Inactive)
REMARK    1  A    between atoms: N1_1  and  C1_4 
REMARK    2  A    between atoms: N5_16  and  N6_18 
ROOT
HETATM    1  C1  UNL     1      58.963  -6.081  19.402  1.00  0.00     0.149 C 
HETATM    2  N2  UNL     1      59.153  -6.074  18.058  1.00  0.00    -0.292 N 
ATOM      3  H2  UNL     1      59.573  -6.916  17.662  1.00  0.00     0.172 HD
HETATM    4  C2  UNL     1      58.859  -5.101  17.187  1.00  0.00     0.329 C 
HETATM    5  O1  UNL     1      59.189  -5.240  15.987  1.00  0.00    -0.246 OA
HETATM    6  N3  UNL     1      58.228  -3.928  17.418  1.00  0.00    -0.260 N 
ATOM      7  H3  UNL     1      57.968  -3.399  16.585  1.00  0.00     0.175 HD
HETATM    8  C3  UNL     1      57.893  -3.357  18.596  1.00  0.00     0.329 C 
HETATM    9  O2  UNL     1      57.567  -2.143  18.568  1.00  0.00    -0.246 OA
HETATM   10  N4  UNL     1      57.868  -3.945  19.801  1.00  0.00    -0.290 N 
ATOM     11  H4  UNL     1      57.408  -3.400  20.530  1.00  0.00     0.172 HD
HETATM   12  C4  UNL     1      58.352  -5.147  20.213  1.00  0.00     0.168 C 
HETATM   13  N5  UNL     1      58.252  -5.473  21.437  1.00  0.00    -0.289 N 
ATOM     14  H5  UNL     1      58.630  -6.383  21.702  1.00  0.00     0.188 HD
ENDROOT
BRANCH   1  15
HETATM   15  N1  UNL     1      59.437  -7.129  19.965  1.00  0.00    -0.382 N 
ATOM     16  H12 UNL     1      59.121  -8.033  19.614  1.00  0.00     0.157 HD
ATOM     17  H11 UNL     1      60.092  -6.911  20.717  1.00  0.00     0.157 HD
ENDBRANCH   1  15
BRANCH  13  18
HETATM   18  N6  UNL     1      57.687  -4.721  22.440  1.00  0.00    -0.344 N 
ATOM     19  H62 UNL     1      56.976  -4.052  22.144  1.00  0.00     0.176 HD
ATOM     20  H61 UNL     1      57.908  -4.771  23.434  1.00  0.00     0.176 HD
ENDBRANCH  13  18
TORSDOF 2
ENDMDL
MODEL 4
REMARK VINA RESULT: -5.971295018      2.545      3.717
REMARK  2 active torsions:
REMARK  status: ('A' for Active; 'I' for Inactive)
REMARK    1  A    between atoms: N1_1  and  C1_4 
REMARK    2  A    between atoms: N5_16  and  N6_18 
ROOT
HETATM    1  C1  UNL     1      58.881  -5.923  20.080  1.00  0.00     0.149 C 
HETATM    2  N2  UNL     1      59.298  -7.173  19.752  1.00  0.00    -0.292 N 
ATOM      3  H2  UNL     1      59.458  -7.810  20.532  1.00  0.00     0.172 HD
HETATM    4  C2  UNL     1      59.527  -7.672  18.531  1.00  0.00     0.329 C 
HETATM    5  O1  UNL     1      59.996  -8.829  18.426  1.00  0.00    -0.246 OA
HETATM    6  N3  UNL     1      59.320  -7.087  17.330  1.00  0.00    -0.260 N 
ATOM      7  H3  UNL     1      59.416  -7.701  16.520  1.00  0.00     0.175 HD
HETATM    8  C3  UNL     1      59.002  -5.804  17.050  1.00  0.00     0.329 C 
HETATM    9  O2  UNL     1      59.136  -5.431  15.856  1.00  0.00    -0.246 OA
HETATM   10  N4  UNL     1      58.556  -4.876  17.908  1.00  0.00    -0.290 N 
ATOM     11  H4  UNL     1      58.196  -4.029  17.469  1.00  0.00     0.172 HD
HETATM   12  C4  UNL     1      58.504  -4.874  19.267  1.00  0.00     0.168 C 
HETATM   13  N5  UNL     1      58.078  -3.842  19.874  1.00  0.00    -0.289 N 
ATOM     14  H5  UNL     1      58.057  -3.886  20.893  1.00  0.00     0.188 HD
ENDROOT
BRANCH   1  15
HETATM   15  N1  UNL     1      58.846  -5.728  21.346  1.00  0.00    -0.382 N 
ATOM     16  H12 UNL     1      57.947  -5.845  21.813  1.00  0.00     0.157 HD
ATOM     17  H11 UNL     1      59.756  -5.474  21.731  1.00  0.00     0.157 HD
ENDBRANCH   1  15
BRANCH  13  18
HETATM   18  N6  UNL     1      57.644  -2.673  19.294  1.00  0.00    -0.344 N 
ATOM     19  H62 UNL     1      57.871  -1.819  19.802  1.00  0.00     0.176 HD
ATOM     20  H61 UNL     1      57.127  -2.585  18.420  1.00  0.00     0.176 HD
ENDBRANCH  13  18
TORSDOF 2
ENDMDL
MODEL 5
REMARK VINA RESULT: -5.942075694      0.825      2.980
REMARK  2 active torsions:
REMARK  status: ('A' for Active; 'I' for Inactive)
REMARK    1  A    between atoms: N1_1  and  C1_4 
REMARK    2  A    between atoms: N5_16  and  N6_18 
ROOT
HETATM    1  C1  UNL     1      58.522  -4.703  18.323  1.00  0.00     0.149 C 
HETATM    2  N2  UNL     1      57.950  -3.473  18.374  1.00  0.00    -0.292 N 
ATOM      3  H2  UNL     1      57.921  -2.957  17.494  1.00  0.00     0.172 HD
HETATM    4  C2  UNL     1      57.420  -2.853  19.434  1.00  0.00     0.329 C 
HETATM    5  O1  UNL     1      57.014  -1.675  19.309  1.00  0.00    -0.246 OA
HETATM    6  N3  UNL     1      57.248  -3.328  20.689  1.00  0.00    -0.260 N 
ATOM      7  H3  UNL     1      56.682  -2.744  21.305  1.00  0.00     0.175 HD
HETATM    8  C3  UNL     1      57.719  -4.468  21.240  1.00  0.00     0.329 C 
HETATM    9  O2  UNL     1      57.665  -4.559  22.493  1.00  0.00    -0.246 OA
HETATM   10  N4  UNL     1      58.242  -5.522  20.597  1.00  0.00    -0.290 N 
ATOM     11  H4  UNL     1      58.363  -6.354  21.173  1.00  0.00     0.172 HD
HETATM   12  C4  UNL     1      58.637  -5.667  19.304  1.00  0.00     0.168 C 
HETATM   13  N5  UNL     1      59.157  -6.764  18.930  1.00  0.00    -0.289 N 
ATOM     14  H5  UNL     1      59.439  -6.828  17.951  1.00  0.00     0.188 HD
ENDROOT
BRANCH   1  15
HETATM   15  N1  UNL     1      59.020  -4.972  17.173  1.00  0.00    -0.382 N 
ATOM     16  H12 UNL     1      58.677  -5.808  16.699  1.00  0.00     0.157 HD
ATOM     17  H11 UNL     1      59.717  -4.290  16.875  1.00  0.00     0.157 HD
ENDBRANCH   1  15
BRANCH  13  18
HETATM   18  N6  UNL     1      59.379  -7.873  19.712  1.00  0.00    -0.344 N 
ATOM     19  H62 UNL     1      59.536  -8.745  19.207  1.00  0.00     0.176 HD
ATOM     20  H61 UNL     1      59.401  -7.902  20.731  1.00  0.00     0.176 HD
ENDBRANCH  13  18
TORSDOF 2
ENDMDL
