MODEL 1
REMARK VINA RESULT: -6.702898955      0.000      0.000
REMARK  1 active torsions:
REMARK  status: ('A' for Active; 'I' for Inactive)
REMARK    1  A    between atoms: N3_4  and  C2_6 
ROOT
HETATM    1  C2  UNL     1      58.303  -4.564  18.505  1.00  0.00     0.192 A 
HETATM    2  N4  UNL     1      59.192  -5.049  19.390  1.00  0.00    -0.277 N 
ATOM      3  H4  UNL     1      59.496  -4.454  20.160  1.00  0.00     0.189 HD
HETATM    4  N5  UNL     1      59.686  -6.275  19.296  1.00  0.00    -0.250 N 
ATOM      5  H5  UNL     1      60.358  -6.600  19.991  1.00  0.00     0.192 HD
HETATM    6  C3  UNL     1      59.312  -7.109  18.287  1.00  0.00     0.341 A 
HETATM    7  O1  UNL     1      59.816  -8.261  18.251  1.00  0.00    -0.245 OA
HETATM    8  N6  UNL     1      58.426  -6.659  17.381  1.00  0.00    -0.271 N 
ATOM      9  H6  UNL     1      58.131  -7.265  16.615  1.00  0.00     0.174 HD
HETATM   10  C4  UNL     1      57.923  -5.406  17.481  1.00  0.00     0.295 A 
HETATM   11  O2  UNL     1      57.106  -5.032  16.623  1.00  0.00    -0.264 OA
ENDROOT
BRANCH   1  12
HETATM   12  N3  UNL     1      57.750  -3.260  18.568  1.00  0.00    -0.313 N 
HETATM   13  C1  UNL     1      57.298  -2.729  19.641  1.00  0.00     0.202 C 
HETATM   14  N1  UNL     1      57.277  -3.345  20.921  1.00  0.00    -0.066 NA
HETATM   15  N2  UNL     1      56.771  -1.411  19.552  1.00  0.00    -0.066 NA
ATOM     16  H3  UNL     1      57.708  -2.714  17.707  1.00  0.00     0.170 HD
ENDBRANCH   1  12
TORSDOF 1
ENDMDL
MODEL 2
REMARK VINA RESULT: -6.673738211      1.765      2.243
REMARK  1 active torsions:
REMARK  status: ('A' for Active; 'I' for Inactive)
REMARK    1  A    between atoms: N3_4  and  C2_6 
ROOT
HETATM    1  C2  UNL     1      58.536  -4.806  18.778  1.00  0.00     0.192 A 
HETATM    2  N4  UNL     1      58.626  -4.684  17.442  1.00  0.00    -0.277 N 
ATOM      3  H4  UNL     1      58.160  -3.900  16.986  1.00  0.00     0.189 HD
HETATM    4  N5  UNL     1      59.299  -5.549  16.698  1.00  0.00    -0.250 N 
ATOM      5  H5  UNL     1      59.339  -5.416  15.687  1.00  0.00     0.192 HD
HETATM    6  C3  UNL     1      59.938  -6.612  17.258  1.00  0.00     0.341 A 
HETATM    7  O1  UNL     1      60.561  -7.399  16.498  1.00  0.00    -0.245 OA
HETATM    8  N6  UNL     1      59.871  -6.768  18.591  1.00  0.00    -0.271 N 
ATOM      9  H6  UNL     1      60.340  -7.558  19.035  1.00  0.00     0.174 HD
HETATM   10  C4  UNL     1      59.182  -5.882  19.349  1.00  0.00     0.295 A 
HETATM   11  O2  UNL     1      59.147  -6.064  20.578  1.00  0.00    -0.264 OA
ENDROOT
BRANCH   1  12
HETATM   12  N3  UNL     1      57.827  -3.905  19.613  1.00  0.00    -0.313 N 
HETATM   13  C1  UNL     1      57.450  -2.740  19.244  1.00  0.00     0.202 C 
HETATM   14  N1  UNL     1      57.673  -2.166  17.963  1.00  0.00    -0.066 NA
HETATM   15  N2  UNL     1      56.746  -1.944  20.190  1.00  0.00    -0.066 NA
ATOM     16  H3  UNL     1      57.606  -4.203  20.563  1.00  0.00     0.170 HD
ENDBRANCH   1  12
TORSDOF 1
ENDMDL
MODEL 3
REMARK VINA RESULT: -6.435411001      2.498      4.274
REMARK  1 active torsions:
REMARK  status: ('A' for Active; 'I' for Inactive)
REMARK    1  A    between atoms: N3_4  and  C2_6 
ROOT
HETATM    1  C2  UNL     1      58.190  -4.341  19.117  1.00  0.00     0.192 A 
HETATM    2  N4  UNL     1      58.153  -5.091  20.233  1.00  0.00    -0.277 N 
ATOM      3  H4  UNL     1      58.580  -6.017  20.219  1.00  0.00     0.189 HD
HETATM    4  N5  UNL     1      57.581  -4.667  21.350  1.00  0.00    -0.250 N 
ATOM      5  H5  UNL     1      57.577  -5.271  22.172  1.00  0.00     0.192 HD
HETATM    6  C3  UNL     1      56.998  -3.438  21.420  1.00  0.00     0.341 A 
HETATM    7  O1  UNL     1      56.472  -3.092  22.509  1.00  0.00    -0.245 OA
HETATM    8  N6  UNL     1      57.014  -2.660  20.324  1.00  0.00    -0.271 N 
ATOM      9  H6  UNL     1      56.583  -1.736  20.351  1.00  0.00     0.174 HD
HETATM   10  C4  UNL     1      57.600  -3.097  19.184  1.00  0.00     0.295 A 
HETATM   11  O2  UNL     1      57.592  -2.344  18.196  1.00  0.00    -0.264 OA
ENDROOT
BRANCH   1  12
HETATM   12  N3  UNL     1      58.790  -4.755  17.901  1.00  0.00    -0.313 N 
HETATM   13  C1  UNL     1      58.142  -5.274  16.927  1.00  0.00     0.202 C 
HETATM   14  N1  UNL     1      56.743  -5.517  16.902  1.00  0.00    -0.066 NA
HETATM   15  N2  UNL     1      58.879  -5.641  15.767  1.00  0.00    -0.066 NA
ATOM     16  H3  UNL     1      59.797  -4.633  17.797  1.00  0.00     0.170 HD
ENDBRANCH   1  12
TORSDOF 1
ENDMDL
MODEL 4
REMARK VINA RESULT: -6.183725027      2.124      2.710
REMARK  1 active torsions:
REMARK  status: ('A' for Active; 'I' for Inactive)
REMARK    1  A    between atoms: N3_4  and  C2_6 
ROOT
HETATM    1  C2  UNL     1      59.014  -5.603  19.311  1.00  0.00     0.192 A 
HETATM    2  N4  UNL     1      59.554  -6.311  18.303  1.00  0.00    -0.277 N 
ATOM      3  H4  UNL     1      59.695  -5.857  17.401  1.00  0.00     0.189 HD
HETATM    4  N5  UNL     1      59.908  -7.580  18.443  1.00  0.00    -0.250 N 
ATOM      5  H5  UNL     1      60.314  -8.077  17.650  1.00  0.00     0.192 HD
HETATM    6  C3  UNL     1      59.741  -8.232  19.626  1.00  0.00     0.341 A 
HETATM    7  O1  UNL     1      60.098  -9.436  19.696  1.00  0.00    -0.245 OA
HETATM    8  N6  UNL     1      59.204  -7.557  20.657  1.00  0.00    -0.271 N 
ATOM      9  H6  UNL     1      59.067  -8.024  21.554  1.00  0.00     0.174 HD
HETATM   10  C4  UNL     1      58.843  -6.260  20.511  1.00  0.00     0.295 A 
HETATM   11  O2  UNL     1      58.351  -5.675  21.490  1.00  0.00    -0.264 OA
ENDROOT
BRANCH   1  12
HETATM   12  N3  UNL     1      58.620  -4.244  19.206  1.00  0.00    -0.313 N 
HETATM   13  C1  UNL     1      57.961  -3.769  18.218  1.00  0.00     0.202 C 
HETATM   14  N1  UNL     1      57.523  -4.506  17.085  1.00  0.00    -0.066 NA
HETATM   15  N2  UNL     1      57.635  -2.384  18.249  1.00  0.00    -0.066 NA
ATOM     16  H3  UNL     1      58.877  -3.610  19.962  1.00  0.00     0.170 HD
ENDBRANCH   1  12
TORSDOF 1
ENDMDL
MODEL 5
REMARK VINA RESULT: -6.161997065      2.179      4.911
REMARK  1 active torsions:
REMARK  status: ('A' for Active; 'I' for Inactive)
REMARK    1  A    between atoms: N3_4  and  C2_6 
ROOT
HETATM    1  C2  UNL     1      58.983  -6.033  18.723  1.00  0.00     0.192 A 
HETATM    2  N4  UNL     1      58.905  -5.517  17.484  1.00  0.00    -0.277 N 
ATOM      3  H4  UNL     1      59.185  -6.094  16.691  1.00  0.00     0.189 HD
HETATM    4  N5  UNL     1      58.475  -4.285  17.258  1.00  0.00    -0.250 N 
ATOM      5  H5  UNL     1      58.433  -3.936  16.300  1.00  0.00     0.192 HD
HETATM    6  C3  UNL     1      58.088  -3.475  18.282  1.00  0.00     0.341 A 
HETATM    7  O1  UNL     1      57.690  -2.315  18.003  1.00  0.00    -0.245 OA
HETATM    8  N6  UNL     1      58.154  -3.955  19.536  1.00  0.00    -0.271 N 
ATOM      9  H6  UNL     1      57.871  -3.367  20.320  1.00  0.00     0.174 HD
HETATM   10  C4  UNL     1      58.593  -5.216  19.763  1.00  0.00     0.295 A 
HETATM   11  O2  UNL     1      58.635  -5.619  20.937  1.00  0.00    -0.264 OA
ENDROOT
BRANCH   1  12
HETATM   12  N3  UNL     1      59.436  -7.346  19.011  1.00  0.00    -0.313 N 
HETATM   13  C1  UNL     1      60.392  -7.922  18.384  1.00  0.00     0.202 C 
HETATM   14  N1  UNL     1      61.141  -7.356  17.319  1.00  0.00    -0.066 NA
HETATM   15  N2  UNL     1      60.738  -9.243  18.783  1.00  0.00    -0.066 NA
ATOM     16  H3  UNL     1      58.974  -7.860  19.760  1.00  0.00     0.170 HD
ENDBRANCH   1  12
TORSDOF 1
ENDMDL
