MODEL 1
REMARK VINA RESULT: -11.139103222      0.000      0.000
REMARK  14 active torsions:
REMARK  status: ('A' for Active; 'I' for Inactive)
REMARK    1  A    between atoms: C2_8  and  S1_9 
REMARK    2  A    between atoms: S1_9  and  C3_10 
REMARK    3  A    between atoms: C3_10  and  C4_11 
REMARK       I    between atoms: C4_11  and  N5_13 
REMARK    4  A    between atoms: N5_13  and  C5_15 
REMARK    5  A    between atoms: C9_19  and  C10_20 
REMARK       I    between atoms: C10_20  and  N6_22 
REMARK    6  A    between atoms: N6_22  and  S2_24 
REMARK    7  A    between atoms: S2_24  and  N7_27 
REMARK    8  A    between atoms: N7_27  and  C11_29 
REMARK    9  A    between atoms: C11_29  and  C12_30 
REMARK   10  A    between atoms: C11_29  and  C13_33 
REMARK   11  A    between atoms: C15_35  and  O7_36 
REMARK   12  A    between atoms: C16_38  and  O8_39 
REMARK   13  A    between atoms: C17_41  and  C18_42 
REMARK   14  A    between atoms: C18_42  and  O9_43 
ROOT
HETATM    1  C10 UNL     1      53.752  19.033  18.831  1.00  0.00     0.266 C 
HETATM    2  O2  UNL     1      54.074  18.655  19.982  1.00  0.00    -0.267 OA
HETATM    3  N6  UNL     1      54.538  20.048  18.218  1.00  0.00    -0.233 N 
ATOM      4  H6  UNL     1      54.275  20.357  17.282  1.00  0.00     0.183 HD
ENDROOT
BRANCH   3   5
HETATM    5  S2  UNL     1      55.901  20.784  18.955  1.00  0.00     0.322 S 
HETATM    6  O3  UNL     1      56.940  21.048  17.881  1.00  0.00    -0.182 OA
HETATM    7  O4  UNL     1      56.479  19.922  20.006  1.00  0.00    -0.182 OA
BRANCH   5   8
HETATM    8  N7  UNL     1      55.413  22.324  19.559  1.00  0.00    -0.283 N 
ATOM      9  H7  UNL     1      55.306  23.156  18.980  1.00  0.00     0.175 HD
BRANCH   8  10
HETATM   10  C11 UNL     1      55.172  22.295  20.994  1.00  0.00     0.228 C 
BRANCH  10  11
HETATM   11  C12 UNL     1      56.377  22.798  21.708  1.00  0.00     0.202 C 
HETATM   12  O5  UNL     1      57.453  22.918  21.037  1.00  0.00    -0.646 OA
HETATM   13  O6  UNL     1      56.425  23.142  23.040  1.00  0.00    -0.646 OA
ENDBRANCH  10  11
BRANCH  10  14
HETATM   14  C13 UNL     1      53.994  23.165  21.289  1.00  0.00    -0.021 A 
HETATM   15  C14 UNL     1      53.295  23.038  22.466  1.00  0.00     0.049 A 
HETATM   16  C15 UNL     1      52.202  23.818  22.769  1.00  0.00     0.100 A 
HETATM   17  C16 UNL     1      51.787  24.769  21.855  1.00  0.00     0.107 A 
HETATM   18  C17 UNL     1      52.487  24.900  20.672  1.00  0.00     0.002 A 
HETATM   19  C19 UNL     1      53.578  24.113  20.379  1.00  0.00     0.022 A 
BRANCH  16  20
HETATM   20  O7  UNL     1      51.545  23.631  23.976  1.00  0.00    -0.358 OA
ATOM     21  H7  UNL     1      50.600  23.541  23.984  1.00  0.00     0.217 HD
ENDBRANCH  16  20
BRANCH  17  22
HETATM   22  O8  UNL     1      50.689  25.570  22.129  1.00  0.00    -0.357 OA
ATOM     23  H8  UNL     1      49.945  25.218  22.603  1.00  0.00     0.217 HD
ENDBRANCH  17  22
BRANCH  18  24
HETATM   24  C18 UNL     1      52.005  25.951  19.708  1.00  0.00     0.205 C 
BRANCH  24  25
HETATM   25  O9  UNL     1      53.067  26.332  18.900  1.00  0.00    -0.396 OA
ATOM     26  H9  UNL     1      52.910  27.216  18.590  1.00  0.00     0.209 HD
ENDBRANCH  24  25
ENDBRANCH  18  24
ENDBRANCH  10  14
ENDBRANCH   8  10
ENDBRANCH   5   8
ENDBRANCH   3   5
BRANCH   1  27
HETATM   27  C9  UNL     1      52.607  18.448  18.136  1.00  0.00     0.035 A 
HETATM   28  C8  UNL     1      52.426  18.581  16.789  1.00  0.00     0.017 A 
HETATM   29  C7  UNL     1      51.378  18.019  16.100  1.00  0.00     0.003 A 
HETATM   30  C6  UNL     1      50.458  17.277  16.836  1.00  0.00     0.029 A 
HETATM   31  C5  UNL     1      50.582  17.105  18.192  1.00  0.00     0.035 A 
HETATM   32  C20 UNL     1      51.659  17.697  18.821  1.00  0.00     0.046 A 
BRANCH  31  33
HETATM   33  N5  UNL     1      49.710  16.316  18.970  1.00  0.00    -0.327 N 
HETATM   34  C4  UNL     1      49.127  16.795  20.162  1.00  0.00     0.231 C 
HETATM   35  O1  UNL     1      49.320  17.967  20.638  1.00  0.00    -0.272 OA
ATOM     36  H5  UNL     1      49.493  15.368  18.660  1.00  0.00     0.169 HD
BRANCH  34  37
HETATM   37  C3  UNL     1      48.223  15.925  20.956  1.00  0.00     0.185 C 
BRANCH  37  38
HETATM   38  S1  UNL     1      48.221  16.588  22.663  1.00  0.00    -0.082 SA
BRANCH  38  39
HETATM   39  C2  UNL     1      47.276  15.496  23.719  1.00  0.00     0.175 A 
HETATM   40  N1  UNL     1      47.518  14.181  23.855  1.00  0.00    -0.257 N 
HETATM   41  C1  UNL     1      48.527  13.395  23.197  1.00  0.00     0.177 C 
HETATM   42  N2  UNL     1      46.629  13.709  24.729  1.00  0.00    -0.003 NA
HETATM   43  N3  UNL     1      45.825  14.687  25.148  1.00  0.00    -0.224 N 
HETATM   44  N4  UNL     1      46.242  15.768  24.516  1.00  0.00    -0.266 N 
ATOM     45  H3  UNL     1      45.055  14.615  25.813  1.00  0.00     0.205 HD
ATOM     46  H4  UNL     1      45.826  16.693  24.623  1.00  0.00     0.190 HD
ENDBRANCH  38  39
ENDBRANCH  37  38
ENDBRANCH  34  37
ENDBRANCH  31  33
ENDBRANCH   1  27
TORSDOF 14
ENDMDL
MODEL 2
REMARK VINA RESULT: -11.124130720      0.562      1.669
REMARK  14 active torsions:
REMARK  status: ('A' for Active; 'I' for Inactive)
REMARK    1  A    between atoms: C2_8  and  S1_9 
REMARK    2  A    between atoms: S1_9  and  C3_10 
REMARK    3  A    between atoms: C3_10  and  C4_11 
REMARK       I    between atoms: C4_11  and  N5_13 
REMARK    4  A    between atoms: N5_13  and  C5_15 
REMARK    5  A    between atoms: C9_19  and  C10_20 
REMARK       I    between atoms: C10_20  and  N6_22 
REMARK    6  A    between atoms: N6_22  and  S2_24 
REMARK    7  A    between atoms: S2_24  and  N7_27 
REMARK    8  A    between atoms: N7_27  and  C11_29 
REMARK    9  A    between atoms: C11_29  and  C12_30 
REMARK   10  A    between atoms: C11_29  and  C13_33 
REMARK   11  A    between atoms: C15_35  and  O7_36 
REMARK   12  A    between atoms: C16_38  and  O8_39 
REMARK   13  A    between atoms: C17_41  and  C18_42 
REMARK   14  A    between atoms: C18_42  and  O9_43 
ROOT
HETATM    1  C10 UNL     1      53.829  18.957  18.733  1.00  0.00     0.266 C 
HETATM    2  O2  UNL     1      54.341  18.389  19.725  1.00  0.00    -0.267 OA
HETATM    3  N6  UNL     1      54.432  20.160  18.268  1.00  0.00    -0.233 N 
ATOM      4  H6  UNL     1      54.014  20.623  17.461  1.00  0.00     0.183 HD
ENDROOT
BRANCH   3   5
HETATM    5  S2  UNL     1      55.818  20.877  18.980  1.00  0.00     0.322 S 
HETATM    6  O3  UNL     1      56.882  21.026  17.909  1.00  0.00    -0.182 OA
HETATM    7  O4  UNL     1      56.342  20.056  20.091  1.00  0.00    -0.182 OA
BRANCH   5   8
HETATM    8  N7  UNL     1      55.394  22.472  19.482  1.00  0.00    -0.283 N 
ATOM      9  H7  UNL     1      55.486  23.299  18.892  1.00  0.00     0.175 HD
BRANCH   8  10
HETATM   10  C11 UNL     1      54.889  22.498  20.846  1.00  0.00     0.228 C 
BRANCH  10  11
HETATM   11  C12 UNL     1      55.989  22.880  21.773  1.00  0.00     0.202 C 
HETATM   12  O5  UNL     1      57.161  22.989  21.285  1.00  0.00    -0.646 OA
HETATM   13  O6  UNL     1      55.845  23.121  23.121  1.00  0.00    -0.646 OA
ENDBRANCH  10  11
BRANCH  10  14
HETATM   14  C13 UNL     1      53.781  23.497  20.917  1.00  0.00    -0.021 A 
HETATM   15  C14 UNL     1      53.594  24.422  19.918  1.00  0.00     0.049 A 
HETATM   16  C15 UNL     1      52.588  25.361  19.952  1.00  0.00     0.100 A 
HETATM   17  C16 UNL     1      51.727  25.377  21.034  1.00  0.00     0.107 A 
HETATM   18  C17 UNL     1      51.911  24.448  22.040  1.00  0.00     0.002 A 
HETATM   19  C19 UNL     1      52.923  23.515  21.996  1.00  0.00     0.022 A 
BRANCH  16  20
HETATM   20  O7  UNL     1      52.463  26.264  18.908  1.00  0.00    -0.358 OA
ATOM     21  H7  UNL     1      52.328  27.184  19.100  1.00  0.00     0.217 HD
ENDBRANCH  16  20
BRANCH  17  22
HETATM   22  O8  UNL     1      50.704  26.310  21.101  1.00  0.00    -0.357 OA
ATOM     23  H8  UNL     1      49.875  26.144  20.667  1.00  0.00     0.217 HD
ENDBRANCH  17  22
BRANCH  18  24
HETATM   24  C18 UNL     1      50.949  24.497  23.196  1.00  0.00     0.205 C 
BRANCH  24  25
HETATM   25  O9  UNL     1      50.971  25.774  23.738  1.00  0.00    -0.396 OA
ATOM     26  H9  UNL     1      50.125  26.181  23.592  1.00  0.00     0.209 HD
ENDBRANCH  24  25
ENDBRANCH  18  24
ENDBRANCH  10  14
ENDBRANCH   8  10
ENDBRANCH   5   8
ENDBRANCH   3   5
BRANCH   1  27
HETATM   27  C9  UNL     1      52.652  18.403  18.068  1.00  0.00     0.035 A 
HETATM   28  C8  UNL     1      52.418  18.576  16.734  1.00  0.00     0.017 A 
HETATM   29  C7  UNL     1      51.337  18.043  16.072  1.00  0.00     0.003 A 
HETATM   30  C6  UNL     1      50.440  17.289  16.824  1.00  0.00     0.029 A 
HETATM   31  C5  UNL     1      50.617  17.077  18.168  1.00  0.00     0.035 A 
HETATM   32  C20 UNL     1      51.724  17.642  18.770  1.00  0.00     0.046 A 
BRANCH  31  33
HETATM   33  N5  UNL     1      49.769  16.275  18.958  1.00  0.00    -0.327 N 
HETATM   34  C4  UNL     1      49.157  16.759  20.134  1.00  0.00     0.231 C 
HETATM   35  O1  UNL     1      49.302  17.949  20.583  1.00  0.00    -0.272 OA
ATOM     36  H5  UNL     1      49.591  15.312  18.671  1.00  0.00     0.169 HD
BRANCH  34  37
HETATM   37  C3  UNL     1      48.281  15.875  20.941  1.00  0.00     0.185 C 
BRANCH  37  38
HETATM   38  S1  UNL     1      48.264  16.559  22.640  1.00  0.00    -0.082 SA
BRANCH  38  39
HETATM   39  C2  UNL     1      47.298  15.489  23.699  1.00  0.00     0.175 A 
HETATM   40  N1  UNL     1      47.516  14.170  23.842  1.00  0.00    -0.257 N 
HETATM   41  C1  UNL     1      48.513  13.364  23.191  1.00  0.00     0.177 C 
HETATM   42  N2  UNL     1      46.616  13.719  24.715  1.00  0.00    -0.003 NA
HETATM   43  N3  UNL     1      45.829  14.713  25.128  1.00  0.00    -0.224 N 
HETATM   44  N4  UNL     1      46.266  15.783  24.492  1.00  0.00    -0.266 N 
ATOM     45  H3  UNL     1      45.056  14.658  25.791  1.00  0.00     0.205 HD
ATOM     46  H4  UNL     1      45.866  16.716  24.593  1.00  0.00     0.190 HD
ENDBRANCH  38  39
ENDBRANCH  37  38
ENDBRANCH  34  37
ENDBRANCH  31  33
ENDBRANCH   1  27
TORSDOF 14
ENDMDL
MODEL 3
REMARK VINA RESULT: -10.914972279      0.909      2.119
REMARK  14 active torsions:
REMARK  status: ('A' for Active; 'I' for Inactive)
REMARK    1  A    between atoms: C2_8  and  S1_9 
REMARK    2  A    between atoms: S1_9  and  C3_10 
REMARK    3  A    between atoms: C3_10  and  C4_11 
REMARK       I    between atoms: C4_11  and  N5_13 
REMARK    4  A    between atoms: N5_13  and  C5_15 
REMARK    5  A    between atoms: C9_19  and  C10_20 
REMARK       I    between atoms: C10_20  and  N6_22 
REMARK    6  A    between atoms: N6_22  and  S2_24 
REMARK    7  A    between atoms: S2_24  and  N7_27 
REMARK    8  A    between atoms: N7_27  and  C11_29 
REMARK    9  A    between atoms: C11_29  and  C12_30 
REMARK   10  A    between atoms: C11_29  and  C13_33 
REMARK   11  A    between atoms: C15_35  and  O7_36 
REMARK   12  A    between atoms: C16_38  and  O8_39 
REMARK   13  A    between atoms: C17_41  and  C18_42 
REMARK   14  A    between atoms: C18_42  and  O9_43 
ROOT
HETATM    1  C10 UNL     1      53.656  18.549  18.091  1.00  0.00     0.266 C 
HETATM    2  O2  UNL     1      54.647  17.786  18.173  1.00  0.00    -0.267 OA
HETATM    3  N6  UNL     1      53.840  19.920  18.424  1.00  0.00    -0.233 N 
ATOM      4  H6  UNL     1      53.033  20.541  18.359  1.00  0.00     0.183 HD
ENDROOT
BRANCH   3   5
HETATM    5  S2  UNL     1      55.335  20.594  18.929  1.00  0.00     0.322 S 
HETATM    6  O3  UNL     1      56.292  20.567  17.751  1.00  0.00    -0.182 OA
HETATM    7  O4  UNL     1      55.915  19.839  20.058  1.00  0.00    -0.182 OA
BRANCH   5   8
HETATM    8  N7  UNL     1      55.069  22.254  19.312  1.00  0.00    -0.283 N 
ATOM      9  H7  UNL     1      55.129  23.013  18.633  1.00  0.00     0.175 HD
BRANCH   8  10
HETATM   10  C11 UNL     1      54.749  22.444  20.719  1.00  0.00     0.228 C 
BRANCH  10  11
HETATM   11  C12 UNL     1      55.971  22.878  21.450  1.00  0.00     0.202 C 
HETATM   12  O5  UNL     1      57.029  23.071  20.767  1.00  0.00    -0.646 OA
HETATM   13  O6  UNL     1      56.053  23.085  22.808  1.00  0.00    -0.646 OA
ENDBRANCH  10  11
BRANCH  10  14
HETATM   14  C13 UNL     1      53.686  23.488  20.821  1.00  0.00    -0.021 A 
HETATM   15  C14 UNL     1      53.479  24.392  19.806  1.00  0.00     0.049 A 
HETATM   16  C15 UNL     1      52.512  25.370  19.867  1.00  0.00     0.100 A 
HETATM   17  C16 UNL     1      51.715  25.450  20.994  1.00  0.00     0.107 A 
HETATM   18  C17 UNL     1      51.919  24.543  22.015  1.00  0.00     0.002 A 
HETATM   19  C19 UNL     1      52.890  23.570  21.943  1.00  0.00     0.022 A 
BRANCH  16  20
HETATM   20  O7  UNL     1      52.363  26.249  18.806  1.00  0.00    -0.358 OA
ATOM     21  H7  UNL     1      52.297  25.907  17.922  1.00  0.00     0.217 HD
ENDBRANCH  16  20
BRANCH  17  22
HETATM   22  O8  UNL     1      50.733  26.424  21.089  1.00  0.00    -0.357 OA
ATOM     23  H8  UNL     1      50.120  26.419  21.815  1.00  0.00     0.217 HD
ENDBRANCH  17  22
BRANCH  18  24
HETATM   24  C18 UNL     1      51.025  24.661  23.220  1.00  0.00     0.205 C 
BRANCH  24  25
HETATM   25  O9  UNL     1      51.277  23.591  24.067  1.00  0.00    -0.396 OA
ATOM     26  H9  UNL     1      50.564  23.522  24.690  1.00  0.00     0.209 HD
ENDBRANCH  24  25
ENDBRANCH  18  24
ENDBRANCH  10  14
ENDBRANCH   8  10
ENDBRANCH   5   8
ENDBRANCH   3   5
BRANCH   1  27
HETATM   27  C9  UNL     1      52.352  18.050  17.662  1.00  0.00     0.035 A 
HETATM   28  C8  UNL     1      51.884  18.229  16.392  1.00  0.00     0.017 A 
HETATM   29  C7  UNL     1      50.675  17.747  15.947  1.00  0.00     0.003 A 
HETATM   30  C6  UNL     1      49.898  17.040  16.861  1.00  0.00     0.029 A 
HETATM   31  C5  UNL     1      50.310  16.826  18.152  1.00  0.00     0.035 A 
HETATM   32  C20 UNL     1      51.535  17.338  18.533  1.00  0.00     0.046 A 
BRANCH  31  33
HETATM   33  N5  UNL     1      49.585  16.069  19.096  1.00  0.00    -0.327 N 
HETATM   34  C4  UNL     1      49.099  16.631  20.296  1.00  0.00     0.231 C 
HETATM   35  O1  UNL     1      49.256  17.855  20.633  1.00  0.00    -0.272 OA
ATOM     36  H5  UNL     1      49.406  15.083  18.905  1.00  0.00     0.169 HD
BRANCH  34  37
HETATM   37  C3  UNL     1      48.351  15.793  21.266  1.00  0.00     0.185 C 
BRANCH  37  38
HETATM   38  S1  UNL     1      48.597  16.550  22.915  1.00  0.00    -0.082 SA
BRANCH  38  39
HETATM   39  C2  UNL     1      47.381  15.897  24.053  1.00  0.00     0.175 A 
HETATM   40  N1  UNL     1      46.742  16.632  24.979  1.00  0.00    -0.257 N 
HETATM   41  C1  UNL     1      46.903  18.034  25.261  1.00  0.00     0.177 C 
HETATM   42  N2  UNL     1      45.910  15.813  25.621  1.00  0.00    -0.003 NA
HETATM   43  N3  UNL     1      46.005  14.576  25.131  1.00  0.00    -0.224 N 
HETATM   44  N4  UNL     1      46.911  14.655  24.175  1.00  0.00    -0.266 N 
ATOM     45  H3  UNL     1      45.490  13.749  25.431  1.00  0.00     0.205 HD
ATOM     46  H4  UNL     1      47.213  13.867  23.602  1.00  0.00     0.190 HD
ENDBRANCH  38  39
ENDBRANCH  37  38
ENDBRANCH  34  37
ENDBRANCH  31  33
ENDBRANCH   1  27
TORSDOF 14
ENDMDL
MODEL 4
REMARK VINA RESULT: -10.149664278      3.046      4.507
REMARK  14 active torsions:
REMARK  status: ('A' for Active; 'I' for Inactive)
REMARK    1  A    between atoms: C2_8  and  S1_9 
REMARK    2  A    between atoms: S1_9  and  C3_10 
REMARK    3  A    between atoms: C3_10  and  C4_11 
REMARK       I    between atoms: C4_11  and  N5_13 
REMARK    4  A    between atoms: N5_13  and  C5_15 
REMARK    5  A    between atoms: C9_19  and  C10_20 
REMARK       I    between atoms: C10_20  and  N6_22 
REMARK    6  A    between atoms: N6_22  and  S2_24 
REMARK    7  A    between atoms: S2_24  and  N7_27 
REMARK    8  A    between atoms: N7_27  and  C11_29 
REMARK    9  A    between atoms: C11_29  and  C12_30 
REMARK   10  A    between atoms: C11_29  and  C13_33 
REMARK   11  A    between atoms: C15_35  and  O7_36 
REMARK   12  A    between atoms: C16_38  and  O8_39 
REMARK   13  A    between atoms: C17_41  and  C18_42 
REMARK   14  A    between atoms: C18_42  and  O9_43 
ROOT
HETATM    1  C10 UNL     1      53.569  19.273  18.690  1.00  0.00     0.266 C 
HETATM    2  O2  UNL     1      54.542  18.657  19.185  1.00  0.00    -0.267 OA
HETATM    3  N6  UNL     1      53.557  20.693  18.792  1.00  0.00    -0.233 N 
ATOM      4  H6  UNL     1      52.764  21.194  18.391  1.00  0.00     0.183 HD
ENDROOT
BRANCH   3   5
HETATM    5  S2  UNL     1      54.793  21.612  19.546  1.00  0.00     0.322 S 
HETATM    6  O3  UNL     1      54.880  21.191  21.001  1.00  0.00    -0.182 OA
HETATM    7  O4  UNL     1      54.517  23.061  19.463  1.00  0.00    -0.182 OA
BRANCH   5   8
HETATM    8  N7  UNL     1      56.296  21.184  18.817  1.00  0.00    -0.283 N 
ATOM      9  H7  UNL     1      56.775  20.297  18.976  1.00  0.00     0.175 HD
BRANCH   8  10
HETATM   10  C11 UNL     1      56.801  22.237  17.949  1.00  0.00     0.228 C 
BRANCH  10  11
HETATM   11  C12 UNL     1      58.280  22.120  17.837  1.00  0.00     0.202 C 
HETATM   12  O5  UNL     1      58.959  23.198  17.846  1.00  0.00    -0.646 OA
HETATM   13  O6  UNL     1      58.977  20.939  17.718  1.00  0.00    -0.646 OA
ENDBRANCH  10  11
BRANCH  10  14
HETATM   14  C13 UNL     1      56.165  22.081  16.606  1.00  0.00    -0.021 A 
HETATM   15  C14 UNL     1      55.827  20.841  16.119  1.00  0.00     0.049 A 
HETATM   16  C15 UNL     1      55.245  20.660  14.885  1.00  0.00     0.100 A 
HETATM   17  C16 UNL     1      54.988  21.768  14.100  1.00  0.00     0.107 A 
HETATM   18  C17 UNL     1      55.324  23.017  14.586  1.00  0.00     0.002 A 
HETATM   19  C19 UNL     1      55.908  23.185  15.821  1.00  0.00     0.022 A 
BRANCH  16  20
HETATM   20  O7  UNL     1      54.935  19.377  14.459  1.00  0.00    -0.358 OA
ATOM     21  H7  UNL     1      54.400  19.259  13.684  1.00  0.00     0.217 HD
ENDBRANCH  16  20
BRANCH  17  22
HETATM   22  O8  UNL     1      54.404  21.621  12.851  1.00  0.00    -0.357 OA
ATOM     23  H8  UNL     1      54.339  20.762  12.451  1.00  0.00     0.217 HD
ENDBRANCH  17  22
BRANCH  18  24
HETATM   24  C18 UNL     1      55.021  24.196  13.702  1.00  0.00     0.205 C 
BRANCH  24  25
HETATM   25  O9  UNL     1      55.632  23.997  12.472  1.00  0.00    -0.396 OA
ATOM     26  H9  UNL     1      55.611  24.814  11.987  1.00  0.00     0.209 HD
ENDBRANCH  24  25
ENDBRANCH  18  24
ENDBRANCH  10  14
ENDBRANCH   8  10
ENDBRANCH   5   8
ENDBRANCH   3   5
BRANCH   1  27
HETATM   27  C9  UNL     1      52.481  18.559  18.026  1.00  0.00     0.035 A 
HETATM   28  C8  UNL     1      52.290  18.615  16.675  1.00  0.00     0.017 A 
HETATM   29  C7  UNL     1      51.296  17.933  16.015  1.00  0.00     0.003 A 
HETATM   30  C6  UNL     1      50.444  17.147  16.786  1.00  0.00     0.029 A 
HETATM   31  C5  UNL     1      50.581  17.048  18.148  1.00  0.00     0.035 A 
HETATM   32  C20 UNL     1      51.601  17.761  18.747  1.00  0.00     0.046 A 
BRANCH  31  33
HETATM   33  N5  UNL     1      49.781  16.222  18.964  1.00  0.00    -0.327 N 
HETATM   34  C4  UNL     1      49.151  16.704  20.131  1.00  0.00     0.231 C 
HETATM   35  O1  UNL     1      49.234  17.910  20.549  1.00  0.00    -0.272 OA
ATOM     36  H5  UNL     1      49.653  15.245  18.701  1.00  0.00     0.169 HD
BRANCH  34  37
HETATM   37  C3  UNL     1      48.326  15.795  20.966  1.00  0.00     0.185 C 
BRANCH  37  38
HETATM   38  S1  UNL     1      48.259  16.534  22.640  1.00  0.00    -0.082 SA
BRANCH  38  39
HETATM   39  C2  UNL     1      47.294  15.479  23.714  1.00  0.00     0.175 A 
HETATM   40  N1  UNL     1      47.517  14.164  23.881  1.00  0.00    -0.257 N 
HETATM   41  C1  UNL     1      48.520  13.350  23.247  1.00  0.00     0.177 C 
HETATM   42  N2  UNL     1      46.616  13.724  24.759  1.00  0.00    -0.003 NA
HETATM   43  N3  UNL     1      45.823  14.721  25.151  1.00  0.00    -0.224 N 
HETATM   44  N4  UNL     1      46.258  15.782  24.498  1.00  0.00    -0.266 N 
ATOM     45  H3  UNL     1      45.049  14.674  25.813  1.00  0.00     0.205 HD
ATOM     46  H4  UNL     1      45.854  16.715  24.582  1.00  0.00     0.190 HD
ENDBRANCH  38  39
ENDBRANCH  37  38
ENDBRANCH  34  37
ENDBRANCH  31  33
ENDBRANCH   1  27
TORSDOF 14
ENDMDL
MODEL 5
REMARK VINA RESULT: -10.113231859      1.898      2.998
REMARK  14 active torsions:
REMARK  status: ('A' for Active; 'I' for Inactive)
REMARK    1  A    between atoms: C2_8  and  S1_9 
REMARK    2  A    between atoms: S1_9  and  C3_10 
REMARK    3  A    between atoms: C3_10  and  C4_11 
REMARK       I    between atoms: C4_11  and  N5_13 
REMARK    4  A    between atoms: N5_13  and  C5_15 
REMARK    5  A    between atoms: C9_19  and  C10_20 
REMARK       I    between atoms: C10_20  and  N6_22 
REMARK    6  A    between atoms: N6_22  and  S2_24 
REMARK    7  A    between atoms: S2_24  and  N7_27 
REMARK    8  A    between atoms: N7_27  and  C11_29 
REMARK    9  A    between atoms: C11_29  and  C12_30 
REMARK   10  A    between atoms: C11_29  and  C13_33 
REMARK   11  A    between atoms: C15_35  and  O7_36 
REMARK   12  A    between atoms: C16_38  and  O8_39 
REMARK   13  A    between atoms: C17_41  and  C18_42 
REMARK   14  A    between atoms: C18_42  and  O9_43 
ROOT
HETATM    1  C10 UNL     1      55.784  20.548  17.002  1.00  0.00     0.266 C 
HETATM    2  O2  UNL     1      56.911  20.560  16.454  1.00  0.00    -0.267 OA
HETATM    3  N6  UNL     1      55.624  21.277  18.213  1.00  0.00    -0.233 N 
ATOM      4  H6  UNL     1      54.707  21.266  18.661  1.00  0.00     0.183 HD
ENDROOT
BRANCH   3   5
HETATM    5  S2  UNL     1      56.876  22.174  18.967  1.00  0.00     0.322 S 
HETATM    6  O3  UNL     1      57.661  22.898  17.888  1.00  0.00    -0.182 OA
HETATM    7  O4  UNL     1      57.782  21.298  19.737  1.00  0.00    -0.182 OA
BRANCH   5   8
HETATM    8  N7  UNL     1      56.145  23.391  19.947  1.00  0.00    -0.283 N 
ATOM      9  H7  UNL     1      56.371  24.384  19.886  1.00  0.00     0.175 HD
BRANCH   8  10
HETATM   10  C11 UNL     1      55.169  22.834  20.870  1.00  0.00     0.228 C 
BRANCH  10  11
HETATM   11  C12 UNL     1      55.760  22.765  22.234  1.00  0.00     0.202 C 
HETATM   12  O5  UNL     1      56.999  23.035  22.354  1.00  0.00    -0.646 OA
HETATM   13  O6  UNL     1      55.076  22.427  23.380  1.00  0.00    -0.646 OA
ENDBRANCH  10  11
BRANCH  10  14
HETATM   14  C13 UNL     1      53.966  23.719  20.871  1.00  0.00    -0.021 A 
HETATM   15  C14 UNL     1      53.732  24.601  19.842  1.00  0.00     0.049 A 
HETATM   16  C15 UNL     1      52.638  25.435  19.812  1.00  0.00     0.100 A 
HETATM   17  C16 UNL     1      51.733  25.387  20.857  1.00  0.00     0.107 A 
HETATM   18  C17 UNL     1      51.964  24.502  21.891  1.00  0.00     0.002 A 
HETATM   19  C19 UNL     1      53.063  23.673  21.912  1.00  0.00     0.022 A 
BRANCH  16  20
HETATM   20  O7  UNL     1      52.470  26.301  18.742  1.00  0.00    -0.358 OA
ATOM     21  H7  UNL     1      52.917  27.138  18.745  1.00  0.00     0.217 HD
ENDBRANCH  16  20
BRANCH  17  22
HETATM   22  O8  UNL     1      50.621  26.215  20.858  1.00  0.00    -0.357 OA
ATOM     23  H8  UNL     1      50.027  26.220  20.117  1.00  0.00     0.217 HD
ENDBRANCH  17  22
BRANCH  18  24
HETATM   24  C18 UNL     1      50.952  24.478  23.004  1.00  0.00     0.205 C 
BRANCH  24  25
HETATM   25  O9  UNL     1      50.907  25.734  23.591  1.00  0.00    -0.396 OA
ATOM     26  H9  UNL     1      50.109  25.803  24.102  1.00  0.00     0.209 HD
ENDBRANCH  24  25
ENDBRANCH  18  24
ENDBRANCH  10  14
ENDBRANCH   8  10
ENDBRANCH   5   8
ENDBRANCH   3   5
BRANCH   1  27
HETATM   27  C9  UNL     1      54.666  19.812  16.416  1.00  0.00     0.035 A 
HETATM   28  C8  UNL     1      54.315  19.942  15.103  1.00  0.00     0.017 A 
HETATM   29  C7  UNL     1      53.289  19.243  14.513  1.00  0.00     0.003 A 
HETATM   30  C6  UNL     1      52.578  18.358  15.319  1.00  0.00     0.029 A 
HETATM   31  C5  UNL     1      52.879  18.181  16.646  1.00  0.00     0.035 A 
HETATM   32  C20 UNL     1      53.922  18.915  17.174  1.00  0.00     0.046 A 
BRANCH  31  33
HETATM   33  N5  UNL     1      52.226  17.256  17.486  1.00  0.00    -0.327 N 
HETATM   34  C4  UNL     1      50.825  17.251  17.652  1.00  0.00     0.231 C 
HETATM   35  O1  UNL     1      50.027  18.060  17.063  1.00  0.00    -0.272 OA
ATOM     36  H5  UNL     1      52.785  16.567  17.991  1.00  0.00     0.169 HD
BRANCH  34  37
HETATM   37  C3  UNL     1      50.181  16.266  18.556  1.00  0.00     0.185 C 
BRANCH  37  38
HETATM   38  S1  UNL     1      49.584  17.201  20.013  1.00  0.00    -0.082 SA
BRANCH  38  39
HETATM   39  C2  UNL     1      48.994  16.053  21.251  1.00  0.00     0.175 A 
HETATM   40  N1  UNL     1      48.304  16.413  22.348  1.00  0.00    -0.257 N 
HETATM   41  C1  UNL     1      47.926  17.738  22.759  1.00  0.00     0.177 C 
HETATM   42  N2  UNL     1      48.027  15.295  23.018  1.00  0.00    -0.003 NA
HETATM   43  N3  UNL     1      48.524  14.235  22.380  1.00  0.00    -0.224 N 
HETATM   44  N4  UNL     1      49.110  14.726  21.305  1.00  0.00    -0.266 N 
ATOM     45  H3  UNL     1      48.465  13.257  22.663  1.00  0.00     0.205 HD
ATOM     46  H4  UNL     1      49.591  14.162  20.604  1.00  0.00     0.190 HD
ENDBRANCH  38  39
ENDBRANCH  37  38
ENDBRANCH  34  37
ENDBRANCH  31  33
ENDBRANCH   1  27
TORSDOF 14
ENDMDL
