MODEL 1
REMARK VINA RESULT: -8.228197756      0.000      0.000
REMARK  16 active torsions:
REMARK  status: ('A' for Active; 'I' for Inactive)
REMARK    1  A    between atoms: C2_2  and  O1_3 
REMARK    2  A    between atoms: C2_2  and  C3_5 
REMARK    3  A    between atoms: C2_2  and  C22_39 
REMARK    4  A    between atoms: C3_5  and  C4_6 
REMARK    5  A    between atoms: C4_6  and  O3_8 
REMARK    6  A    between atoms: O3_8  and  C5_9 
REMARK    7  A    between atoms: C10_14  and  C11_15 
REMARK    8  A    between atoms: C11_15  and  O5_17 
REMARK    9  A    between atoms: O5_17  and  C12_18 
REMARK   10  A    between atoms: C17_23  and  O6_24 
REMARK   11  A    between atoms: C18_27  and  C19_28 
REMARK   12  A    between atoms: C18_27  and  C20_31 
REMARK   13  A    between atoms: N1_35  and  O12_37 
REMARK   14  A    between atoms: C22_39  and  C23_41 
REMARK   15  A    between atoms: C23_41  and  C24_43 
REMARK   16  A    between atoms: C24_43  and  O15_44 
ROOT
HETATM    1  C11 UNL     1      56.905  22.720  19.556  1.00  0.00     0.301 C 
HETATM    2  O4  UNL     1      57.621  23.680  19.156  1.00  0.00    -0.259 OA
ENDROOT
BRANCH   1   3
HETATM    3  C10 UNL     1      55.857  22.966  20.535  1.00  0.00     0.073 A 
HETATM    4  C5  UNL     1      55.991  22.719  21.885  1.00  0.00     0.095 A 
HETATM    5  C6  UNL     1      54.969  22.956  22.786  1.00  0.00     0.038 A 
HETATM    6  C7  UNL     1      53.783  23.451  22.339  1.00  0.00     0.003 A 
HETATM    7  C8  UNL     1      53.612  23.713  20.990  1.00  0.00     0.001 A 
HETATM    8  C9  UNL     1      54.650  23.468  20.100  1.00  0.00     0.020 A 
BRANCH   4   9
HETATM    9  O3  UNL     1      57.215  22.215  22.298  1.00  0.00    -0.278 OA
BRANCH   9  10
HETATM   10  C4  UNL     1      58.013  23.003  23.112  1.00  0.00     0.267 C 
HETATM   11  O2  UNL     1      57.483  24.057  23.538  1.00  0.00    -0.265 OA
BRANCH  10  12
HETATM   12  C3  UNL     1      59.413  22.616  23.455  1.00  0.00     0.157 C 
BRANCH  12  13
HETATM   13  C2  UNL     1      60.334  23.003  22.316  1.00  0.00     0.131 C 
HETATM   14  C1  UNL     1      61.420  23.880  22.952  1.00  0.00     0.055 C 
BRANCH  13  15
HETATM   15  O1  UNL     1      59.668  23.684  21.316  1.00  0.00    -0.381 OA
ATOM     16  H1  UNL     1      58.729  23.565  21.388  1.00  0.00     0.211 HD
ENDBRANCH  13  15
BRANCH  13  17
HETATM   17  C22 UNL     1      61.006  21.822  21.733  1.00  0.00     0.231 C 
HETATM   18  O13 UNL     1      62.170  21.511  22.158  1.00  0.00    -0.286 OA
BRANCH  17  19
HETATM   19  C23 UNL     1      60.351  21.044  20.704  1.00  0.00     0.221 C 
HETATM   20  O14 UNL     1      60.349  21.436  19.520  1.00  0.00    -0.287 OA
BRANCH  19  21
HETATM   21  C24 UNL     1      59.654  19.760  20.986  1.00  0.00     0.251 C 
BRANCH  21  22
HETATM   22  O15 UNL     1      58.329  19.945  21.327  1.00  0.00    -0.393 OA
ATOM     23  H15 UNL     1      58.159  19.746  22.240  1.00  0.00     0.210 HD
ENDBRANCH  21  22
ENDBRANCH  19  21
ENDBRANCH  17  19
ENDBRANCH  13  17
ENDBRANCH  12  13
ENDBRANCH  10  12
ENDBRANCH   9  10
ENDBRANCH   4   9
ENDBRANCH   1   3
BRANCH   1  24
HETATM   24  O5  UNL     1      57.203  21.495  19.001  1.00  0.00    -0.272 OA
BRANCH  24  25
HETATM   25  C12 UNL     1      57.082  21.207  17.640  1.00  0.00     0.115 A 
HETATM   26  C13 UNL     1      58.087  21.342  16.739  1.00  0.00     0.041 A 
HETATM   27  C14 UNL     1      57.822  21.016  15.407  1.00  0.00     0.019 A 
HETATM   28  C15 UNL     1      56.600  20.573  14.987  1.00  0.00     0.029 A 
HETATM   29  C16 UNL     1      55.568  20.433  15.898  1.00  0.00     0.120 A 
HETATM   30  C21 UNL     1      56.038  20.168  13.694  1.00  0.00     0.102 C 
HETATM   31  C17 UNL     1      55.832  20.759  17.232  1.00  0.00     0.134 A 
HETATM   32  O7  UNL     1      54.434  19.973  15.238  1.00  0.00    -0.309 OA
HETATM   33  C18 UNL     1      54.558  20.244  13.835  1.00  0.00     0.288 C 
HETATM   34  N1  UNL     1      56.685  19.822  12.659  1.00  0.00    -0.268 N 
ATOM     35  H1  UNL     1      56.180  19.559  11.812  1.00  0.00     0.194 HD
BRANCH  31  36
HETATM   36  O6  UNL     1      54.799  20.622  18.161  1.00  0.00    -0.356 OA
ATOM     37  H6  UNL     1      54.611  19.772  18.543  1.00  0.00     0.218 HD
ENDBRANCH  31  36
BRANCH  33  38
HETATM   38  C19 UNL     1      54.116  21.624  13.602  1.00  0.00     0.228 C 
HETATM   39  O8  UNL     1      52.895  21.959  13.711  1.00  0.00    -0.645 OA
HETATM   40  O9  UNL     1      55.020  22.597  13.258  1.00  0.00    -0.645 OA
ENDBRANCH  33  38
BRANCH  33  41
HETATM   41  C20 UNL     1      53.842  19.247  13.031  1.00  0.00     0.228 C 
HETATM   42  O10 UNL     1      53.299  18.269  13.612  1.00  0.00    -0.645 OA
HETATM   43  O11 UNL     1      53.719  19.306  11.661  1.00  0.00    -0.645 OA
ENDBRANCH  33  41
BRANCH  34  44
HETATM   44  O12 UNL     1      58.038  19.798  12.666  1.00  0.00    -0.290 OA
ATOM     45  H12 UNL     1      58.537  20.604  12.734  1.00  0.00     0.244 HD
ENDBRANCH  34  44
ENDBRANCH  24  25
ENDBRANCH   1  24
TORSDOF 16
ENDMDL
MODEL 2
REMARK VINA RESULT: -8.140582799      1.632      4.387
REMARK  16 active torsions:
REMARK  status: ('A' for Active; 'I' for Inactive)
REMARK    1  A    between atoms: C2_2  and  O1_3 
REMARK    2  A    between atoms: C2_2  and  C3_5 
REMARK    3  A    between atoms: C2_2  and  C22_39 
REMARK    4  A    between atoms: C3_5  and  C4_6 
REMARK    5  A    between atoms: C4_6  and  O3_8 
REMARK    6  A    between atoms: O3_8  and  C5_9 
REMARK    7  A    between atoms: C10_14  and  C11_15 
REMARK    8  A    between atoms: C11_15  and  O5_17 
REMARK    9  A    between atoms: O5_17  and  C12_18 
REMARK   10  A    between atoms: C17_23  and  O6_24 
REMARK   11  A    between atoms: C18_27  and  C19_28 
REMARK   12  A    between atoms: C18_27  and  C20_31 
REMARK   13  A    between atoms: N1_35  and  O12_37 
REMARK   14  A    between atoms: C22_39  and  C23_41 
REMARK   15  A    between atoms: C23_41  and  C24_43 
REMARK   16  A    between atoms: C24_43  and  O15_44 
ROOT
HETATM    1  C11 UNL     1      57.890  21.444  20.034  1.00  0.00     0.301 C 
HETATM    2  O4  UNL     1      57.907  20.182  20.050  1.00  0.00    -0.259 OA
ENDROOT
BRANCH   1   3
HETATM    3  C10 UNL     1      58.726  22.184  20.968  1.00  0.00     0.073 A 
HETATM    4  C5  UNL     1      58.315  22.576  22.225  1.00  0.00     0.095 A 
HETATM    5  C6  UNL     1      59.133  23.287  23.083  1.00  0.00     0.038 A 
HETATM    6  C7  UNL     1      60.392  23.619  22.686  1.00  0.00     0.003 A 
HETATM    7  C8  UNL     1      60.841  23.241  21.432  1.00  0.00     0.001 A 
HETATM    8  C9  UNL     1      60.003  22.527  20.583  1.00  0.00     0.020 A 
BRANCH   4   9
HETATM    9  O3  UNL     1      57.026  22.218  22.589  1.00  0.00    -0.278 OA
BRANCH   9  10
HETATM   10  C4  UNL     1      56.109  23.223  22.849  1.00  0.00     0.267 C 
HETATM   11  O2  UNL     1      55.893  23.462  24.061  1.00  0.00    -0.265 OA
BRANCH  10  12
HETATM   12  C3  UNL     1      55.424  23.969  21.752  1.00  0.00     0.157 C 
BRANCH  12  13
HETATM   13  C2  UNL     1      54.154  23.240  21.366  1.00  0.00     0.131 C 
HETATM   14  C1  UNL     1      53.408  22.998  22.684  1.00  0.00     0.055 C 
BRANCH  13  15
HETATM   15  O1  UNL     1      54.414  22.050  20.716  1.00  0.00    -0.381 OA
ATOM     16  H1  UNL     1      54.176  22.103  19.798  1.00  0.00     0.211 HD
ENDBRANCH  13  15
BRANCH  13  17
HETATM   17  C22 UNL     1      53.283  24.077  20.513  1.00  0.00     0.231 C 
HETATM   18  O13 UNL     1      52.107  24.355  20.930  1.00  0.00    -0.286 OA
BRANCH  17  19
HETATM   19  C23 UNL     1      53.760  24.563  19.237  1.00  0.00     0.221 C 
HETATM   20  O14 UNL     1      54.234  23.773  18.396  1.00  0.00    -0.287 OA
BRANCH  19  21
HETATM   21  C24 UNL     1      53.719  26.000  18.856  1.00  0.00     0.251 C 
BRANCH  21  22
HETATM   22  O15 UNL     1      53.944  26.195  17.508  1.00  0.00    -0.393 OA
ATOM     23  H15 UNL     1      53.165  26.044  16.986  1.00  0.00     0.210 HD
ENDBRANCH  21  22
ENDBRANCH  19  21
ENDBRANCH  17  19
ENDBRANCH  13  17
ENDBRANCH  12  13
ENDBRANCH  10  12
ENDBRANCH   9  10
ENDBRANCH   4   9
ENDBRANCH   1   3
BRANCH   1  24
HETATM   24  O5  UNL     1      57.052  22.008  19.099  1.00  0.00    -0.272 OA
BRANCH  24  25
HETATM   25  C12 UNL     1      57.010  21.622  17.757  1.00  0.00     0.115 A 
HETATM   26  C13 UNL     1      58.039  21.776  16.886  1.00  0.00     0.041 A 
HETATM   27  C14 UNL     1      57.856  21.343  15.572  1.00  0.00     0.019 A 
HETATM   28  C15 UNL     1      56.690  20.778  15.138  1.00  0.00     0.029 A 
HETATM   29  C16 UNL     1      55.635  20.617  16.019  1.00  0.00     0.120 A 
HETATM   30  C21 UNL     1      56.215  20.245  13.857  1.00  0.00     0.102 C 
HETATM   31  C17 UNL     1      55.817  21.050  17.336  1.00  0.00     0.134 A 
HETATM   32  O7  UNL     1      54.568  20.025  15.351  1.00  0.00    -0.309 OA
HETATM   33  C18 UNL     1      54.730  20.211  13.938  1.00  0.00     0.288 C 
HETATM   34  N1  UNL     1      56.930  19.883  12.872  1.00  0.00    -0.268 N 
ATOM     35  H1  UNL     1      56.483  19.526  12.028  1.00  0.00     0.194 HD
BRANCH  31  36
HETATM   36  O6  UNL     1      54.759  20.892  18.234  1.00  0.00    -0.356 OA
ATOM     37  H6  UNL     1      54.654  21.499  18.958  1.00  0.00     0.218 HD
ENDBRANCH  31  36
BRANCH  33  38
HETATM   38  C19 UNL     1      54.193  21.534  13.595  1.00  0.00     0.228 C 
HETATM   39  O8  UNL     1      52.946  21.776  13.631  1.00  0.00    -0.645 OA
HETATM   40  O9  UNL     1      55.033  22.552  13.221  1.00  0.00    -0.645 OA
ENDBRANCH  33  38
BRANCH  33  41
HETATM   41  C20 UNL     1      54.126  19.110  13.179  1.00  0.00     0.228 C 
HETATM   42  O10 UNL     1      53.811  18.051  13.786  1.00  0.00    -0.645 OA
HETATM   43  O11 UNL     1      53.876  19.153  11.826  1.00  0.00    -0.645 OA
ENDBRANCH  33  41
BRANCH  34  44
HETATM   44  O12 UNL     1      58.280  19.968  12.931  1.00  0.00    -0.290 OA
ATOM     45  H12 UNL     1      58.707  20.803  13.086  1.00  0.00     0.244 HD
ENDBRANCH  34  44
ENDBRANCH  24  25
ENDBRANCH   1  24
TORSDOF 16
ENDMDL
MODEL 3
REMARK VINA RESULT: -8.130073264      1.696      4.557
REMARK  16 active torsions:
REMARK  status: ('A' for Active; 'I' for Inactive)
REMARK    1  A    between atoms: C2_2  and  O1_3 
REMARK    2  A    between atoms: C2_2  and  C3_5 
REMARK    3  A    between atoms: C2_2  and  C22_39 
REMARK    4  A    between atoms: C3_5  and  C4_6 
REMARK    5  A    between atoms: C4_6  and  O3_8 
REMARK    6  A    between atoms: O3_8  and  C5_9 
REMARK    7  A    between atoms: C10_14  and  C11_15 
REMARK    8  A    between atoms: C11_15  and  O5_17 
REMARK    9  A    between atoms: O5_17  and  C12_18 
REMARK   10  A    between atoms: C17_23  and  O6_24 
REMARK   11  A    between atoms: C18_27  and  C19_28 
REMARK   12  A    between atoms: C18_27  and  C20_31 
REMARK   13  A    between atoms: N1_35  and  O12_37 
REMARK   14  A    between atoms: C22_39  and  C23_41 
REMARK   15  A    between atoms: C23_41  and  C24_43 
REMARK   16  A    between atoms: C24_43  and  O15_44 
ROOT
HETATM    1  C11 UNL     1      59.104  22.710  18.903  1.00  0.00     0.301 C 
HETATM    2  O4  UNL     1      59.957  23.630  18.773  1.00  0.00    -0.259 OA
ENDROOT
BRANCH   1   3
HETATM    3  C10 UNL     1      59.405  21.568  19.755  1.00  0.00     0.073 A 
HETATM    4  C5  UNL     1      58.481  20.952  20.572  1.00  0.00     0.095 A 
HETATM    5  C6  UNL     1      58.805  19.874  21.375  1.00  0.00     0.038 A 
HETATM    6  C7  UNL     1      60.079  19.394  21.369  1.00  0.00     0.003 A 
HETATM    7  C8  UNL     1      61.034  19.986  20.561  1.00  0.00     0.001 A 
HETATM    8  C9  UNL     1      60.690  21.069  19.761  1.00  0.00     0.020 A 
BRANCH   4   9
HETATM    9  O3  UNL     1      57.196  21.472  20.546  1.00  0.00    -0.278 OA
BRANCH   9  10
HETATM   10  C4  UNL     1      56.874  22.480  21.439  1.00  0.00     0.267 C 
HETATM   11  O2  UNL     1      57.474  22.445  22.541  1.00  0.00    -0.265 OA
BRANCH  10  12
HETATM   12  C3  UNL     1      55.875  23.539  21.107  1.00  0.00     0.157 C 
BRANCH  12  13
HETATM   13  C2  UNL     1      54.480  22.954  21.181  1.00  0.00     0.131 C 
HETATM   14  C1  UNL     1      54.232  22.683  22.670  1.00  0.00     0.055 C 
BRANCH  13  15
HETATM   15  O1  UNL     1      54.361  21.795  20.439  1.00  0.00    -0.381 OA
ATOM     16  H1  UNL     1      53.449  21.578  20.287  1.00  0.00     0.211 HD
ENDBRANCH  13  15
BRANCH  13  17
HETATM   17  C22 UNL     1      53.457  23.922  20.731  1.00  0.00     0.231 C 
HETATM   18  O13 UNL     1      52.440  24.125  21.478  1.00  0.00    -0.286 OA
BRANCH  17  19
HETATM   19  C23 UNL     1      53.615  24.619  19.473  1.00  0.00     0.221 C 
HETATM   20  O14 UNL     1      53.976  24.003  18.451  1.00  0.00    -0.287 OA
BRANCH  19  21
HETATM   21  C24 UNL     1      53.364  26.077  19.323  1.00  0.00     0.251 C 
BRANCH  21  22
HETATM   22  O15 UNL     1      54.336  26.704  18.569  1.00  0.00    -0.393 OA
ATOM     23  H15 UNL     1      54.353  26.395  17.672  1.00  0.00     0.210 HD
ENDBRANCH  21  22
ENDBRANCH  19  21
ENDBRANCH  17  19
ENDBRANCH  13  17
ENDBRANCH  12  13
ENDBRANCH  10  12
ENDBRANCH   9  10
ENDBRANCH   4   9
ENDBRANCH   1   3
BRANCH   1  24
HETATM   24  O5  UNL     1      57.934  22.889  18.200  1.00  0.00    -0.272 OA
BRANCH  24  25
HETATM   25  C12 UNL     1      57.646  22.251  16.992  1.00  0.00     0.115 A 
HETATM   26  C13 UNL     1      58.507  22.171  15.946  1.00  0.00     0.041 A 
HETATM   27  C14 UNL     1      58.083  21.501  14.798  1.00  0.00     0.019 A 
HETATM   28  C15 UNL     1      56.847  20.930  14.692  1.00  0.00     0.029 A 
HETATM   29  C16 UNL     1      55.961  21.006  15.752  1.00  0.00     0.120 A 
HETATM   30  C21 UNL     1      56.140  20.185  13.644  1.00  0.00     0.102 C 
HETATM   31  C17 UNL     1      56.383  21.678  16.904  1.00  0.00     0.134 A 
HETATM   32  O7  UNL     1      54.779  20.359  15.409  1.00  0.00    -0.309 OA
HETATM   33  C18 UNL     1      54.692  20.255  13.981  1.00  0.00     0.288 C 
HETATM   34  N1  UNL     1      56.660  19.597  12.647  1.00  0.00    -0.268 N 
ATOM     35  H1  UNL     1      56.062  19.107  11.982  1.00  0.00     0.194 HD
BRANCH  31  36
HETATM   36  O6  UNL     1      55.499  21.761  17.981  1.00  0.00    -0.356 OA
ATOM     37  H6  UNL     1      55.252  20.977  18.457  1.00  0.00     0.218 HD
ENDBRANCH  31  36
BRANCH  33  38
HETATM   38  C19 UNL     1      54.133  21.513  13.472  1.00  0.00     0.228 C 
HETATM   39  O8  UNL     1      52.898  21.788  13.587  1.00  0.00    -0.645 OA
HETATM   40  O9  UNL     1      54.940  22.434  12.852  1.00  0.00    -0.645 OA
ENDBRANCH  33  38
BRANCH  33  41
HETATM   41  C20 UNL     1      53.938  19.063  13.575  1.00  0.00     0.228 C 
HETATM   42  O10 UNL     1      53.579  18.949  12.372  1.00  0.00    -0.645 OA
HETATM   43  O11 UNL     1      53.588  18.044  14.430  1.00  0.00    -0.645 OA
ENDBRANCH  33  41
BRANCH  34  44
HETATM   44  O12 UNL     1      58.000  19.612  12.458  1.00  0.00    -0.290 OA
ATOM     45  H12 UNL     1      58.594  19.532  13.196  1.00  0.00     0.244 HD
ENDBRANCH  34  44
ENDBRANCH  24  25
ENDBRANCH   1  24
TORSDOF 16
ENDMDL
MODEL 4
REMARK VINA RESULT: -8.060462904      1.265      2.215
REMARK  16 active torsions:
REMARK  status: ('A' for Active; 'I' for Inactive)
REMARK    1  A    between atoms: C2_2  and  O1_3 
REMARK    2  A    between atoms: C2_2  and  C3_5 
REMARK    3  A    between atoms: C2_2  and  C22_39 
REMARK    4  A    between atoms: C3_5  and  C4_6 
REMARK    5  A    between atoms: C4_6  and  O3_8 
REMARK    6  A    between atoms: O3_8  and  C5_9 
REMARK    7  A    between atoms: C10_14  and  C11_15 
REMARK    8  A    between atoms: C11_15  and  O5_17 
REMARK    9  A    between atoms: O5_17  and  C12_18 
REMARK   10  A    between atoms: C17_23  and  O6_24 
REMARK   11  A    between atoms: C18_27  and  C19_28 
REMARK   12  A    between atoms: C18_27  and  C20_31 
REMARK   13  A    between atoms: N1_35  and  O12_37 
REMARK   14  A    between atoms: C22_39  and  C23_41 
REMARK   15  A    between atoms: C23_41  and  C24_43 
REMARK   16  A    between atoms: C24_43  and  O15_44 
ROOT
HETATM    1  C11 UNL     1      56.820  22.858  19.593  1.00  0.00     0.301 C 
HETATM    2  O4  UNL     1      57.531  23.840  19.244  1.00  0.00    -0.259 OA
ENDROOT
BRANCH   1   3
HETATM    3  C10 UNL     1      55.698  23.070  20.495  1.00  0.00     0.073 A 
HETATM    4  C5  UNL     1      55.734  22.800  21.847  1.00  0.00     0.095 A 
HETATM    5  C6  UNL     1      54.644  23.006  22.672  1.00  0.00     0.038 A 
HETATM    6  C7  UNL     1      53.487  23.490  22.146  1.00  0.00     0.003 A 
HETATM    7  C8  UNL     1      53.412  23.774  20.792  1.00  0.00     0.001 A 
HETATM    8  C9  UNL     1      54.518  23.560  19.978  1.00  0.00     0.020 A 
BRANCH   4   9
HETATM    9  O3  UNL     1      56.932  22.309  22.342  1.00  0.00    -0.278 OA
BRANCH   9  10
HETATM   10  C4  UNL     1      57.825  23.199  22.916  1.00  0.00     0.267 C 
HETATM   11  O2  UNL     1      57.457  23.717  23.998  1.00  0.00    -0.265 OA
BRANCH  10  12
HETATM   12  C3  UNL     1      59.139  23.517  22.283  1.00  0.00     0.157 C 
BRANCH  12  13
HETATM   13  C2  UNL     1      60.223  22.677  22.927  1.00  0.00     0.131 C 
HETATM   14  C1  UNL     1      61.216  22.364  21.800  1.00  0.00     0.055 C 
BRANCH  13  15
HETATM   15  O1  UNL     1      59.721  21.517  23.484  1.00  0.00    -0.381 OA
ATOM     16  H1  UNL     1      58.784  21.583  23.625  1.00  0.00     0.211 HD
ENDBRANCH  13  15
BRANCH  13  17
HETATM   17  C22 UNL     1      60.956  23.434  23.964  1.00  0.00     0.231 C 
HETATM   18  O13 UNL     1      61.782  24.335  23.591  1.00  0.00    -0.286 OA
BRANCH  17  19
HETATM   19  C23 UNL     1      60.737  23.152  25.366  1.00  0.00     0.221 C 
HETATM   20  O14 UNL     1      61.140  22.082  25.866  1.00  0.00    -0.287 OA
BRANCH  19  21
HETATM   21  C24 UNL     1      60.032  24.093  26.276  1.00  0.00     0.251 C 
BRANCH  21  22
HETATM   22  O15 UNL     1      59.442  25.140  25.596  1.00  0.00    -0.393 OA
ATOM     23  H15 UNL     1      59.745  25.986  25.903  1.00  0.00     0.210 HD
ENDBRANCH  21  22
ENDBRANCH  19  21
ENDBRANCH  17  19
ENDBRANCH  13  17
ENDBRANCH  12  13
ENDBRANCH  10  12
ENDBRANCH   9  10
ENDBRANCH   4   9
ENDBRANCH   1   3
BRANCH   1  24
HETATM   24  O5  UNL     1      57.195  21.644  19.063  1.00  0.00    -0.272 OA
BRANCH  24  25
HETATM   25  C12 UNL     1      57.109  21.327  17.705  1.00  0.00     0.115 A 
HETATM   26  C13 UNL     1      58.127  21.476  16.821  1.00  0.00     0.041 A 
HETATM   27  C14 UNL     1      57.898  21.118  15.491  1.00  0.00     0.019 A 
HETATM   28  C15 UNL     1      56.699  20.631  15.056  1.00  0.00     0.029 A 
HETATM   29  C16 UNL     1      55.654  20.476  15.950  1.00  0.00     0.120 A 
HETATM   30  C21 UNL     1      56.174  20.185  13.760  1.00  0.00     0.102 C 
HETATM   31  C17 UNL     1      55.881  20.834  17.282  1.00  0.00     0.134 A 
HETATM   32  O7  UNL     1      54.547  19.969  15.277  1.00  0.00    -0.309 OA
HETATM   33  C18 UNL     1      54.691  20.218  13.872  1.00  0.00     0.288 C 
HETATM   34  N1  UNL     1      56.851  19.839  12.744  1.00  0.00    -0.268 N 
ATOM     35  H1  UNL     1      56.372  19.546  11.894  1.00  0.00     0.194 HD
BRANCH  31  36
HETATM   36  O6  UNL     1      54.835  20.682  18.194  1.00  0.00    -0.356 OA
ATOM     37  H6  UNL     1      54.335  19.875  18.215  1.00  0.00     0.218 HD
ENDBRANCH  31  36
BRANCH  33  38
HETATM   38  C19 UNL     1      54.212  21.579  13.605  1.00  0.00     0.228 C 
HETATM   39  O8  UNL     1      52.988  21.894  13.743  1.00  0.00    -0.645 OA
HETATM   40  O9  UNL     1      55.083  22.557  13.194  1.00  0.00    -0.645 OA
ENDBRANCH  33  38
BRANCH  33  41
HETATM   41  C20 UNL     1      54.020  19.185  13.073  1.00  0.00     0.228 C 
HETATM   42  O10 UNL     1      53.705  18.096  13.624  1.00  0.00    -0.645 OA
HETATM   43  O11 UNL     1      53.706  19.325  11.740  1.00  0.00    -0.645 OA
ENDBRANCH  33  41
BRANCH  34  44
HETATM   44  O12 UNL     1      58.205  19.857  12.778  1.00  0.00    -0.290 OA
ATOM     45  H12 UNL     1      58.701  20.294  12.095  1.00  0.00     0.244 HD
ENDBRANCH  34  44
ENDBRANCH  24  25
ENDBRANCH   1  24
TORSDOF 16
ENDMDL
MODEL 5
REMARK VINA RESULT: -7.817911111      1.126      1.549
REMARK  16 active torsions:
REMARK  status: ('A' for Active; 'I' for Inactive)
REMARK    1  A    between atoms: C2_2  and  O1_3 
REMARK    2  A    between atoms: C2_2  and  C3_5 
REMARK    3  A    between atoms: C2_2  and  C22_39 
REMARK    4  A    between atoms: C3_5  and  C4_6 
REMARK    5  A    between atoms: C4_6  and  O3_8 
REMARK    6  A    between atoms: O3_8  and  C5_9 
REMARK    7  A    between atoms: C10_14  and  C11_15 
REMARK    8  A    between atoms: C11_15  and  O5_17 
REMARK    9  A    between atoms: O5_17  and  C12_18 
REMARK   10  A    between atoms: C17_23  and  O6_24 
REMARK   11  A    between atoms: C18_27  and  C19_28 
REMARK   12  A    between atoms: C18_27  and  C20_31 
REMARK   13  A    between atoms: N1_35  and  O12_37 
REMARK   14  A    between atoms: C22_39  and  C23_41 
REMARK   15  A    between atoms: C23_41  and  C24_43 
REMARK   16  A    between atoms: C24_43  and  O15_44 
ROOT
HETATM    1  C11 UNL     1      56.674  22.909  19.611  1.00  0.00     0.301 C 
HETATM    2  O4  UNL     1      57.442  23.864  19.308  1.00  0.00    -0.259 OA
ENDROOT
BRANCH   1   3
HETATM    3  C10 UNL     1      55.515  23.160  20.454  1.00  0.00     0.073 A 
HETATM    4  C5  UNL     1      55.451  22.836  21.793  1.00  0.00     0.095 A 
HETATM    5  C6  UNL     1      54.328  23.081  22.561  1.00  0.00     0.038 A 
HETATM    6  C7  UNL     1      53.239  23.662  21.989  1.00  0.00     0.003 A 
HETATM    7  C8  UNL     1      53.265  24.002  20.647  1.00  0.00     0.001 A 
HETATM    8  C9  UNL     1      54.403  23.747  19.891  1.00  0.00     0.020 A 
BRANCH   4   9
HETATM    9  O3  UNL     1      56.583  22.248  22.336  1.00  0.00    -0.278 OA
BRANCH   9  10
HETATM   10  C4  UNL     1      57.524  23.061  22.944  1.00  0.00     0.267 C 
HETATM   11  O2  UNL     1      57.123  23.705  23.943  1.00  0.00    -0.265 OA
BRANCH  10  12
HETATM   12  C3  UNL     1      58.925  23.162  22.438  1.00  0.00     0.157 C 
BRANCH  12  13
HETATM   13  C2  UNL     1      59.521  21.774  22.330  1.00  0.00     0.131 C 
HETATM   14  C1  UNL     1      59.932  21.622  20.860  1.00  0.00     0.055 C 
BRANCH  13  15
HETATM   15  O1  UNL     1      58.622  20.791  22.698  1.00  0.00    -0.381 OA
ATOM     16  H1  UNL     1      58.925  20.322  23.467  1.00  0.00     0.211 HD
ENDBRANCH  13  15
BRANCH  13  17
HETATM   17  C22 UNL     1      60.745  21.640  23.148  1.00  0.00     0.231 C 
HETATM   18  O13 UNL     1      61.524  22.648  23.247  1.00  0.00    -0.286 OA
BRANCH  17  19
HETATM   19  C23 UNL     1      61.045  20.392  23.815  1.00  0.00     0.221 C 
HETATM   20  O14 UNL     1      60.889  20.282  25.048  1.00  0.00    -0.287 OA
BRANCH  19  21
HETATM   21  C24 UNL     1      61.545  19.192  23.093  1.00  0.00     0.251 C 
BRANCH  21  22
HETATM   22  O15 UNL     1      60.522  18.366  22.673  1.00  0.00    -0.393 OA
ATOM     23  H15 UNL     1      60.835  17.649  22.134  1.00  0.00     0.210 HD
ENDBRANCH  21  22
ENDBRANCH  19  21
ENDBRANCH  17  19
ENDBRANCH  13  17
ENDBRANCH  12  13
ENDBRANCH  10  12
ENDBRANCH   9  10
ENDBRANCH   4   9
ENDBRANCH   1   3
BRANCH   1  24
HETATM   24  O5  UNL     1      57.029  21.684  19.092  1.00  0.00    -0.272 OA
BRANCH  24  25
HETATM   25  C12 UNL     1      56.973  21.369  17.732  1.00  0.00     0.115 A 
HETATM   26  C13 UNL     1      58.002  21.545  16.865  1.00  0.00     0.041 A 
HETATM   27  C14 UNL     1      57.803  21.186  15.531  1.00  0.00     0.019 A 
HETATM   28  C15 UNL     1      56.624  20.671  15.074  1.00  0.00     0.029 A 
HETATM   29  C16 UNL     1      55.568  20.488  15.951  1.00  0.00     0.120 A 
HETATM   30  C21 UNL     1      56.131  20.216  13.769  1.00  0.00     0.102 C 
HETATM   31  C17 UNL     1      55.765  20.847  17.287  1.00  0.00     0.134 A 
HETATM   32  O7  UNL     1      54.485  19.957  15.259  1.00  0.00    -0.309 OA
HETATM   33  C18 UNL     1      54.646  20.212  13.856  1.00  0.00     0.288 C 
HETATM   34  N1  UNL     1      56.833  19.890  12.764  1.00  0.00    -0.268 N 
ATOM     35  H1  UNL     1      56.375  19.588  11.904  1.00  0.00     0.194 HD
BRANCH  31  36
HETATM   36  O6  UNL     1      54.708  20.667  18.181  1.00  0.00    -0.356 OA
ATOM     37  H6  UNL     1      54.479  21.356  18.795  1.00  0.00     0.218 HD
ENDBRANCH  31  36
BRANCH  33  38
HETATM   38  C19 UNL     1      54.138  21.563  13.585  1.00  0.00     0.228 C 
HETATM   39  O8  UNL     1      52.905  21.847  13.703  1.00  0.00    -0.645 OA
HETATM   40  O9  UNL     1      54.992  22.563  13.193  1.00  0.00    -0.645 OA
ENDBRANCH  33  38
BRANCH  33  41
HETATM   41  C20 UNL     1      54.014  19.166  13.044  1.00  0.00     0.228 C 
HETATM   42  O10 UNL     1      53.723  18.066  13.585  1.00  0.00    -0.645 OA
HETATM   43  O11 UNL     1      53.711  19.305  11.709  1.00  0.00    -0.645 OA
ENDBRANCH  33  41
BRANCH  34  44
HETATM   44  O12 UNL     1      58.185  19.941  12.820  1.00  0.00    -0.290 OA
ATOM     45  H12 UNL     1      58.706  19.161  12.666  1.00  0.00     0.244 HD
ENDBRANCH  34  44
ENDBRANCH  24  25
ENDBRANCH   1  24
TORSDOF 16
ENDMDL
