MODEL 1
REMARK VINA RESULT: -9.154919692      0.000      0.000
REMARK  10 active torsions:
REMARK  status: ('A' for Active; 'I' for Inactive)
REMARK    1  A    between atoms: C3_3  and  C5_5 
REMARK    2  A    between atoms: C5_5  and  C6_6 
REMARK    3  A    between atoms: C6_6  and  C7_7 
REMARK    4  A    between atoms: C7_7  and  C8_8 
REMARK    5  A    between atoms: C8_8  and  O1_9 
REMARK    6  A    between atoms: C8_8  and  C9_11 
REMARK    7  A    between atoms: C15_18  and  O3_19 
REMARK    8  A    between atoms: C16_21  and  N1_22 
REMARK    9  A    between atoms: N1_22  and  O4_24 
REMARK   10  A    between atoms: C17_26  and  O5_27 
ROOT
HETATM    1  C9  UNL     1       2.766   2.848  36.606  1.00  0.00     0.019 C 
HETATM    2  C10 UNL     1       1.614   1.939  36.394  1.00  0.00     0.014 C 
HETATM    3  C11 UNL     1       1.493   1.389  34.992  1.00  0.00     0.066 C 
HETATM    4  C12 UNL     1       1.305   2.583  34.099  1.00  0.00     0.064 A 
HETATM    5  O2  UNL     1       0.359   2.661  33.211  1.00  0.00    -0.313 OA
HETATM    6  C13 UNL     1       0.239   3.730  32.455  1.00  0.00     0.095 A 
HETATM    7  C14 UNL     1      -0.758   3.836  31.503  1.00  0.00     0.077 A 
HETATM    8  C15 UNL     1      -0.845   4.978  30.733  1.00  0.00     0.099 A 
HETATM    9  C16 UNL     1       0.046   6.020  30.892  1.00  0.00     0.121 A 
HETATM   10  C17 UNL     1       1.041   5.920  31.835  1.00  0.00     0.114 A 
HETATM   11  C18 UNL     1       1.126   4.788  32.600  1.00  0.00     0.084 A 
HETATM   12  C19 UNL     1       2.139   4.728  33.535  1.00  0.00     0.196 A 
HETATM   13  O6  UNL     1       2.964   5.666  33.699  1.00  0.00    -0.287 OA
HETATM   14  C20 UNL     1       2.221   3.587  34.302  1.00  0.00     0.023 A 
HETATM   15  C21 UNL     1       3.298   3.474  35.327  1.00  0.00     0.052 C 
ENDROOT
BRANCH   1  16
HETATM   16  C8  UNL     1       2.501   3.963  37.569  1.00  0.00     0.122 C 
BRANCH  16  17
HETATM   17  C7  UNL     1       3.447   4.052  38.714  1.00  0.00     0.032 C 
BRANCH  17  18
HETATM   18  C6  UNL     1       4.041   5.433  38.890  1.00  0.00     0.007 C 
BRANCH  18  19
HETATM   19  C5  UNL     1       4.357   6.077  37.558  1.00  0.00     0.033 C 
BRANCH  19  20
HETATM   20  C3  UNL     1       5.582   6.901  37.721  1.00  0.00    -0.088 C 
HETATM   21  C2  UNL     1       5.896   7.432  38.886  1.00  0.00    -0.029 C 
HETATM   22  C1  UNL     1       7.120   8.250  39.026  1.00  0.00     0.036 C 
HETATM   23  C4  UNL     1       6.473   7.141  36.564  1.00  0.00     0.043 C 
ENDBRANCH  19  20
ENDBRANCH  18  19
ENDBRANCH  17  18
ENDBRANCH  16  17
BRANCH  16  24
HETATM   24  O1  UNL     1       1.203   3.913  38.094  1.00  0.00    -0.395 OA
ATOM     25  H1  UNL     1       0.608   3.747  37.373  1.00  0.00     0.210 HD
ENDBRANCH  16  24
ENDBRANCH   1  16
BRANCH  10  26
HETATM   26  O5  UNL     1       1.972   6.931  32.048  1.00  0.00    -0.357 OA
ATOM     27  H5  UNL     1       2.395   7.066  32.888  1.00  0.00     0.217 HD
ENDBRANCH  10  26
BRANCH   9  28
HETATM   28  N1  UNL     1      -0.028   7.203  30.106  1.00  0.00    -0.264 N 
ATOM     29  H1  UNL     1       0.769   7.533  29.561  1.00  0.00     0.194 HD
BRANCH  28  30
HETATM   30  O4  UNL     1      -1.114   7.818  30.114  1.00  0.00    -0.289 OA
ATOM     31  H4  UNL     1      -1.147   8.622  30.618  1.00  0.00     0.244 HD
ENDBRANCH  28  30
ENDBRANCH   9  28
BRANCH   8  32
HETATM   32  O3  UNL     1      -1.842   5.096  29.776  1.00  0.00    -0.358 OA
ATOM     33  H3  UNL     1      -2.424   5.847  29.786  1.00  0.00     0.217 HD
ENDBRANCH   8  32
TORSDOF 10
ENDMDL
MODEL 2
REMARK VINA RESULT: -8.571764414      3.409      7.943
REMARK  10 active torsions:
REMARK  status: ('A' for Active; 'I' for Inactive)
REMARK    1  A    between atoms: C3_3  and  C5_5 
REMARK    2  A    between atoms: C5_5  and  C6_6 
REMARK    3  A    between atoms: C6_6  and  C7_7 
REMARK    4  A    between atoms: C7_7  and  C8_8 
REMARK    5  A    between atoms: C8_8  and  O1_9 
REMARK    6  A    between atoms: C8_8  and  C9_11 
REMARK    7  A    between atoms: C15_18  and  O3_19 
REMARK    8  A    between atoms: C16_21  and  N1_22 
REMARK    9  A    between atoms: N1_22  and  O4_24 
REMARK   10  A    between atoms: C17_26  and  O5_27 
ROOT
HETATM    1  C9  UNL     1       1.378   4.684  32.389  1.00  0.00     0.019 C 
HETATM    2  C10 UNL     1       2.113   5.734  33.135  1.00  0.00     0.014 C 
HETATM    3  C11 UNL     1       3.354   5.251  33.849  1.00  0.00     0.066 C 
HETATM    4  C12 UNL     1       2.880   4.230  34.844  1.00  0.00     0.064 A 
HETATM    5  O2  UNL     1       3.226   4.248  36.097  1.00  0.00    -0.313 OA
HETATM    6  C13 UNL     1       2.783   3.329  36.927  1.00  0.00     0.095 A 
HETATM    7  C14 UNL     1       3.137   3.327  38.263  1.00  0.00     0.077 A 
HETATM    8  C15 UNL     1       2.646   2.343  39.096  1.00  0.00     0.099 A 
HETATM    9  C16 UNL     1       1.806   1.355  38.622  1.00  0.00     0.121 A 
HETATM   10  C17 UNL     1       1.451   1.351  37.294  1.00  0.00     0.114 A 
HETATM   11  C18 UNL     1       1.937   2.328  36.468  1.00  0.00     0.084 A 
HETATM   12  C19 UNL     1       1.556   2.287  35.143  1.00  0.00     0.196 A 
HETATM   13  O6  UNL     1       0.790   1.397  34.687  1.00  0.00    -0.287 OA
HETATM   14  C20 UNL     1       2.048   3.272  34.316  1.00  0.00     0.023 A 
HETATM   15  C21 UNL     1       1.665   3.273  32.874  1.00  0.00     0.052 C 
ENDROOT
BRANCH   1  16
HETATM   16  C8  UNL     1      -0.109   4.859  32.385  1.00  0.00     0.122 C 
BRANCH  16  17
HETATM   17  C7  UNL     1      -0.722   5.052  31.044  1.00  0.00     0.032 C 
BRANCH  17  18
HETATM   18  C6  UNL     1      -0.247   6.309  30.348  1.00  0.00     0.007 C 
BRANCH  18  19
HETATM   19  C5  UNL     1      -1.403   7.107  29.788  1.00  0.00     0.033 C 
BRANCH  19  20
HETATM   20  C3  UNL     1      -1.967   7.937  30.883  1.00  0.00    -0.088 C 
HETATM   21  C2  UNL     1      -1.197   8.722  31.609  1.00  0.00    -0.029 C 
HETATM   22  C1  UNL     1      -1.779   9.539  32.695  1.00  0.00     0.036 C 
HETATM   23  C4  UNL     1      -3.418   7.890  31.177  1.00  0.00     0.043 C 
ENDBRANCH  19  20
ENDBRANCH  18  19
ENDBRANCH  17  18
ENDBRANCH  16  17
BRANCH  16  24
HETATM   24  O1  UNL     1      -0.519   5.925  33.196  1.00  0.00    -0.395 OA
ATOM     25  H1  UNL     1       0.134   6.611  33.121  1.00  0.00     0.210 HD
ENDBRANCH  16  24
ENDBRANCH   1  16
BRANCH  10  26
HETATM   26  O5  UNL     1       0.609   0.387  36.750  1.00  0.00    -0.357 OA
ATOM     27  H5  UNL     1       0.896  -0.220  36.077  1.00  0.00     0.217 HD
ENDBRANCH  10  26
BRANCH   9  28
HETATM   28  N1  UNL     1       1.292   0.332  39.466  1.00  0.00    -0.264 N 
ATOM     29  H1  UNL     1       0.796   0.553  40.330  1.00  0.00     0.194 HD
BRANCH  28  30
HETATM   30  O4  UNL     1       1.477  -0.846  39.101  1.00  0.00    -0.289 OA
ATOM     31  H4  UNL     1       2.203  -1.003  38.510  1.00  0.00     0.244 HD
ENDBRANCH  28  30
ENDBRANCH   9  28
BRANCH   8  32
HETATM   32  O3  UNL     1       2.995   2.331  40.438  1.00  0.00    -0.358 OA
ATOM     33  H3  UNL     1       3.117   1.504  40.890  1.00  0.00     0.217 HD
ENDBRANCH   8  32
TORSDOF 10
ENDMDL
MODEL 3
REMARK VINA RESULT: -8.023361371      4.408      6.619
REMARK  10 active torsions:
REMARK  status: ('A' for Active; 'I' for Inactive)
REMARK    1  A    between atoms: C3_3  and  C5_5 
REMARK    2  A    between atoms: C5_5  and  C6_6 
REMARK    3  A    between atoms: C6_6  and  C7_7 
REMARK    4  A    between atoms: C7_7  and  C8_8 
REMARK    5  A    between atoms: C8_8  and  O1_9 
REMARK    6  A    between atoms: C8_8  and  C9_11 
REMARK    7  A    between atoms: C15_18  and  O3_19 
REMARK    8  A    between atoms: C16_21  and  N1_22 
REMARK    9  A    between atoms: N1_22  and  O4_24 
REMARK   10  A    between atoms: C17_26  and  O5_27 
ROOT
HETATM    1  C9  UNL     1      -0.180   5.808  31.051  1.00  0.00     0.019 C 
HETATM    2  C10 UNL     1      -1.216   5.765  29.991  1.00  0.00     0.014 C 
HETATM    3  C11 UNL     1      -1.840   7.102  29.663  1.00  0.00     0.066 C 
HETATM    4  C12 UNL     1      -2.501   7.566  30.930  1.00  0.00     0.064 A 
HETATM    5  O2  UNL     1      -3.730   7.987  30.975  1.00  0.00    -0.313 OA
HETATM    6  C13 UNL     1      -4.261   8.382  32.111  1.00  0.00     0.095 A 
HETATM    7  C14 UNL     1      -5.565   8.836  32.184  1.00  0.00     0.077 A 
HETATM    8  C15 UNL     1      -6.078   9.239  33.399  1.00  0.00     0.099 A 
HETATM    9  C16 UNL     1      -5.316   9.201  34.548  1.00  0.00     0.121 A 
HETATM   10  C17 UNL     1      -4.017   8.753  34.483  1.00  0.00     0.114 A 
HETATM   11  C18 UNL     1      -3.508   8.351  33.278  1.00  0.00     0.084 A 
HETATM   12  C19 UNL     1      -2.202   7.909  33.256  1.00  0.00     0.196 A 
HETATM   13  O6  UNL     1      -1.485   7.864  34.292  1.00  0.00    -0.287 OA
HETATM   14  C20 UNL     1      -1.694   7.506  32.041  1.00  0.00     0.023 A 
HETATM   15  C21 UNL     1      -0.286   7.018  31.964  1.00  0.00     0.052 C 
ENDROOT
BRANCH   1  16
HETATM   16  C8  UNL     1      -0.145   4.594  31.926  1.00  0.00     0.122 C 
BRANCH  16  17
HETATM   17  C7  UNL     1       1.207   4.192  32.401  1.00  0.00     0.032 C 
BRANCH  17  18
HETATM   18  C6  UNL     1       1.172   3.380  33.677  1.00  0.00     0.007 C 
BRANCH  18  19
HETATM   19  C5  UNL     1       2.552   3.225  34.277  1.00  0.00     0.033 C 
BRANCH  19  20
HETATM   20  C3  UNL     1       2.743   4.298  35.286  1.00  0.00    -0.088 C 
HETATM   21  C2  UNL     1       2.055   4.306  36.410  1.00  0.00    -0.029 C 
HETATM   22  C1  UNL     1       2.260   5.383  37.402  1.00  0.00     0.036 C 
HETATM   23  C4  UNL     1       3.719   5.383  35.039  1.00  0.00     0.043 C 
ENDBRANCH  19  20
ENDBRANCH  18  19
ENDBRANCH  17  18
ENDBRANCH  16  17
BRANCH  16  24
HETATM   24  O1  UNL     1      -0.725   3.478  31.308  1.00  0.00    -0.395 OA
ATOM     25  H1  UNL     1      -1.666   3.607  31.307  1.00  0.00     0.210 HD
ENDBRANCH  16  24
ENDBRANCH   1  16
BRANCH  10  26
HETATM   26  O5  UNL     1      -3.193   8.688  35.601  1.00  0.00    -0.357 OA
ATOM     27  H5  UNL     1      -2.979   9.453  36.123  1.00  0.00     0.217 HD
ENDBRANCH  10  26
BRANCH   9  28
HETATM   28  N1  UNL     1      -5.829   9.615  35.809  1.00  0.00    -0.264 N 
ATOM     29  H1  UNL     1      -5.477  10.448  36.281  1.00  0.00     0.194 HD
BRANCH  28  30
HETATM   30  O4  UNL     1      -6.729   8.911  36.309  1.00  0.00    -0.289 OA
ATOM     31  H4  UNL     1      -7.424   9.366  36.768  1.00  0.00     0.244 HD
ENDBRANCH  28  30
ENDBRANCH   9  28
BRANCH   8  32
HETATM   32  O3  UNL     1      -7.385   9.695  33.484  1.00  0.00    -0.358 OA
ATOM     33  H3  UNL     1      -8.107   9.111  33.281  1.00  0.00     0.217 HD
ENDBRANCH   8  32
TORSDOF 10
ENDMDL
MODEL 4
REMARK VINA RESULT: -7.969659939      3.261      7.792
REMARK  10 active torsions:
REMARK  status: ('A' for Active; 'I' for Inactive)
REMARK    1  A    between atoms: C3_3  and  C5_5 
REMARK    2  A    between atoms: C5_5  and  C6_6 
REMARK    3  A    between atoms: C6_6  and  C7_7 
REMARK    4  A    between atoms: C7_7  and  C8_8 
REMARK    5  A    between atoms: C8_8  and  O1_9 
REMARK    6  A    between atoms: C8_8  and  C9_11 
REMARK    7  A    between atoms: C15_18  and  O3_19 
REMARK    8  A    between atoms: C16_21  and  N1_22 
REMARK    9  A    between atoms: N1_22  and  O4_24 
REMARK   10  A    between atoms: C17_26  and  O5_27 
ROOT
HETATM    1  C9  UNL     1       0.865   4.699  32.169  1.00  0.00     0.019 C 
HETATM    2  C10 UNL     1       1.847   5.782  31.921  1.00  0.00     0.014 C 
HETATM    3  C11 UNL     1       3.253   5.477  32.385  1.00  0.00     0.066 C 
HETATM    4  C12 UNL     1       3.159   5.276  33.871  1.00  0.00     0.064 A 
HETATM    5  O2  UNL     1       3.944   5.872  34.718  1.00  0.00    -0.313 OA
HETATM    6  C13 UNL     1       3.819   5.661  36.010  1.00  0.00     0.095 A 
HETATM    7  C14 UNL     1       4.643   6.282  36.929  1.00  0.00     0.077 A 
HETATM    8  C15 UNL     1       4.473   6.029  38.275  1.00  0.00     0.099 A 
HETATM    9  C16 UNL     1       3.495   5.165  38.725  1.00  0.00     0.121 A 
HETATM   10  C17 UNL     1       2.673   4.543  37.816  1.00  0.00     0.114 A 
HETATM   11  C18 UNL     1       2.840   4.795  36.481  1.00  0.00     0.084 A 
HETATM   12  C19 UNL     1       1.995   4.151  35.602  1.00  0.00     0.196 A 
HETATM   13  O6  UNL     1       1.094   3.358  35.987  1.00  0.00    -0.287 OA
HETATM   14  C20 UNL     1       2.168   4.406  34.259  1.00  0.00     0.023 A 
HETATM   15  C21 UNL     1       1.278   3.735  33.268  1.00  0.00     0.052 C 
ENDROOT
BRANCH   1  16
HETATM   16  C8  UNL     1      -0.514   5.182  32.498  1.00  0.00     0.122 C 
BRANCH  16  17
HETATM   17  C7  UNL     1      -1.348   5.567  31.328  1.00  0.00     0.032 C 
BRANCH  17  18
HETATM   18  C6  UNL     1      -1.322   7.052  31.041  1.00  0.00     0.007 C 
BRANCH  18  19
HETATM   19  C5  UNL     1      -2.710   7.653  31.087  1.00  0.00     0.033 C 
BRANCH  19  20
HETATM   20  C3  UNL     1      -2.777   8.576  32.249  1.00  0.00    -0.088 C 
HETATM   21  C2  UNL     1      -1.760   9.354  32.561  1.00  0.00    -0.029 C 
HETATM   22  C1  UNL     1      -1.847  10.265  33.722  1.00  0.00     0.036 C 
HETATM   23  C4  UNL     1      -4.000   8.632  33.081  1.00  0.00     0.043 C 
ENDBRANCH  19  20
ENDBRANCH  18  19
ENDBRANCH  17  18
ENDBRANCH  16  17
BRANCH  16  24
HETATM   24  O1  UNL     1      -0.497   6.269  33.382  1.00  0.00    -0.395 OA
ATOM     25  H1  UNL     1       0.370   6.656  33.345  1.00  0.00     0.210 HD
ENDBRANCH  16  24
ENDBRANCH   1  16
BRANCH  10  26
HETATM   26  O5  UNL     1       1.667   3.662  38.198  1.00  0.00    -0.357 OA
ATOM     27  H5  UNL     1       1.705   3.165  39.008  1.00  0.00     0.217 HD
ENDBRANCH  10  26
BRANCH   9  28
HETATM   28  N1  UNL     1       3.307   4.892  40.108  1.00  0.00    -0.264 N 
ATOM     29  H1  UNL     1       2.476   5.211  40.607  1.00  0.00     0.194 HD
BRANCH  28  30
HETATM   30  O4  UNL     1       4.206   4.245  40.682  1.00  0.00    -0.289 OA
ATOM     31  H4  UNL     1       4.878   3.863  40.131  1.00  0.00     0.244 HD
ENDBRANCH  28  30
ENDBRANCH   9  28
BRANCH   8  32
HETATM   32  O3  UNL     1       5.293   6.647  39.207  1.00  0.00    -0.358 OA
ATOM     33  H3  UNL     1       5.604   7.532  39.055  1.00  0.00     0.217 HD
ENDBRANCH   8  32
TORSDOF 10
ENDMDL
MODEL 5
REMARK VINA RESULT: -7.966929793      1.269      1.761
REMARK  10 active torsions:
REMARK  status: ('A' for Active; 'I' for Inactive)
REMARK    1  A    between atoms: C3_3  and  C5_5 
REMARK    2  A    between atoms: C5_5  and  C6_6 
REMARK    3  A    between atoms: C6_6  and  C7_7 
REMARK    4  A    between atoms: C7_7  and  C8_8 
REMARK    5  A    between atoms: C8_8  and  O1_9 
REMARK    6  A    between atoms: C8_8  and  C9_11 
REMARK    7  A    between atoms: C15_18  and  O3_19 
REMARK    8  A    between atoms: C16_21  and  N1_22 
REMARK    9  A    between atoms: N1_22  and  O4_24 
REMARK   10  A    between atoms: C17_26  and  O5_27 
ROOT
HETATM    1  C9  UNL     1       2.204   1.638  37.616  1.00  0.00     0.019 C 
HETATM    2  C10 UNL     1       0.879   1.073  37.266  1.00  0.00     0.014 C 
HETATM    3  C11 UNL     1       0.764   0.560  35.850  1.00  0.00     0.066 C 
HETATM    4  C12 UNL     1       1.002   1.751  34.964  1.00  0.00     0.064 A 
HETATM    5  O2  UNL     1       0.213   2.073  33.983  1.00  0.00    -0.313 OA
HETATM    6  C13 UNL     1       0.467   3.126  33.238  1.00  0.00     0.095 A 
HETATM    7  C14 UNL     1      -0.357   3.488  32.189  1.00  0.00     0.077 A 
HETATM    8  C15 UNL     1      -0.049   4.602  31.435  1.00  0.00     0.099 A 
HETATM    9  C16 UNL     1       1.068   5.366  31.706  1.00  0.00     0.121 A 
HETATM   10  C17 UNL     1       1.893   5.010  32.747  1.00  0.00     0.114 A 
HETATM   11  C18 UNL     1       1.587   3.906  33.496  1.00  0.00     0.084 A 
HETATM   12  C19 UNL     1       2.440   3.584  34.531  1.00  0.00     0.196 A 
HETATM   13  O6  UNL     1       3.466   4.265  34.799  1.00  0.00    -0.287 OA
HETATM   14  C20 UNL     1       2.129   2.472  35.281  1.00  0.00     0.023 A 
HETATM   15  C21 UNL     1       3.019   2.082  36.412  1.00  0.00     0.052 C 
ENDROOT
BRANCH   1  16
HETATM   16  C8  UNL     1       2.150   2.794  38.566  1.00  0.00     0.122 C 
BRANCH  16  17
HETATM   17  C7  UNL     1       2.536   4.109  37.988  1.00  0.00     0.032 C 
BRANCH  17  18
HETATM   18  C6  UNL     1       3.777   4.697  38.623  1.00  0.00     0.007 C 
BRANCH  18  19
HETATM   19  C5  UNL     1       3.614   6.176  38.898  1.00  0.00     0.033 C 
BRANCH  19  20
HETATM   20  C3  UNL     1       4.764   6.890  38.287  1.00  0.00    -0.088 C 
HETATM   21  C2  UNL     1       5.378   6.410  37.224  1.00  0.00    -0.029 C 
HETATM   22  C1  UNL     1       6.521   7.137  36.632  1.00  0.00     0.036 C 
HETATM   23  C4  UNL     1       5.241   8.165  38.871  1.00  0.00     0.043 C 
ENDBRANCH  19  20
ENDBRANCH  18  19
ENDBRANCH  17  18
ENDBRANCH  16  17
BRANCH  16  24
HETATM   24  O1  UNL     1       2.940   2.583  39.703  1.00  0.00    -0.395 OA
ATOM     25  H1  UNL     1       2.686   1.748  40.079  1.00  0.00     0.210 HD
ENDBRANCH  16  24
ENDBRANCH   1  16
BRANCH  10  26
HETATM   26  O5  UNL     1       3.034   5.733  33.076  1.00  0.00    -0.357 OA
ATOM     27  H5  UNL     1       3.806   5.326  33.452  1.00  0.00     0.217 HD
ENDBRANCH  10  26
BRANCH   9  28
HETATM   28  N1  UNL     1       1.401   6.516  30.938  1.00  0.00    -0.264 N 
ATOM     29  H1  UNL     1       0.852   7.374  30.998  1.00  0.00     0.194 HD
BRANCH  28  30
HETATM   30  O4  UNL     1       2.394   6.426  30.189  1.00  0.00    -0.289 OA
ATOM     31  H4  UNL     1       2.268   6.664  29.279  1.00  0.00     0.244 HD
ENDBRANCH  28  30
ENDBRANCH   9  28
BRANCH   8  32
HETATM   32  O3  UNL     1      -0.869   4.975  30.380  1.00  0.00    -0.358 OA
ATOM     33  H3  UNL     1      -1.196   5.866  30.324  1.00  0.00     0.217 HD
ENDBRANCH   8  32
TORSDOF 10
ENDMDL
