MODEL 1
REMARK VINA RESULT: -5.819833213      0.000      0.000
REMARK  8 active torsions:
REMARK  status: ('A' for Active; 'I' for Inactive)
REMARK    1  A    between atoms: C2_2  and  C3_3 
REMARK    2  A    between atoms: C3_3  and  C4_4 
REMARK    3  A    between atoms: C8_8  and  O1_9 
REMARK    4  A    between atoms: C9_12  and  C10_13 
REMARK    5  A    between atoms: C13_20  and  C14_21 
REMARK    6  A    between atoms: C15_22  and  O4_23 
REMARK    7  A    between atoms: C18_26  and  O5_27 
REMARK    8  A    between atoms: C20_30  and  O6_31 
ROOT
HETATM    1  C4  UNL     1      -4.655   8.402  31.695  1.00  0.00    -0.017 C 
HETATM    2  C5  UNL     1      -3.482   7.791  31.798  1.00  0.00    -0.045 A 
HETATM    3  C6  UNL     1      -2.687   7.610  30.555  1.00  0.00     0.083 A 
HETATM    4  C7  UNL     1      -1.415   6.916  30.780  1.00  0.00     0.040 A 
HETATM    5  C8  UNL     1      -0.443   6.543  29.900  1.00  0.00     0.193 A 
HETATM    6  O2  UNL     1       0.522   5.945  30.551  1.00  0.00    -0.283 OA
HETATM    7  C9  UNL     1       0.236   5.903  31.825  1.00  0.00     0.134 A 
HETATM    8  C12 UNL     1      -0.986   6.508  32.020  1.00  0.00     0.117 A 
HETATM    9  O3  UNL     1      -1.763   6.748  33.121  1.00  0.00    -0.333 OA
HETATM   10  C13 UNL     1      -3.037   7.331  33.124  1.00  0.00     0.197 A 
ENDROOT
BRANCH  10  11
HETATM   11  C14 UNL     1      -3.136   8.417  34.162  1.00  0.00     0.042 A 
HETATM   12  C15 UNL     1      -4.217   8.486  35.015  1.00  0.00     0.082 A 
HETATM   13  C17 UNL     1      -4.285   9.486  35.954  1.00  0.00     0.074 A 
HETATM   14  C18 UNL     1      -3.287  10.449  36.079  1.00  0.00     0.071 A 
HETATM   15  C19 UNL     1      -2.212  10.383  35.230  1.00  0.00     0.074 A 
HETATM   16  C20 UNL     1      -2.134   9.371  34.274  1.00  0.00     0.082 A 
BRANCH  12  17
HETATM   17  O4  UNL     1      -5.239   7.551  34.934  1.00  0.00    -0.355 OA
HETATM   18  C16 UNL     1      -6.598   7.941  34.975  1.00  0.00     0.210 C 
ENDBRANCH  12  17
BRANCH  14  19
HETATM   19  O5  UNL     1      -3.329  11.470  37.016  1.00  0.00    -0.361 OA
ATOM     20  H5  UNL     1      -2.630  12.103  37.128  1.00  0.00     0.217 HD
ENDBRANCH  14  19
BRANCH  16  21
HETATM   21  O6  UNL     1      -1.040   9.318  33.425  1.00  0.00    -0.355 OA
HETATM   22  C21 UNL     1      -0.947  10.194  32.324  1.00  0.00     0.210 C 
ENDBRANCH  16  21
ENDBRANCH  10  11
BRANCH   1  23
HETATM   23  C3  UNL     1      -5.178   8.898  30.393  1.00  0.00     0.053 C 
BRANCH  23  24
HETATM   24  C2  UNL     1      -6.645   8.718  30.283  1.00  0.00    -0.033 C 
HETATM   25  C1  UNL     1      -7.414   8.241  31.250  1.00  0.00     0.007 C 
ENDBRANCH  23  24
ENDBRANCH   1  23
BRANCH   7  26
HETATM   26  C10 UNL     1       1.081   5.312  32.844  1.00  0.00     0.036 C 
HETATM   27  C11 UNL     1       2.542   5.544  32.849  1.00  0.00     0.070 C 
HETATM   28  N1  UNL     1       0.582   4.572  33.770  1.00  0.00    -0.400 N 
ATOM     29  H12 UNL     1      -0.426   4.412  33.766  1.00  0.00     0.156 HD
ATOM     30  H11 UNL     1       1.176   4.156  34.487  1.00  0.00     0.156 HD
ENDBRANCH   7  26
BRANCH   5  31
HETATM   31  O1  UNL     1      -0.443   6.749  28.521  1.00  0.00    -0.340 OA
ATOM     32  H1  UNL     1      -0.140   6.143  27.857  1.00  0.00     0.220 HD
ENDBRANCH   5  31
TORSDOF 8
ENDMDL
MODEL 2
REMARK VINA RESULT: -5.799642937      0.042      2.367
REMARK  8 active torsions:
REMARK  status: ('A' for Active; 'I' for Inactive)
REMARK    1  A    between atoms: C2_2  and  C3_3 
REMARK    2  A    between atoms: C3_3  and  C4_4 
REMARK    3  A    between atoms: C8_8  and  O1_9 
REMARK    4  A    between atoms: C9_12  and  C10_13 
REMARK    5  A    between atoms: C13_20  and  C14_21 
REMARK    6  A    between atoms: C15_22  and  O4_23 
REMARK    7  A    between atoms: C18_26  and  O5_27 
REMARK    8  A    between atoms: C20_30  and  O6_31 
ROOT
HETATM    1  C4  UNL     1      -4.655   8.403  31.723  1.00  0.00    -0.017 C 
HETATM    2  C5  UNL     1      -3.484   7.787  31.816  1.00  0.00    -0.045 A 
HETATM    3  C6  UNL     1      -2.706   7.593  30.565  1.00  0.00     0.083 A 
HETATM    4  C7  UNL     1      -1.434   6.895  30.780  1.00  0.00     0.040 A 
HETATM    5  C8  UNL     1      -0.474   6.511  29.891  1.00  0.00     0.193 A 
HETATM    6  O2  UNL     1       0.496   5.914  30.534  1.00  0.00    -0.283 OA
HETATM    7  C9  UNL     1       0.225   5.883  31.812  1.00  0.00     0.134 A 
HETATM    8  C12 UNL     1      -0.991   6.495  32.018  1.00  0.00     0.117 A 
HETATM    9  O3  UNL     1      -1.754   6.746  33.127  1.00  0.00    -0.333 OA
HETATM   10  C13 UNL     1      -3.025   7.335  33.141  1.00  0.00     0.197 A 
ENDROOT
BRANCH  10  11
HETATM   11  C14 UNL     1      -3.106   8.430  34.171  1.00  0.00     0.042 A 
HETATM   12  C15 UNL     1      -2.110   9.378  34.276  1.00  0.00     0.082 A 
HETATM   13  C17 UNL     1      -2.206  10.368  35.223  1.00  0.00     0.074 A 
HETATM   14  C18 UNL     1      -3.288  10.452  36.095  1.00  0.00     0.071 A 
HETATM   15  C19 UNL     1      -4.279   9.509  35.992  1.00  0.00     0.074 A 
HETATM   16  C20 UNL     1      -4.191   8.500  35.033  1.00  0.00     0.082 A 
BRANCH  12  17
HETATM   17  O4  UNL     1      -1.010   9.341  33.432  1.00  0.00    -0.355 OA
HETATM   18  C16 UNL     1      -0.926  10.180  32.296  1.00  0.00     0.210 C 
ENDBRANCH  12  17
BRANCH  14  19
HETATM   19  O5  UNL     1      -3.411  11.439  37.061  1.00  0.00    -0.361 OA
ATOM     20  H5  UNL     1      -3.430  12.367  36.858  1.00  0.00     0.217 HD
ENDBRANCH  14  19
BRANCH  16  21
HETATM   21  O6  UNL     1      -5.201   7.557  34.942  1.00  0.00    -0.355 OA
HETATM   22  C21 UNL     1      -6.552   7.944  35.050  1.00  0.00     0.210 C 
ENDBRANCH  16  21
ENDBRANCH  10  11
BRANCH   1  23
HETATM   23  C3  UNL     1      -5.192   8.891  30.424  1.00  0.00     0.053 C 
BRANCH  23  24
HETATM   24  C2  UNL     1      -6.657   8.693  30.322  1.00  0.00    -0.033 C 
HETATM   25  C1  UNL     1      -7.418   8.227  31.301  1.00  0.00     0.007 C 
ENDBRANCH  23  24
ENDBRANCH   1  23
BRANCH   7  26
HETATM   26  C10 UNL     1       1.080   5.296  32.826  1.00  0.00     0.036 C 
HETATM   27  C11 UNL     1       2.542   5.523  32.813  1.00  0.00     0.070 C 
HETATM   28  N1  UNL     1       0.589   4.562  33.762  1.00  0.00    -0.400 N 
ATOM     29  H12 UNL     1      -0.419   4.405  33.771  1.00  0.00     0.156 HD
ATOM     30  H11 UNL     1       1.190   4.150  34.475  1.00  0.00     0.156 HD
ENDBRANCH   7  26
BRANCH   5  31
HETATM   31  O1  UNL     1      -0.490   6.706  28.511  1.00  0.00    -0.340 OA
ATOM     32  H1  UNL     1       0.180   6.444  27.892  1.00  0.00     0.220 HD
ENDBRANCH   5  31
TORSDOF 8
ENDMDL
MODEL 3
REMARK VINA RESULT: -5.728494586      2.926      7.019
REMARK  8 active torsions:
REMARK  status: ('A' for Active; 'I' for Inactive)
REMARK    1  A    between atoms: C2_2  and  C3_3 
REMARK    2  A    between atoms: C3_3  and  C4_4 
REMARK    3  A    between atoms: C8_8  and  O1_9 
REMARK    4  A    between atoms: C9_12  and  C10_13 
REMARK    5  A    between atoms: C13_20  and  C14_21 
REMARK    6  A    between atoms: C15_22  and  O4_23 
REMARK    7  A    between atoms: C18_26  and  O5_27 
REMARK    8  A    between atoms: C20_30  and  O6_31 
ROOT
HETATM    1  C4  UNL     1      -6.684   7.408  34.267  1.00  0.00    -0.017 C 
HETATM    2  C5  UNL     1      -6.226   8.589  34.660  1.00  0.00    -0.045 A 
HETATM    3  C6  UNL     1      -6.348   8.933  36.101  1.00  0.00     0.083 A 
HETATM    4  C7  UNL     1      -5.820  10.262  36.424  1.00  0.00     0.040 A 
HETATM    5  C8  UNL     1      -5.782  10.935  37.609  1.00  0.00     0.193 A 
HETATM    6  O2  UNL     1      -5.215  12.099  37.426  1.00  0.00    -0.283 OA
HETATM    7  C9  UNL     1      -4.874  12.233  36.172  1.00  0.00     0.134 A 
HETATM    8  C12 UNL     1      -5.239  11.091  35.494  1.00  0.00     0.117 A 
HETATM    9  O3  UNL     1      -5.131  10.682  34.192  1.00  0.00    -0.333 OA
HETATM   10  C13 UNL     1      -5.628   9.486  33.656  1.00  0.00     0.197 A 
ENDROOT
BRANCH  10  11
HETATM   11  C14 UNL     1      -4.584   8.788  32.825  1.00  0.00     0.042 A 
HETATM   12  C15 UNL     1      -4.748   8.636  31.464  1.00  0.00     0.082 A 
HETATM   13  C17 UNL     1      -3.781   7.996  30.727  1.00  0.00     0.074 A 
HETATM   14  C18 UNL     1      -2.625   7.486  31.311  1.00  0.00     0.071 A 
HETATM   15  C19 UNL     1      -2.462   7.636  32.664  1.00  0.00     0.074 A 
HETATM   16  C20 UNL     1      -3.437   8.285  33.422  1.00  0.00     0.082 A 
BRANCH  12  17
HETATM   17  O4  UNL     1      -5.881   9.126  30.832  1.00  0.00    -0.355 OA
HETATM   18  C16 UNL     1      -5.831   9.607  29.503  1.00  0.00     0.210 C 
ENDBRANCH  12  17
BRANCH  14  19
HETATM   19  O5  UNL     1      -1.634   6.835  30.592  1.00  0.00    -0.361 OA
ATOM     20  H5  UNL     1      -0.950   7.291  30.117  1.00  0.00     0.217 HD
ENDBRANCH  14  19
BRANCH  16  21
HETATM   21  O6  UNL     1      -3.256   8.428  34.787  1.00  0.00    -0.355 OA
HETATM   22  C21 UNL     1      -2.108   9.073  35.292  1.00  0.00     0.210 C 
ENDBRANCH  16  21
ENDBRANCH  10  11
BRANCH   1  23
HETATM   23  C3  UNL     1      -7.303   6.444  35.216  1.00  0.00     0.053 C 
BRANCH  23  24
HETATM   24  C2  UNL     1      -6.463   5.237  35.404  1.00  0.00    -0.033 C 
HETATM   25  C1  UNL     1      -6.452   4.499  36.503  1.00  0.00     0.007 C 
ENDBRANCH  23  24
ENDBRANCH   1  23
BRANCH   7  26
HETATM   26  C10 UNL     1      -4.222  13.400  35.610  1.00  0.00     0.036 C 
HETATM   27  C11 UNL     1      -4.532  14.758  36.109  1.00  0.00     0.070 C 
HETATM   28  N1  UNL     1      -3.358  13.284  34.665  1.00  0.00    -0.400 N 
ATOM     29  H12 UNL     1      -3.144  12.348  34.321  1.00  0.00     0.156 HD
ATOM     30  H11 UNL     1      -2.899  14.105  34.270  1.00  0.00     0.156 HD
ENDBRANCH   7  26
BRANCH   5  31
HETATM   31  O1  UNL     1      -6.261  10.485  38.838  1.00  0.00    -0.340 OA
ATOM     32  H1  UNL     1      -7.155  10.534  39.152  1.00  0.00     0.220 HD
ENDBRANCH   5  31
TORSDOF 8
ENDMDL
MODEL 4
REMARK VINA RESULT: -5.727080531      8.344     11.039
REMARK  8 active torsions:
REMARK  status: ('A' for Active; 'I' for Inactive)
REMARK    1  A    between atoms: C2_2  and  C3_3 
REMARK    2  A    between atoms: C3_3  and  C4_4 
REMARK    3  A    between atoms: C8_8  and  O1_9 
REMARK    4  A    between atoms: C9_12  and  C10_13 
REMARK    5  A    between atoms: C13_20  and  C14_21 
REMARK    6  A    between atoms: C15_22  and  O4_23 
REMARK    7  A    between atoms: C18_26  and  O5_27 
REMARK    8  A    between atoms: C20_30  and  O6_31 
ROOT
HETATM    1  C4  UNL     1      -0.167  -2.166  34.648  1.00  0.00    -0.017 C 
HETATM    2  C5  UNL     1      -1.263  -1.840  35.321  1.00  0.00    -0.045 A 
HETATM    3  C6  UNL     1      -2.235  -2.923  35.623  1.00  0.00     0.083 A 
HETATM    4  C7  UNL     1      -3.412  -2.453  36.361  1.00  0.00     0.040 A 
HETATM    5  C8  UNL     1      -4.518  -3.128  36.785  1.00  0.00     0.193 A 
HETATM    6  O2  UNL     1      -5.316  -2.299  37.408  1.00  0.00    -0.283 OA
HETATM    7  C9  UNL     1      -4.792  -1.102  37.417  1.00  0.00     0.134 A 
HETATM    8  C12 UNL     1      -3.581  -1.149  36.763  1.00  0.00     0.117 A 
HETATM    9  O3  UNL     1      -2.618  -0.219  36.476  1.00  0.00    -0.333 OA
HETATM   10  C13 UNL     1      -1.454  -0.437  35.727  1.00  0.00     0.197 A 
ENDROOT
BRANCH  10  11
HETATM   11  C14 UNL     1      -0.243   0.117  36.430  1.00  0.00     0.042 A 
HETATM   12  C15 UNL     1       0.155  -0.381  37.653  1.00  0.00     0.082 A 
HETATM   13  C17 UNL     1       1.263   0.140  38.276  1.00  0.00     0.074 A 
HETATM   14  C18 UNL     1       2.012   1.168  37.709  1.00  0.00     0.071 A 
HETATM   15  C19 UNL     1       1.617   1.664  36.493  1.00  0.00     0.074 A 
HETATM   16  C20 UNL     1       0.493   1.142  35.853  1.00  0.00     0.082 A 
BRANCH  12  17
HETATM   17  O4  UNL     1      -0.555  -1.405  38.262  1.00  0.00    -0.355 OA
HETATM   18  C16 UNL     1       0.049  -2.653  38.543  1.00  0.00     0.210 C 
ENDBRANCH  12  17
BRANCH  14  19
HETATM   19  O5  UNL     1       3.134   1.714  38.314  1.00  0.00    -0.361 OA
ATOM     20  H5  UNL     1       3.415   2.611  38.178  1.00  0.00     0.217 HD
ENDBRANCH  14  19
BRANCH  16  21
HETATM   21  O6  UNL     1       0.108   1.654  34.625  1.00  0.00    -0.355 OA
HETATM   22  C21 UNL     1       0.993   2.458  33.877  1.00  0.00     0.210 C 
ENDBRANCH  16  21
ENDBRANCH  10  11
BRANCH   1  23
HETATM   23  C3  UNL     1       0.102  -3.559  34.201  1.00  0.00     0.053 C 
BRANCH  23  24
HETATM   24  C2  UNL     1       0.660  -3.601  32.828  1.00  0.00    -0.033 C 
HETATM   25  C1  UNL     1       1.561  -2.750  32.362  1.00  0.00     0.007 C 
ENDBRANCH  23  24
ENDBRANCH   1  23
BRANCH   7  26
HETATM   26  C10 UNL     1      -5.402   0.066  38.021  1.00  0.00     0.036 C 
HETATM   27  C11 UNL     1      -6.161  -0.042  39.287  1.00  0.00     0.070 C 
HETATM   28  N1  UNL     1      -5.301   1.225  37.473  1.00  0.00    -0.400 N 
ATOM     29  H12 UNL     1      -4.778   1.299  36.600  1.00  0.00     0.156 HD
ATOM     30  H11 UNL     1      -5.731   2.046  37.898  1.00  0.00     0.156 HD
ENDBRANCH   7  26
BRANCH   5  31
HETATM   31  O1  UNL     1      -4.788  -4.482  36.603  1.00  0.00    -0.340 OA
ATOM     32  H1  UNL     1      -5.040  -4.907  35.792  1.00  0.00     0.220 HD
ENDBRANCH   5  31
TORSDOF 8
ENDMDL
MODEL 5
REMARK VINA RESULT: -5.658424688      8.352     11.205
REMARK  8 active torsions:
REMARK  status: ('A' for Active; 'I' for Inactive)
REMARK    1  A    between atoms: C2_2  and  C3_3 
REMARK    2  A    between atoms: C3_3  and  C4_4 
REMARK    3  A    between atoms: C8_8  and  O1_9 
REMARK    4  A    between atoms: C9_12  and  C10_13 
REMARK    5  A    between atoms: C13_20  and  C14_21 
REMARK    6  A    between atoms: C15_22  and  O4_23 
REMARK    7  A    between atoms: C18_26  and  O5_27 
REMARK    8  A    between atoms: C20_30  and  O6_31 
ROOT
HETATM    1  C4  UNL     1      -0.161  -2.174  34.629  1.00  0.00    -0.017 C 
HETATM    2  C5  UNL     1      -1.255  -1.854  35.306  1.00  0.00    -0.045 A 
HETATM    3  C6  UNL     1      -2.213  -2.946  35.624  1.00  0.00     0.083 A 
HETATM    4  C7  UNL     1      -3.391  -2.482  36.365  1.00  0.00     0.040 A 
HETATM    5  C8  UNL     1      -4.487  -3.165  36.803  1.00  0.00     0.193 A 
HETATM    6  O2  UNL     1      -5.290  -2.340  37.424  1.00  0.00    -0.283 OA
HETATM    7  C9  UNL     1      -4.778  -1.138  37.420  1.00  0.00     0.134 A 
HETATM    8  C12 UNL     1      -3.571  -1.177  36.758  1.00  0.00     0.117 A 
HETATM    9  O3  UNL     1      -2.620  -0.239  36.457  1.00  0.00    -0.333 OA
HETATM   10  C13 UNL     1      -1.459  -0.450  35.702  1.00  0.00     0.197 A 
ENDROOT
BRANCH  10  11
HETATM   11  C14 UNL     1      -0.250   0.122  36.392  1.00  0.00     0.042 A 
HETATM   12  C15 UNL     1       0.478   1.143  35.816  1.00  0.00     0.082 A 
HETATM   13  C17 UNL     1       1.577   1.650  36.465  1.00  0.00     0.074 A 
HETATM   14  C18 UNL     1       1.992   1.165  37.702  1.00  0.00     0.071 A 
HETATM   15  C19 UNL     1       1.269   0.150  38.276  1.00  0.00     0.074 A 
HETATM   16  C20 UNL     1       0.151  -0.371  37.626  1.00  0.00     0.082 A 
BRANCH  12  17
HETATM   17  O4  UNL     1       0.108   1.662  34.584  1.00  0.00    -0.355 OA
HETATM   18  C16 UNL     1       0.976   2.505  33.851  1.00  0.00     0.210 C 
ENDBRANCH  12  17
BRANCH  14  19
HETATM   19  O5  UNL     1       3.097   1.657  38.380  1.00  0.00    -0.361 OA
ATOM     20  H5  UNL     1       3.718   2.263  37.993  1.00  0.00     0.217 HD
ENDBRANCH  14  19
BRANCH  16  21
HETATM   21  O6  UNL     1      -0.567  -1.395  38.220  1.00  0.00    -0.355 OA
HETATM   22  C21 UNL     1       0.059  -2.619  38.532  1.00  0.00     0.210 C 
ENDBRANCH  16  21
ENDBRANCH  10  11
BRANCH   1  23
HETATM   23  C3  UNL     1       0.121  -3.568  34.191  1.00  0.00     0.053 C 
BRANCH  23  24
HETATM   24  C2  UNL     1       0.669  -3.615  32.815  1.00  0.00    -0.033 C 
HETATM   25  C1  UNL     1       1.570  -2.768  32.341  1.00  0.00     0.007 C 
ENDBRANCH  23  24
ENDBRANCH   1  23
BRANCH   7  26
HETATM   26  C10 UNL     1      -5.398   0.028  38.018  1.00  0.00     0.036 C 
HETATM   27  C11 UNL     1      -6.166  -0.082  39.278  1.00  0.00     0.070 C 
HETATM   28  N1  UNL     1      -5.296   1.187  37.470  1.00  0.00    -0.400 N 
ATOM     29  H12 UNL     1      -4.767   1.263  36.601  1.00  0.00     0.156 HD
ATOM     30  H11 UNL     1      -5.732   2.007  37.891  1.00  0.00     0.156 HD
ENDBRANCH   7  26
BRANCH   5  31
HETATM   31  O1  UNL     1      -4.743  -4.525  36.634  1.00  0.00    -0.340 OA
ATOM     32  H1  UNL     1      -4.102  -5.209  36.481  1.00  0.00     0.220 HD
ENDBRANCH   5  31
TORSDOF 8
ENDMDL
