MODEL 1
REMARK VINA RESULT: -7.789134937      0.000      0.000
REMARK  14 active torsions:
REMARK  status: ('A' for Active; 'I' for Inactive)
REMARK    1  A    between atoms: C2_2  and  C3_3 
REMARK    2  A    between atoms: C3_3  and  C4_4 
REMARK    3  A    between atoms: C4_4  and  C5_5 
REMARK    4  A    between atoms: C5_5  and  C6_6 
REMARK    5  A    between atoms: C6_6  and  N1_7 
REMARK    6  A    between atoms: N1_7  and  C7_9 
REMARK    7  A    between atoms: C7_9  and  N2_11 
REMARK    8  A    between atoms: N2_11  and  C8_13 
REMARK    9  A    between atoms: C8_13  and  C9_14 
REMARK   10  A    between atoms: C9_14  and  C10_15 
REMARK   11  A    between atoms: C10_15  and  C11_16 
REMARK   12  A    between atoms: C11_16  and  N3_17 
REMARK   13  A    between atoms: N3_17  and  S2_19 
REMARK   14  A    between atoms: S2_19  and  C12_22 
ROOT
HETATM    1  C10 UNL     1      16.299  19.557  26.405  1.00  0.00     0.022 C 
ENDROOT
BRANCH   1   2
HETATM    2  C9  UNL     1      17.081  20.547  25.632  1.00  0.00     0.021 C 
BRANCH   2   3
HETATM    3  C8  UNL     1      18.519  20.714  25.993  1.00  0.00     0.122 C 
BRANCH   3   4
HETATM    4  N2  UNL     1      19.389  20.365  24.860  1.00  0.00    -0.367 N 
ATOM      5  H2  UNL     1      18.987  19.801  24.112  1.00  0.00     0.161 HD
BRANCH   4   6
HETATM    6  C7  UNL     1      20.737  20.751  24.733  1.00  0.00     0.167 C 
HETATM    7  S1  UNL     1      21.488  20.529  23.288  1.00  0.00    -0.041 SA
BRANCH   6   8
HETATM    8  N1  UNL     1      21.471  21.340  25.784  1.00  0.00    -0.367 N 
ATOM      9  H1  UNL     1      21.292  20.993  26.727  1.00  0.00     0.161 HD
BRANCH   8  10
HETATM   10  C6  UNL     1      22.448  22.382  25.645  1.00  0.00     0.122 C 
BRANCH  10  11
HETATM   11  C5  UNL     1      23.341  22.432  26.832  1.00  0.00     0.020 C 
BRANCH  11  12
HETATM   12  C4  UNL     1      23.899  21.047  27.103  1.00  0.00     0.005 C 
BRANCH  12  13
HETATM   13  C3  UNL     1      24.849  21.094  28.269  1.00  0.00     0.026 C 
BRANCH  13  14
HETATM   14  C2  UNL     1      25.459  22.447  28.278  1.00  0.00    -0.037 C 
HETATM   15  C1  UNL     1      26.778  22.570  28.284  1.00  0.00     0.007 C 
ENDBRANCH  13  14
ENDBRANCH  12  13
ENDBRANCH  11  12
ENDBRANCH  10  11
ENDBRANCH   8  10
ENDBRANCH   6   8
ENDBRANCH   4   6
ENDBRANCH   3   4
ENDBRANCH   2   3
ENDBRANCH   1   2
BRANCH   1  16
HETATM   16  C11 UNL     1      16.999  18.934  27.551  1.00  0.00     0.132 C 
BRANCH  16  17
HETATM   17  N3  UNL     1      17.066  17.511  27.418  1.00  0.00    -0.319 N 
ATOM     18  H3  UNL     1      16.281  16.870  27.524  1.00  0.00     0.172 HD
BRANCH  17  19
HETATM   19  S2  UNL     1      18.686  17.051  27.048  1.00  0.00     0.230 S 
HETATM   20  O1  UNL     1      18.829  15.577  27.306  1.00  0.00    -0.206 OA
HETATM   21  O2  UNL     1      19.004  17.334  25.605  1.00  0.00    -0.206 OA
BRANCH  19  22
HETATM   22  C12 UNL     1      19.879  17.951  28.016  1.00  0.00     0.129 C 
HETATM   23  C13 UNL     1      20.041  17.186  29.308  1.00  0.00     0.027 C 
HETATM   24  C14 UNL     1      21.208  17.606  30.124  1.00  0.00     0.080 C 
HETATM   25  C15 UNL     1      22.342  18.183  29.310  1.00  0.00     0.243 C 
HETATM   26  F1  UNL     1      22.068  19.537  29.148  1.00  0.00    -0.206 F 
HETATM   27  F2  UNL     1      23.561  18.012  29.884  1.00  0.00    -0.206 F 
HETATM   28  C16 UNL     1      22.342  17.520  27.938  1.00  0.00     0.080 C 
HETATM   29  C17 UNL     1      21.121  18.103  27.215  1.00  0.00     0.027 C 
ENDBRANCH  19  22
ENDBRANCH  17  19
ENDBRANCH  16  17
ENDBRANCH   1  16
TORSDOF 14
ENDMDL
MODEL 2
REMARK VINA RESULT: -7.562057810      1.248      1.516
REMARK  14 active torsions:
REMARK  status: ('A' for Active; 'I' for Inactive)
REMARK    1  A    between atoms: C2_2  and  C3_3 
REMARK    2  A    between atoms: C3_3  and  C4_4 
REMARK    3  A    between atoms: C4_4  and  C5_5 
REMARK    4  A    between atoms: C5_5  and  C6_6 
REMARK    5  A    between atoms: C6_6  and  N1_7 
REMARK    6  A    between atoms: N1_7  and  C7_9 
REMARK    7  A    between atoms: C7_9  and  N2_11 
REMARK    8  A    between atoms: N2_11  and  C8_13 
REMARK    9  A    between atoms: C8_13  and  C9_14 
REMARK   10  A    between atoms: C9_14  and  C10_15 
REMARK   11  A    between atoms: C10_15  and  C11_16 
REMARK   12  A    between atoms: C11_16  and  N3_17 
REMARK   13  A    between atoms: N3_17  and  S2_19 
REMARK   14  A    between atoms: S2_19  and  C12_22 
ROOT
HETATM    1  C10 UNL     1      16.352  19.635  26.486  1.00  0.00     0.022 C 
ENDROOT
BRANCH   1   2
HETATM    2  C9  UNL     1      17.174  20.500  25.612  1.00  0.00     0.021 C 
BRANCH   2   3
HETATM    3  C8  UNL     1      18.607  20.686  25.986  1.00  0.00     0.122 C 
BRANCH   3   4
HETATM    4  N2  UNL     1      19.491  20.370  24.854  1.00  0.00    -0.367 N 
ATOM      5  H2  UNL     1      19.110  19.794  24.103  1.00  0.00     0.161 HD
BRANCH   4   6
HETATM    6  C7  UNL     1      20.824  20.804  24.730  1.00  0.00     0.167 C 
HETATM    7  S1  UNL     1      21.562  20.674  23.267  1.00  0.00    -0.041 SA
BRANCH   6   8
HETATM    8  N1  UNL     1      21.554  21.364  25.799  1.00  0.00    -0.367 N 
ATOM      9  H1  UNL     1      21.018  21.814  26.541  1.00  0.00     0.161 HD
BRANCH   8  10
HETATM   10  C6  UNL     1      22.982  21.356  25.937  1.00  0.00     0.122 C 
BRANCH  10  11
HETATM   11  C5  UNL     1      23.399  22.074  27.169  1.00  0.00     0.020 C 
BRANCH  11  12
HETATM   12  C4  UNL     1      23.498  23.560  26.878  1.00  0.00     0.005 C 
BRANCH  12  13
HETATM   13  C3  UNL     1      24.070  24.281  28.069  1.00  0.00     0.026 C 
BRANCH  13  14
HETATM   14  C2  UNL     1      23.475  25.640  28.082  1.00  0.00    -0.037 C 
HETATM   15  C1  UNL     1      23.376  26.300  29.226  1.00  0.00     0.007 C 
ENDBRANCH  13  14
ENDBRANCH  12  13
ENDBRANCH  11  12
ENDBRANCH  10  11
ENDBRANCH   8  10
ENDBRANCH   6   8
ENDBRANCH   4   6
ENDBRANCH   3   4
ENDBRANCH   2   3
ENDBRANCH   1   2
BRANCH   1  16
HETATM   16  C11 UNL     1      17.074  18.955  27.584  1.00  0.00     0.132 C 
BRANCH  16  17
HETATM   17  N3  UNL     1      17.116  17.537  27.389  1.00  0.00    -0.319 N 
ATOM     18  H3  UNL     1      16.318  16.907  27.464  1.00  0.00     0.172 HD
BRANCH  17  19
HETATM   19  S2  UNL     1      18.730  17.064  27.007  1.00  0.00     0.230 S 
HETATM   20  O1  UNL     1      18.874  15.597  27.304  1.00  0.00    -0.206 OA
HETATM   21  O2  UNL     1      19.026  17.305  25.553  1.00  0.00    -0.206 OA
BRANCH  19  22
HETATM   22  C12 UNL     1      19.938  17.988  27.932  1.00  0.00     0.129 C 
HETATM   23  C13 UNL     1      20.075  17.293  29.265  1.00  0.00     0.027 C 
HETATM   24  C14 UNL     1      21.248  17.731  30.065  1.00  0.00     0.080 C 
HETATM   25  C15 UNL     1      22.399  18.234  29.227  1.00  0.00     0.243 C 
HETATM   26  F1  UNL     1      22.159  19.582  28.987  1.00  0.00    -0.206 F 
HETATM   27  F2  UNL     1      23.611  18.065  29.818  1.00  0.00    -0.206 F 
HETATM   28  C16 UNL     1      22.391  17.495  27.894  1.00  0.00     0.080 C 
HETATM   29  C17 UNL     1      21.188  18.065  27.131  1.00  0.00     0.027 C 
ENDBRANCH  19  22
ENDBRANCH  17  19
ENDBRANCH  16  17
ENDBRANCH   1  16
TORSDOF 14
ENDMDL
MODEL 3
REMARK VINA RESULT: -7.296439825      4.736      8.317
REMARK  14 active torsions:
REMARK  status: ('A' for Active; 'I' for Inactive)
REMARK    1  A    between atoms: C2_2  and  C3_3 
REMARK    2  A    between atoms: C3_3  and  C4_4 
REMARK    3  A    between atoms: C4_4  and  C5_5 
REMARK    4  A    between atoms: C5_5  and  C6_6 
REMARK    5  A    between atoms: C6_6  and  N1_7 
REMARK    6  A    between atoms: N1_7  and  C7_9 
REMARK    7  A    between atoms: C7_9  and  N2_11 
REMARK    8  A    between atoms: N2_11  and  C8_13 
REMARK    9  A    between atoms: C8_13  and  C9_14 
REMARK   10  A    between atoms: C9_14  and  C10_15 
REMARK   11  A    between atoms: C10_15  and  C11_16 
REMARK   12  A    between atoms: C11_16  and  N3_17 
REMARK   13  A    between atoms: N3_17  and  S2_19 
REMARK   14  A    between atoms: S2_19  and  C12_22 
ROOT
HETATM    1  C10 UNL     1      17.027  19.739  26.406  1.00  0.00     0.022 C 
ENDROOT
BRANCH   1   2
HETATM    2  C9  UNL     1      15.716  20.339  26.075  1.00  0.00     0.021 C 
BRANCH   2   3
HETATM    3  C8  UNL     1      14.654  20.281  27.121  1.00  0.00     0.122 C 
BRANCH   3   4
HETATM    4  N2  UNL     1      13.918  21.552  27.195  1.00  0.00    -0.367 N 
ATOM      5  H2  UNL     1      14.452  22.414  27.084  1.00  0.00     0.161 HD
BRANCH   4   6
HETATM    6  C7  UNL     1      12.532  21.667  27.408  1.00  0.00     0.167 C 
HETATM    7  S1  UNL     1      11.595  22.262  26.196  1.00  0.00    -0.041 SA
BRANCH   6   8
HETATM    8  N1  UNL     1      11.903  21.277  28.609  1.00  0.00    -0.367 N 
ATOM      9  H1  UNL     1      11.814  21.985  29.338  1.00  0.00     0.161 HD
BRANCH   8  10
HETATM   10  C6  UNL     1      11.376  19.973  28.897  1.00  0.00     0.122 C 
BRANCH  10  11
HETATM   11  C5  UNL     1      10.172  20.068  29.762  1.00  0.00     0.020 C 
BRANCH  11  12
HETATM   12  C4  UNL     1      10.240  21.342  30.584  1.00  0.00     0.005 C 
BRANCH  12  13
HETATM   13  C3  UNL     1       9.326  21.236  31.774  1.00  0.00     0.026 C 
BRANCH  13  14
HETATM   14  C2  UNL     1       8.745  19.870  31.756  1.00  0.00    -0.037 C 
HETATM   15  C1  UNL     1       8.029  19.449  32.787  1.00  0.00     0.007 C 
ENDBRANCH  13  14
ENDBRANCH  12  13
ENDBRANCH  11  12
ENDBRANCH  10  11
ENDBRANCH   8  10
ENDBRANCH   6   8
ENDBRANCH   4   6
ENDBRANCH   3   4
ENDBRANCH   2   3
ENDBRANCH   1   2
BRANCH   1  16
HETATM   16  C11 UNL     1      17.073  18.933  27.647  1.00  0.00     0.132 C 
BRANCH  16  17
HETATM   17  N3  UNL     1      17.114  17.530  27.364  1.00  0.00    -0.319 N 
ATOM     18  H3  UNL     1      16.312  16.901  27.380  1.00  0.00     0.172 HD
BRANCH  17  19
HETATM   19  S2  UNL     1      18.734  17.072  26.990  1.00  0.00     0.230 S 
HETATM   20  O1  UNL     1      18.891  15.607  27.290  1.00  0.00    -0.206 OA
HETATM   21  O2  UNL     1      19.034  17.315  25.537  1.00  0.00    -0.206 OA
BRANCH  19  22
HETATM   22  C12 UNL     1      19.929  18.010  27.919  1.00  0.00     0.129 C 
HETATM   23  C13 UNL     1      20.075  17.312  29.249  1.00  0.00     0.027 C 
HETATM   24  C14 UNL     1      21.241  17.762  30.051  1.00  0.00     0.080 C 
HETATM   25  C15 UNL     1      22.386  18.285  29.216  1.00  0.00     0.243 C 
HETATM   26  F1  UNL     1      22.126  19.631  28.982  1.00  0.00    -0.206 F 
HETATM   27  F2  UNL     1      23.599  18.131  29.806  1.00  0.00    -0.206 F 
HETATM   28  C16 UNL     1      22.388  17.552  27.880  1.00  0.00     0.080 C 
HETATM   29  C17 UNL     1      21.178  18.108  27.119  1.00  0.00     0.027 C 
ENDBRANCH  19  22
ENDBRANCH  17  19
ENDBRANCH  16  17
ENDBRANCH   1  16
TORSDOF 14
ENDMDL
MODEL 4
REMARK VINA RESULT: -7.222114052      4.015      7.677
REMARK  14 active torsions:
REMARK  status: ('A' for Active; 'I' for Inactive)
REMARK    1  A    between atoms: C2_2  and  C3_3 
REMARK    2  A    between atoms: C3_3  and  C4_4 
REMARK    3  A    between atoms: C4_4  and  C5_5 
REMARK    4  A    between atoms: C5_5  and  C6_6 
REMARK    5  A    between atoms: C6_6  and  N1_7 
REMARK    6  A    between atoms: N1_7  and  C7_9 
REMARK    7  A    between atoms: C7_9  and  N2_11 
REMARK    8  A    between atoms: N2_11  and  C8_13 
REMARK    9  A    between atoms: C8_13  and  C9_14 
REMARK   10  A    between atoms: C9_14  and  C10_15 
REMARK   11  A    between atoms: C10_15  and  C11_16 
REMARK   12  A    between atoms: C11_16  and  N3_17 
REMARK   13  A    between atoms: N3_17  and  S2_19 
REMARK   14  A    between atoms: S2_19  and  C12_22 
ROOT
HETATM    1  C10 UNL     1      16.062  19.551  26.764  1.00  0.00     0.022 C 
ENDROOT
BRANCH   1   2
HETATM    2  C9  UNL     1      16.732  20.487  25.834  1.00  0.00     0.021 C 
BRANCH   2   3
HETATM    3  C8  UNL     1      15.883  21.527  25.182  1.00  0.00     0.122 C 
BRANCH   3   4
HETATM    4  N2  UNL     1      15.760  22.718  26.036  1.00  0.00    -0.367 N 
ATOM      5  H2  UNL     1      16.568  23.338  26.100  1.00  0.00     0.161 HD
BRANCH   4   6
HETATM    6  C7  UNL     1      14.612  23.064  26.772  1.00  0.00     0.167 C 
HETATM    7  S1  UNL     1      14.441  24.618  27.281  1.00  0.00    -0.041 SA
BRANCH   6   8
HETATM    8  N1  UNL     1      13.588  22.144  27.079  1.00  0.00    -0.367 N 
ATOM      9  H1  UNL     1      13.843  21.340  27.653  1.00  0.00     0.161 HD
BRANCH   8  10
HETATM   10  C6  UNL     1      12.219  22.239  26.657  1.00  0.00     0.122 C 
BRANCH  10  11
HETATM   11  C5  UNL     1      12.126  22.296  25.175  1.00  0.00     0.020 C 
BRANCH  11  12
HETATM   12  C4  UNL     1      10.686  22.557  24.770  1.00  0.00     0.005 C 
BRANCH  12  13
HETATM   13  C3  UNL     1      10.234  21.516  23.781  1.00  0.00     0.026 C 
BRANCH  13  14
HETATM   14  C2  UNL     1       8.905  21.035  24.233  1.00  0.00    -0.037 C 
HETATM   15  C1  UNL     1       8.380  19.949  23.685  1.00  0.00     0.007 C 
ENDBRANCH  13  14
ENDBRANCH  12  13
ENDBRANCH  11  12
ENDBRANCH  10  11
ENDBRANCH   8  10
ENDBRANCH   6   8
ENDBRANCH   4   6
ENDBRANCH   3   4
ENDBRANCH   2   3
ENDBRANCH   1   2
BRANCH   1  16
HETATM   16  C11 UNL     1      16.935  18.909  27.772  1.00  0.00     0.132 C 
BRANCH  16  17
HETATM   17  N3  UNL     1      17.028  17.495  27.567  1.00  0.00    -0.319 N 
ATOM     18  H3  UNL     1      16.271  16.827  27.710  1.00  0.00     0.172 HD
BRANCH  17  19
HETATM   19  S2  UNL     1      18.621  17.102  27.038  1.00  0.00     0.230 S 
HETATM   20  O1  UNL     1      18.844  15.633  27.268  1.00  0.00    -0.206 OA
HETATM   21  O2  UNL     1      18.787  17.404  25.574  1.00  0.00    -0.206 OA
BRANCH  19  22
HETATM   22  C12 UNL     1      19.866  18.042  27.895  1.00  0.00     0.129 C 
HETATM   23  C13 UNL     1      20.030  17.395  29.249  1.00  0.00     0.027 C 
HETATM   24  C14 UNL     1      21.230  17.845  30.000  1.00  0.00     0.080 C 
HETATM   25  C15 UNL     1      22.365  18.301  29.113  1.00  0.00     0.243 C 
HETATM   26  F1  UNL     1      22.134  19.643  28.831  1.00  0.00    -0.206 F 
HETATM   27  F2  UNL     1      23.590  18.138  29.677  1.00  0.00    -0.206 F 
HETATM   28  C16 UNL     1      22.310  17.515  27.809  1.00  0.00     0.080 C 
HETATM   29  C17 UNL     1      21.094  18.073  27.059  1.00  0.00     0.027 C 
ENDBRANCH  19  22
ENDBRANCH  17  19
ENDBRANCH  16  17
ENDBRANCH   1  16
TORSDOF 14
ENDMDL
MODEL 5
REMARK VINA RESULT: -7.191515220      2.652      4.413
REMARK  14 active torsions:
REMARK  status: ('A' for Active; 'I' for Inactive)
REMARK    1  A    between atoms: C2_2  and  C3_3 
REMARK    2  A    between atoms: C3_3  and  C4_4 
REMARK    3  A    between atoms: C4_4  and  C5_5 
REMARK    4  A    between atoms: C5_5  and  C6_6 
REMARK    5  A    between atoms: C6_6  and  N1_7 
REMARK    6  A    between atoms: N1_7  and  C7_9 
REMARK    7  A    between atoms: C7_9  and  N2_11 
REMARK    8  A    between atoms: N2_11  and  C8_13 
REMARK    9  A    between atoms: C8_13  and  C9_14 
REMARK   10  A    between atoms: C9_14  and  C10_15 
REMARK   11  A    between atoms: C10_15  and  C11_16 
REMARK   12  A    between atoms: C11_16  and  N3_17 
REMARK   13  A    between atoms: N3_17  and  S2_19 
REMARK   14  A    between atoms: S2_19  and  C12_22 
ROOT
HETATM    1  C10 UNL     1      16.392  19.609  26.405  1.00  0.00     0.022 C 
ENDROOT
BRANCH   1   2
HETATM    2  C9  UNL     1      17.184  20.569  25.606  1.00  0.00     0.021 C 
BRANCH   2   3
HETATM    3  C8  UNL     1      18.624  20.733  25.964  1.00  0.00     0.122 C 
BRANCH   3   4
HETATM    4  N2  UNL     1      19.493  20.228  24.891  1.00  0.00    -0.367 N 
ATOM      5  H2  UNL     1      19.168  19.420  24.360  1.00  0.00     0.161 HD
BRANCH   4   6
HETATM    6  C7  UNL     1      20.741  20.778  24.541  1.00  0.00     0.167 C 
HETATM    7  S1  UNL     1      21.726  21.322  25.740  1.00  0.00    -0.041 SA
BRANCH   6   8
HETATM    8  N1  UNL     1      21.197  20.868  23.209  1.00  0.00    -0.367 N 
ATOM      9  H1  UNL     1      21.863  21.610  22.996  1.00  0.00     0.161 HD
BRANCH   8  10
HETATM   10  C6  UNL     1      20.806  20.009  22.128  1.00  0.00     0.122 C 
BRANCH  10  11
HETATM   11  C5  UNL     1      21.992  19.346  21.524  1.00  0.00     0.020 C 
BRANCH  11  12
HETATM   12  C4  UNL     1      21.763  17.846  21.480  1.00  0.00     0.005 C 
BRANCH  12  13
HETATM   13  C3  UNL     1      22.023  17.328  20.091  1.00  0.00     0.026 C 
BRANCH  13  14
HETATM   14  C2  UNL     1      20.820  17.638  19.279  1.00  0.00    -0.037 C 
HETATM   15  C1  UNL     1      20.171  16.657  18.670  1.00  0.00     0.007 C 
ENDBRANCH  13  14
ENDBRANCH  12  13
ENDBRANCH  11  12
ENDBRANCH  10  11
ENDBRANCH   8  10
ENDBRANCH   6   8
ENDBRANCH   4   6
ENDBRANCH   3   4
ENDBRANCH   2   3
ENDBRANCH   1   2
BRANCH   1  16
HETATM   16  C11 UNL     1      17.096  18.984  27.548  1.00  0.00     0.132 C 
BRANCH  16  17
HETATM   17  N3  UNL     1      17.136  17.558  27.427  1.00  0.00    -0.319 N 
ATOM     18  H3  UNL     1      16.341  16.933  27.553  1.00  0.00     0.172 HD
BRANCH  17  19
HETATM   19  S2  UNL     1      18.742  17.067  27.035  1.00  0.00     0.230 S 
HETATM   20  O1  UNL     1      18.880  15.606  27.362  1.00  0.00    -0.206 OA
HETATM   21  O2  UNL     1      19.020  17.274  25.572  1.00  0.00    -0.206 OA
BRANCH  19  22
HETATM   22  C12 UNL     1      19.968  18.003  27.923  1.00  0.00     0.129 C 
HETATM   23  C13 UNL     1      20.087  17.362  29.285  1.00  0.00     0.027 C 
HETATM   24  C14 UNL     1      21.268  17.807  30.068  1.00  0.00     0.080 C 
HETATM   25  C15 UNL     1      22.431  18.251  29.214  1.00  0.00     0.243 C 
HETATM   26  F1  UNL     1      22.220  19.593  28.917  1.00  0.00    -0.206 F 
HETATM   27  F2  UNL     1      23.638  18.082  29.814  1.00  0.00    -0.206 F 
HETATM   28  C16 UNL     1      22.410  17.457  27.912  1.00  0.00     0.080 C 
HETATM   29  C17 UNL     1      21.221  18.020  27.124  1.00  0.00     0.027 C 
ENDBRANCH  19  22
ENDBRANCH  17  19
ENDBRANCH  16  17
ENDBRANCH   1  16
TORSDOF 14
ENDMDL
