MODEL 1
REMARK VINA RESULT: -7.684154538      0.000      0.000
REMARK  13 active torsions:
REMARK  status: ('A' for Active; 'I' for Inactive)
REMARK    1  A    between atoms: C2_2  and  C3_3 
REMARK    2  A    between atoms: C3_3  and  C4_6 
REMARK       I    between atoms: C4_6  and  N1_8 
REMARK    3  A    between atoms: N1_8  and  C5_10 
REMARK    4  A    between atoms: C5_10  and  C6_11 
REMARK    5  A    between atoms: C6_11  and  C7_12 
REMARK    6  A    between atoms: C7_12  and  C8_13 
REMARK    7  A    between atoms: C8_13  and  C9_14 
REMARK    8  A    between atoms: C9_14  and  N2_15 
REMARK       I    between atoms: N2_15  and  C10_17 
REMARK    9  A    between atoms: C10_17  and  C11_19 
REMARK   10  A    between atoms: C11_19  and  C12_20 
REMARK   11  A    between atoms: C12_20  and  C13_21 
REMARK   12  A    between atoms: C18_26  and  C19_27 
REMARK   13  A    between atoms: C19_27  and  O3_28 
ROOT
HETATM    1  N2  UNL     1      23.158  19.155  30.057  1.00  0.00    -0.361 N 
ATOM      2  H2  UNL     1      23.151  19.952  30.695  1.00  0.00     0.162 HD
HETATM    3  C10 UNL     1      23.803  19.259  28.807  1.00  0.00     0.217 C 
HETATM    4  O2  UNL     1      23.806  18.281  28.027  1.00  0.00    -0.274 OA
ENDROOT
BRANCH   1   5
HETATM    5  C9  UNL     1      22.509  17.926  30.434  1.00  0.00     0.122 C 
BRANCH   5   6
HETATM    6  C8  UNL     1      21.019  18.039  30.578  1.00  0.00     0.020 C 
BRANCH   6   7
HETATM    7  C7  UNL     1      20.405  17.125  29.531  1.00  0.00     0.003 C 
BRANCH   7   8
HETATM    8  C6  UNL     1      20.100  17.900  28.244  1.00  0.00     0.020 C 
BRANCH   8   9
HETATM    9  C5  UNL     1      20.630  17.070  27.108  1.00  0.00     0.122 C 
BRANCH   9  10
HETATM   10  N1  UNL     1      21.446  17.845  26.209  1.00  0.00    -0.358 N 
HETATM   11  C4  UNL     1      20.861  18.388  25.039  1.00  0.00     0.256 C 
HETATM   12  O1  UNL     1      19.636  18.168  24.830  1.00  0.00    -0.270 OA
ATOM     13  H1  UNL     1      22.433  18.002  26.413  1.00  0.00     0.162 HD
BRANCH  11  14
HETATM   14  C3  UNL     1      21.673  19.197  24.084  1.00  0.00     0.192 C 
HETATM   15 CL1  UNL     1      23.353  19.174  24.625  1.00  0.00    -0.091 Cl
HETATM   16 CL2  UNL     1      21.500  18.479  22.453  1.00  0.00    -0.091 Cl
BRANCH  14  17
HETATM   17  C2  UNL     1      21.192  20.614  24.002  1.00  0.00     0.048 C 
HETATM   18  C1  UNL     1      21.827  21.348  22.839  1.00  0.00     0.009 C 
ENDBRANCH  14  17
ENDBRANCH  11  14
ENDBRANCH   9  10
ENDBRANCH   8   9
ENDBRANCH   7   8
ENDBRANCH   6   7
ENDBRANCH   5   6
ENDBRANCH   1   5
BRANCH   3  19
HETATM   19  C11 UNL     1      24.465  20.542  28.457  1.00  0.00     0.103 C 
BRANCH  19  20
HETATM   20  C12 UNL     1      23.510  21.323  27.578  1.00  0.00     0.014 C 
BRANCH  20  21
HETATM   21  C13 UNL     1      24.288  22.450  26.967  1.00  0.00    -0.004 C 
HETATM   22  C14 UNL     1      23.707  22.921  25.673  1.00  0.00    -0.009 C 
HETATM   23  C15 UNL     1      24.434  24.262  25.503  1.00  0.00     0.010 C 
HETATM   24  C17 UNL     1      22.527  23.763  26.108  1.00  0.00     0.010 C 
HETATM   25  C16 UNL     1      23.621  24.646  26.730  1.00  0.00    -0.007 C 
HETATM   26  C18 UNL     1      24.128  23.727  27.796  1.00  0.00     0.018 C 
BRANCH  26  27
HETATM   27  C19 UNL     1      25.449  24.166  28.373  1.00  0.00     0.169 C 
BRANCH  27  28
HETATM   28  O3  UNL     1      25.571  23.659  29.665  1.00  0.00    -0.400 OA
ATOM     29  H3  UNL     1      26.475  23.741  29.946  1.00  0.00     0.209 HD
ENDBRANCH  27  28
ENDBRANCH  26  27
ENDBRANCH  20  21
ENDBRANCH  19  20
ENDBRANCH   3  19
TORSDOF 13
ENDMDL
MODEL 2
REMARK VINA RESULT: -7.581569266      1.653      1.925
REMARK  13 active torsions:
REMARK  status: ('A' for Active; 'I' for Inactive)
REMARK    1  A    between atoms: C2_2  and  C3_3 
REMARK    2  A    between atoms: C3_3  and  C4_6 
REMARK       I    between atoms: C4_6  and  N1_8 
REMARK    3  A    between atoms: N1_8  and  C5_10 
REMARK    4  A    between atoms: C5_10  and  C6_11 
REMARK    5  A    between atoms: C6_11  and  C7_12 
REMARK    6  A    between atoms: C7_12  and  C8_13 
REMARK    7  A    between atoms: C8_13  and  C9_14 
REMARK    8  A    between atoms: C9_14  and  N2_15 
REMARK       I    between atoms: N2_15  and  C10_17 
REMARK    9  A    between atoms: C10_17  and  C11_19 
REMARK   10  A    between atoms: C11_19  and  C12_20 
REMARK   11  A    between atoms: C12_20  and  C13_21 
REMARK   12  A    between atoms: C18_26  and  C19_27 
REMARK   13  A    between atoms: C19_27  and  O3_28 
ROOT
HETATM    1  N2  UNL     1      23.154  19.231  30.116  1.00  0.00    -0.361 N 
ATOM      2  H2  UNL     1      23.012  20.081  30.662  1.00  0.00     0.162 HD
HETATM    3  C10 UNL     1      23.914  19.274  28.929  1.00  0.00     0.217 C 
HETATM    4  O2  UNL     1      24.082  18.230  28.261  1.00  0.00    -0.274 OA
ENDROOT
BRANCH   1   5
HETATM    5  C9  UNL     1      22.577  17.987  30.558  1.00  0.00     0.122 C 
BRANCH   5   6
HETATM    6  C8  UNL     1      21.080  17.934  30.450  1.00  0.00     0.020 C 
BRANCH   6   7
HETATM    7  C7  UNL     1      20.757  17.515  29.026  1.00  0.00     0.003 C 
BRANCH   7   8
HETATM    8  C6  UNL     1      19.662  16.443  29.010  1.00  0.00     0.020 C 
BRANCH   8   9
HETATM    9  C5  UNL     1      18.542  16.985  28.167  1.00  0.00     0.122 C 
BRANCH   9  10
HETATM   10  N1  UNL     1      18.844  18.294  27.646  1.00  0.00    -0.358 N 
HETATM   11  C4  UNL     1      19.032  18.456  26.251  1.00  0.00     0.256 C 
HETATM   12  O1  UNL     1      18.925  17.437  25.515  1.00  0.00    -0.270 OA
ATOM     13  H1  UNL     1      18.922  19.095  28.274  1.00  0.00     0.162 HD
BRANCH  11  14
HETATM   14  C3  UNL     1      19.346  19.795  25.675  1.00  0.00     0.192 C 
HETATM   15 CL1  UNL     1      17.843  20.709  25.536  1.00  0.00    -0.091 Cl
HETATM   16 CL2  UNL     1      20.512  20.613  26.760  1.00  0.00    -0.091 Cl
BRANCH  14  17
HETATM   17  C2  UNL     1      19.993  19.685  24.327  1.00  0.00     0.048 C 
HETATM   18  C1  UNL     1      21.166  20.635  24.196  1.00  0.00     0.009 C 
ENDBRANCH  14  17
ENDBRANCH  11  14
ENDBRANCH   9  10
ENDBRANCH   8   9
ENDBRANCH   7   8
ENDBRANCH   6   7
ENDBRANCH   5   6
ENDBRANCH   1   5
BRANCH   3  19
HETATM   19  C11 UNL     1      24.497  20.575  28.509  1.00  0.00     0.103 C 
BRANCH  19  20
HETATM   20  C12 UNL     1      23.756  21.026  27.267  1.00  0.00     0.014 C 
BRANCH  20  21
HETATM   21  C13 UNL     1      24.432  22.270  26.773  1.00  0.00    -0.004 C 
HETATM   22  C14 UNL     1      23.759  22.860  25.576  1.00  0.00    -0.009 C 
HETATM   23  C15 UNL     1      24.395  24.257  25.548  1.00  0.00     0.010 C 
HETATM   24  C17 UNL     1      22.555  23.561  26.165  1.00  0.00     0.010 C 
HETATM   25  C16 UNL     1      23.623  24.430  26.847  1.00  0.00    -0.007 C 
HETATM   26  C18 UNL     1      24.238  23.420  27.765  1.00  0.00     0.018 C 
BRANCH  26  27
HETATM   27  C19 UNL     1      25.558  23.869  28.336  1.00  0.00     0.169 C 
BRANCH  27  28
HETATM   28  O3  UNL     1      25.540  23.689  29.718  1.00  0.00    -0.400 OA
ATOM     29  H3  UNL     1      26.395  23.386  30.002  1.00  0.00     0.209 HD
ENDBRANCH  27  28
ENDBRANCH  26  27
ENDBRANCH  20  21
ENDBRANCH  19  20
ENDBRANCH   3  19
TORSDOF 13
ENDMDL
MODEL 3
REMARK VINA RESULT: -7.427876365      1.796      2.414
REMARK  13 active torsions:
REMARK  status: ('A' for Active; 'I' for Inactive)
REMARK    1  A    between atoms: C2_2  and  C3_3 
REMARK    2  A    between atoms: C3_3  and  C4_6 
REMARK       I    between atoms: C4_6  and  N1_8 
REMARK    3  A    between atoms: N1_8  and  C5_10 
REMARK    4  A    between atoms: C5_10  and  C6_11 
REMARK    5  A    between atoms: C6_11  and  C7_12 
REMARK    6  A    between atoms: C7_12  and  C8_13 
REMARK    7  A    between atoms: C8_13  and  C9_14 
REMARK    8  A    between atoms: C9_14  and  N2_15 
REMARK       I    between atoms: N2_15  and  C10_17 
REMARK    9  A    between atoms: C10_17  and  C11_19 
REMARK   10  A    between atoms: C11_19  and  C12_20 
REMARK   11  A    between atoms: C12_20  and  C13_21 
REMARK   12  A    between atoms: C18_26  and  C19_27 
REMARK   13  A    between atoms: C19_27  and  O3_28 
ROOT
HETATM    1  N2  UNL     1      22.014  18.970  28.742  1.00  0.00    -0.361 N 
ATOM      2  H2  UNL     1      21.521  19.845  28.921  1.00  0.00     0.162 HD
HETATM    3  C10 UNL     1      23.423  18.955  28.678  1.00  0.00     0.217 C 
HETATM    4  O2  UNL     1      24.022  17.880  28.453  1.00  0.00    -0.274 OA
ENDROOT
BRANCH   1   5
HETATM    5  C9  UNL     1      21.270  17.752  28.552  1.00  0.00     0.122 C 
BRANCH   5   6
HETATM    6  C8  UNL     1      19.947  17.725  29.263  1.00  0.00     0.020 C 
BRANCH   6   7
HETATM    7  C7  UNL     1      18.922  17.215  28.265  1.00  0.00     0.003 C 
BRANCH   7   8
HETATM    8  C6  UNL     1      17.853  18.279  27.992  1.00  0.00     0.020 C 
BRANCH   8   9
HETATM    9  C5  UNL     1      17.941  18.610  26.528  1.00  0.00     0.122 C 
BRANCH   9  10
HETATM   10  N1  UNL     1      19.027  19.514  26.244  1.00  0.00    -0.358 N 
HETATM   11  C4  UNL     1      20.057  19.102  25.363  1.00  0.00     0.256 C 
HETATM   12  O1  UNL     1      19.980  17.948  24.858  1.00  0.00    -0.270 OA
ATOM     13  H1  UNL     1      19.053  20.440  26.672  1.00  0.00     0.162 HD
BRANCH  11  14
HETATM   14  C3  UNL     1      21.197  20.010  25.045  1.00  0.00     0.192 C 
HETATM   15 CL1  UNL     1      21.200  21.331  26.216  1.00  0.00    -0.091 Cl
HETATM   16 CL2  UNL     1      22.711  19.059  25.127  1.00  0.00    -0.091 Cl
BRANCH  14  17
HETATM   17  C2  UNL     1      21.095  20.569  23.658  1.00  0.00     0.048 C 
HETATM   18  C1  UNL     1      22.304  21.415  23.312  1.00  0.00     0.009 C 
ENDBRANCH  14  17
ENDBRANCH  11  14
ENDBRANCH   9  10
ENDBRANCH   8   9
ENDBRANCH   7   8
ENDBRANCH   6   7
ENDBRANCH   5   6
ENDBRANCH   1   5
BRANCH   3  19
HETATM   19  C11 UNL     1      24.154  20.231  28.884  1.00  0.00     0.103 C 
BRANCH  19  20
HETATM   20  C12 UNL     1      24.372  20.856  27.521  1.00  0.00     0.014 C 
BRANCH  20  21
HETATM   21  C13 UNL     1      24.322  22.344  27.700  1.00  0.00    -0.004 C 
HETATM   22  C14 UNL     1      25.385  22.854  28.619  1.00  0.00    -0.009 C 
HETATM   23  C15 UNL     1      25.340  24.356  28.306  1.00  0.00     0.010 C 
HETATM   24  C17 UNL     1      26.626  22.843  27.755  1.00  0.00     0.010 C 
HETATM   25  C16 UNL     1      25.853  23.899  26.949  1.00  0.00    -0.007 C 
HETATM   26  C18 UNL     1      24.739  23.057  26.411  1.00  0.00     0.018 C 
BRANCH  26  27
HETATM   27  C19 UNL     1      23.601  23.872  25.852  1.00  0.00     0.169 C 
BRANCH  27  28
HETATM   28  O3  UNL     1      24.077  24.659  24.805  1.00  0.00    -0.400 OA
ATOM     29  H3  UNL     1      23.787  25.554  24.934  1.00  0.00     0.209 HD
ENDBRANCH  27  28
ENDBRANCH  26  27
ENDBRANCH  20  21
ENDBRANCH  19  20
ENDBRANCH   3  19
TORSDOF 13
ENDMDL
MODEL 4
REMARK VINA RESULT: -7.345651546      1.152      1.514
REMARK  13 active torsions:
REMARK  status: ('A' for Active; 'I' for Inactive)
REMARK    1  A    between atoms: C2_2  and  C3_3 
REMARK    2  A    between atoms: C3_3  and  C4_6 
REMARK       I    between atoms: C4_6  and  N1_8 
REMARK    3  A    between atoms: N1_8  and  C5_10 
REMARK    4  A    between atoms: C5_10  and  C6_11 
REMARK    5  A    between atoms: C6_11  and  C7_12 
REMARK    6  A    between atoms: C7_12  and  C8_13 
REMARK    7  A    between atoms: C8_13  and  C9_14 
REMARK    8  A    between atoms: C9_14  and  N2_15 
REMARK       I    between atoms: N2_15  and  C10_17 
REMARK    9  A    between atoms: C10_17  and  C11_19 
REMARK   10  A    between atoms: C11_19  and  C12_20 
REMARK   11  A    between atoms: C12_20  and  C13_21 
REMARK   12  A    between atoms: C18_26  and  C19_27 
REMARK   13  A    between atoms: C19_27  and  O3_28 
ROOT
HETATM    1  N2  UNL     1      22.490  19.064  29.727  1.00  0.00    -0.361 N 
ATOM      2  H2  UNL     1      22.175  19.978  30.054  1.00  0.00     0.162 HD
HETATM    3  C10 UNL     1      23.641  18.963  28.919  1.00  0.00     0.217 C 
HETATM    4  O2  UNL     1      24.021  17.841  28.518  1.00  0.00    -0.274 OA
ENDROOT
BRANCH   1   5
HETATM    5  C9  UNL     1      21.758  17.879  30.092  1.00  0.00     0.122 C 
BRANCH   5   6
HETATM    6  C8  UNL     1      20.358  17.832  29.550  1.00  0.00     0.020 C 
BRANCH   6   7
HETATM    7  C7  UNL     1      20.467  17.446  28.084  1.00  0.00     0.003 C 
BRANCH   7   8
HETATM    8  C6  UNL     1      19.106  17.007  27.536  1.00  0.00     0.020 C 
BRANCH   8   9
HETATM    9  C5  UNL     1      18.823  17.876  26.342  1.00  0.00     0.122 C 
BRANCH   9  10
HETATM   10  N1  UNL     1      19.972  18.002  25.482  1.00  0.00    -0.358 N 
HETATM   11  C4  UNL     1      20.250  19.253  24.879  1.00  0.00     0.256 C 
HETATM   12  O1  UNL     1      19.471  20.216  25.122  1.00  0.00    -0.270 OA
ATOM     13  H1  UNL     1      20.578  17.199  25.310  1.00  0.00     0.162 HD
BRANCH  11  14
HETATM   14  C3  UNL     1      21.430  19.422  23.982  1.00  0.00     0.192 C 
HETATM   15 CL1  UNL     1      21.477  21.099  23.434  1.00  0.00    -0.091 Cl
HETATM   16 CL2  UNL     1      22.902  18.993  24.907  1.00  0.00    -0.091 Cl
BRANCH  14  17
HETATM   17  C2  UNL     1      21.365  18.508  22.796  1.00  0.00     0.048 C 
HETATM   18  C1  UNL     1      22.532  17.541  22.778  1.00  0.00     0.009 C 
ENDBRANCH  14  17
ENDBRANCH  11  14
ENDBRANCH   9  10
ENDBRANCH   8   9
ENDBRANCH   7   8
ENDBRANCH   6   7
ENDBRANCH   5   6
ENDBRANCH   1   5
BRANCH   3  19
HETATM   19  C11 UNL     1      24.371  20.208  28.569  1.00  0.00     0.103 C 
BRANCH  19  20
HETATM   20  C12 UNL     1      23.426  21.081  27.769  1.00  0.00     0.014 C 
BRANCH  20  21
HETATM   21  C13 UNL     1      24.258  22.119  27.076  1.00  0.00    -0.004 C 
HETATM   22  C14 UNL     1      23.710  22.505  25.740  1.00  0.00    -0.009 C 
HETATM   23  C15 UNL     1      24.496  23.795  25.469  1.00  0.00     0.010 C 
HETATM   24  C17 UNL     1      22.564  23.430  26.089  1.00  0.00     0.010 C 
HETATM   25  C16 UNL     1      23.689  24.315  26.649  1.00  0.00    -0.007 C 
HETATM   26  C18 UNL     1      24.145  23.467  27.794  1.00  0.00     0.018 C 
BRANCH  26  27
HETATM   27  C19 UNL     1      25.479  23.895  28.350  1.00  0.00     0.169 C 
BRANCH  27  28
HETATM   28  O3  UNL     1      25.540  23.555  29.700  1.00  0.00    -0.400 OA
ATOM     29  H3  UNL     1      26.356  23.098  29.867  1.00  0.00     0.209 HD
ENDBRANCH  27  28
ENDBRANCH  26  27
ENDBRANCH  20  21
ENDBRANCH  19  20
ENDBRANCH   3  19
TORSDOF 13
ENDMDL
MODEL 5
REMARK VINA RESULT: -7.269263909      7.496      9.213
REMARK  13 active torsions:
REMARK  status: ('A' for Active; 'I' for Inactive)
REMARK    1  A    between atoms: C2_2  and  C3_3 
REMARK    2  A    between atoms: C3_3  and  C4_6 
REMARK       I    between atoms: C4_6  and  N1_8 
REMARK    3  A    between atoms: N1_8  and  C5_10 
REMARK    4  A    between atoms: C5_10  and  C6_11 
REMARK    5  A    between atoms: C6_11  and  C7_12 
REMARK    6  A    between atoms: C7_12  and  C8_13 
REMARK    7  A    between atoms: C8_13  and  C9_14 
REMARK    8  A    between atoms: C9_14  and  N2_15 
REMARK       I    between atoms: N2_15  and  C10_17 
REMARK    9  A    between atoms: C10_17  and  C11_19 
REMARK   10  A    between atoms: C11_19  and  C12_20 
REMARK   11  A    between atoms: C12_20  and  C13_21 
REMARK   12  A    between atoms: C18_26  and  C19_27 
REMARK   13  A    between atoms: C19_27  and  O3_28 
ROOT
HETATM    1  N2  UNL     1      16.477  19.046  26.287  1.00  0.00    -0.361 N 
ATOM      2  H2  UNL     1      16.759  18.512  25.464  1.00  0.00     0.162 HD
HETATM    3  C10 UNL     1      17.028  18.740  27.548  1.00  0.00     0.217 C 
HETATM    4  O2  UNL     1      16.676  19.394  28.554  1.00  0.00    -0.274 OA
ENDROOT
BRANCH   1   5
HETATM    5  C9  UNL     1      15.515  20.110  26.159  1.00  0.00     0.122 C 
BRANCH   5   6
HETATM    6  C8  UNL     1      15.920  21.190  25.197  1.00  0.00     0.020 C 
BRANCH   6   7
HETATM    7  C7  UNL     1      15.320  22.486  25.712  1.00  0.00     0.003 C 
BRANCH   7   8
HETATM    8  C6  UNL     1      14.088  22.880  24.889  1.00  0.00     0.020 C 
BRANCH   8   9
HETATM    9  C5  UNL     1      12.888  22.582  25.744  1.00  0.00     0.122 C 
BRANCH   9  10
HETATM   10  N1  UNL     1      11.696  22.398  24.955  1.00  0.00    -0.358 N 
HETATM   11  C4  UNL     1      10.609  21.676  25.504  1.00  0.00     0.256 C 
HETATM   12  O1  UNL     1      10.730  21.218  26.674  1.00  0.00    -0.270 OA
ATOM     13  H1  UNL     1      11.637  22.784  24.012  1.00  0.00     0.162 HD
BRANCH  11  14
HETATM   14  C3  UNL     1       9.359  21.465  24.718  1.00  0.00     0.192 C 
HETATM   15 CL1  UNL     1       8.206  22.727  25.156  1.00  0.00    -0.091 Cl
HETATM   16 CL2  UNL     1       9.773  21.531  22.978  1.00  0.00    -0.091 Cl
BRANCH  14  17
HETATM   17  C2  UNL     1       8.754  20.119  24.982  1.00  0.00     0.048 C 
HETATM   18  C1  UNL     1       7.987  19.611  23.778  1.00  0.00     0.009 C 
ENDBRANCH  14  17
ENDBRANCH  11  14
ENDBRANCH   9  10
ENDBRANCH   8   9
ENDBRANCH   7   8
ENDBRANCH   6   7
ENDBRANCH   5   6
ENDBRANCH   1   5
BRANCH   3  19
HETATM   19  C11 UNL     1      18.021  17.639  27.638  1.00  0.00     0.103 C 
BRANCH  19  20
HETATM   20  C12 UNL     1      19.179  17.994  26.728  1.00  0.00     0.014 C 
BRANCH  20  21
HETATM   21  C13 UNL     1      20.437  17.552  27.415  1.00  0.00    -0.004 C 
HETATM   22  C14 UNL     1      21.650  18.276  26.927  1.00  0.00    -0.009 C 
HETATM   23  C15 UNL     1      22.658  17.925  28.030  1.00  0.00     0.010 C 
HETATM   24  C17 UNL     1      21.556  19.618  27.620  1.00  0.00     0.010 C 
HETATM   25  C16 UNL     1      21.730  18.769  28.890  1.00  0.00    -0.007 C 
HETATM   26  C18 UNL     1      20.441  18.009  28.877  1.00  0.00     0.018 C 
BRANCH  26  27
HETATM   27  C19 UNL     1      20.445  16.827  29.812  1.00  0.00     0.169 C 
BRANCH  27  28
HETATM   28  O3  UNL     1      20.904  17.237  31.062  1.00  0.00    -0.400 OA
ATOM     29  H3  UNL     1      21.489  16.575  31.410  1.00  0.00     0.209 HD
ENDBRANCH  27  28
ENDBRANCH  26  27
ENDBRANCH  20  21
ENDBRANCH  19  20
ENDBRANCH   3  19
TORSDOF 13
ENDMDL
