MODEL 1
REMARK VINA RESULT: -5.712771880      0.000      0.000
REMARK  3 active torsions:
REMARK  status: ('A' for Active; 'I' for Inactive)
REMARK    1  A    between atoms: C1_2  and  C2_3 
REMARK    2  A    between atoms: C2_3  and  C3_4 
REMARK    3  A    between atoms: C3_4  and  C4_5 
ROOT
HETATM    1  C4  UNL     1      -8.221 -32.222  18.357  1.00  0.00    -0.011 C 
HETATM    2  C5  UNL     1      -8.168 -33.109  19.545  1.00  0.00     0.032 C 
HETATM    3  C6  UNL     1      -8.945 -32.670  20.726  1.00  0.00     0.232 C 
HETATM    4  N1  UNL     1     -10.110 -31.896  20.445  1.00  0.00    -0.075 N 
ATOM      5  H11 UNL     1     -10.566 -31.573  21.299  1.00  0.00     0.277 HD
ATOM      6  H12 UNL     1     -10.868 -32.470  20.077  1.00  0.00     0.277 HD
HETATM    7  C7  UNL     1      -9.786 -30.800  19.559  1.00  0.00     0.232 C 
HETATM    8  C8  UNL     1      -9.466 -31.424  18.206  1.00  0.00     0.032 C 
ENDROOT
BRANCH   1   9
HETATM    9  C3  UNL     1      -7.943 -33.075  17.120  1.00  0.00     0.005 C 
BRANCH   9  10
HETATM   10  C2  UNL     1      -8.738 -32.575  15.934  1.00  0.00     0.011 C 
BRANCH  10  11
HETATM   11  C1  UNL     1      -7.736 -31.953  14.972  1.00  0.00     0.085 C 
HETATM   12 BR1  UNL     1      -8.003 -30.074  14.746  1.00  0.00    -0.097 Br
ENDBRANCH  10  11
ENDBRANCH   9  10
ENDBRANCH   1   9
TORSDOF 3
ENDMDL
MODEL 2
REMARK VINA RESULT: -5.694687406      0.926      1.872
REMARK  3 active torsions:
REMARK  status: ('A' for Active; 'I' for Inactive)
REMARK    1  A    between atoms: C1_2  and  C2_3 
REMARK    2  A    between atoms: C2_3  and  C3_4 
REMARK    3  A    between atoms: C3_4  and  C4_5 
ROOT
HETATM    1  C4  UNL     1      -9.300 -32.461  17.469  1.00  0.00    -0.011 C 
HETATM    2  C5  UNL     1      -9.923 -31.338  18.208  1.00  0.00     0.032 C 
HETATM    3  C6  UNL     1      -9.622 -31.257  19.656  1.00  0.00     0.232 C 
HETATM    4  N1  UNL     1      -8.353 -31.774  20.051  1.00  0.00    -0.075 N 
ATOM      5  H11 UNL     1      -8.231 -31.747  21.063  1.00  0.00     0.277 HD
ATOM      6  H12 UNL     1      -7.590 -31.149  19.789  1.00  0.00     0.277 HD
HETATM    7  C7  UNL     1      -8.164 -33.106  19.520  1.00  0.00     0.232 C 
HETATM    8  C8  UNL     1      -8.004 -32.949  18.013  1.00  0.00     0.032 C 
ENDROOT
BRANCH   1   9
HETATM    9  C3  UNL     1      -9.176 -32.049  16.002  1.00  0.00     0.005 C 
BRANCH   9  10
HETATM   10  C2  UNL     1      -7.832 -32.459  15.441  1.00  0.00     0.011 C 
BRANCH  10  11
HETATM   11  C1  UNL     1      -7.547 -31.525  14.274  1.00  0.00     0.085 C 
HETATM   12 BR1  UNL     1      -8.026 -29.713  14.649  1.00  0.00    -0.097 Br
ENDBRANCH  10  11
ENDBRANCH   9  10
ENDBRANCH   1   9
TORSDOF 3
ENDMDL
MODEL 3
REMARK VINA RESULT: -5.643465795      3.069      4.515
REMARK  3 active torsions:
REMARK  status: ('A' for Active; 'I' for Inactive)
REMARK    1  A    between atoms: C1_2  and  C2_3 
REMARK    2  A    between atoms: C2_3  and  C3_4 
REMARK    3  A    between atoms: C3_4  and  C4_5 
ROOT
HETATM    1  C4  UNL     1     -10.000 -31.788  16.298  1.00  0.00    -0.011 C 
HETATM    2  C5  UNL     1      -9.009 -32.835  16.643  1.00  0.00     0.032 C 
HETATM    3  C6  UNL     1      -7.804 -32.908  15.786  1.00  0.00     0.232 C 
HETATM    4  N1  UNL     1      -7.388 -31.675  15.203  1.00  0.00    -0.075 N 
ATOM      5  H11 UNL     1      -6.593 -31.800  14.576  1.00  0.00     0.277 HD
ATOM      6  H12 UNL     1      -6.946 -31.061  15.887  1.00  0.00     0.277 HD
HETATM    7  C7  UNL     1      -8.500 -31.029  14.541  1.00  0.00     0.232 C 
HETATM    8  C8  UNL     1      -9.449 -30.573  15.642  1.00  0.00     0.032 C 
ENDROOT
BRANCH   1   9
HETATM    9  C3  UNL     1     -10.780 -31.441  17.565  1.00  0.00     0.005 C 
BRANCH   9  10
HETATM   10  C2  UNL     1      -9.913 -30.668  18.535  1.00  0.00     0.011 C 
BRANCH  10  11
HETATM   11  C1  UNL     1     -10.158 -31.271  19.910  1.00  0.00     0.085 C 
HETATM   12 BR1  UNL     1      -8.845 -32.577  20.385  1.00  0.00    -0.097 Br
ENDBRANCH  10  11
ENDBRANCH   9  10
ENDBRANCH   1   9
TORSDOF 3
ENDMDL
MODEL 4
REMARK VINA RESULT: -5.437233921      3.178      4.766
REMARK  3 active torsions:
REMARK  status: ('A' for Active; 'I' for Inactive)
REMARK    1  A    between atoms: C1_2  and  C2_3 
REMARK    2  A    between atoms: C2_3  and  C3_4 
REMARK    3  A    between atoms: C3_4  and  C4_5 
ROOT
HETATM    1  C4  UNL     1      -9.167 -31.500  16.865  1.00  0.00    -0.011 C 
HETATM    2  C5  UNL     1      -9.093 -30.411  15.862  1.00  0.00     0.032 C 
HETATM    3  C6  UNL     1      -8.110 -30.589  14.770  1.00  0.00     0.232 C 
HETATM    4  N1  UNL     1      -7.838 -31.939  14.400  1.00  0.00    -0.075 N 
ATOM      5  H11 UNL     1      -7.110 -31.998  13.688  1.00  0.00     0.277 HD
ATOM      6  H12 UNL     1      -8.605 -32.348  13.866  1.00  0.00     0.277 HD
HETATM    7  C7  UNL     1      -7.515 -32.727  15.568  1.00  0.00     0.232 C 
HETATM    8  C8  UNL     1      -8.805 -32.855  16.370  1.00  0.00     0.032 C 
ENDROOT
BRANCH   1   9
HETATM    9  C3  UNL     1     -10.565 -31.480  17.481  1.00  0.00     0.005 C 
BRANCH   9  10
HETATM   10  C2  UNL     1     -10.543 -30.815  18.840  1.00  0.00     0.011 C 
BRANCH  10  11
HETATM   11  C1  UNL     1      -9.173 -31.097  19.438  1.00  0.00     0.085 C 
HETATM   12 BR1  UNL     1      -9.167 -32.636  20.571  1.00  0.00    -0.097 Br
ENDBRANCH  10  11
ENDBRANCH   9  10
ENDBRANCH   1   9
TORSDOF 3
ENDMDL
MODEL 5
REMARK VINA RESULT: -5.339775606      1.401      2.175
REMARK  3 active torsions:
REMARK  status: ('A' for Active; 'I' for Inactive)
REMARK    1  A    between atoms: C1_2  and  C2_3 
REMARK    2  A    between atoms: C2_3  and  C3_4 
REMARK    3  A    between atoms: C3_4  and  C4_5 
ROOT
HETATM    1  C4  UNL     1      -9.438 -32.314  17.398  1.00  0.00    -0.011 C 
HETATM    2  C5  UNL     1     -10.017 -31.263  18.269  1.00  0.00     0.032 C 
HETATM    3  C6  UNL     1      -9.613 -31.294  19.692  1.00  0.00     0.232 C 
HETATM    4  N1  UNL     1      -8.314 -31.822  19.953  1.00  0.00    -0.075 N 
ATOM      5  H11 UNL     1      -8.119 -31.874  20.953  1.00  0.00     0.277 HD
ATOM      6  H12 UNL     1      -7.577 -31.167  19.689  1.00  0.00     0.277 HD
HETATM    7  C7  UNL     1      -8.151 -33.104  19.304  1.00  0.00     0.232 C 
HETATM    8  C8  UNL     1      -8.102 -32.824  17.807  1.00  0.00     0.032 C 
ENDROOT
BRANCH   1   9
HETATM    9  C3  UNL     1      -9.424 -31.785  15.965  1.00  0.00     0.005 C 
BRANCH   9  10
HETATM   10  C2  UNL     1      -9.120 -30.302  15.943  1.00  0.00     0.011 C 
BRANCH  10  11
HETATM   11  C1  UNL     1      -8.064 -30.094  14.867  1.00  0.00     0.085 C 
HETATM   12 BR1  UNL     1      -7.488 -31.734  14.073  1.00  0.00    -0.097 Br
ENDBRANCH  10  11
ENDBRANCH   9  10
ENDBRANCH   1   9
TORSDOF 3
ENDMDL
