MODEL 1
REMARK VINA RESULT: -5.175703696      0.000      0.000
REMARK  3 active torsions:
REMARK  status: ('A' for Active; 'I' for Inactive)
REMARK    1  A    between atoms: C2_2  and  C3_3 
REMARK    2  A    between atoms: C3_3  and  C4_4 
REMARK    3  A    between atoms: C6_7  and  C7_8 
ROOT
HETATM    1  C4  UNL     1      35.851   9.194  -6.080  1.00  0.00     0.063 C 
HETATM    2  C5  UNL     1      35.693   7.686  -6.130  1.00  0.00     0.046 C 
HETATM    3  O1  UNL     1      36.360   9.302  -4.722  1.00  0.00    -0.363 OA
HETATM    4  C6  UNL     1      35.667  10.239  -4.059  1.00  0.00     0.231 C 
HETATM    5  C8  UNL     1      34.377  10.484  -4.744  1.00  0.00    -0.001 C 
HETATM    6  C9  UNL     1      33.912  11.906  -4.657  1.00  0.00     0.019 C 
HETATM    7  C10 UNL     1      33.336   9.660  -4.023  1.00  0.00     0.013 C 
HETATM    8  C11 UNL     1      32.048   9.509  -4.803  1.00  0.00     0.007 C 
HETATM    9  C12 UNL     1      32.435   8.807  -6.064  1.00  0.00    -0.001 C 
HETATM   10  C13 UNL     1      33.454   9.547  -6.884  1.00  0.00    -0.002 C 
HETATM   11  C14 UNL     1      32.837  10.641  -7.729  1.00  0.00     0.006 C 
HETATM   12  C15 UNL     1      31.362  10.655  -7.795  1.00  0.00     0.006 C 
HETATM   13  C16 UNL     1      30.720   9.301  -7.831  1.00  0.00     0.001 C 
HETATM   14  C17 UNL     1      29.222   9.542  -7.592  1.00  0.00     0.083 C 
HETATM   15  C18 UNL     1      28.486   8.250  -7.574  1.00  0.00     0.127 C 
HETATM   16  O4  UNL     1      27.487   8.053  -8.210  1.00  0.00    -0.298 OA
HETATM   17  C19 UNL     1      29.060   7.175  -6.701  1.00  0.00     0.079 C 
HETATM   18  C20 UNL     1      30.214   7.763  -5.963  1.00  0.00     0.017 C 
HETATM   19  C21 UNL     1      31.301   8.308  -6.888  1.00  0.00    -0.036 C 
HETATM   20  C22 UNL     1      31.805   7.112  -7.688  1.00  0.00     0.016 C 
HETATM   21  C23 UNL     1      34.665  10.019  -6.157  1.00  0.00     0.035 C 
ENDROOT
BRANCH   1  22
HETATM   22  C3  UNL     1      37.078   9.538  -6.860  1.00  0.00     0.038 C 
BRANCH  22  23
HETATM   23  C2  UNL     1      37.108  10.659  -7.792  1.00  0.00    -0.002 C 
HETATM   24  C1  UNL     1      38.365  11.455  -7.782  1.00  0.00     0.005 C 
ENDBRANCH  22  23
ENDBRANCH   1  22
BRANCH   4  25
HETATM   25  C7  UNL     1      36.491  11.396  -3.724  1.00  0.00     0.204 C 
HETATM   26  O2  UNL     1      36.655  11.680  -2.511  1.00  0.00    -0.646 OA
HETATM   27  O3  UNL     1      37.134  12.249  -4.607  1.00  0.00    -0.646 OA
ENDBRANCH   4  25
TORSDOF 3
ENDMDL
MODEL 2
REMARK VINA RESULT: -4.828777517      1.970      3.928
REMARK  3 active torsions:
REMARK  status: ('A' for Active; 'I' for Inactive)
REMARK    1  A    between atoms: C2_2  and  C3_3 
REMARK    2  A    between atoms: C3_3  and  C4_4 
REMARK    3  A    between atoms: C6_7  and  C7_8 
ROOT
HETATM    1  C4  UNL     1      33.955   9.955  -5.611  1.00  0.00     0.063 C 
HETATM    2  C5  UNL     1      33.639  11.434  -5.736  1.00  0.00     0.046 C 
HETATM    3  O1  UNL     1      35.075   9.906  -6.539  1.00  0.00    -0.363 OA
HETATM    4  C6  UNL     1      34.897   8.892  -7.397  1.00  0.00     0.231 C 
HETATM    5  C8  UNL     1      33.471   8.495  -7.415  1.00  0.00    -0.001 C 
HETATM    6  C9  UNL     1      33.258   7.027  -7.631  1.00  0.00     0.019 C 
HETATM    7  C10 UNL     1      32.840   9.187  -8.600  1.00  0.00     0.013 C 
HETATM    8  C11 UNL     1      31.327   9.185  -8.559  1.00  0.00     0.007 C 
HETATM    9  C12 UNL     1      30.969   9.931  -7.315  1.00  0.00    -0.001 C 
HETATM   10  C13 UNL     1      31.524   9.320  -6.059  1.00  0.00    -0.002 C 
HETATM   11  C14 UNL     1      30.688   8.162  -5.557  1.00  0.00     0.006 C 
HETATM   12  C15 UNL     1      29.381   7.971  -6.218  1.00  0.00     0.006 C 
HETATM   13  C16 UNL     1      28.669   9.239  -6.582  1.00  0.00     0.001 C 
HETATM   14  C17 UNL     1      27.516   8.821  -7.507  1.00  0.00     0.083 C 
HETATM   15  C18 UNL     1      26.755  10.015  -7.960  1.00  0.00     0.127 C 
HETATM   16  O4  UNL     1      25.558  10.092  -7.905  1.00  0.00    -0.298 OA
HETATM   17  C19 UNL     1      27.570  11.149  -8.505  1.00  0.00     0.079 C 
HETATM   18  C20 UNL     1      28.991  10.701  -8.549  1.00  0.00     0.017 C 
HETATM   19  C21 UNL     1      29.533  10.292  -7.180  1.00  0.00    -0.036 C 
HETATM   20  C22 UNL     1      29.452  11.542  -6.311  1.00  0.00     0.016 C 
HETATM   21  C23 UNL     1      32.978   8.994  -6.072  1.00  0.00     0.035 C 
ENDROOT
BRANCH   1  22
HETATM   22  C3  UNL     1      34.669   9.762  -4.312  1.00  0.00     0.038 C 
BRANCH  22  23
HETATM   23  C2  UNL     1      36.091  10.049  -4.166  1.00  0.00    -0.002 C 
HETATM   24  C1  UNL     1      36.418  11.155  -3.225  1.00  0.00     0.005 C 
ENDBRANCH  22  23
ENDBRANCH   1  22
BRANCH   4  25
HETATM   25  C7  UNL     1      35.894   7.840  -7.217  1.00  0.00     0.204 C 
HETATM   26  O2  UNL     1      36.638   7.552  -8.187  1.00  0.00    -0.646 OA
HETATM   27  O3  UNL     1      36.127   7.096  -6.071  1.00  0.00    -0.646 OA
ENDBRANCH   4  25
TORSDOF 3
ENDMDL
MODEL 3
REMARK VINA RESULT: -4.789731529      1.970      6.637
REMARK  3 active torsions:
REMARK  status: ('A' for Active; 'I' for Inactive)
REMARK    1  A    between atoms: C2_2  and  C3_3 
REMARK    2  A    between atoms: C3_3  and  C4_4 
REMARK    3  A    between atoms: C6_7  and  C7_8 
ROOT
HETATM    1  C4  UNL     1      33.453   8.532  -8.189  1.00  0.00     0.063 C 
HETATM    2  C5  UNL     1      34.149   9.415  -9.209  1.00  0.00     0.046 C 
HETATM    3  O1  UNL     1      32.080   8.798  -8.589  1.00  0.00    -0.363 OA
HETATM    4  C6  UNL     1      31.353   9.108  -7.507  1.00  0.00     0.231 C 
HETATM    5  C8  UNL     1      32.248   9.526  -6.405  1.00  0.00    -0.001 C 
HETATM    6  C9  UNL     1      31.751   9.136  -5.046  1.00  0.00     0.019 C 
HETATM    7  C10 UNL     1      32.283  11.036  -6.419  1.00  0.00     0.013 C 
HETATM    8  C11 UNL     1      33.419  11.616  -5.604  1.00  0.00     0.007 C 
HETATM    9  C12 UNL     1      34.665  11.096  -6.245  1.00  0.00    -0.001 C 
HETATM   10  C13 UNL     1      34.756   9.596  -6.269  1.00  0.00    -0.002 C 
HETATM   11  C14 UNL     1      35.240   9.022  -4.954  1.00  0.00     0.006 C 
HETATM   12  C15 UNL     1      35.754   9.997  -3.971  1.00  0.00     0.006 C 
HETATM   13  C16 UNL     1      36.527  11.138  -4.560  1.00  0.00     0.001 C 
HETATM   14  C17 UNL     1      36.694  12.160  -3.426  1.00  0.00     0.083 C 
HETATM   15  C18 UNL     1      37.426  13.360  -3.913  1.00  0.00     0.127 C 
HETATM   16  O4  UNL     1      38.366  13.836  -3.337  1.00  0.00    -0.298 OA
HETATM   17  C19 UNL     1      36.923  13.966  -5.188  1.00  0.00     0.079 C 
HETATM   18  C20 UNL     1      35.691  13.227  -5.583  1.00  0.00     0.017 C 
HETATM   19  C21 UNL     1      35.929  11.731  -5.786  1.00  0.00    -0.036 C 
HETATM   20  C22 UNL     1      36.938  11.622  -6.924  1.00  0.00     0.016 C 
HETATM   21  C23 UNL     1      33.561   8.873  -6.787  1.00  0.00     0.035 C 
ENDROOT
BRANCH   1  22
HETATM   22  C3  UNL     1      33.603   7.119  -8.650  1.00  0.00     0.038 C 
BRANCH  22  23
HETATM   23  C2  UNL     1      33.944   6.042  -7.728  1.00  0.00    -0.002 C 
HETATM   24  C1  UNL     1      35.401   5.785  -7.570  1.00  0.00     0.005 C 
ENDBRANCH  22  23
ENDBRANCH   1  22
BRANCH   4  25
HETATM   25  C7  UNL     1      30.343   8.095  -7.217  1.00  0.00     0.204 C 
HETATM   26  O2  UNL     1      29.148   8.462  -7.095  1.00  0.00    -0.646 OA
HETATM   27  O3  UNL     1      30.548   6.734  -7.053  1.00  0.00    -0.646 OA
ENDBRANCH   4  25
TORSDOF 3
ENDMDL
MODEL 4
REMARK VINA RESULT: -4.745733496      3.454      5.259
REMARK  3 active torsions:
REMARK  status: ('A' for Active; 'I' for Inactive)
REMARK    1  A    between atoms: C2_2  and  C3_3 
REMARK    2  A    between atoms: C3_3  and  C4_4 
REMARK    3  A    between atoms: C6_7  and  C7_8 
ROOT
HETATM    1  C4  UNL     1      36.118  12.826  -6.227  1.00  0.00     0.063 C 
HETATM    2  C5  UNL     1      37.623  12.691  -6.368  1.00  0.00     0.046 C 
HETATM    3  O1  UNL     1      36.092  13.508  -4.943  1.00  0.00    -0.363 OA
HETATM    4  C6  UNL     1      35.224  12.890  -4.128  1.00  0.00     0.231 C 
HETATM    5  C8  UNL     1      34.968  11.518  -4.620  1.00  0.00    -0.001 C 
HETATM    6  C9  UNL     1      33.569  11.042  -4.369  1.00  0.00     0.019 C 
HETATM    7  C10 UNL     1      35.869  10.596  -3.833  1.00  0.00     0.013 C 
HETATM    8  C11 UNL     1      36.001   9.219  -4.447  1.00  0.00     0.007 C 
HETATM    9  C12 UNL     1      36.602   9.449  -5.796  1.00  0.00    -0.001 C 
HETATM   10  C13 UNL     1      35.777  10.338  -6.685  1.00  0.00    -0.002 C 
HETATM   11  C14 UNL     1      34.644   9.595  -7.360  1.00  0.00     0.006 C 
HETATM   12  C15 UNL     1      34.667   8.124  -7.232  1.00  0.00     0.006 C 
HETATM   13  C16 UNL     1      36.033   7.508  -7.284  1.00  0.00     0.001 C 
HETATM   14  C17 UNL     1      35.851   6.051  -6.835  1.00  0.00     0.083 C 
HETATM   15  C18 UNL     1      37.161   5.347  -6.816  1.00  0.00     0.127 C 
HETATM   16  O4  UNL     1      37.341   4.277  -7.330  1.00  0.00    -0.298 OA
HETATM   17  C19 UNL     1      38.279   6.052  -6.107  1.00  0.00     0.079 C 
HETATM   18  C20 UNL     1      37.711   7.281  -5.484  1.00  0.00     0.017 C 
HETATM   19  C21 UNL     1      37.072   8.227  -6.500  1.00  0.00    -0.036 C 
HETATM   20  C22 UNL     1      38.195   8.643  -7.444  1.00  0.00     0.016 C 
HETATM   21  C23 UNL     1      35.324  11.626  -6.089  1.00  0.00     0.035 C 
ENDROOT
BRANCH   1  22
HETATM   22  C3  UNL     1      35.686  13.933  -7.133  1.00  0.00     0.038 C 
BRANCH  22  23
HETATM   23  C2  UNL     1      34.543  13.793  -8.027  1.00  0.00    -0.002 C 
HETATM   24  C1  UNL     1      34.861  13.250  -9.376  1.00  0.00     0.005 C 
ENDBRANCH  22  23
ENDBRANCH   1  22
BRANCH   4  25
HETATM   25  C7  UNL     1      34.071  13.730  -3.819  1.00  0.00     0.204 C 
HETATM   26  O2  UNL     1      33.755  13.887  -2.614  1.00  0.00    -0.646 OA
HETATM   27  O3  UNL     1      33.255  14.395  -4.721  1.00  0.00    -0.646 OA
ENDBRANCH   4  25
TORSDOF 3
ENDMDL
MODEL 5
REMARK VINA RESULT: -4.738777965      2.803      7.267
REMARK  3 active torsions:
REMARK  status: ('A' for Active; 'I' for Inactive)
REMARK    1  A    between atoms: C2_2  and  C3_3 
REMARK    2  A    between atoms: C3_3  and  C4_4 
REMARK    3  A    between atoms: C6_7  and  C7_8 
ROOT
HETATM    1  C4  UNL     1      35.477   9.681  -5.915  1.00  0.00     0.063 C 
HETATM    2  C5  UNL     1      36.487   8.959  -5.042  1.00  0.00     0.046 C 
HETATM    3  O1  UNL     1      36.195   9.591  -7.177  1.00  0.00    -0.363 OA
HETATM    4  C6  UNL     1      36.235  10.800  -7.754  1.00  0.00     0.231 C 
HETATM    5  C8  UNL     1      35.976  11.847  -6.740  1.00  0.00    -0.001 C 
HETATM    6  C9  UNL     1      35.230  13.031  -7.276  1.00  0.00     0.019 C 
HETATM    7  C10 UNL     1      37.322  12.368  -6.296  1.00  0.00     0.013 C 
HETATM    8  C11 UNL     1      37.260  13.175  -5.017  1.00  0.00     0.007 C 
HETATM    9  C12 UNL     1      36.741  12.229  -3.983  1.00  0.00    -0.001 C 
HETATM   10  C13 UNL     1      35.388  11.660  -4.305  1.00  0.00    -0.002 C 
HETATM   11  C14 UNL     1      34.260  12.605  -3.948  1.00  0.00     0.006 C 
HETATM   12  C15 UNL     1      34.636  13.792  -3.155  1.00  0.00     0.006 C 
HETATM   13  C16 UNL     1      35.694  13.550  -2.121  1.00  0.00     0.001 C 
HETATM   14  C17 UNL     1      36.138  14.941  -1.643  1.00  0.00     0.083 C 
HETATM   15  C18 UNL     1      37.220  14.820  -0.630  1.00  0.00     0.127 C 
HETATM   16  O4  UNL     1      37.202  15.395   0.424  1.00  0.00    -0.298 OA
HETATM   17  C19 UNL     1      38.366  13.924  -0.993  1.00  0.00     0.079 C 
HETATM   18  C20 UNL     1      38.150  13.462  -2.394  1.00  0.00     0.017 C 
HETATM   19  C21 UNL     1      36.833  12.709  -2.578  1.00  0.00    -0.036 C 
HETATM   20  C22 UNL     1      36.926  11.482  -1.678  1.00  0.00     0.016 C 
HETATM   21  C23 UNL     1      35.224  11.084  -5.668  1.00  0.00     0.035 C 
ENDROOT
BRANCH   1  22
HETATM   22  C3  UNL     1      34.353   8.731  -6.171  1.00  0.00     0.038 C 
BRANCH  22  23
HETATM   23  C2  UNL     1      32.963   9.172  -6.195  1.00  0.00    -0.002 C 
HETATM   24  C1  UNL     1      32.303   9.251  -4.863  1.00  0.00     0.005 C 
ENDBRANCH  22  23
ENDBRANCH   1  22
BRANCH   4  25
HETATM   25  C7  UNL     1      35.460  10.843  -8.990  1.00  0.00     0.204 C 
HETATM   26  O2  UNL     1      36.041  11.196 -10.046  1.00  0.00    -0.646 OA
HETATM   27  O3  UNL     1      34.118  10.534  -9.147  1.00  0.00    -0.646 OA
ENDBRANCH   4  25
TORSDOF 3
ENDMDL
