MODEL 1
REMARK VINA RESULT: -5.227464240      0.000      0.000
REMARK  3 active torsions:
REMARK  status: ('A' for Active; 'I' for Inactive)
REMARK    1  A    between atoms: N1_1  and  O1_4 
REMARK    2  A    between atoms: O1_4  and  C1_5 
REMARK    3  A    between atoms: C1_5  and  C2_6 
ROOT
HETATM    1  C2  UNL     1      17.573  -0.535  11.008  1.00  0.00     0.013 C 
HETATM    2  C3  UNL     1      19.092  -0.449  10.818  1.00  0.00     0.018 C 
HETATM    3  C4  UNL     1      19.537   1.002  10.422  1.00  0.00     0.080 C 
HETATM    4  C5  UNL     1      18.467   1.838  10.762  1.00  0.00    -0.183 C 
HETATM    5  C6  UNL     1      17.367   2.636  11.115  1.00  0.00     0.080 C 
HETATM    6  C7  UNL     1      16.264   1.642  11.622  1.00  0.00     0.012 C 
HETATM    7  C8  UNL     1      16.853   0.271  11.938  1.00  0.00     0.007 C 
ENDROOT
BRANCH   1   8
HETATM    8  C1  UNL     1      17.417  -2.014  11.459  1.00  0.00     0.205 C 
BRANCH   8   9
HETATM    9  O1  UNL     1      18.635  -2.685  11.212  1.00  0.00    -0.287 OA
BRANCH   9  10
HETATM   10  N1  UNL     1      18.335  -4.004  11.236  1.00  0.00    -0.311 N 
ATOM     11  H12 UNL     1      17.924  -4.546  10.476  1.00  0.00     0.184 HD
ATOM     12  H11 UNL     1      18.605  -4.329  12.165  1.00  0.00     0.184 HD
ENDBRANCH   9  10
ENDBRANCH   8   9
ENDBRANCH   1   8
TORSDOF 3
ENDMDL
MODEL 2
REMARK VINA RESULT: -5.000541466      0.535      2.086
REMARK  3 active torsions:
REMARK  status: ('A' for Active; 'I' for Inactive)
REMARK    1  A    between atoms: N1_1  and  O1_4 
REMARK    2  A    between atoms: O1_4  and  C1_5 
REMARK    3  A    between atoms: C1_5  and  C2_6 
ROOT
HETATM    1  C2  UNL     1      17.755  -0.367  11.332  1.00  0.00     0.013 C 
HETATM    2  C3  UNL     1      16.340   0.205  11.195  1.00  0.00     0.018 C 
HETATM    3  C4  UNL     1      16.356   1.774  11.176  1.00  0.00     0.080 C 
HETATM    4  C5  UNL     1      17.676   2.140  10.884  1.00  0.00    -0.183 C 
HETATM    5  C6  UNL     1      19.012   2.458  10.594  1.00  0.00     0.080 C 
HETATM    6  C7  UNL     1      19.775   1.089  10.540  1.00  0.00     0.012 C 
HETATM    7  C8  UNL     1      18.808  -0.083  10.412  1.00  0.00     0.007 C 
ENDROOT
BRANCH   1   8
HETATM    8  C1  UNL     1      17.465  -1.892  11.246  1.00  0.00     0.205 C 
BRANCH   8   9
HETATM    9  O1  UNL     1      18.700  -2.578  11.239  1.00  0.00    -0.287 OA
BRANCH   9  10
HETATM   10  N1  UNL     1      18.384  -3.894  11.251  1.00  0.00    -0.311 N 
ATOM     11  H12 UNL     1      18.475  -4.547  10.473  1.00  0.00     0.184 HD
ATOM     12  H11 UNL     1      18.040  -4.084  12.193  1.00  0.00     0.184 HD
ENDBRANCH   9  10
ENDBRANCH   8   9
ENDBRANCH   1   8
TORSDOF 3
ENDMDL
MODEL 3
REMARK VINA RESULT: -4.912325786      4.784      5.777
REMARK  3 active torsions:
REMARK  status: ('A' for Active; 'I' for Inactive)
REMARK    1  A    between atoms: N1_1  and  O1_4 
REMARK    2  A    between atoms: O1_4  and  C1_5 
REMARK    3  A    between atoms: C1_5  and  C2_6 
ROOT
HETATM    1  C2  UNL     1      16.523   3.354  14.950  1.00  0.00     0.013 C 
HETATM    2  C3  UNL     1      15.132   3.871  14.569  1.00  0.00     0.018 C 
HETATM    3  C4  UNL     1      15.118   5.434  14.438  1.00  0.00     0.080 C 
HETATM    4  C5  UNL     1      16.459   5.820  14.314  1.00  0.00    -0.183 C 
HETATM    5  C6  UNL     1      17.816   6.160  14.198  1.00  0.00     0.080 C 
HETATM    6  C7  UNL     1      18.608   4.814  14.355  1.00  0.00     0.012 C 
HETATM    7  C8  UNL     1      17.694   3.606  14.175  1.00  0.00     0.007 C 
ENDROOT
BRANCH   1   8
HETATM    8  C1  UNL     1      16.281   1.819  14.935  1.00  0.00     0.205 C 
BRANCH   8   9
HETATM    9  O1  UNL     1      17.192   1.217  15.832  1.00  0.00    -0.287 OA
BRANCH   9  10
HETATM   10  N1  UNL     1      16.981  -0.115  15.724  1.00  0.00    -0.311 N 
ATOM     11  H12 UNL     1      16.167  -0.568  15.309  1.00  0.00     0.184 HD
ATOM     12  H11 UNL     1      17.802  -0.556  16.140  1.00  0.00     0.184 HD
ENDBRANCH   9  10
ENDBRANCH   8   9
ENDBRANCH   1   8
TORSDOF 3
ENDMDL
MODEL 4
REMARK VINA RESULT: -4.739879455      5.154      5.360
REMARK  3 active torsions:
REMARK  status: ('A' for Active; 'I' for Inactive)
REMARK    1  A    between atoms: N1_1  and  O1_4 
REMARK    2  A    between atoms: O1_4  and  C1_5 
REMARK    3  A    between atoms: C1_5  and  C2_6 
ROOT
HETATM    1  C2  UNL     1      16.300   2.980  14.832  1.00  0.00     0.013 C 
HETATM    2  C3  UNL     1      17.752   3.305  15.196  1.00  0.00     0.018 C 
HETATM    3  C4  UNL     1      18.261   4.579  14.435  1.00  0.00     0.080 C 
HETATM    4  C5  UNL     1      17.112   5.240  13.983  1.00  0.00    -0.183 C 
HETATM    5  C6  UNL     1      15.934   5.865  13.546  1.00  0.00     0.080 C 
HETATM    6  C7  UNL     1      14.763   4.910  13.971  1.00  0.00     0.012 C 
HETATM    7  C8  UNL     1      15.222   3.896  15.013  1.00  0.00     0.007 C 
ENDROOT
BRANCH   1   8
HETATM    8  C1  UNL     1      16.031   1.760  15.757  1.00  0.00     0.205 C 
BRANCH   8   9
HETATM    9  O1  UNL     1      17.240   1.048  15.915  1.00  0.00    -0.287 OA
BRANCH   9  10
HETATM   10  N1  UNL     1      16.969  -0.219  15.525  1.00  0.00    -0.311 N 
ATOM     11  H12 UNL     1      16.256  -0.834  15.917  1.00  0.00     0.184 HD
ATOM     12  H11 UNL     1      17.622  -0.418  14.767  1.00  0.00     0.184 HD
ENDBRANCH   9  10
ENDBRANCH   8   9
ENDBRANCH   1   8
TORSDOF 3
ENDMDL
MODEL 5
REMARK VINA RESULT: -4.576061970      3.224      4.374
REMARK  3 active torsions:
REMARK  status: ('A' for Active; 'I' for Inactive)
REMARK    1  A    between atoms: N1_1  and  O1_4 
REMARK    2  A    between atoms: O1_4  and  C1_5 
REMARK    3  A    between atoms: C1_5  and  C2_6 
ROOT
HETATM    1  C2  UNL     1      18.606   1.801  10.549  1.00  0.00     0.013 C 
HETATM    2  C3  UNL     1      18.005   2.688  11.644  1.00  0.00     0.018 C 
HETATM    3  C4  UNL     1      16.755   2.010  12.308  1.00  0.00     0.080 C 
HETATM    4  C5  UNL     1      16.832   0.653  11.972  1.00  0.00    -0.183 C 
HETATM    5  C6  UNL     1      16.947  -0.697  11.606  1.00  0.00     0.080 C 
HETATM    6  C7  UNL     1      18.199  -0.778  10.664  1.00  0.00     0.012 C 
HETATM    7  C8  UNL     1      19.066   0.471  10.781  1.00  0.00     0.007 C 
ENDROOT
BRANCH   1   8
HETATM    8  C1  UNL     1      19.838   2.649  10.126  1.00  0.00     0.205 C 
BRANCH   8   9
HETATM    9  O1  UNL     1      20.372   2.095   8.942  1.00  0.00    -0.287 OA
BRANCH   9  10
HETATM   10  N1  UNL     1      20.733   3.152   8.177  1.00  0.00    -0.311 N 
ATOM     11  H12 UNL     1      21.658   3.578   8.130  1.00  0.00     0.184 HD
ATOM     12  H11 UNL     1      19.890   3.423   7.669  1.00  0.00     0.184 HD
ENDBRANCH   9  10
ENDBRANCH   8   9
ENDBRANCH   1   8
TORSDOF 3
ENDMDL
