MODEL 1
REMARK VINA RESULT: -9.791026128      0.000      0.000
REMARK  5 active torsions:
REMARK  status: ('A' for Active; 'I' for Inactive)
REMARK    1  A    between atoms: C3_4  and  C4_5 
REMARK    2  A    between atoms: C5_6  and  C6_7 
REMARK    3  A    between atoms: C6_7  and  O1_8 
REMARK    4  A    between atoms: C6_7  and  C7_10 
REMARK    5  A    between atoms: C13_18  and  C14_19 
ROOT
HETATM    1  C14 UNL     1       4.832  50.632   1.713  1.00  0.00    -0.006 A 
HETATM    2  C15 UNL     1       4.903  50.129   0.429  1.00  0.00     0.015 A 
HETATM    3  C16 UNL     1       4.215  48.972   0.092  1.00  0.00     0.025 A 
HETATM    4  C17 UNL     1       3.457  48.312   1.023  1.00  0.00     0.068 A 
HETATM    5  C18 UNL     1       2.726  47.097   0.698  1.00  0.00     0.101 C 
HETATM    6  N2  UNL     1       2.134  46.138   0.442  1.00  0.00    -0.191 NA
HETATM    7  C19 UNL     1       3.402  48.834   2.300  1.00  0.00     0.068 A 
HETATM    8  N3  UNL     1       2.631  48.190   3.307  1.00  0.00    -0.101 NA
HETATM    9  C20 UNL     1       4.086  49.996   2.656  1.00  0.00     0.042 A 
ENDROOT
BRANCH   1  10
HETATM   10  C13 UNL     1       5.569  51.879   2.073  1.00  0.00     0.056 A 
HETATM   11  C2  UNL     1       6.797  51.850   2.689  1.00  0.00     0.009 A 
HETATM   12  C1  UNL     1       7.602  50.651   3.104  1.00  0.00     0.059 C 
HETATM   13  S1  UNL     1       7.144  53.518   2.846  1.00  0.00    -0.066 SA
HETATM   14  C3  UNL     1       5.731  54.144   2.129  1.00  0.00     0.130 A 
HETATM   15  N1  UNL     1       5.067  53.052   1.807  1.00  0.00    -0.342 N 
ATOM     16  H1  UNL     1       4.158  53.125   1.349  1.00  0.00     0.167 HD
BRANCH  14  17
HETATM   17  C4  UNL     1       5.315  55.524   1.904  1.00  0.00    -0.038 C 
HETATM   18  C5  UNL     1       4.966  56.653   1.699  1.00  0.00    -0.062 C 
BRANCH  18  19
HETATM   19  C6  UNL     1       4.536  58.030   1.424  1.00  0.00     0.230 C 
BRANCH  19  20
HETATM   20  O1  UNL     1       4.201  58.702   2.620  1.00  0.00    -0.379 OA
ATOM     21  H1  UNL     1       4.973  59.083   3.023  1.00  0.00     0.211 HD
ENDBRANCH  19  20
BRANCH  19  22
HETATM   22  C7  UNL     1       5.661  58.747   0.827  1.00  0.00    -0.018 A 
HETATM   23  C8  UNL     1       6.722  58.078   0.278  1.00  0.00     0.011 A 
HETATM   24  C9  UNL     1       7.769  58.802  -0.278  1.00  0.00     0.001 A 
HETATM   25  C10 UNL     1       7.777  60.170  -0.297  1.00  0.00     0.000 A 
HETATM   26  C11 UNL     1       6.703  60.822   0.259  1.00  0.00     0.001 A 
HETATM   27  C12 UNL     1       5.652  60.119   0.817  1.00  0.00     0.011 A 
ENDBRANCH  19  22
ENDBRANCH  18  19
ENDBRANCH  14  17
ENDBRANCH   1  10
TORSDOF 5
ENDMDL
MODEL 2
REMARK VINA RESULT: -9.541254056      1.014      1.747
REMARK  5 active torsions:
REMARK  status: ('A' for Active; 'I' for Inactive)
REMARK    1  A    between atoms: C3_4  and  C4_5 
REMARK    2  A    between atoms: C5_6  and  C6_7 
REMARK    3  A    between atoms: C6_7  and  O1_8 
REMARK    4  A    between atoms: C6_7  and  C7_10 
REMARK    5  A    between atoms: C13_18  and  C14_19 
ROOT
HETATM    1  C14 UNL     1       5.277  50.640   2.470  1.00  0.00    -0.006 A 
HETATM    2  C15 UNL     1       5.000  50.061   3.693  1.00  0.00     0.015 A 
HETATM    3  C16 UNL     1       4.304  48.862   3.757  1.00  0.00     0.025 A 
HETATM    4  C17 UNL     1       3.883  48.235   2.614  1.00  0.00     0.068 A 
HETATM    5  C18 UNL     1       3.152  46.978   2.652  1.00  0.00     0.101 C 
HETATM    6  N2  UNL     1       2.581  45.973   2.675  1.00  0.00    -0.191 NA
HETATM    7  C19 UNL     1       4.172  48.834   1.404  1.00  0.00     0.068 A 
HETATM    8  N3  UNL     1       3.758  48.227   0.186  1.00  0.00    -0.101 NA
HETATM    9  C20 UNL     1       4.870  50.038   1.321  1.00  0.00     0.042 A 
ENDROOT
BRANCH   1  10
HETATM   10  C13 UNL     1       6.029  51.928   2.402  1.00  0.00     0.056 A 
HETATM   11  C2  UNL     1       7.392  51.988   2.558  1.00  0.00     0.009 A 
HETATM   12  C1  UNL     1       8.350  50.859   2.811  1.00  0.00     0.059 C 
HETATM   13  S1  UNL     1       7.686  53.664   2.385  1.00  0.00    -0.066 SA
HETATM   14  C3  UNL     1       6.084  54.182   2.128  1.00  0.00     0.130 A 
HETATM   15  N1  UNL     1       5.406  53.053   2.187  1.00  0.00    -0.342 N 
ATOM     16  H1  UNL     1       4.394  53.060   2.064  1.00  0.00     0.167 HD
BRANCH  14  17
HETATM   17  C4  UNL     1       5.546  55.518   1.896  1.00  0.00    -0.038 C 
HETATM   18  C5  UNL     1       5.107  56.614   1.684  1.00  0.00    -0.062 C 
BRANCH  18  19
HETATM   19  C6  UNL     1       4.578  57.955   1.401  1.00  0.00     0.230 C 
BRANCH  19  20
HETATM   20  O1  UNL     1       4.169  58.597   2.591  1.00  0.00    -0.379 OA
ATOM     21  H1  UNL     1       3.595  59.330   2.401  1.00  0.00     0.211 HD
ENDBRANCH  19  20
BRANCH  19  22
HETATM   22  C7  UNL     1       5.656  58.758   0.828  1.00  0.00    -0.018 A 
HETATM   23  C8  UNL     1       5.608  60.127   0.838  1.00  0.00     0.011 A 
HETATM   24  C9  UNL     1       6.657  60.848   0.281  1.00  0.00     0.001 A 
HETATM   25  C10 UNL     1       7.743  60.235  -0.282  1.00  0.00     0.000 A 
HETATM   26  C11 UNL     1       7.771  58.861  -0.281  1.00  0.00     0.001 A 
HETATM   27  C12 UNL     1       6.738  58.126   0.268  1.00  0.00     0.011 A 
ENDBRANCH  19  22
ENDBRANCH  18  19
ENDBRANCH  14  17
ENDBRANCH   1  10
TORSDOF 5
ENDMDL
MODEL 3
REMARK VINA RESULT: -9.357668914      0.582      1.107
REMARK  5 active torsions:
REMARK  status: ('A' for Active; 'I' for Inactive)
REMARK    1  A    between atoms: C3_4  and  C4_5 
REMARK    2  A    between atoms: C5_6  and  C6_7 
REMARK    3  A    between atoms: C6_7  and  O1_8 
REMARK    4  A    between atoms: C6_7  and  C7_10 
REMARK    5  A    between atoms: C13_18  and  C14_19 
ROOT
HETATM    1  C14 UNL     1       5.102  50.463   2.138  1.00  0.00    -0.006 A 
HETATM    2  C15 UNL     1       5.244  49.687   1.005  1.00  0.00     0.015 A 
HETATM    3  C16 UNL     1       4.521  48.510   0.870  1.00  0.00     0.025 A 
HETATM    4  C17 UNL     1       3.659  48.101   1.853  1.00  0.00     0.068 A 
HETATM    5  C18 UNL     1       2.890  46.871   1.737  1.00  0.00     0.101 C 
HETATM    6  N2  UNL     1       2.267  45.902   1.646  1.00  0.00    -0.191 NA
HETATM    7  C19 UNL     1       3.535  48.894   2.976  1.00  0.00     0.068 A 
HETATM    8  N3  UNL     1       2.655  48.517   4.027  1.00  0.00    -0.101 NA
HETATM    9  C20 UNL     1       4.253  50.080   3.129  1.00  0.00     0.042 A 
ENDROOT
BRANCH   1  10
HETATM   10  C13 UNL     1       5.878  51.731   2.281  1.00  0.00     0.056 A 
HETATM   11  C2  UNL     1       7.189  51.744   2.690  1.00  0.00     0.009 A 
HETATM   12  C1  UNL     1       8.061  50.576   3.055  1.00  0.00     0.059 C 
HETATM   13  S1  UNL     1       7.543  53.417   2.666  1.00  0.00    -0.066 SA
HETATM   14  C3  UNL     1       6.027  53.993   2.144  1.00  0.00     0.130 A 
HETATM   15  N1  UNL     1       5.329  52.883   2.015  1.00  0.00    -0.342 N 
ATOM     16  H1  UNL     1       4.357  52.925   1.707  1.00  0.00     0.167 HD
BRANCH  14  17
HETATM   17  C4  UNL     1       5.567  55.354   1.889  1.00  0.00    -0.038 C 
HETATM   18  C5  UNL     1       5.183  56.467   1.660  1.00  0.00    -0.062 C 
BRANCH  18  19
HETATM   19  C6  UNL     1       4.710  57.824   1.355  1.00  0.00     0.230 C 
BRANCH  19  20
HETATM   20  O1  UNL     1       4.338  58.505   2.535  1.00  0.00    -0.379 OA
ATOM     21  H1  UNL     1       5.080  58.964   2.911  1.00  0.00     0.211 HD
ENDBRANCH  19  20
BRANCH  19  22
HETATM   22  C7  UNL     1       5.817  58.569   0.759  1.00  0.00    -0.018 A 
HETATM   23  C8  UNL     1       5.804  59.937   0.697  1.00  0.00     0.011 A 
HETATM   24  C9  UNL     1       6.880  60.602   0.121  1.00  0.00     0.001 A 
HETATM   25  C10 UNL     1       7.958  59.933  -0.390  1.00  0.00     0.000 A 
HETATM   26  C11 UNL     1       7.951  58.562  -0.319  1.00  0.00     0.001 A 
HETATM   27  C12 UNL     1       6.891  57.882   0.250  1.00  0.00     0.011 A 
ENDBRANCH  19  22
ENDBRANCH  18  19
ENDBRANCH  14  17
ENDBRANCH   1  10
TORSDOF 5
ENDMDL
MODEL 4
REMARK VINA RESULT: -9.057743991      2.222      2.737
REMARK  5 active torsions:
REMARK  status: ('A' for Active; 'I' for Inactive)
REMARK    1  A    between atoms: C3_4  and  C4_5 
REMARK    2  A    between atoms: C5_6  and  C6_7 
REMARK    3  A    between atoms: C6_7  and  O1_8 
REMARK    4  A    between atoms: C6_7  and  C7_10 
REMARK    5  A    between atoms: C13_18  and  C14_19 
ROOT
HETATM    1  C14 UNL     1       5.812  50.938   1.376  1.00  0.00    -0.006 A 
HETATM    2  C15 UNL     1       5.383  50.598   0.107  1.00  0.00     0.015 A 
HETATM    3  C16 UNL     1       4.168  49.950  -0.069  1.00  0.00     0.025 A 
HETATM    4  C17 UNL     1       3.378  49.640   1.006  1.00  0.00     0.068 A 
HETATM    5  C18 UNL     1       2.100  48.961   0.849  1.00  0.00     0.101 C 
HETATM    6  N2  UNL     1       1.079  48.433   0.730  1.00  0.00    -0.191 NA
HETATM    7  C19 UNL     1       3.828  49.990   2.263  1.00  0.00     0.068 A 
HETATM    8  N3  UNL     1       3.048  49.690   3.414  1.00  0.00    -0.101 NA
HETATM    9  C20 UNL     1       5.046  50.640   2.459  1.00  0.00     0.042 A 
ENDROOT
BRANCH   1  10
HETATM   10  C13 UNL     1       7.118  51.637   1.564  1.00  0.00     0.056 A 
HETATM   11  C2  UNL     1       8.176  51.047   2.211  1.00  0.00     0.009 A 
HETATM   12  C1  UNL     1       8.246  49.677   2.824  1.00  0.00     0.059 C 
HETATM   13  S1  UNL     1       9.362  52.276   2.125  1.00  0.00    -0.066 SA
HETATM   14  C3  UNL     1       8.457  53.449   1.283  1.00  0.00     0.130 A 
HETATM   15  N1  UNL     1       7.298  52.845   1.111  1.00  0.00    -0.342 N 
ATOM     16  H1  UNL     1       6.542  53.325   0.622  1.00  0.00     0.167 HD
BRANCH  14  17
HETATM   17  C4  UNL     1       8.823  54.791   0.842  1.00  0.00    -0.038 C 
HETATM   18  C5  UNL     1       9.137  55.885   0.463  1.00  0.00    -0.062 C 
BRANCH  18  19
HETATM   19  C6  UNL     1       9.538  57.214  -0.015  1.00  0.00     0.230 C 
BRANCH  19  20
HETATM   20  O1  UNL     1       9.970  57.158  -1.359  1.00  0.00    -0.379 OA
ATOM     21  H1  UNL     1      10.916  57.232  -1.414  1.00  0.00     0.211 HD
ENDBRANCH  19  20
BRANCH  19  22
HETATM   22  C7  UNL     1       8.366  58.086   0.025  1.00  0.00    -0.018 A 
HETATM   23  C8  UNL     1       7.139  57.612   0.406  1.00  0.00     0.011 A 
HETATM   24  C9  UNL     1       6.053  58.478   0.429  1.00  0.00     0.001 A 
HETATM   25  C10 UNL     1       6.167  59.796   0.082  1.00  0.00     0.000 A 
HETATM   26  C11 UNL     1       7.406  60.251  -0.297  1.00  0.00     0.001 A 
HETATM   27  C12 UNL     1       8.499  59.405  -0.326  1.00  0.00     0.011 A 
ENDBRANCH  19  22
ENDBRANCH  18  19
ENDBRANCH  14  17
ENDBRANCH   1  10
TORSDOF 5
ENDMDL
MODEL 5
REMARK VINA RESULT: -8.930856515      3.640      8.929
REMARK  5 active torsions:
REMARK  status: ('A' for Active; 'I' for Inactive)
REMARK    1  A    between atoms: C3_4  and  C4_5 
REMARK    2  A    between atoms: C5_6  and  C6_7 
REMARK    3  A    between atoms: C6_7  and  O1_8 
REMARK    4  A    between atoms: C6_7  and  C7_10 
REMARK    5  A    between atoms: C13_18  and  C14_19 
ROOT
HETATM    1  C14 UNL     1       6.426  53.104   1.983  1.00  0.00    -0.006 A 
HETATM    2  C15 UNL     1       6.570  53.308   0.625  1.00  0.00     0.015 A 
HETATM    3  C16 UNL     1       6.783  54.586   0.128  1.00  0.00     0.025 A 
HETATM    4  C17 UNL     1       6.855  55.662   0.973  1.00  0.00     0.068 A 
HETATM    5  C18 UNL     1       7.076  57.013   0.480  1.00  0.00     0.101 C 
HETATM    6  N2  UNL     1       7.265  58.087   0.094  1.00  0.00    -0.191 NA
HETATM    7  C19 UNL     1       6.708  55.433   2.327  1.00  0.00     0.068 A 
HETATM    8  N3  UNL     1       6.773  56.514   3.249  1.00  0.00    -0.101 NA
HETATM    9  C20 UNL     1       6.493  54.156   2.843  1.00  0.00     0.042 A 
ENDROOT
BRANCH   1  10
HETATM   10  C13 UNL     1       6.201  51.728   2.516  1.00  0.00     0.056 A 
HETATM   11  C2  UNL     1       7.233  50.938   2.960  1.00  0.00     0.009 A 
HETATM   12  C1  UNL     1       8.700  51.260   3.002  1.00  0.00     0.059 C 
HETATM   13  S1  UNL     1       6.402  49.522   3.441  1.00  0.00    -0.066 SA
HETATM   14  C3  UNL     1       4.816  50.011   3.057  1.00  0.00     0.130 A 
HETATM   15  N1  UNL     1       5.000  51.227   2.582  1.00  0.00    -0.342 N 
ATOM     16  H1  UNL     1       4.200  51.776   2.265  1.00  0.00     0.167 HD
BRANCH  14  17
HETATM   17  C4  UNL     1       3.547  49.306   3.198  1.00  0.00    -0.038 C 
HETATM   18  C5  UNL     1       2.514  48.709   3.324  1.00  0.00    -0.062 C 
BRANCH  18  19
HETATM   19  C6  UNL     1       1.261  47.959   3.486  1.00  0.00     0.230 C 
BRANCH  19  20
HETATM   20  O1  UNL     1       0.709  48.170   4.769  1.00  0.00    -0.379 OA
ATOM     21  H1  UNL     1      -0.169  47.812   4.823  1.00  0.00     0.211 HD
ENDBRANCH  19  20
BRANCH  19  22
HETATM   22  C7  UNL     1       0.297  48.466   2.513  1.00  0.00    -0.018 A 
HETATM   23  C8  UNL     1       0.620  48.588   1.187  1.00  0.00     0.011 A 
HETATM   24  C9  UNL     1      -0.330  49.075   0.299  1.00  0.00     0.001 A 
HETATM   25  C10 UNL     1      -1.585  49.441   0.704  1.00  0.00     0.000 A 
HETATM   26  C11 UNL     1      -1.888  49.311   2.037  1.00  0.00     0.001 A 
HETATM   27  C12 UNL     1      -0.956  48.828   2.937  1.00  0.00     0.011 A 
ENDBRANCH  19  22
ENDBRANCH  18  19
ENDBRANCH  14  17
ENDBRANCH   1  10
TORSDOF 5
ENDMDL
