MODEL 1
REMARK VINA RESULT: -8.092411904      0.000      0.000
REMARK  11 active torsions:
REMARK  status: ('A' for Active; 'I' for Inactive)
REMARK    1  A    between atoms: C4_8  and  C5_9 
REMARK    2  A    between atoms: C5_9  and  C6_10 
REMARK    3  A    between atoms: C6_10  and  C7_11 
REMARK    4  A    between atoms: C7_11  and  C8_12 
REMARK    5  A    between atoms: C8_12  and  C9_13 
REMARK    6  A    between atoms: C9_13  and  N3_14 
REMARK       I    between atoms: N3_14  and  C10_16 
REMARK    7  A    between atoms: C10_16  and  C11_18 
REMARK    8  A    between atoms: C11_18  and  C12_19 
REMARK       I    between atoms: N5_26  and  C17_27 
REMARK       I    between atoms: C17_27  and  N6_29 
REMARK    9  A    between atoms: C22_35  and  N7_36 
REMARK   10  A    between atoms: N7_36  and  C23_38 
REMARK   11  A    between atoms: C23_38  and  C24_40 
ROOT
HETATM    1  C11 UNL     1      20.374   2.381  20.102  1.00  0.00     0.152 C 
HETATM    2  C13 UNL     1      20.221   0.893  19.714  1.00  0.00     0.280 C 
HETATM    3  N4  UNL     1      21.177   0.169  20.504  1.00  0.00    -0.056 N 
HETATM    4  C14 UNL     1      22.316  -0.222  19.658  1.00  0.00     0.274 C 
HETATM    5  C15 UNL     1      20.580  -1.026  21.097  1.00  0.00     0.274 C 
HETATM    6  C16 UNL     1      21.678   1.061  21.510  1.00  0.00     0.366 C 
HETATM    7  N5  UNL     1      21.526   2.372  20.939  1.00  0.00    -0.288 N 
HETATM    8  C17 UNL     1      22.431   3.443  21.248  1.00  0.00     0.325 C 
HETATM    9  O2  UNL     1      22.302   4.604  20.770  1.00  0.00    -0.247 OA
HETATM   10  N6  UNL     1      23.520   3.249  22.117  1.00  0.00    -0.314 N 
ATOM     11  H6  UNL     1      23.305   3.269  23.115  1.00  0.00     0.170 HD
HETATM   12  C18 UNL     1      24.735   3.052  21.815  1.00  0.00     0.014 C 
HETATM   13  C19 UNL     1      25.405   2.957  20.501  1.00  0.00     0.055 C 
HETATM   14  C20 UNL     1      26.833   2.480  20.795  1.00  0.00     0.008 C 
HETATM   15  C21 UNL     1      26.689   1.836  22.164  1.00  0.00     0.031 C 
HETATM   16  C22 UNL     1      25.811   2.894  22.849  1.00  0.00     0.128 C 
ENDROOT
BRANCH   1  17
HETATM   17  C10 UNL     1      20.512   3.160  18.845  1.00  0.00     0.248 C 
HETATM   18  N3  UNL     1      21.723   3.209  18.104  1.00  0.00    -0.359 N 
ATOM     19  H3  UNL     1      22.526   2.685  18.452  1.00  0.00     0.162 HD
HETATM   20  O1  UNL     1      19.529   3.796  18.414  1.00  0.00    -0.271 OA
BRANCH  18  21
HETATM   21  C9  UNL     1      21.874   3.962  16.890  1.00  0.00     0.122 C 
BRANCH  21  22
HETATM   22  C8  UNL     1      22.981   4.966  16.910  1.00  0.00     0.020 C 
BRANCH  22  23
HETATM   23  C7  UNL     1      22.718   6.005  15.838  1.00  0.00     0.002 C 
BRANCH  23  24
HETATM   24  C6  UNL     1      23.558   5.712  14.585  1.00  0.00     0.002 C 
BRANCH  24  25
HETATM   25  C5  UNL     1      22.630   5.192  13.541  1.00  0.00     0.027 C 
BRANCH  25  26
HETATM   26  C4  UNL     1      21.369   6.014  13.398  1.00  0.00     0.104 C 
HETATM   27  N1  UNL     1      20.284   5.105  13.164  1.00  0.00    -0.356 N 
HETATM   28  C1  UNL     1      19.359   4.591  14.136  1.00  0.00     0.152 C 
HETATM   29  C2  UNL     1      20.283   4.794  11.782  1.00  0.00     0.169 C 
HETATM   30  S1  UNL     1      19.451   3.633  10.982  1.00  0.00    -0.041 SA
HETATM   31  N2  UNL     1      21.178   5.707  11.122  1.00  0.00    -0.365 N 
HETATM   32  C3  UNL     1      21.411   6.772  12.064  1.00  0.00     0.147 C 
ATOM     33  H2  UNL     1      21.567   5.619  10.183  1.00  0.00     0.161 HD
ENDBRANCH  25  26
ENDBRANCH  24  25
ENDBRANCH  23  24
ENDBRANCH  22  23
ENDBRANCH  21  22
ENDBRANCH  18  21
ENDBRANCH   1  17
BRANCH   1  34
HETATM   34  C12 UNL     1      19.128   2.727  20.875  1.00  0.00     0.128 C 
HETATM   35 BR1  UNL     1      17.712   1.496  20.484  1.00  0.00    -0.093 Br
ENDBRANCH   1  34
BRANCH  16  36
HETATM   36  N7  UNL     1      25.304   2.305  24.074  1.00  0.00    -0.373 N 
ATOM     37  H7  UNL     1      25.021   1.325  24.087  1.00  0.00     0.161 HD
BRANCH  36  38
HETATM   38  C23 UNL     1      25.200   3.083  25.249  1.00  0.00     0.102 C 
HETATM   39  S2  UNL     1      26.348   4.168  25.699  1.00  0.00    -0.063 SA
BRANCH  38  40
HETATM   40  C24 UNL     1      24.002   2.913  26.110  1.00  0.00     0.291 C 
HETATM   41  F1  UNL     1      23.695   4.108  26.755  1.00  0.00    -0.248 F 
ENDBRANCH  38  40
ENDBRANCH  36  38
ENDBRANCH  16  36
TORSDOF 11
ENDMDL
MODEL 2
REMARK VINA RESULT: -7.885114815      0.993      1.419
REMARK  11 active torsions:
REMARK  status: ('A' for Active; 'I' for Inactive)
REMARK    1  A    between atoms: C4_8  and  C5_9 
REMARK    2  A    between atoms: C5_9  and  C6_10 
REMARK    3  A    between atoms: C6_10  and  C7_11 
REMARK    4  A    between atoms: C7_11  and  C8_12 
REMARK    5  A    between atoms: C8_12  and  C9_13 
REMARK    6  A    between atoms: C9_13  and  N3_14 
REMARK       I    between atoms: N3_14  and  C10_16 
REMARK    7  A    between atoms: C10_16  and  C11_18 
REMARK    8  A    between atoms: C11_18  and  C12_19 
REMARK       I    between atoms: N5_26  and  C17_27 
REMARK       I    between atoms: C17_27  and  N6_29 
REMARK    9  A    between atoms: C22_35  and  N7_36 
REMARK   10  A    between atoms: N7_36  and  C23_38 
REMARK   11  A    between atoms: C23_38  and  C24_40 
ROOT
HETATM    1  C11 UNL     1      19.909   2.273  19.930  1.00  0.00     0.152 C 
HETATM    2  C13 UNL     1      19.814   0.736  19.793  1.00  0.00     0.280 C 
HETATM    3  N4  UNL     1      20.784   0.189  20.700  1.00  0.00    -0.056 N 
HETATM    4  C14 UNL     1      21.948  -0.293  19.940  1.00  0.00     0.274 C 
HETATM    5  C15 UNL     1      20.222  -0.912  21.478  1.00  0.00     0.274 C 
HETATM    6  C16 UNL     1      21.238   1.254  21.549  1.00  0.00     0.366 C 
HETATM    7  N5  UNL     1      21.048   2.446  20.767  1.00  0.00    -0.288 N 
HETATM    8  C17 UNL     1      21.910   3.586  20.901  1.00  0.00     0.325 C 
HETATM    9  O2  UNL     1      21.746   4.647  20.236  1.00  0.00    -0.247 OA
HETATM   10  N6  UNL     1      22.992   3.579  21.800  1.00  0.00    -0.314 N 
ATOM     11  H6  UNL     1      22.762   3.756  22.778  1.00  0.00     0.170 HD
HETATM   12  C18 UNL     1      24.218   3.381  21.545  1.00  0.00     0.014 C 
HETATM   13  C19 UNL     1      24.910   3.095  20.270  1.00  0.00     0.055 C 
HETATM   14  C20 UNL     1      26.350   2.727  20.652  1.00  0.00     0.008 C 
HETATM   15  C21 UNL     1      26.208   2.313  22.108  1.00  0.00     0.031 C 
HETATM   16  C22 UNL     1      25.283   3.437  22.600  1.00  0.00     0.128 C 
ENDROOT
BRANCH   1  17
HETATM   17  C10 UNL     1      20.038   2.837  18.562  1.00  0.00     0.248 C 
HETATM   18  N3  UNL     1      21.202   2.661  17.768  1.00  0.00    -0.359 N 
ATOM     19  H3  UNL     1      21.976   2.122  18.155  1.00  0.00     0.162 HD
HETATM   20  O1  UNL     1      19.089   3.491  18.084  1.00  0.00    -0.271 OA
BRANCH  18  21
HETATM   21  C9  UNL     1      21.343   3.205  16.446  1.00  0.00     0.122 C 
BRANCH  21  22
HETATM   22  C8  UNL     1      21.549   4.685  16.398  1.00  0.00     0.020 C 
BRANCH  22  23
HETATM   23  C7  UNL     1      23.025   4.966  16.194  1.00  0.00     0.002 C 
BRANCH  23  24
HETATM   24  C6  UNL     1      23.248   5.767  14.902  1.00  0.00     0.002 C 
BRANCH  24  25
HETATM   25  C5  UNL     1      22.158   5.392  13.956  1.00  0.00     0.027 C 
BRANCH  25  26
HETATM   26  C4  UNL     1      22.659   4.696  12.711  1.00  0.00     0.104 C 
HETATM   27  N1  UNL     1      21.628   4.792  11.718  1.00  0.00    -0.356 N 
HETATM   28  C1  UNL     1      21.534   5.754  10.656  1.00  0.00     0.152 C 
HETATM   29  C2  UNL     1      20.699   3.752  11.970  1.00  0.00     0.169 C 
HETATM   30  S1  UNL     1      19.209   3.518  11.335  1.00  0.00    -0.041 SA
HETATM   31  N2  UNL     1      21.285   2.859  12.933  1.00  0.00    -0.365 N 
HETATM   32  C3  UNL     1      22.689   3.181  12.958  1.00  0.00     0.147 C 
ATOM     33  H2  UNL     1      20.807   2.145  13.484  1.00  0.00     0.161 HD
ENDBRANCH  25  26
ENDBRANCH  24  25
ENDBRANCH  23  24
ENDBRANCH  22  23
ENDBRANCH  21  22
ENDBRANCH  18  21
ENDBRANCH   1  17
BRANCH   1  34
HETATM   34  C12 UNL     1      18.640   2.695  20.624  1.00  0.00     0.128 C 
HETATM   35 BR1  UNL     1      17.287   1.347  20.463  1.00  0.00    -0.093 Br
ENDBRANCH   1  34
BRANCH  16  36
HETATM   36  N7  UNL     1      24.780   3.040  23.902  1.00  0.00    -0.373 N 
ATOM     37  H7  UNL     1      24.549   2.063  24.081  1.00  0.00     0.161 HD
BRANCH  36  38
HETATM   38  C23 UNL     1      24.607   4.001  24.922  1.00  0.00     0.102 C 
HETATM   39  S2  UNL     1      25.049   5.573  24.744  1.00  0.00    -0.063 SA
BRANCH  38  40
HETATM   40  C24 UNL     1      23.997   3.572  26.207  1.00  0.00     0.291 C 
HETATM   41  F1  UNL     1      23.584   4.680  26.942  1.00  0.00    -0.248 F 
ENDBRANCH  38  40
ENDBRANCH  36  38
ENDBRANCH  16  36
TORSDOF 11
ENDMDL
MODEL 3
REMARK VINA RESULT: -7.764824308      1.656      2.271
REMARK  11 active torsions:
REMARK  status: ('A' for Active; 'I' for Inactive)
REMARK    1  A    between atoms: C4_8  and  C5_9 
REMARK    2  A    between atoms: C5_9  and  C6_10 
REMARK    3  A    between atoms: C6_10  and  C7_11 
REMARK    4  A    between atoms: C7_11  and  C8_12 
REMARK    5  A    between atoms: C8_12  and  C9_13 
REMARK    6  A    between atoms: C9_13  and  N3_14 
REMARK       I    between atoms: N3_14  and  C10_16 
REMARK    7  A    between atoms: C10_16  and  C11_18 
REMARK    8  A    between atoms: C11_18  and  C12_19 
REMARK       I    between atoms: N5_26  and  C17_27 
REMARK       I    between atoms: C17_27  and  N6_29 
REMARK    9  A    between atoms: C22_35  and  N7_36 
REMARK   10  A    between atoms: N7_36  and  C23_38 
REMARK   11  A    between atoms: C23_38  and  C24_40 
ROOT
HETATM    1  C11 UNL     1      18.723   1.388  20.311  1.00  0.00     0.152 C 
HETATM    2  C13 UNL     1      18.994  -0.105  20.019  1.00  0.00     0.280 C 
HETATM    3  N4  UNL     1      20.294  -0.393  20.559  1.00  0.00    -0.056 N 
HETATM    4  C14 UNL     1      21.268  -0.494  19.461  1.00  0.00     0.274 C 
HETATM    5  C15 UNL     1      20.289  -1.640  21.319  1.00  0.00     0.274 C 
HETATM    6  C16 UNL     1      20.684   0.720  21.377  1.00  0.00     0.366 C 
HETATM    7  N5  UNL     1      19.971   1.841  20.825  1.00  0.00    -0.288 N 
HETATM    8  C17 UNL     1      20.509   3.172  20.860  1.00  0.00     0.325 C 
HETATM    9  O2  UNL     1      19.888   4.170  20.397  1.00  0.00    -0.247 OA
HETATM   10  N6  UNL     1      21.769   3.434  21.427  1.00  0.00    -0.314 N 
ATOM     11  H6  UNL     1      21.797   3.498  22.445  1.00  0.00     0.170 HD
HETATM   12  C18 UNL     1      22.874   3.602  20.830  1.00  0.00     0.014 C 
HETATM   13  C19 UNL     1      23.213   3.578  19.391  1.00  0.00     0.055 C 
HETATM   14  C20 UNL     1      24.745   3.617  19.323  1.00  0.00     0.008 C 
HETATM   15  C21 UNL     1      25.148   3.119  20.702  1.00  0.00     0.031 C 
HETATM   16  C22 UNL     1      24.149   3.913  21.557  1.00  0.00     0.128 C 
ENDROOT
BRANCH   1  17
HETATM   17  C10 UNL     1      18.296   2.023  19.038  1.00  0.00     0.248 C 
HETATM   18  N3  UNL     1      19.216   2.605  18.126  1.00  0.00    -0.359 N 
ATOM     19  H3  UNL     1      20.209   2.580  18.357  1.00  0.00     0.162 HD
HETATM   20  O1  UNL     1      17.082   2.047  18.750  1.00  0.00    -0.271 OA
BRANCH  18  21
HETATM   21  C9  UNL     1      18.818   3.227  16.894  1.00  0.00     0.122 C 
BRANCH  21  22
HETATM   22  C8  UNL     1      19.828   4.161  16.311  1.00  0.00     0.020 C 
BRANCH  22  23
HETATM   23  C7  UNL     1      21.210   3.564  16.496  1.00  0.00     0.002 C 
BRANCH  23  24
HETATM   24  C6  UNL     1      22.249   4.344  15.676  1.00  0.00     0.002 C 
BRANCH  24  25
HETATM   25  C5  UNL     1      21.578   4.790  14.422  1.00  0.00     0.027 C 
BRANCH  25  26
HETATM   26  C4  UNL     1      22.357   4.449  13.172  1.00  0.00     0.104 C 
HETATM   27  N1  UNL     1      21.519   4.747  12.046  1.00  0.00    -0.356 N 
HETATM   28  C1  UNL     1      21.534   5.940  11.246  1.00  0.00     0.152 C 
HETATM   29  C2  UNL     1      20.656   3.640  11.855  1.00  0.00     0.169 C 
HETATM   30  S1  UNL     1      19.333   3.510  10.901  1.00  0.00    -0.041 SA
HETATM   31  N2  UNL     1      21.135   2.559  12.676  1.00  0.00    -0.365 N 
HETATM   32  C3  UNL     1      22.476   2.923  13.054  1.00  0.00     0.147 C 
ATOM     33  H2  UNL     1      20.630   1.711  12.935  1.00  0.00     0.161 HD
ENDBRANCH  25  26
ENDBRANCH  24  25
ENDBRANCH  23  24
ENDBRANCH  22  23
ENDBRANCH  21  22
ENDBRANCH  18  21
ENDBRANCH   1  17
BRANCH   1  34
HETATM   34  C12 UNL     1      17.648   1.404  21.367  1.00  0.00     0.128 C 
HETATM   35 BR1  UNL     1      16.994  -0.365  21.709  1.00  0.00    -0.093 Br
ENDBRANCH   1  34
BRANCH  16  36
HETATM   36  N7  UNL     1      24.168   3.335  22.889  1.00  0.00    -0.373 N 
ATOM     37  H7  UNL     1      23.908   2.358  23.022  1.00  0.00     0.161 HD
BRANCH  36  38
HETATM   38  C23 UNL     1      24.546   4.121  24.001  1.00  0.00     0.102 C 
HETATM   39  S2  UNL     1      26.086   4.643  24.236  1.00  0.00    -0.063 SA
BRANCH  38  40
HETATM   40  C24 UNL     1      23.507   4.490  24.995  1.00  0.00     0.291 C 
HETATM   41  F1  UNL     1      23.800   3.929  26.235  1.00  0.00    -0.248 F 
ENDBRANCH  38  40
ENDBRANCH  36  38
ENDBRANCH  16  36
TORSDOF 11
ENDMDL
MODEL 4
REMARK VINA RESULT: -7.584136850      3.519      5.653
REMARK  11 active torsions:
REMARK  status: ('A' for Active; 'I' for Inactive)
REMARK    1  A    between atoms: C4_8  and  C5_9 
REMARK    2  A    between atoms: C5_9  and  C6_10 
REMARK    3  A    between atoms: C6_10  and  C7_11 
REMARK    4  A    between atoms: C7_11  and  C8_12 
REMARK    5  A    between atoms: C8_12  and  C9_13 
REMARK    6  A    between atoms: C9_13  and  N3_14 
REMARK       I    between atoms: N3_14  and  C10_16 
REMARK    7  A    between atoms: C10_16  and  C11_18 
REMARK    8  A    between atoms: C11_18  and  C12_19 
REMARK       I    between atoms: N5_26  and  C17_27 
REMARK       I    between atoms: C17_27  and  N6_29 
REMARK    9  A    between atoms: C22_35  and  N7_36 
REMARK   10  A    between atoms: N7_36  and  C23_38 
REMARK   11  A    between atoms: C23_38  and  C24_40 
ROOT
HETATM    1  C11 UNL     1      23.810   2.230  21.039  1.00  0.00     0.152 C 
HETATM    2  C13 UNL     1      24.068   2.536  22.531  1.00  0.00     0.280 C 
HETATM    3  N4  UNL     1      23.264   1.609  23.279  1.00  0.00    -0.056 N 
HETATM    4  C14 UNL     1      22.093   2.310  23.829  1.00  0.00     0.274 C 
HETATM    5  C15 UNL     1      24.025   1.005  24.369  1.00  0.00     0.274 C 
HETATM    6  C16 UNL     1      22.778   0.616  22.364  1.00  0.00     0.366 C 
HETATM    7  N5  UNL     1      22.749   1.282  21.089  1.00  0.00    -0.288 N 
HETATM    8  C17 UNL     1      21.779   0.952  20.083  1.00  0.00     0.325 C 
HETATM    9  O2  UNL     1      21.752   1.513  18.953  1.00  0.00    -0.247 OA
HETATM   10  N6  UNL     1      20.802  -0.034  20.310  1.00  0.00    -0.314 N 
ATOM     11  H6  UNL     1      21.108  -1.001  20.198  1.00  0.00     0.170 HD
HETATM   12  C18 UNL     1      19.588   0.131  20.635  1.00  0.00     0.014 C 
HETATM   13  C19 UNL     1      18.808   1.362  20.883  1.00  0.00     0.055 C 
HETATM   14  C20 UNL     1      17.466   0.895  21.463  1.00  0.00     0.008 C 
HETATM   15  C21 UNL     1      17.801  -0.491  21.991  1.00  0.00     0.031 C 
HETATM   16  C22 UNL     1      18.635  -1.014  20.812  1.00  0.00     0.128 C 
ENDROOT
BRANCH   1  17
HETATM   17  C10 UNL     1      23.480   3.513  20.369  1.00  0.00     0.248 C 
HETATM   18  N3  UNL     1      23.665   3.719  18.975  1.00  0.00    -0.359 N 
ATOM     19  H3  UNL     1      24.035   2.951  18.417  1.00  0.00     0.162 HD
HETATM   20  O1  UNL     1      23.019   4.452  21.049  1.00  0.00    -0.271 OA
BRANCH  18  21
HETATM   21  C9  UNL     1      23.355   4.956  18.314  1.00  0.00     0.122 C 
BRANCH  21  22
HETATM   22  C8  UNL     1      22.647   4.805  17.005  1.00  0.00     0.020 C 
BRANCH  22  23
HETATM   23  C7  UNL     1      22.866   6.060  16.184  1.00  0.00     0.002 C 
BRANCH  23  24
HETATM   24  C6  UNL     1      23.717   5.751  14.942  1.00  0.00     0.002 C 
BRANCH  24  25
HETATM   25  C5  UNL     1      22.782   5.332  13.859  1.00  0.00     0.027 C 
BRANCH  25  26
HETATM   26  C4  UNL     1      21.541   6.191  13.772  1.00  0.00     0.104 C 
HETATM   27  N1  UNL     1      20.437   5.326  13.473  1.00  0.00    -0.356 N 
HETATM   28  C1  UNL     1      19.497   4.766  14.403  1.00  0.00     0.152 C 
HETATM   29  C2  UNL     1      20.433   5.115  12.072  1.00  0.00     0.169 C 
HETATM   30  S1  UNL     1      19.577   4.034  11.190  1.00  0.00    -0.041 SA
HETATM   31  N2  UNL     1      21.350   6.052  11.480  1.00  0.00    -0.365 N 
HETATM   32  C3  UNL     1      21.605   7.041  12.496  1.00  0.00     0.147 C 
ATOM     33  H2  UNL     1      21.740   6.022  10.538  1.00  0.00     0.161 HD
ENDBRANCH  25  26
ENDBRANCH  24  25
ENDBRANCH  23  24
ENDBRANCH  22  23
ENDBRANCH  21  22
ENDBRANCH  18  21
ENDBRANCH   1  17
BRANCH   1  34
HETATM   34  C12 UNL     1      25.086   1.611  20.529  1.00  0.00     0.128 C 
HETATM   35 BR1  UNL     1      26.612   2.332  21.436  1.00  0.00    -0.093 Br
ENDBRANCH   1  34
BRANCH  16  36
HETATM   36  N7  UNL     1      19.310  -2.217  21.264  1.00  0.00    -0.373 N 
ATOM     37  H7  UNL     1      19.347  -2.435  22.259  1.00  0.00     0.161 HD
BRANCH  36  38
HETATM   38  C23 UNL     1      19.916  -3.088  20.330  1.00  0.00     0.102 C 
HETATM   39  S2  UNL     1      21.362  -3.815  20.605  1.00  0.00    -0.063 SA
BRANCH  38  40
HETATM   40  C24 UNL     1      19.213  -3.357  19.050  1.00  0.00     0.291 C 
HETATM   41  F1  UNL     1      18.873  -4.703  18.957  1.00  0.00    -0.248 F 
ENDBRANCH  38  40
ENDBRANCH  36  38
ENDBRANCH  16  36
TORSDOF 11
ENDMDL
MODEL 5
REMARK VINA RESULT: -7.494328563      2.010      2.701
REMARK  11 active torsions:
REMARK  status: ('A' for Active; 'I' for Inactive)
REMARK    1  A    between atoms: C4_8  and  C5_9 
REMARK    2  A    between atoms: C5_9  and  C6_10 
REMARK    3  A    between atoms: C6_10  and  C7_11 
REMARK    4  A    between atoms: C7_11  and  C8_12 
REMARK    5  A    between atoms: C8_12  and  C9_13 
REMARK    6  A    between atoms: C9_13  and  N3_14 
REMARK       I    between atoms: N3_14  and  C10_16 
REMARK    7  A    between atoms: C10_16  and  C11_18 
REMARK    8  A    between atoms: C11_18  and  C12_19 
REMARK       I    between atoms: N5_26  and  C17_27 
REMARK       I    between atoms: C17_27  and  N6_29 
REMARK    9  A    between atoms: C22_35  and  N7_36 
REMARK   10  A    between atoms: N7_36  and  C23_38 
REMARK   11  A    between atoms: C23_38  and  C24_40 
ROOT
HETATM    1  C11 UNL     1      18.680   1.178  20.297  1.00  0.00     0.152 C 
HETATM    2  C13 UNL     1      19.024  -0.292  19.965  1.00  0.00     0.280 C 
HETATM    3  N4  UNL     1      20.353  -0.517  20.460  1.00  0.00    -0.056 N 
HETATM    4  C14 UNL     1      21.298  -0.542  19.331  1.00  0.00     0.274 C 
HETATM    5  C15 UNL     1      20.441  -1.777  21.193  1.00  0.00     0.274 C 
HETATM    6  C16 UNL     1      20.706   0.600  21.289  1.00  0.00     0.366 C 
HETATM    7  N5  UNL     1      19.916   1.690  20.783  1.00  0.00    -0.288 N 
HETATM    8  C17 UNL     1      20.380   3.048  20.831  1.00  0.00     0.325 C 
HETATM    9  O2  UNL     1      19.692   4.018  20.408  1.00  0.00    -0.247 OA
HETATM   10  N6  UNL     1      21.641   3.369  21.366  1.00  0.00    -0.314 N 
ATOM     11  H6  UNL     1      21.696   3.414  22.384  1.00  0.00     0.170 HD
HETATM   12  C18 UNL     1      22.716   3.610  20.740  1.00  0.00     0.014 C 
HETATM   13  C19 UNL     1      23.011   3.633  19.291  1.00  0.00     0.055 C 
HETATM   14  C20 UNL     1      24.536   3.759  19.179  1.00  0.00     0.008 C 
HETATM   15  C21 UNL     1      25.008   3.257  20.535  1.00  0.00     0.031 C 
HETATM   16  C22 UNL     1      23.993   3.977  21.436  1.00  0.00     0.128 C 
ENDROOT
BRANCH   1  17
HETATM   17  C10 UNL     1      18.179   1.813  19.051  1.00  0.00     0.248 C 
HETATM   18  N3  UNL     1      19.030   2.504  18.148  1.00  0.00    -0.359 N 
ATOM     19  H3  UNL     1      20.025   2.560  18.367  1.00  0.00     0.162 HD
HETATM   20  O1  UNL     1      16.963   1.738  18.778  1.00  0.00    -0.271 OA
BRANCH  18  21
HETATM   21  C9  UNL     1      18.560   3.127  16.943  1.00  0.00     0.122 C 
BRANCH  21  22
HETATM   22  C8  UNL     1      19.599   3.897  16.191  1.00  0.00     0.020 C 
BRANCH  22  23
HETATM   23  C7  UNL     1      18.910   4.766  15.157  1.00  0.00     0.002 C 
BRANCH  23  24
HETATM   24  C6  UNL     1      19.387   4.403  13.743  1.00  0.00     0.002 C 
BRANCH  24  25
HETATM   25  C5  UNL     1      19.718   5.679  13.047  1.00  0.00     0.027 C 
BRANCH  25  26
HETATM   26  C4  UNL     1      21.115   5.701  12.467  1.00  0.00     0.104 C 
HETATM   27  N1  UNL     1      21.982   5.051  13.407  1.00  0.00    -0.356 N 
HETATM   28  C1  UNL     1      22.424   3.684  13.376  1.00  0.00     0.152 C 
HETATM   29  C2  UNL     1      22.335   6.008  14.390  1.00  0.00     0.169 C 
HETATM   30  S1  UNL     1      23.085   5.787  15.828  1.00  0.00    -0.041 SA
HETATM   31  N2  UNL     1      21.917   7.301  13.919  1.00  0.00    -0.365 N 
HETATM   32  C3  UNL     1      21.656   7.136  12.512  1.00  0.00     0.147 C 
ATOM     33  H2  UNL     1      21.825   8.157  14.467  1.00  0.00     0.161 HD
ENDBRANCH  25  26
ENDBRANCH  24  25
ENDBRANCH  23  24
ENDBRANCH  22  23
ENDBRANCH  21  22
ENDBRANCH  18  21
ENDBRANCH   1  17
BRANCH   1  34
HETATM   34  C12 UNL     1      17.639   1.113  21.384  1.00  0.00     0.128 C 
HETATM   35 BR1  UNL     1      16.519   2.669  21.358  1.00  0.00    -0.093 Br
ENDBRANCH   1  34
BRANCH  16  36
HETATM   36  N7  UNL     1      24.086   3.375  22.753  1.00  0.00    -0.373 N 
ATOM     37  H7  UNL     1      24.012   2.363  22.855  1.00  0.00     0.161 HD
BRANCH  36  38
HETATM   38  C23 UNL     1      24.278   4.185  23.895  1.00  0.00     0.102 C 
HETATM   39  S2  UNL     1      25.348   5.431  23.929  1.00  0.00    -0.063 SA
BRANCH  38  40
HETATM   40  C24 UNL     1      23.476   3.899  25.112  1.00  0.00     0.291 C 
HETATM   41  F1  UNL     1      23.228   5.074  25.817  1.00  0.00    -0.248 F 
ENDBRANCH  38  40
ENDBRANCH  36  38
ENDBRANCH  16  36
TORSDOF 11
ENDMDL
