MODEL 1
REMARK VINA RESULT: -7.508993131      0.000      0.000
REMARK  6 active torsions:
REMARK  status: ('A' for Active; 'I' for Inactive)
REMARK    1  A    between atoms: C2_2  and  O1_3 
REMARK    2  A    between atoms: O1_3  and  C3_4 
REMARK    3  A    between atoms: C3_4  and  C4_6 
REMARK    4  A    between atoms: C9_14  and  C10_15 
REMARK    5  A    between atoms: C10_15  and  O4_17 
REMARK    6  A    between atoms: N2_20  and  N3_22 
ROOT
HETATM    1  C4  UNL     1      96.851  29.499  15.972  1.00  0.00     0.249 C 
HETATM    2  C5  UNL     1      97.035  30.646  16.974  1.00  0.00     0.064 C 
HETATM    3  N1  UNL     1      98.160  29.101  15.554  1.00  0.00    -0.042 N 
ATOM      4  H11 UNL     1      98.897  29.523  16.118  1.00  0.00     0.280 HD
ATOM      5  H12 UNL     1      98.425  29.506  14.656  1.00  0.00     0.280 HD
HETATM    6  C6  UNL     1      98.214  27.672  15.552  1.00  0.00     0.138 C 
HETATM    7  C7  UNL     1      98.345  27.192  14.122  1.00  0.00     0.047 C 
HETATM    8  C8  UNL     1      99.471  27.251  16.281  1.00  0.00     0.047 C 
HETATM    9  C9  UNL     1      96.999  27.152  16.234  1.00  0.00     0.171 C 
HETATM   10  C12 UNL     1      96.263  28.338  16.690  1.00  0.00     0.065 C 
HETATM   11  N2  UNL     1      95.296  28.377  17.545  1.00  0.00    -0.305 N 
ATOM     12  H2  UNL     1      94.883  29.285  17.760  1.00  0.00     0.186 HD
ENDROOT
BRANCH   1  13
HETATM   13  C3  UNL     1      96.003  29.951  14.846  1.00  0.00     0.301 C 
HETATM   14  O2  UNL     1      94.892  30.465  15.121  1.00  0.00    -0.262 OA
BRANCH  13  15
HETATM   15  O1  UNL     1      96.349  29.846  13.513  1.00  0.00    -0.320 OA
BRANCH  15  16
HETATM   16  C2  UNL     1      95.377  29.486  12.527  1.00  0.00     0.174 C 
HETATM   17  C1  UNL     1      96.054  28.740  11.419  1.00  0.00     0.034 C 
ENDBRANCH  15  16
ENDBRANCH  13  15
ENDBRANCH   1  13
BRANCH   9  18
HETATM   18  C10 UNL     1      96.155  26.280  15.369  1.00  0.00     0.270 C 
HETATM   19  O3  UNL     1      95.191  26.733  14.691  1.00  0.00    -0.264 OA
BRANCH  18  20
HETATM   20  O4  UNL     1      96.406  24.929  15.278  1.00  0.00    -0.326 OA
HETATM   21  C11 UNL     1      96.072  24.006  16.286  1.00  0.00     0.213 C 
ENDBRANCH  18  20
ENDBRANCH   9  18
BRANCH  11  22
HETATM   22  N3  UNL     1      94.786  27.269  18.183  1.00  0.00    -0.309 N 
HETATM   23  C13 UNL     1      95.118  26.960  19.389  1.00  0.00     0.008 C 
HETATM   24  C14 UNL     1      96.073  27.830  20.095  1.00  0.00     0.084 C 
HETATM   25  C20 UNL     1      94.535  25.748  20.029  1.00  0.00     0.094 C 
HETATM   26  C15 UNL     1      96.855  27.110  21.154  1.00  0.00     0.279 C 
HETATM   27  N4  UNL     1      96.098  26.077  21.798  1.00  0.00     0.093 N 
HETATM   28  C16 UNL     1      95.029  26.697  22.542  1.00  0.00     0.310 C 
HETATM   29  C17 UNL     1      95.605  25.092  20.859  1.00  0.00     0.157 C 
HETATM   30  C18 UNL     1      95.054  23.898  21.609  1.00  0.00     0.049 C 
HETATM   31  C19 UNL     1      96.704  24.645  19.943  1.00  0.00     0.049 C 
ATOM     32  H3  UNL     1      94.126  26.673  17.684  1.00  0.00     0.186 HD
ENDBRANCH  11  22
TORSDOF 6
ENDMDL
MODEL 2
REMARK VINA RESULT: -7.146971973      2.587      4.386
REMARK  6 active torsions:
REMARK  status: ('A' for Active; 'I' for Inactive)
REMARK    1  A    between atoms: C2_2  and  O1_3 
REMARK    2  A    between atoms: O1_3  and  C3_4 
REMARK    3  A    between atoms: C3_4  and  C4_6 
REMARK    4  A    between atoms: C9_14  and  C10_15 
REMARK    5  A    between atoms: C10_15  and  O4_17 
REMARK    6  A    between atoms: N2_20  and  N3_22 
ROOT
HETATM    1  C4  UNL     1      95.561  25.261  13.277  1.00  0.00     0.249 C 
HETATM    2  C5  UNL     1      94.552  24.125  13.488  1.00  0.00     0.064 C 
HETATM    3  N1  UNL     1      94.849  26.336  12.659  1.00  0.00    -0.042 N 
ATOM      4  H11 UNL     1      93.840  26.190  12.657  1.00  0.00     0.280 HD
ATOM      5  H12 UNL     1      94.986  26.368  11.649  1.00  0.00     0.280 HD
HETATM    6  C6  UNL     1      95.229  27.554  13.305  1.00  0.00     0.138 C 
HETATM    7  C7  UNL     1      96.013  28.402  12.324  1.00  0.00     0.047 C 
HETATM    8  C8  UNL     1      93.969  28.317  13.645  1.00  0.00     0.047 C 
HETATM    9  C9  UNL     1      96.000  27.218  14.533  1.00  0.00     0.171 C 
HETATM   10  C12 UNL     1      96.000  25.751  14.609  1.00  0.00     0.065 C 
HETATM   11  N2  UNL     1      96.317  25.022  15.627  1.00  0.00    -0.305 N 
ATOM     12  H2  UNL     1      96.266  24.008  15.525  1.00  0.00     0.186 HD
ENDROOT
BRANCH   1  13
HETATM   13  C3  UNL     1      96.693  24.776  12.456  1.00  0.00     0.301 C 
HETATM   14  O2  UNL     1      97.433  23.889  12.945  1.00  0.00    -0.262 OA
BRANCH  13  15
HETATM   15  O1  UNL     1      96.993  25.234  11.188  1.00  0.00    -0.320 OA
BRANCH  15  16
HETATM   16  C2  UNL     1      96.441  24.602  10.029  1.00  0.00     0.174 C 
HETATM   17  C1  UNL     1      95.937  25.654   9.089  1.00  0.00     0.034 C 
ENDBRANCH  15  16
ENDBRANCH  13  15
ENDBRANCH   1  13
BRANCH   9  18
HETATM   18  C10 UNL     1      97.385  27.769  14.539  1.00  0.00     0.270 C 
HETATM   19  O3  UNL     1      98.400  27.045  14.342  1.00  0.00    -0.264 OA
BRANCH  18  20
HETATM   20  O4  UNL     1      97.604  29.110  14.762  1.00  0.00    -0.326 OA
HETATM   21  C11 UNL     1      96.917  29.861  15.732  1.00  0.00     0.213 C 
ENDBRANCH  18  20
ENDBRANCH   9  18
BRANCH  11  22
HETATM   22  N3  UNL     1      96.719  25.529  16.842  1.00  0.00    -0.309 N 
HETATM   23  C13 UNL     1      96.312  25.033  17.960  1.00  0.00     0.008 C 
HETATM   24  C14 UNL     1      95.388  23.888  17.921  1.00  0.00     0.084 C 
HETATM   25  C20 UNL     1      96.781  25.623  19.245  1.00  0.00     0.094 C 
HETATM   26  C15 UNL     1      94.511  23.797  19.134  1.00  0.00     0.279 C 
HETATM   27  N4  UNL     1      95.165  24.247  20.328  1.00  0.00     0.093 N 
HETATM   28  C16 UNL     1      96.238  23.331  20.627  1.00  0.00     0.310 C 
HETATM   29  C17 UNL     1      95.632  25.611  20.216  1.00  0.00     0.157 C 
HETATM   30  C18 UNL     1      96.065  26.120  21.575  1.00  0.00     0.049 C 
HETATM   31  C19 UNL     1      94.548  26.494  19.674  1.00  0.00     0.049 C 
ATOM     32  H3  UNL     1      97.360  26.322  16.858  1.00  0.00     0.186 HD
ENDBRANCH  11  22
TORSDOF 6
ENDMDL
MODEL 3
REMARK VINA RESULT: -7.082853260      2.342      3.923
REMARK  6 active torsions:
REMARK  status: ('A' for Active; 'I' for Inactive)
REMARK    1  A    between atoms: C2_2  and  O1_3 
REMARK    2  A    between atoms: O1_3  and  C3_4 
REMARK    3  A    between atoms: C3_4  and  C4_6 
REMARK    4  A    between atoms: C9_14  and  C10_15 
REMARK    5  A    between atoms: C10_15  and  O4_17 
REMARK    6  A    between atoms: N2_20  and  N3_22 
ROOT
HETATM    1  C4  UNL     1      96.170  26.716  14.010  1.00  0.00     0.249 C 
HETATM    2  C5  UNL     1      95.289  25.561  13.516  1.00  0.00     0.064 C 
HETATM    3  N1  UNL     1      95.339  27.879  14.056  1.00  0.00    -0.042 N 
ATOM      4  H11 UNL     1      94.351  27.661  13.930  1.00  0.00     0.280 HD
ATOM      5  H12 UNL     1      95.454  28.476  13.237  1.00  0.00     0.280 HD
HETATM    6  C6  UNL     1      95.601  28.568  15.282  1.00  0.00     0.138 C 
HETATM    7  C7  UNL     1      96.275  29.887  14.965  1.00  0.00     0.047 C 
HETATM    8  C8  UNL     1      94.274  28.889  15.930  1.00  0.00     0.047 C 
HETATM    9  C9  UNL     1      96.424  27.686  16.153  1.00  0.00     0.171 C 
HETATM   10  C12 UNL     1      96.579  26.429  15.409  1.00  0.00     0.065 C 
HETATM   11  N2  UNL     1      96.988  25.294  15.870  1.00  0.00    -0.305 N 
ATOM     12  H2  UNL     1      97.041  24.506  15.224  1.00  0.00     0.186 HD
ENDROOT
BRANCH   1  13
HETATM   13  C3  UNL     1      97.333  26.877  13.107  1.00  0.00     0.301 C 
HETATM   14  O2  UNL     1      98.403  26.306  13.425  1.00  0.00    -0.262 OA
BRANCH  13  15
HETATM   15  O1  UNL     1      97.320  27.614  11.939  1.00  0.00    -0.320 OA
BRANCH  15  16
HETATM   16  C2  UNL     1      96.602  27.157  10.789  1.00  0.00     0.174 C 
HETATM   17  C1  UNL     1      95.565  28.174  10.422  1.00  0.00     0.034 C 
ENDBRANCH  15  16
ENDBRANCH  13  15
ENDBRANCH   1  13
BRANCH   9  18
HETATM   18  C10 UNL     1      97.744  28.273  16.522  1.00  0.00     0.270 C 
HETATM   19  O3  UNL     1      98.835  27.793  16.106  1.00  0.00    -0.264 OA
BRANCH  18  20
HETATM   20  O4  UNL     1      97.815  29.378  17.340  1.00  0.00    -0.326 OA
HETATM   21  C11 UNL     1      97.055  29.528  18.514  1.00  0.00     0.213 C 
ENDBRANCH  18  20
ENDBRANCH   9  18
BRANCH  11  22
HETATM   22  N3  UNL     1      97.356  25.082  17.179  1.00  0.00    -0.309 N 
HETATM   23  C13 UNL     1      96.694  24.297  17.959  1.00  0.00     0.008 C 
HETATM   24  C14 UNL     1      95.509  23.613  17.418  1.00  0.00     0.084 C 
HETATM   25  C20 UNL     1      97.140  24.107  19.367  1.00  0.00     0.094 C 
HETATM   26  C15 UNL     1      94.495  23.271  18.469  1.00  0.00     0.279 C 
HETATM   27  N4  UNL     1      95.092  22.945  19.731  1.00  0.00     0.093 N 
HETATM   28  C16 UNL     1      95.833  21.718  19.576  1.00  0.00     0.310 C 
HETATM   29  C17 UNL     1      95.918  24.018  20.240  1.00  0.00     0.157 C 
HETATM   30  C18 UNL     1      96.298  23.735  21.679  1.00  0.00     0.049 C 
HETATM   31  C19 UNL     1      95.187  25.324  20.163  1.00  0.00     0.049 C 
ATOM     32  H3  UNL     1      98.180  25.561  17.544  1.00  0.00     0.186 HD
ENDBRANCH  11  22
TORSDOF 6
ENDMDL
MODEL 4
REMARK VINA RESULT: -7.031111506      2.330      3.840
REMARK  6 active torsions:
REMARK  status: ('A' for Active; 'I' for Inactive)
REMARK    1  A    between atoms: C2_2  and  O1_3 
REMARK    2  A    between atoms: O1_3  and  C3_4 
REMARK    3  A    between atoms: C3_4  and  C4_6 
REMARK    4  A    between atoms: C9_14  and  C10_15 
REMARK    5  A    between atoms: C10_15  and  O4_17 
REMARK    6  A    between atoms: N2_20  and  N3_22 
ROOT
HETATM    1  C4  UNL     1      96.021  27.008  13.949  1.00  0.00     0.249 C 
HETATM    2  C5  UNL     1      95.017  25.939  13.499  1.00  0.00     0.064 C 
HETATM    3  N1  UNL     1      95.278  28.213  14.154  1.00  0.00    -0.042 N 
ATOM      4  H11 UNL     1      94.270  28.062  14.132  1.00  0.00     0.280 HD
ATOM      5  H12 UNL     1      95.339  28.852  13.361  1.00  0.00     0.280 HD
HETATM    6  C6  UNL     1      95.720  28.809  15.377  1.00  0.00     0.138 C 
HETATM    7  C7  UNL     1      96.438  30.104  15.055  1.00  0.00     0.047 C 
HETATM    8  C8  UNL     1      94.498  29.168  16.191  1.00  0.00     0.047 C 
HETATM    9  C9  UNL     1      96.577  27.829  16.097  1.00  0.00     0.171 C 
HETATM   10  C12 UNL     1      96.565  26.614  15.274  1.00  0.00     0.065 C 
HETATM   11  N2  UNL     1      96.948  25.431  15.623  1.00  0.00    -0.305 N 
ATOM     12  H2  UNL     1      96.877  24.682  14.934  1.00  0.00     0.186 HD
ENDROOT
BRANCH   1  13
HETATM   13  C3  UNL     1      97.083  27.156  12.928  1.00  0.00     0.301 C 
HETATM   14  O2  UNL     1      98.039  26.346  12.957  1.00  0.00    -0.262 OA
BRANCH  13  15
HETATM   15  O1  UNL     1      97.094  28.127  11.945  1.00  0.00    -0.320 OA
BRANCH  15  16
HETATM   16  C2  UNL     1      96.028  28.223  10.995  1.00  0.00     0.174 C 
HETATM   17  C1  UNL     1      96.014  26.988  10.148  1.00  0.00     0.034 C 
ENDBRANCH  15  16
ENDBRANCH  13  15
ENDBRANCH   1  13
BRANCH   9  18
HETATM   18  C10 UNL     1      97.964  28.315  16.342  1.00  0.00     0.270 C 
HETATM   19  O3  UNL     1      98.211  29.300  17.092  1.00  0.00    -0.264 OA
BRANCH  18  20
HETATM   20  O4  UNL     1      99.040  27.693  15.749  1.00  0.00    -0.326 OA
HETATM   21  C11 UNL     1     100.362  28.162  15.847  1.00  0.00     0.213 C 
ENDBRANCH  18  20
ENDBRANCH   9  18
BRANCH  11  22
HETATM   22  N3  UNL     1      97.447  25.118  16.867  1.00  0.00    -0.309 N 
HETATM   23  C13 UNL     1      96.800  24.371  17.696  1.00  0.00     0.008 C 
HETATM   24  C14 UNL     1      95.489  23.844  17.285  1.00  0.00     0.084 C 
HETATM   25  C20 UNL     1      97.390  24.067  19.030  1.00  0.00     0.094 C 
HETATM   26  C15 UNL     1      94.579  23.562  18.443  1.00  0.00     0.279 C 
HETATM   27  N4  UNL     1      95.284  23.114  19.608  1.00  0.00     0.093 N 
HETATM   28  C16 UNL     1      95.859  21.823  19.319  1.00  0.00     0.310 C 
HETATM   29  C17 UNL     1      96.280  24.066  20.046  1.00  0.00     0.157 C 
HETATM   30  C18 UNL     1      96.798  23.676  21.415  1.00  0.00     0.049 C 
HETATM   31  C19 UNL     1      95.696  25.446  20.106  1.00  0.00     0.049 C 
ATOM     32  H3  UNL     1      98.356  25.489  17.142  1.00  0.00     0.186 HD
ENDBRANCH  11  22
TORSDOF 6
ENDMDL
MODEL 5
REMARK VINA RESULT: -6.911610871      2.476      4.268
REMARK  6 active torsions:
REMARK  status: ('A' for Active; 'I' for Inactive)
REMARK    1  A    between atoms: C2_2  and  O1_3 
REMARK    2  A    between atoms: O1_3  and  C3_4 
REMARK    3  A    between atoms: C3_4  and  C4_6 
REMARK    4  A    between atoms: C9_14  and  C10_15 
REMARK    5  A    between atoms: C10_15  and  O4_17 
REMARK    6  A    between atoms: N2_20  and  N3_22 
ROOT
HETATM    1  C4  UNL     1      97.321  27.342  15.675  1.00  0.00     0.249 C 
HETATM    2  C5  UNL     1      96.941  26.485  14.462  1.00  0.00     0.064 C 
HETATM    3  N1  UNL     1      97.079  28.704  15.312  1.00  0.00    -0.042 N 
ATOM      4  H11 UNL     1      96.564  28.791  14.437  1.00  0.00     0.280 HD
ATOM      5  H12 UNL     1      97.927  29.190  15.021  1.00  0.00     0.280 HD
HETATM    6  C6  UNL     1      96.422  29.349  16.406  1.00  0.00     0.138 C 
HETATM    7  C7  UNL     1      97.361  30.379  16.999  1.00  0.00     0.047 C 
HETATM    8  C8  UNL     1      95.227  30.097  15.859  1.00  0.00     0.047 C 
HETATM    9  C9  UNL     1      96.002  28.310  17.385  1.00  0.00     0.171 C 
HETATM   10  C12 UNL     1      96.386  27.026  16.786  1.00  0.00     0.065 C 
HETATM   11  N2  UNL     1      95.995  25.848  17.144  1.00  0.00    -0.305 N 
ATOM     12  H2  UNL     1      96.352  25.046  16.626  1.00  0.00     0.186 HD
ENDROOT
BRANCH   1  13
HETATM   13  C3  UNL     1      98.734  27.089  16.042  1.00  0.00     0.301 C 
HETATM   14  O2  UNL     1      98.964  26.222  16.917  1.00  0.00    -0.262 OA
BRANCH  13  15
HETATM   15  O1  UNL     1      99.816  27.744  15.485  1.00  0.00    -0.320 OA
BRANCH  15  16
HETATM   16  C2  UNL     1     100.568  28.696  16.244  1.00  0.00     0.174 C 
HETATM   17  C1  UNL     1     102.026  28.510  15.957  1.00  0.00     0.034 C 
ENDBRANCH  15  16
ENDBRANCH  13  15
ENDBRANCH   1  13
BRANCH   9  18
HETATM   18  C10 UNL     1      96.600  28.487  18.738  1.00  0.00     0.270 C 
HETATM   19  O3  UNL     1      96.610  29.602  19.330  1.00  0.00    -0.264 OA
BRANCH  18  20
HETATM   20  O4  UNL     1      97.170  27.421  19.398  1.00  0.00    -0.326 OA
HETATM   21  C11 UNL     1      96.942  27.135  20.757  1.00  0.00     0.213 C 
ENDBRANCH  18  20
ENDBRANCH   9  18
BRANCH  11  22
HETATM   22  N3  UNL     1      95.125  25.609  18.184  1.00  0.00    -0.309 N 
HETATM   23  C13 UNL     1      95.159  24.517  18.868  1.00  0.00     0.008 C 
HETATM   24  C14 UNL     1      96.165  23.503  18.515  1.00  0.00     0.084 C 
HETATM   25  C20 UNL     1      94.191  24.313  19.982  1.00  0.00     0.094 C 
HETATM   26  C15 UNL     1      95.749  22.108  18.881  1.00  0.00     0.279 C 
HETATM   27  N4  UNL     1      94.960  22.060  20.077  1.00  0.00     0.093 N 
HETATM   28  C16 UNL     1      95.794  22.457  21.185  1.00  0.00     0.310 C 
HETATM   29  C17 UNL     1      93.766  22.870  19.979  1.00  0.00     0.157 C 
HETATM   30  C18 UNL     1      92.846  22.573  21.145  1.00  0.00     0.049 C 
HETATM   31  C19 UNL     1      93.049  22.593  18.692  1.00  0.00     0.049 C 
ATOM     32  H3  UNL     1      94.431  26.319  18.420  1.00  0.00     0.186 HD
ENDBRANCH  11  22
TORSDOF 6
ENDMDL
