MODEL 1
REMARK VINA RESULT: -7.578450918      0.000      0.000
REMARK  6 active torsions:
REMARK  status: ('A' for Active; 'I' for Inactive)
REMARK    1  A    between atoms: C2_2  and  N1_4 
REMARK    2  A    between atoms: N3_8  and  C5_9 
REMARK    3  A    between atoms: C5_9  and  C6_10 
REMARK    4  A    between atoms: C6_10  and  C7_11 
REMARK    5  A    between atoms: C7_11  and  C8_12 
REMARK    6  A    between atoms: C8_12  and  C9_13 
ROOT
HETATM    1  N1  UNL     1      25.614 -12.164   7.225  1.00  0.00    -0.262 N 
HETATM    2  N2  UNL     1      26.313 -12.981   6.431  1.00  0.00    -0.291 N 
ATOM      3  H2  UNL     1      27.162 -12.724   5.927  1.00  0.00     0.188 HD
HETATM    4  C4  UNL     1      25.729 -14.195   6.397  1.00  0.00     0.202 A 
HETATM    5  N3  UNL     1      24.645 -14.148   7.181  1.00  0.00    -0.318 N 
HETATM    6  C14 UNL     1      24.588 -12.901   7.679  1.00  0.00     0.196 A 
HETATM    7  S1  UNL     1      23.402 -12.383   8.708  1.00  0.00    -0.039 SA
ENDROOT
BRANCH   5   8
HETATM    8  C5  UNL     1      23.706 -15.218   7.450  1.00  0.00     0.132 C 
BRANCH   8   9
HETATM    9  C6  UNL     1      24.437 -16.551   7.620  1.00  0.00     0.020 C 
BRANCH   9  10
HETATM   10  C7  UNL     1      23.365 -17.609   7.613  1.00  0.00     0.002 C 
BRANCH  10  11
HETATM   11  C8  UNL     1      23.738 -18.805   6.771  1.00  0.00     0.005 C 
BRANCH  11  12
HETATM   12  C9  UNL     1      23.569 -20.029   7.682  1.00  0.00    -0.014 C 
HETATM   13  C10 UNL     1      22.398 -19.822   8.612  1.00  0.00     0.004 C 
HETATM   14  C11 UNL     1      22.017 -21.214   9.019  1.00  0.00     0.000 C 
HETATM   15  C12 UNL     1      22.542 -22.142   7.947  1.00  0.00     0.000 C 
HETATM   16  C13 UNL     1      23.204 -21.256   6.907  1.00  0.00     0.004 C 
ENDBRANCH  11  12
ENDBRANCH  10  11
ENDBRANCH   9  10
ENDBRANCH   8   9
ENDBRANCH   5   8
BRANCH   1  17
HETATM   17  C2  UNL     1      25.918 -10.767   7.524  1.00  0.00     0.102 C 
HETATM   18  C1  UNL     1      26.843 -10.786   8.745  1.00  0.00     0.034 C 
HETATM   19  C3  UNL     1      26.755 -10.201   6.385  1.00  0.00     0.034 C 
ENDBRANCH   1  17
TORSDOF 6
ENDMDL
MODEL 2
REMARK VINA RESULT: -7.313023146      1.035      1.098
REMARK  6 active torsions:
REMARK  status: ('A' for Active; 'I' for Inactive)
REMARK    1  A    between atoms: C2_2  and  N1_4 
REMARK    2  A    between atoms: N3_8  and  C5_9 
REMARK    3  A    between atoms: C5_9  and  C6_10 
REMARK    4  A    between atoms: C6_10  and  C7_11 
REMARK    5  A    between atoms: C7_11  and  C8_12 
REMARK    6  A    between atoms: C8_12  and  C9_13 
ROOT
HETATM    1  N1  UNL     1      25.367 -12.135   7.397  1.00  0.00    -0.262 N 
HETATM    2  N2  UNL     1      25.963 -12.820   8.377  1.00  0.00    -0.291 N 
ATOM      3  H2  UNL     1      26.641 -12.435   9.034  1.00  0.00     0.188 HD
HETATM    4  C4  UNL     1      25.532 -14.097   8.369  1.00  0.00     0.202 A 
HETATM    5  N3  UNL     1      24.650 -14.223   7.369  1.00  0.00    -0.318 N 
HETATM    6  C14 UNL     1      24.560 -13.016   6.785  1.00  0.00     0.196 A 
HETATM    7  S1  UNL     1      23.579 -12.699   5.494  1.00  0.00    -0.039 SA
ENDROOT
BRANCH   5   8
HETATM    8  C5  UNL     1      23.927 -15.416   6.979  1.00  0.00     0.132 C 
BRANCH   8   9
HETATM    9  C6  UNL     1      24.541 -16.659   7.626  1.00  0.00     0.020 C 
BRANCH   9  10
HETATM   10  C7  UNL     1      23.439 -17.686   7.665  1.00  0.00     0.002 C 
BRANCH  10  11
HETATM   11  C8  UNL     1      23.735 -18.885   6.797  1.00  0.00     0.005 C 
BRANCH  11  12
HETATM   12  C9  UNL     1      23.542 -20.114   7.698  1.00  0.00    -0.014 C 
HETATM   13  C10 UNL     1      22.360 -19.901   8.612  1.00  0.00     0.004 C 
HETATM   14  C11 UNL     1      21.960 -21.292   9.005  1.00  0.00     0.000 C 
HETATM   15  C12 UNL     1      22.492 -22.219   7.935  1.00  0.00     0.000 C 
HETATM   16  C13 UNL     1      23.177 -21.332   6.910  1.00  0.00     0.004 C 
ENDBRANCH  11  12
ENDBRANCH  10  11
ENDBRANCH   9  10
ENDBRANCH   8   9
ENDBRANCH   5   8
BRANCH   1  17
HETATM   17  C2  UNL     1      25.563 -10.723   7.075  1.00  0.00     0.102 C 
HETATM   18  C1  UNL     1      25.944 -10.037   8.391  1.00  0.00     0.034 C 
HETATM   19  C3  UNL     1      26.788 -10.599   6.179  1.00  0.00     0.034 C 
ENDBRANCH   1  17
TORSDOF 6
ENDMDL
MODEL 3
REMARK VINA RESULT: -7.276309919      1.237      1.655
REMARK  6 active torsions:
REMARK  status: ('A' for Active; 'I' for Inactive)
REMARK    1  A    between atoms: C2_2  and  N1_4 
REMARK    2  A    between atoms: N3_8  and  C5_9 
REMARK    3  A    between atoms: C5_9  and  C6_10 
REMARK    4  A    between atoms: C6_10  and  C7_11 
REMARK    5  A    between atoms: C7_11  and  C8_12 
REMARK    6  A    between atoms: C8_12  and  C9_13 
ROOT
HETATM    1  N1  UNL     1      25.365 -11.971   7.235  1.00  0.00    -0.262 N 
HETATM    2  N2  UNL     1      26.033 -12.559   8.232  1.00  0.00    -0.291 N 
ATOM      3  H2  UNL     1      26.723 -12.101   8.827  1.00  0.00     0.188 HD
HETATM    4  C4  UNL     1      25.657 -13.849   8.334  1.00  0.00     0.202 A 
HETATM    5  N3  UNL     1      24.737 -14.082   7.389  1.00  0.00    -0.318 N 
HETATM    6  C14 UNL     1      24.570 -12.924   6.726  1.00  0.00     0.196 A 
HETATM    7  S1  UNL     1      23.519 -12.741   5.464  1.00  0.00    -0.039 SA
ENDROOT
BRANCH   5   8
HETATM    8  C5  UNL     1      24.048 -15.327   7.119  1.00  0.00     0.132 C 
BRANCH   8   9
HETATM    9  C6  UNL     1      25.008 -16.361   6.528  1.00  0.00     0.020 C 
BRANCH   9  10
HETATM   10  C7  UNL     1      24.671 -17.665   7.205  1.00  0.00     0.002 C 
BRANCH  10  11
HETATM   11  C8  UNL     1      23.333 -17.625   7.904  1.00  0.00     0.005 C 
BRANCH  11  12
HETATM   12  C9  UNL     1      22.701 -19.006   7.681  1.00  0.00    -0.014 C 
HETATM   13  C10 UNL     1      23.475 -19.762   6.627  1.00  0.00     0.004 C 
HETATM   14  C11 UNL     1      23.131 -21.197   6.894  1.00  0.00     0.000 C 
HETATM   15  C12 UNL     1      22.685 -21.278   8.337  1.00  0.00     0.000 C 
HETATM   16  C13 UNL     1      22.806 -19.872   8.897  1.00  0.00     0.004 C 
ENDBRANCH  11  12
ENDBRANCH  10  11
ENDBRANCH   9  10
ENDBRANCH   8   9
ENDBRANCH   5   8
BRANCH   1  17
HETATM   17  C2  UNL     1      25.487 -10.579   6.806  1.00  0.00     0.102 C 
HETATM   18  C1  UNL     1      25.535  -9.742   8.087  1.00  0.00     0.034 C 
HETATM   19  C3  UNL     1      26.847 -10.396   6.145  1.00  0.00     0.034 C 
ENDBRANCH   1  17
TORSDOF 6
ENDMDL
MODEL 4
REMARK VINA RESULT: -7.217939887      1.363      1.679
REMARK  6 active torsions:
REMARK  status: ('A' for Active; 'I' for Inactive)
REMARK    1  A    between atoms: C2_2  and  N1_4 
REMARK    2  A    between atoms: N3_8  and  C5_9 
REMARK    3  A    between atoms: C5_9  and  C6_10 
REMARK    4  A    between atoms: C6_10  and  C7_11 
REMARK    5  A    between atoms: C7_11  and  C8_12 
REMARK    6  A    between atoms: C8_12  and  C9_13 
ROOT
HETATM    1  N1  UNL     1      24.750 -11.784   7.082  1.00  0.00    -0.262 N 
HETATM    2  N2  UNL     1      23.834 -11.946   6.124  1.00  0.00    -0.291 N 
ATOM      3  H2  UNL     1      23.260 -11.201   5.729  1.00  0.00     0.188 HD
HETATM    4  C4  UNL     1      23.781 -13.241   5.757  1.00  0.00     0.202 A 
HETATM    5  N3  UNL     1      24.678 -13.910   6.492  1.00  0.00    -0.318 N 
HETATM    6  C14 UNL     1      25.262 -13.006   7.297  1.00  0.00     0.196 A 
HETATM    7  S1  UNL     1      26.444 -13.386   8.388  1.00  0.00    -0.039 SA
ENDROOT
BRANCH   5   8
HETATM    8  C5  UNL     1      24.975 -15.327   6.444  1.00  0.00     0.132 C 
BRANCH   8   9
HETATM    9  C6  UNL     1      24.055 -16.106   7.385  1.00  0.00     0.020 C 
BRANCH   9  10
HETATM   10  C7  UNL     1      24.621 -17.501   7.447  1.00  0.00     0.002 C 
BRANCH  10  11
HETATM   11  C8  UNL     1      23.752 -18.510   6.735  1.00  0.00     0.005 C 
BRANCH  11  12
HETATM   12  C9  UNL     1      23.639 -19.712   7.685  1.00  0.00    -0.014 C 
HETATM   13  C10 UNL     1      22.390 -19.588   8.525  1.00  0.00     0.004 C 
HETATM   14  C11 UNL     1      22.117 -20.995   8.965  1.00  0.00     0.000 C 
HETATM   15  C12 UNL     1      22.804 -21.905   7.971  1.00  0.00     0.000 C 
HETATM   16  C13 UNL     1      23.450 -20.996   6.941  1.00  0.00     0.004 C 
ENDBRANCH  11  12
ENDBRANCH  10  11
ENDBRANCH   9  10
ENDBRANCH   8   9
ENDBRANCH   5   8
BRANCH   1  17
HETATM   17  C2  UNL     1      25.108 -10.531   7.745  1.00  0.00     0.102 C 
HETATM   18  C1  UNL     1      25.556  -9.577   6.634  1.00  0.00     0.034 C 
HETATM   19  C3  UNL     1      23.844  -9.917   8.329  1.00  0.00     0.034 C 
ENDBRANCH   1  17
TORSDOF 6
ENDMDL
MODEL 5
REMARK VINA RESULT: -7.116591994      1.363      1.678
REMARK  6 active torsions:
REMARK  status: ('A' for Active; 'I' for Inactive)
REMARK    1  A    between atoms: C2_2  and  N1_4 
REMARK    2  A    between atoms: N3_8  and  C5_9 
REMARK    3  A    between atoms: C5_9  and  C6_10 
REMARK    4  A    between atoms: C6_10  and  C7_11 
REMARK    5  A    between atoms: C7_11  and  C8_12 
REMARK    6  A    between atoms: C8_12  and  C9_13 
ROOT
HETATM    1  N1  UNL     1      25.567 -11.322   7.077  1.00  0.00    -0.262 N 
HETATM    2  N2  UNL     1      24.404 -11.570   6.468  1.00  0.00    -0.291 N 
ATOM      3  H2  UNL     1      23.889 -10.903   5.892  1.00  0.00     0.188 HD
HETATM    4  C4  UNL     1      24.013 -12.833   6.727  1.00  0.00     0.202 A 
HETATM    5  N3  UNL     1      24.941 -13.394   7.512  1.00  0.00    -0.318 N 
HETATM    6  C14 UNL     1      25.884 -12.458   7.717  1.00  0.00     0.196 A 
HETATM    7  S1  UNL     1      27.234 -12.711   8.636  1.00  0.00    -0.039 SA
ENDROOT
BRANCH   5   8
HETATM    8  C5  UNL     1      24.946 -14.741   8.044  1.00  0.00     0.132 C 
BRANCH   8   9
HETATM    9  C6  UNL     1      23.821 -15.573   7.426  1.00  0.00     0.020 C 
BRANCH   9  10
HETATM   10  C7  UNL     1      24.268 -17.008   7.531  1.00  0.00     0.002 C 
BRANCH  10  11
HETATM   11  C8  UNL     1      23.280 -17.969   6.914  1.00  0.00     0.005 C 
BRANCH  11  12
HETATM   12  C9  UNL     1      23.432 -19.284   7.691  1.00  0.00    -0.014 C 
HETATM   13  C10 UNL     1      22.272 -19.457   8.643  1.00  0.00     0.004 C 
HETATM   14  C11 UNL     1      22.243 -20.934   8.902  1.00  0.00     0.000 C 
HETATM   15  C12 UNL     1      22.941 -21.597   7.736  1.00  0.00     0.000 C 
HETATM   16  C13 UNL     1      23.345 -20.477   6.793  1.00  0.00     0.004 C 
ENDBRANCH  11  12
ENDBRANCH  10  11
ENDBRANCH   9  10
ENDBRANCH   8   9
ENDBRANCH   5   8
BRANCH   1  17
HETATM   17  C2  UNL     1      26.320 -10.070   7.043  1.00  0.00     0.102 C 
HETATM   18  C1  UNL     1      27.133 -10.100   5.745  1.00  0.00     0.034 C 
HETATM   19  C3  UNL     1      25.336  -8.919   6.884  1.00  0.00     0.034 C 
ENDBRANCH   1  17
TORSDOF 6
ENDMDL
