MODEL 1
REMARK VINA RESULT: -8.938200074      0.000      0.000
REMARK  12 active torsions:
REMARK  status: ('A' for Active; 'I' for Inactive)
REMARK    1  A    between atoms: C2_5  and  N3_6 
REMARK    2  A    between atoms: N3_6  and  C3_8 
REMARK    3  A    between atoms: N5_12  and  C5_14 
REMARK    4  A    between atoms: C5_14  and  C6_15 
REMARK    5  A    between atoms: C6_15  and  N6_16 
REMARK    6  A    between atoms: N8_25  and  C12_27 
REMARK    7  A    between atoms: C12_27  and  C13_28 
REMARK    8  A    between atoms: C13_28  and  C14_29 
REMARK    9  A    between atoms: C14_29  and  C15_30 
REMARK   10  A    between atoms: C15_30  and  N9_31 
REMARK   11  A    between atoms: C16_37  and  C17_38 
REMARK   12  A    between atoms: C20_47  and  N15_48 
ROOT
HETATM    1  C3  UNL     1      31.630  -4.377  16.732  1.00  0.00     0.152 A 
HETATM    2  N4  UNL     1      31.442  -3.790  17.946  1.00  0.00    -0.174 N 
ATOM      3  H4  UNL     1      31.056  -4.351  18.705  1.00  0.00     0.186 HD
HETATM    4  C4  UNL     1      31.745  -2.503  18.187  1.00  0.00     0.680 A 
HETATM    5  N5  UNL     1      31.591  -1.909  19.298  1.00  0.00    -0.224 N 
ATOM      6  H5  UNL     1      31.870  -0.929  19.321  1.00  0.00     0.177 HD
HETATM    7  N7  UNL     1      32.256  -1.792  17.157  1.00  0.00    -0.186 N 
ATOM      8  H7  UNL     1      32.494  -0.813  17.316  1.00  0.00     0.184 HD
HETATM    9  C10 UNL     1      32.466  -2.309  15.934  1.00  0.00     0.123 A 
HETATM   10  C11 UNL     1      32.990  -1.521  14.923  1.00  0.00     0.132 A 
HETATM   11  N8  UNL     1      33.260  -0.301  15.213  1.00  0.00    -0.374 N 
ATOM     12  H8  UNL     1      33.068  -0.001  16.169  1.00  0.00     0.161 HD
HETATM   13  N10 UNL     1      33.168  -2.106  13.736  1.00  0.00    -0.330 N 
ATOM     14  H10 UNL     1      33.553  -1.536  12.983  1.00  0.00     0.168 HD
HETATM   15  C16 UNL     1      32.882  -3.368  13.460  1.00  0.00     0.098 A 
HETATM   16  N16 UNL     1      32.371  -4.129  14.454  1.00  0.00    -0.340 N 
ATOM     17  H16 UNL     1      32.145  -5.105  14.263  1.00  0.00     0.167 HD
HETATM   18  C21 UNL     1      32.151  -3.639  15.691  1.00  0.00     0.110 A 
ENDROOT
BRANCH  15  19
HETATM   19  C17 UNL     1      33.117  -3.920  12.086  1.00  0.00     0.168 A 
HETATM   20  C18 UNL     1      34.376  -3.453  11.522  1.00  0.00     0.110 A 
HETATM   21  N11 UNL     1      35.575  -3.718  12.228  1.00  0.00    -0.086 NA
HETATM   22  N12 UNL     1      34.442  -2.817  10.424  1.00  0.00    -0.322 N 
HETATM   23  C19 UNL     1      33.319  -2.492   9.631  1.00  0.00     0.191 A 
ATOM     24  H12 UNL     1      35.362  -2.524  10.095  1.00  0.00     0.169 HD
HETATM   25  N13 UNL     1      33.463  -1.775   8.402  1.00  0.00    -0.063 NA
HETATM   26  N14 UNL     1      32.174  -2.863  10.056  1.00  0.00    -0.336 N 
HETATM   27  C20 UNL     1      31.900  -3.581  11.258  1.00  0.00     0.302 A 
ATOM     28  H14 UNL     1      31.371  -2.622   9.474  1.00  0.00     0.164 HD
BRANCH  27  29
HETATM   29  N15 UNL     1      31.121  -4.777  10.951  1.00  0.00    -0.057 N 
ATOM     30 3H15 UNL     1      31.525  -5.298  10.172  1.00  0.00     0.276 HD
ATOM     31 2H15 UNL     1      31.217  -5.484  11.679  1.00  0.00     0.276 HD
ATOM     32 1H15 UNL     1      30.143  -4.545  10.780  1.00  0.00     0.276 HD
ENDBRANCH  27  29
ENDBRANCH  15  19
BRANCH  11  33
HETATM   33  C12 UNL     1      33.806   0.682  14.320  1.00  0.00     0.121 C 
BRANCH  33  34
HETATM   34  C13 UNL     1      35.287   0.734  14.523  1.00  0.00     0.021 C 
BRANCH  34  35
HETATM   35  C14 UNL     1      36.067  -0.427  14.030  1.00  0.00     0.029 C 
BRANCH  35  36
HETATM   36  C15 UNL     1      36.615  -0.299  12.642  1.00  0.00     0.229 C 
BRANCH  36  37
HETATM   37  N9  UNL     1      37.546  -1.307  12.263  1.00  0.00    -0.079 N 
ATOM     38  H93 UNL     1      37.956  -1.736  13.093  1.00  0.00     0.274 HD
ATOM     39  H92 UNL     1      37.055  -2.110  11.871  1.00  0.00     0.274 HD
ATOM     40  H91 UNL     1      38.281  -1.000  11.625  1.00  0.00     0.274 HD
ENDBRANCH  36  37
ENDBRANCH  35  36
ENDBRANCH  34  35
ENDBRANCH  33  34
ENDBRANCH  11  33
BRANCH   1  41
HETATM   41  N3  UNL     1      31.327  -5.609  16.533  1.00  0.00    -0.321 N 
ATOM     42  H3  UNL     1      31.208  -5.940  15.575  1.00  0.00     0.169 HD
BRANCH  41  43
HETATM   43  C2  UNL     1      31.153  -6.521  17.602  1.00  0.00     0.194 A 
HETATM   44  N2  UNL     1      30.070  -6.579  18.392  1.00  0.00    -0.264 N 
HETATM   45  N1  UNL     1      30.249  -7.543  19.276  1.00  0.00    -0.234 N 
ATOM     46  H2  UNL     1      29.247  -5.981  18.322  1.00  0.00     0.190 HD
HETATM   47  C1  UNL     1      29.313  -7.923  20.302  1.00  0.00     0.200 C 
HETATM   48  N17 UNL     1      31.425  -8.101  19.068  1.00  0.00    -0.247 N 
HETATM   49  C22 UNL     1      32.023  -7.494  18.032  1.00  0.00     0.306 A 
ATOM     50  H17 UNL     1      31.818  -8.872  19.609  1.00  0.00     0.192 HD
HETATM   51  O2  UNL     1      33.163  -7.789  17.574  1.00  0.00    -0.262 OA
ENDBRANCH  41  43
ENDBRANCH   1  41
BRANCH   5  52
HETATM   52  C5  UNL     1      31.078  -2.437  20.517  1.00  0.00     0.168 C 
BRANCH  52  53
HETATM   53  C6  UNL     1      29.553  -2.363  20.469  1.00  0.00     0.295 C 
BRANCH  53  54
HETATM   54  N6  UNL     1      29.083  -3.676  20.064  1.00  0.00     0.115 N 
HETATM   55  C7  UNL     1      28.344  -4.342  21.090  1.00  0.00     0.301 C 
HETATM   56  C8  UNL     1      27.091  -4.783  20.359  1.00  0.00     0.200 C 
HETATM   57  O1  UNL     1      27.434  -4.725  19.008  1.00  0.00    -0.361 OA
HETATM   58  C9  UNL     1      28.244  -3.606  18.887  1.00  0.00     0.440 C 
ENDBRANCH  53  54
ENDBRANCH  52  53
ENDBRANCH   5  52
TORSDOF 12
ENDMDL
MODEL 2
REMARK VINA RESULT: -8.713328069      3.060      8.094
REMARK  12 active torsions:
REMARK  status: ('A' for Active; 'I' for Inactive)
REMARK    1  A    between atoms: C2_5  and  N3_6 
REMARK    2  A    between atoms: N3_6  and  C3_8 
REMARK    3  A    between atoms: N5_12  and  C5_14 
REMARK    4  A    between atoms: C5_14  and  C6_15 
REMARK    5  A    between atoms: C6_15  and  N6_16 
REMARK    6  A    between atoms: N8_25  and  C12_27 
REMARK    7  A    between atoms: C12_27  and  C13_28 
REMARK    8  A    between atoms: C13_28  and  C14_29 
REMARK    9  A    between atoms: C14_29  and  C15_30 
REMARK   10  A    between atoms: C15_30  and  N9_31 
REMARK   11  A    between atoms: C16_37  and  C17_38 
REMARK   12  A    between atoms: C20_47  and  N15_48 
ROOT
HETATM    1  C3  UNL     1      31.673  -5.209  12.727  1.00  0.00     0.152 A 
HETATM    2  N4  UNL     1      31.907  -4.802  11.449  1.00  0.00    -0.174 N 
ATOM      3  H4  UNL     1      31.711  -5.450  10.686  1.00  0.00     0.186 HD
HETATM    4  C4  UNL     1      32.386  -3.583  11.149  1.00  0.00     0.680 A 
HETATM    5  N5  UNL     1      32.622  -3.155   9.978  1.00  0.00    -0.224 N 
ATOM      6  H5  UNL     1      32.984  -2.204   9.916  1.00  0.00     0.177 HD
HETATM    7  N7  UNL     1      32.634  -2.751  12.187  1.00  0.00    -0.186 N 
ATOM      8  H7  UNL     1      32.998  -1.820  11.984  1.00  0.00     0.184 HD
HETATM    9  C10 UNL     1      32.425  -3.089  13.470  1.00  0.00     0.123 A 
HETATM   10  C11 UNL     1      32.704  -2.188  14.484  1.00  0.00     0.132 A 
HETATM   11  N8  UNL     1      33.159  -1.040  14.137  1.00  0.00    -0.374 N 
ATOM     12  H8  UNL     1      33.281  -0.875  13.138  1.00  0.00     0.161 HD
HETATM   13  N10 UNL     1      32.472  -2.599  15.733  1.00  0.00    -0.330 N 
ATOM     14  H10 UNL     1      32.674  -1.943  16.489  1.00  0.00     0.168 HD
HETATM   15  C16 UNL     1      32.002  -3.789  16.069  1.00  0.00     0.098 A 
HETATM   16  N16 UNL     1      31.733  -4.662  15.071  1.00  0.00    -0.340 N 
ATOM     17  H16 UNL     1      31.369  -5.585  15.307  1.00  0.00     0.167 HD
HETATM   18  C21 UNL     1      31.930  -4.351  13.774  1.00  0.00     0.110 A 
ENDROOT
BRANCH  15  19
HETATM   19  C17 UNL     1      31.785  -4.146  17.508  1.00  0.00     0.168 A 
HETATM   20  C18 UNL     1      31.273  -5.501  17.660  1.00  0.00     0.110 A 
HETATM   21  N11 UNL     1      32.031  -6.575  17.131  1.00  0.00    -0.086 NA
HETATM   22  N12 UNL     1      30.175  -5.759  18.245  1.00  0.00    -0.322 N 
HETATM   23  C19 UNL     1      29.332  -4.776  18.809  1.00  0.00     0.191 A 
ATOM     24  H12 UNL     1      29.884  -6.735  18.311  1.00  0.00     0.169 HD
HETATM   25  N13 UNL     1      28.108  -5.133  19.458  1.00  0.00    -0.063 NA
HETATM   26  N14 UNL     1      29.707  -3.559  18.718  1.00  0.00    -0.336 N 
HETATM   27  C20 UNL     1      30.899  -3.077  18.101  1.00  0.00     0.302 A 
ATOM     28  H14 UNL     1      29.089  -2.859  19.130  1.00  0.00     0.164 HD
BRANCH  27  29
HETATM   29  N15 UNL     1      31.638  -2.242  19.044  1.00  0.00    -0.057 N 
ATOM     30 3H15 UNL     1      31.672  -2.665  19.972  1.00  0.00     0.276 HD
ATOM     31 2H15 UNL     1      32.637  -2.238  18.838  1.00  0.00     0.276 HD
ATOM     32 1H15 UNL     1      31.258  -1.297  19.076  1.00  0.00     0.276 HD
ENDBRANCH  27  29
ENDBRANCH  15  19
BRANCH  11  33
HETATM   33  C12 UNL     1      33.511   0.035  15.022  1.00  0.00     0.121 C 
BRANCH  33  34
HETATM   34  C13 UNL     1      34.744   0.695  14.495  1.00  0.00     0.021 C 
BRANCH  34  35
HETATM   35  C14 UNL     1      35.898  -0.190  14.203  1.00  0.00     0.029 C 
BRANCH  35  36
HETATM   36  C15 UNL     1      36.208  -0.396  12.751  1.00  0.00     0.229 C 
BRANCH  36  37
HETATM   37  N9  UNL     1      37.590  -0.345  12.414  1.00  0.00    -0.079 N 
ATOM     38  H93 UNL     1      37.897   0.625  12.337  1.00  0.00     0.274 HD
ATOM     39  H92 UNL     1      38.156  -0.650  13.205  1.00  0.00     0.274 HD
ATOM     40  H91 UNL     1      37.851  -0.865  11.575  1.00  0.00     0.274 HD
ENDBRANCH  36  37
ENDBRANCH  35  36
ENDBRANCH  34  35
ENDBRANCH  33  34
ENDBRANCH  11  33
BRANCH   1  41
HETATM   41  N3  UNL     1      31.217  -6.383  12.980  1.00  0.00    -0.321 N 
ATOM     42  H3  UNL     1      31.262  -6.735  13.936  1.00  0.00     0.169 HD
BRANCH  41  43
HETATM   43  C2  UNL     1      30.656  -7.203  11.972  1.00  0.00     0.194 A 
HETATM   44  N2  UNL     1      31.137  -8.400  11.600  1.00  0.00    -0.264 N 
HETATM   45  N1  UNL     1      30.368  -8.879  10.640  1.00  0.00    -0.234 N 
ATOM     46  H2  UNL     1      31.958  -8.861  11.993  1.00  0.00     0.190 HD
HETATM   47  C1  UNL     1      30.550 -10.142   9.973  1.00  0.00     0.200 C 
HETATM   48  N17 UNL     1      29.406  -8.013  10.390  1.00  0.00    -0.247 N 
HETATM   49  C22 UNL     1      29.547  -6.952  11.198  1.00  0.00     0.306 A 
ATOM     50  H17 UNL     1      28.671  -8.131   9.691  1.00  0.00     0.192 HD
HETATM   51  O2  UNL     1      28.789  -5.942  11.214  1.00  0.00    -0.262 OA
ENDBRANCH  41  43
ENDBRANCH   1  41
BRANCH   5  52
HETATM   52  C5  UNL     1      32.445  -3.833   8.738  1.00  0.00     0.168 C 
BRANCH  52  53
HETATM   53  C6  UNL     1      33.823  -4.121   8.146  1.00  0.00     0.295 C 
BRANCH  53  54
HETATM   54  N6  UNL     1      34.129  -5.507   8.454  1.00  0.00     0.115 N 
HETATM   55  C7  UNL     1      34.500  -6.262   7.298  1.00  0.00     0.301 C 
HETATM   56  C8  UNL     1      35.783  -6.936   7.744  1.00  0.00     0.200 C 
HETATM   57  O1  UNL     1      35.755  -6.857   9.137  1.00  0.00    -0.361 OA
HETATM   58  C9  UNL     1      35.202  -5.617   9.419  1.00  0.00     0.440 C 
ENDBRANCH  53  54
ENDBRANCH  52  53
ENDBRANCH   5  52
TORSDOF 12
ENDMDL
MODEL 3
REMARK VINA RESULT: -8.648250098      1.086      1.155
REMARK  12 active torsions:
REMARK  status: ('A' for Active; 'I' for Inactive)
REMARK    1  A    between atoms: C2_5  and  N3_6 
REMARK    2  A    between atoms: N3_6  and  C3_8 
REMARK    3  A    between atoms: N5_12  and  C5_14 
REMARK    4  A    between atoms: C5_14  and  C6_15 
REMARK    5  A    between atoms: C6_15  and  N6_16 
REMARK    6  A    between atoms: N8_25  and  C12_27 
REMARK    7  A    between atoms: C12_27  and  C13_28 
REMARK    8  A    between atoms: C13_28  and  C14_29 
REMARK    9  A    between atoms: C14_29  and  C15_30 
REMARK   10  A    between atoms: C15_30  and  N9_31 
REMARK   11  A    between atoms: C16_37  and  C17_38 
REMARK   12  A    between atoms: C20_47  and  N15_48 
ROOT
HETATM    1  C3  UNL     1      31.395  -4.834  16.944  1.00  0.00     0.152 A 
HETATM    2  N4  UNL     1      31.237  -4.140  18.105  1.00  0.00    -0.174 N 
ATOM      3  H4  UNL     1      30.923  -4.642  18.935  1.00  0.00     0.186 HD
HETATM    4  C4  UNL     1      31.478  -2.821  18.203  1.00  0.00     0.680 A 
HETATM    5  N5  UNL     1      31.348  -2.129  19.259  1.00  0.00    -0.224 N 
ATOM      6  H5  UNL     1      31.571  -1.138  19.171  1.00  0.00     0.177 HD
HETATM    7  N7  UNL     1      31.893  -2.190  17.081  1.00  0.00    -0.186 N 
ATOM      8  H7  UNL     1      32.083  -1.189  17.132  1.00  0.00     0.184 HD
HETATM    9  C10 UNL     1      32.069  -2.815  15.905  1.00  0.00     0.123 A 
HETATM   10  C11 UNL     1      32.494  -2.105  14.794  1.00  0.00     0.132 A 
HETATM   11  N8  UNL     1      32.708  -0.850  14.949  1.00  0.00    -0.374 N 
ATOM     12  H8  UNL     1      32.549  -0.467  15.881  1.00  0.00     0.161 HD
HETATM   13  N10 UNL     1      32.642  -2.796  13.661  1.00  0.00    -0.330 N 
ATOM     14  H10 UNL     1      32.955  -2.283  12.836  1.00  0.00     0.168 HD
HETATM   15  C16 UNL     1      32.416  -4.092  13.524  1.00  0.00     0.098 A 
HETATM   16  N16 UNL     1      32.001  -4.775  14.615  1.00  0.00    -0.340 N 
ATOM     17  H16 UNL     1      31.822  -5.776  14.531  1.00  0.00     0.167 HD
HETATM   18  C21 UNL     1      31.818  -4.177  15.809  1.00  0.00     0.110 A 
ENDROOT
BRANCH  15  19
HETATM   19  C17 UNL     1      32.610  -4.765  12.199  1.00  0.00     0.168 A 
HETATM   20  C18 UNL     1      33.550  -4.040  11.355  1.00  0.00     0.110 A 
HETATM   21  N11 UNL     1      34.861  -3.812  11.841  1.00  0.00    -0.086 NA
HETATM   22  N12 UNL     1      33.242  -3.602  10.202  1.00  0.00    -0.322 N 
HETATM   23  C19 UNL     1      31.969  -3.764   9.611  1.00  0.00     0.191 A 
ATOM     24  H12 UNL     1      33.957  -3.103   9.672  1.00  0.00     0.169 HD
HETATM   25  N13 UNL     1      31.687  -3.248   8.306  1.00  0.00    -0.063 NA
HETATM   26  N14 UNL     1      31.084  -4.388  10.286  1.00  0.00    -0.336 N 
HETATM   27  C20 UNL     1      31.240  -4.947  11.589  1.00  0.00     0.302 A 
ATOM     28  H14 UNL     1      30.169  -4.498   9.848  1.00  0.00     0.164 HD
BRANCH  27  29
HETATM   29  N15 UNL     1      30.856  -6.356  11.569  1.00  0.00    -0.057 N 
ATOM     30 3H15 UNL     1      31.508  -6.915  11.018  1.00  0.00     0.276 HD
ATOM     31 2H15 UNL     1      31.000  -6.797  12.477  1.00  0.00     0.276 HD
ATOM     32 1H15 UNL     1      29.896  -6.471  11.245  1.00  0.00     0.276 HD
ENDBRANCH  27  29
ENDBRANCH  15  19
BRANCH  11  33
HETATM   33  C12 UNL     1      33.150   0.066  13.935  1.00  0.00     0.121 C 
BRANCH  33  34
HETATM   34  C13 UNL     1      34.454   0.655  14.368  1.00  0.00     0.021 C 
BRANCH  34  35
HETATM   35  C14 UNL     1      35.648  -0.218  14.254  1.00  0.00     0.029 C 
BRANCH  35  36
HETATM   36  C15 UNL     1      36.024  -0.626  12.863  1.00  0.00     0.229 C 
BRANCH  36  37
HETATM   37  N9  UNL     1      37.343  -0.269  12.463  1.00  0.00    -0.079 N 
ATOM     38  H93 UNL     1      37.973  -1.063  12.582  1.00  0.00     0.274 HD
ATOM     39  H92 UNL     1      37.385  -0.158  11.450  1.00  0.00     0.274 HD
ATOM     40  H91 UNL     1      37.727   0.557  12.923  1.00  0.00     0.274 HD
ENDBRANCH  36  37
ENDBRANCH  35  36
ENDBRANCH  34  35
ENDBRANCH  33  34
ENDBRANCH  11  33
BRANCH   1  41
HETATM   41  N3  UNL     1      31.153  -6.094  16.883  1.00  0.00    -0.321 N 
ATOM     42  H3  UNL     1      31.331  -6.589  16.009  1.00  0.00     0.169 HD
BRANCH  41  43
HETATM   43  C2  UNL     1      30.645  -6.815  17.990  1.00  0.00     0.194 A 
HETATM   44  N2  UNL     1      30.543  -6.333  19.238  1.00  0.00    -0.264 N 
HETATM   45  N1  UNL     1      30.031  -7.275  20.009  1.00  0.00    -0.234 N 
ATOM     46  H2  UNL     1      30.815  -5.398  19.541  1.00  0.00     0.190 HD
HETATM   47  C1  UNL     1      29.763  -7.150  21.418  1.00  0.00     0.200 C 
HETATM   48  N17 UNL     1      29.805  -8.349  19.279  1.00  0.00    -0.247 N 
HETATM   49  C22 UNL     1      30.174  -8.107  18.012  1.00  0.00     0.306 A 
ATOM     50  H17 UNL     1      29.412  -9.226  19.623  1.00  0.00     0.192 HD
HETATM   51  O2  UNL     1      30.088  -8.930  17.058  1.00  0.00    -0.262 OA
ENDBRANCH  41  43
ENDBRANCH   1  41
BRANCH   5  52
HETATM   52  C5  UNL     1      30.929  -2.559  20.550  1.00  0.00     0.168 C 
BRANCH  52  53
HETATM   53  C6  UNL     1      29.415  -2.383  20.649  1.00  0.00     0.295 C 
BRANCH  53  54
HETATM   54  N6  UNL     1      28.825  -3.685  20.393  1.00  0.00     0.115 N 
HETATM   55  C7  UNL     1      27.936  -4.105  21.430  1.00  0.00     0.301 C 
HETATM   56  C8  UNL     1      26.699  -4.516  20.656  1.00  0.00     0.200 C 
HETATM   57  O1  UNL     1      27.149  -4.700  19.349  1.00  0.00    -0.361 OA
HETATM   58  C9  UNL     1      28.092  -3.705  19.145  1.00  0.00     0.440 C 
ENDBRANCH  53  54
ENDBRANCH  52  53
ENDBRANCH   5  52
TORSDOF 12
ENDMDL
MODEL 4
REMARK VINA RESULT: -8.600722288      3.218      7.763
REMARK  12 active torsions:
REMARK  status: ('A' for Active; 'I' for Inactive)
REMARK    1  A    between atoms: C2_5  and  N3_6 
REMARK    2  A    between atoms: N3_6  and  C3_8 
REMARK    3  A    between atoms: N5_12  and  C5_14 
REMARK    4  A    between atoms: C5_14  and  C6_15 
REMARK    5  A    between atoms: C6_15  and  N6_16 
REMARK    6  A    between atoms: N8_25  and  C12_27 
REMARK    7  A    between atoms: C12_27  and  C13_28 
REMARK    8  A    between atoms: C13_28  and  C14_29 
REMARK    9  A    between atoms: C14_29  and  C15_30 
REMARK   10  A    between atoms: C15_30  and  N9_31 
REMARK   11  A    between atoms: C16_37  and  C17_38 
REMARK   12  A    between atoms: C20_47  and  N15_48 
ROOT
HETATM    1  C3  UNL     1      31.667  -5.186  12.716  1.00  0.00     0.152 A 
HETATM    2  N4  UNL     1      31.887  -4.771  11.438  1.00  0.00    -0.174 N 
ATOM      3  H4  UNL     1      31.690  -5.417  10.674  1.00  0.00     0.186 HD
HETATM    4  C4  UNL     1      32.351  -3.545  11.140  1.00  0.00     0.680 A 
HETATM    5  N5  UNL     1      32.572  -3.110   9.968  1.00  0.00    -0.224 N 
ATOM      6  H5  UNL     1      32.924  -2.155   9.908  1.00  0.00     0.177 HD
HETATM    7  N7  UNL     1      32.600  -2.717  12.179  1.00  0.00    -0.186 N 
ATOM      8  H7  UNL     1      32.953  -1.781  11.977  1.00  0.00     0.184 HD
HETATM    9  C10 UNL     1      32.406  -3.062  13.462  1.00  0.00     0.123 A 
HETATM   10  C11 UNL     1      32.686  -2.163  14.478  1.00  0.00     0.132 A 
HETATM   11  N8  UNL     1      33.126  -1.009  14.132  1.00  0.00    -0.374 N 
ATOM     12  H8  UNL     1      33.238  -0.839  13.133  1.00  0.00     0.161 HD
HETATM   13  N10 UNL     1      32.469  -2.582  15.727  1.00  0.00    -0.330 N 
ATOM     14  H10 UNL     1      32.672  -1.928  16.484  1.00  0.00     0.168 HD
HETATM   15  C16 UNL     1      32.014  -3.778  16.061  1.00  0.00     0.098 A 
HETATM   16  N16 UNL     1      31.744  -4.648  15.062  1.00  0.00    -0.340 N 
ATOM     17  H16 UNL     1      31.391  -5.576  15.297  1.00  0.00     0.167 HD
HETATM   18  C21 UNL     1      31.926  -4.330  13.765  1.00  0.00     0.110 A 
ENDROOT
BRANCH  15  19
HETATM   19  C17 UNL     1      31.813  -4.144  17.500  1.00  0.00     0.168 A 
HETATM   20  C18 UNL     1      31.296  -5.497  17.650  1.00  0.00     0.110 A 
HETATM   21  N11 UNL     1      32.042  -6.571  17.104  1.00  0.00    -0.086 NA
HETATM   22  N12 UNL     1      30.204  -5.754  18.247  1.00  0.00    -0.322 N 
HETATM   23  C19 UNL     1      29.373  -4.771  18.829  1.00  0.00     0.191 A 
ATOM     24  H12 UNL     1      29.910  -6.729  18.310  1.00  0.00     0.169 HD
HETATM   25  N13 UNL     1      28.156  -5.127  19.490  1.00  0.00    -0.063 NA
HETATM   26  N14 UNL     1      29.753  -3.556  18.741  1.00  0.00    -0.336 N 
HETATM   27  C20 UNL     1      30.939  -3.074  18.112  1.00  0.00     0.302 A 
ATOM     28  H14 UNL     1      29.144  -2.856  19.165  1.00  0.00     0.164 HD
BRANCH  27  29
HETATM   29  N15 UNL     1      31.694  -2.250  19.051  1.00  0.00    -0.057 N 
ATOM     30 3H15 UNL     1      32.275  -2.819  19.667  1.00  0.00     0.276 HD
ATOM     31 2H15 UNL     1      32.432  -1.725  18.581  1.00  0.00     0.276 HD
ATOM     32 1H15 UNL     1      31.076  -1.635  19.580  1.00  0.00     0.276 HD
ENDBRANCH  27  29
ENDBRANCH  15  19
BRANCH  11  33
HETATM   33  C12 UNL     1      33.476   0.065  15.018  1.00  0.00     0.121 C 
BRANCH  33  34
HETATM   34  C13 UNL     1      34.721   0.715  14.504  1.00  0.00     0.021 C 
BRANCH  34  35
HETATM   35  C14 UNL     1      35.867  -0.181  14.215  1.00  0.00     0.029 C 
BRANCH  35  36
HETATM   36  C15 UNL     1      36.182  -0.384  12.764  1.00  0.00     0.229 C 
BRANCH  36  37
HETATM   37  N9  UNL     1      37.565  -0.327  12.431  1.00  0.00    -0.079 N 
ATOM     38  H93 UNL     1      38.058   0.284  13.083  1.00  0.00     0.274 HD
ATOM     39  H92 UNL     1      38.015  -1.216  12.646  1.00  0.00     0.274 HD
ATOM     40  H91 UNL     1      37.768  -0.053  11.470  1.00  0.00     0.274 HD
ENDBRANCH  36  37
ENDBRANCH  35  36
ENDBRANCH  34  35
ENDBRANCH  33  34
ENDBRANCH  11  33
BRANCH   1  41
HETATM   41  N3  UNL     1      31.226  -6.365  12.967  1.00  0.00    -0.321 N 
ATOM     42  H3  UNL     1      31.286  -6.723  13.921  1.00  0.00     0.169 HD
BRANCH  41  43
HETATM   43  C2  UNL     1      30.657  -7.184  11.962  1.00  0.00     0.194 A 
HETATM   44  N2  UNL     1      31.162  -8.358  11.552  1.00  0.00    -0.264 N 
HETATM   45  N1  UNL     1      30.378  -8.843  10.607  1.00  0.00    -0.234 N 
ATOM     46  H2  UNL     1      32.009  -8.800  11.909  1.00  0.00     0.190 HD
HETATM   47  C1  UNL     1      30.577 -10.087   9.910  1.00  0.00     0.200 C 
HETATM   48  N17 UNL     1      29.382  -8.003  10.404  1.00  0.00    -0.247 N 
HETATM   49  C22 UNL     1      29.517  -6.953  11.229  1.00  0.00     0.306 A 
ATOM     50  H17 UNL     1      28.629  -8.130   9.728  1.00  0.00     0.192 HD
HETATM   51  O2  UNL     1      28.729  -5.967  11.288  1.00  0.00    -0.262 OA
ENDBRANCH  41  43
ENDBRANCH   1  41
BRANCH   5  52
HETATM   52  C5  UNL     1      32.390  -3.784   8.727  1.00  0.00     0.168 C 
BRANCH  52  53
HETATM   53  C6  UNL     1      30.983  -3.482   8.216  1.00  0.00     0.295 C 
BRANCH  53  54
HETATM   54  N6  UNL     1      30.178  -4.661   8.486  1.00  0.00     0.115 N 
HETATM   55  C7  UNL     1      28.833  -4.532   8.020  1.00  0.00     0.301 C 
HETATM   56  C8  UNL     1      28.632  -5.816   7.238  1.00  0.00     0.200 C 
HETATM   57  O1  UNL     1      29.642  -6.664   7.693  1.00  0.00    -0.361 OA
HETATM   58  C9  UNL     1      30.746  -5.847   7.882  1.00  0.00     0.440 C 
ENDBRANCH  53  54
ENDBRANCH  52  53
ENDBRANCH   5  52
TORSDOF 12
ENDMDL
MODEL 5
REMARK VINA RESULT: -8.412057496      2.983      6.475
REMARK  12 active torsions:
REMARK  status: ('A' for Active; 'I' for Inactive)
REMARK    1  A    between atoms: C2_5  and  N3_6 
REMARK    2  A    between atoms: N3_6  and  C3_8 
REMARK    3  A    between atoms: N5_12  and  C5_14 
REMARK    4  A    between atoms: C5_14  and  C6_15 
REMARK    5  A    between atoms: C6_15  and  N6_16 
REMARK    6  A    between atoms: N8_25  and  C12_27 
REMARK    7  A    between atoms: C12_27  and  C13_28 
REMARK    8  A    between atoms: C13_28  and  C14_29 
REMARK    9  A    between atoms: C14_29  and  C15_30 
REMARK   10  A    between atoms: C15_30  and  N9_31 
REMARK   11  A    between atoms: C16_37  and  C17_38 
REMARK   12  A    between atoms: C20_47  and  N15_48 
ROOT
HETATM    1  C3  UNL     1      32.293  -2.320  13.822  1.00  0.00     0.152 A 
HETATM    2  N4  UNL     1      32.041  -2.630  15.124  1.00  0.00    -0.174 N 
ATOM      3  H4  UNL     1      32.135  -1.897  15.827  1.00  0.00     0.186 HD
HETATM    4  C4  UNL     1      31.674  -3.860  15.522  1.00  0.00     0.680 A 
HETATM    5  N5  UNL     1      31.427  -4.200  16.720  1.00  0.00    -0.224 N 
ATOM      6  H5  UNL     1      31.159  -5.174  16.859  1.00  0.00     0.177 HD
HETATM    7  N7  UNL     1      31.559  -4.804  14.561  1.00  0.00    -0.186 N 
ATOM      8  H7  UNL     1      31.281  -5.745  14.839  1.00  0.00     0.184 HD
HETATM    9  C10 UNL     1      31.792  -4.566  13.260  1.00  0.00     0.123 A 
HETATM   10  C11 UNL     1      31.659  -5.583  12.329  1.00  0.00     0.132 A 
HETATM   11  N8  UNL     1      31.305  -6.735  12.767  1.00  0.00    -0.374 N 
ATOM     12  H8  UNL     1      31.148  -6.817  13.772  1.00  0.00     0.161 HD
HETATM   13  N10 UNL     1      31.911  -5.268  11.055  1.00  0.00    -0.330 N 
ATOM     14  H10 UNL     1      31.815  -6.009  10.360  1.00  0.00     0.168 HD
HETATM   15  C16 UNL     1      32.274  -4.071  10.624  1.00  0.00     0.098 A 
HETATM   16  N16 UNL     1      32.402  -3.086  11.542  1.00  0.00    -0.340 N 
ATOM     17  H16 UNL     1      32.680  -2.155  11.231  1.00  0.00     0.167 HD
HETATM   18  C21 UNL     1      32.172  -3.293  12.854  1.00  0.00     0.110 A 
ENDROOT
BRANCH  15  19
HETATM   19  C17 UNL     1      32.537  -3.832   9.169  1.00  0.00     0.168 A 
HETATM   20  C18 UNL     1      33.959  -3.685   8.891  1.00  0.00     0.110 A 
HETATM   21  N11 UNL     1      34.831  -4.744   9.247  1.00  0.00    -0.086 NA
HETATM   22  N12 UNL     1      34.450  -2.648   8.345  1.00  0.00    -0.322 N 
HETATM   23  C19 UNL     1      33.685  -1.529   7.948  1.00  0.00     0.191 A 
ATOM     24  H12 UNL     1      35.457  -2.622   8.184  1.00  0.00     0.169 HD
HETATM   25  N13 UNL     1      34.299  -0.392   7.335  1.00  0.00    -0.063 NA
HETATM   26  N14 UNL     1      32.427  -1.575   8.158  1.00  0.00    -0.336 N 
HETATM   27  C20 UNL     1      31.698  -2.645   8.756  1.00  0.00     0.302 A 
ATOM     28  H14 UNL     1      31.885  -0.760   7.866  1.00  0.00     0.164 HD
BRANCH  27  29
HETATM   29  N15 UNL     1      30.608  -3.052   7.875  1.00  0.00    -0.057 N 
ATOM     30 3H15 UNL     1      29.908  -3.602   8.373  1.00  0.00     0.276 HD
ATOM     31 2H15 UNL     1      30.024  -2.259   7.610  1.00  0.00     0.276 HD
ATOM     32 1H15 UNL     1      30.961  -3.547   7.056  1.00  0.00     0.276 HD
ENDBRANCH  27  29
ENDBRANCH  15  19
BRANCH  11  33
HETATM   33  C12 UNL     1      31.109  -7.919  11.979  1.00  0.00     0.121 C 
BRANCH  33  34
HETATM   34  C13 UNL     1      29.836  -8.571  12.415  1.00  0.00     0.021 C 
BRANCH  34  35
HETATM   35  C14 UNL     1      29.593  -9.949  11.924  1.00  0.00     0.029 C 
BRANCH  35  36
HETATM   36  C15 UNL     1      29.985 -11.051  12.860  1.00  0.00     0.229 C 
BRANCH  36  37
HETATM   37  N9  UNL     1      29.299 -11.057  14.108  1.00  0.00    -0.079 N 
ATOM     38  H93 UNL     1      28.569 -10.345  14.111  1.00  0.00     0.274 HD
ATOM     39  H92 UNL     1      28.728 -11.898  14.191  1.00  0.00     0.274 HD
ATOM     40  H91 UNL     1      29.894 -10.955  14.930  1.00  0.00     0.274 HD
ENDBRANCH  36  37
ENDBRANCH  35  36
ENDBRANCH  34  35
ENDBRANCH  33  34
ENDBRANCH  11  33
BRANCH   1  41
HETATM   41  N3  UNL     1      32.646  -1.135  13.475  1.00  0.00    -0.321 N 
ATOM     42  H3  UNL     1      31.939  -0.496  13.109  1.00  0.00     0.169 HD
BRANCH  41  43
HETATM   43  C2  UNL     1      33.984  -0.688  13.585  1.00  0.00     0.194 A 
HETATM   44  N2  UNL     1      35.015  -1.170  12.875  1.00  0.00    -0.264 N 
HETATM   45  N1  UNL     1      36.109  -0.524  13.234  1.00  0.00    -0.234 N 
ATOM     46  H2  UNL     1      34.963  -1.911  12.175  1.00  0.00     0.190 HD
HETATM   47  C1  UNL     1      37.427  -0.750  12.701  1.00  0.00     0.200 C 
HETATM   48  N17 UNL     1      35.799   0.360  14.160  1.00  0.00    -0.247 N 
HETATM   49  C22 UNL     1      34.482   0.293  14.410  1.00  0.00     0.306 A 
ATOM     50  H17 UNL     1      36.455   0.995  14.615  1.00  0.00     0.192 HD
HETATM   51  O2  UNL     1      33.862   1.007  15.247  1.00  0.00    -0.262 OA
ENDBRANCH  41  43
ENDBRANCH   1  41
BRANCH   5  52
HETATM   52  C5  UNL     1      31.478  -3.395  17.894  1.00  0.00     0.168 C 
BRANCH  52  53
HETATM   53  C6  UNL     1      30.631  -4.066  18.974  1.00  0.00     0.295 C 
BRANCH  53  54
HETATM   54  N6  UNL     1      29.666  -3.077  19.423  1.00  0.00     0.115 N 
HETATM   55  C7  UNL     1      28.357  -3.622  19.601  1.00  0.00     0.301 C 
HETATM   56  C8  UNL     1      27.984  -3.134  20.986  1.00  0.00     0.200 C 
HETATM   57  O1  UNL     1      28.861  -2.077  21.234  1.00  0.00    -0.361 OA
HETATM   58  C9  UNL     1      30.067  -2.466  20.672  1.00  0.00     0.440 C 
ENDBRANCH  53  54
ENDBRANCH  52  53
ENDBRANCH   5  52
TORSDOF 12
ENDMDL
