MODEL 1
REMARK VINA RESULT: -5.907798309      0.000      0.000
REMARK  4 active torsions:
REMARK  status: ('A' for Active; 'I' for Inactive)
REMARK    1  A    between atoms: C2_2  and  C3_3 
REMARK    2  A    between atoms: C3_3  and  C5_5 
REMARK    3  A    between atoms: C5_5  and  N1_8 
REMARK    4  A    between atoms: N1_8  and  C8_10 
ROOT
HETATM    1  N1  UNL     1      14.414   9.019  -0.703  1.00  0.00    -0.218 N 
ATOM      2  H1  UNL     1      13.948   8.117  -0.804  1.00  0.00     0.178 HD
ENDROOT
BRANCH   1   3
HETATM    3  C5  UNL     1      14.528   9.877  -1.855  1.00  0.00     0.043 C 
HETATM    4  C6  UNL     1      15.931  10.330  -2.158  1.00  0.00     0.039 C 
HETATM    5  C7  UNL     1      13.797  11.178  -1.437  1.00  0.00     0.039 C 
BRANCH   3   6
HETATM    6  C3  UNL     1      13.783   9.376  -3.032  1.00  0.00     0.009 C 
HETATM    7  C4  UNL     1      14.502   9.771  -4.305  1.00  0.00     0.012 C 
BRANCH   6   8
HETATM    8  C2  UNL     1      12.354   9.742  -3.151  1.00  0.00     0.002 C 
HETATM    9  C1  UNL     1      11.664   9.327  -4.421  1.00  0.00     0.005 C 
ENDBRANCH   6   8
ENDBRANCH   3   6
ENDBRANCH   1   3
BRANCH   1  10
HETATM   10  C8  UNL     1      14.937   9.395   0.585  1.00  0.00     0.672 C 
HETATM   11  N2  UNL     1      16.080   9.884   0.884  1.00  0.00    -0.225 N 
HETATM   12  C9  UNL     1      16.220  10.123   2.293  1.00  0.00     0.158 C 
ATOM     13  H2  UNL     1      16.810  10.081   0.199  1.00  0.00     0.177 HD
HETATM   14  C10 UNL     1      15.102   9.328   2.921  1.00  0.00     0.161 C 
HETATM   15  N3  UNL     1      14.164   9.248   1.789  1.00  0.00    -0.221 N 
HETATM   16  C11 UNL     1      12.744   9.058   1.896  1.00  0.00     0.168 C 
ENDBRANCH   1  10
TORSDOF 4
ENDMDL
MODEL 2
REMARK VINA RESULT: -5.897284531      0.786      1.727
REMARK  4 active torsions:
REMARK  status: ('A' for Active; 'I' for Inactive)
REMARK    1  A    between atoms: C2_2  and  C3_3 
REMARK    2  A    between atoms: C3_3  and  C5_5 
REMARK    3  A    between atoms: C5_5  and  N1_8 
REMARK    4  A    between atoms: N1_8  and  C8_10 
ROOT
HETATM    1  N1  UNL     1      14.651   8.973  -0.726  1.00  0.00    -0.218 N 
ATOM      2  H1  UNL     1      15.018   8.031  -0.862  1.00  0.00     0.178 HD
ENDROOT
BRANCH   1   3
HETATM    3  C5  UNL     1      14.661   9.893  -1.836  1.00  0.00     0.043 C 
HETATM    4  C6  UNL     1      16.016  10.463  -2.160  1.00  0.00     0.039 C 
HETATM    5  C7  UNL     1      13.854  11.114  -1.328  1.00  0.00     0.039 C 
BRANCH   3   6
HETATM    6  C3  UNL     1      13.913   9.395  -3.012  1.00  0.00     0.009 C 
HETATM    7  C4  UNL     1      14.597   9.846  -4.287  1.00  0.00     0.012 C 
BRANCH   6   8
HETATM    8  C2  UNL     1      12.471   9.715  -3.098  1.00  0.00     0.002 C 
HETATM    9  C1  UNL     1      11.784   9.346  -4.383  1.00  0.00     0.005 C 
ENDBRANCH   6   8
ENDBRANCH   3   6
ENDBRANCH   1   3
BRANCH   1  10
HETATM   10  C8  UNL     1      14.140   9.344   0.569  1.00  0.00     0.672 C 
HETATM   11  N2  UNL     1      13.007   9.079   1.099  1.00  0.00    -0.225 N 
HETATM   12  C9  UNL     1      12.877   9.633   2.417  1.00  0.00     0.158 C 
ATOM     13  H2  UNL     1      12.278   8.535   0.638  1.00  0.00     0.177 HD
HETATM   14  C10 UNL     1      13.984  10.656   2.504  1.00  0.00     0.161 C 
HETATM   15  N3  UNL     1      14.915  10.125   1.495  1.00  0.00    -0.221 N 
HETATM   16  C11 UNL     1      16.332  10.360   1.464  1.00  0.00     0.168 C 
ENDBRANCH   1  10
TORSDOF 4
ENDMDL
MODEL 3
REMARK VINA RESULT: -5.871049167      1.289      2.369
REMARK  4 active torsions:
REMARK  status: ('A' for Active; 'I' for Inactive)
REMARK    1  A    between atoms: C2_2  and  C3_3 
REMARK    2  A    between atoms: C3_3  and  C5_5 
REMARK    3  A    between atoms: C5_5  and  N1_8 
REMARK    4  A    between atoms: N1_8  and  C8_10 
ROOT
HETATM    1  N1  UNL     1      14.333  10.747  -0.010  1.00  0.00    -0.218 N 
ATOM      2  H1  UNL     1      14.212  11.760  -0.033  1.00  0.00     0.178 HD
ENDROOT
BRANCH   1   3
HETATM    3  C5  UNL     1      14.819  10.075  -1.189  1.00  0.00     0.043 C 
HETATM    4  C6  UNL     1      14.911   8.578  -1.059  1.00  0.00     0.039 C 
HETATM    5  C7  UNL     1      16.295  10.531  -1.309  1.00  0.00     0.039 C 
BRANCH   3   6
HETATM    6  C3  UNL     1      14.167  10.539  -2.435  1.00  0.00     0.009 C 
HETATM    7  C4  UNL     1      12.757   9.991  -2.514  1.00  0.00     0.012 C 
BRANCH   6   8
HETATM    8  C2  UNL     1      14.861  10.276  -3.715  1.00  0.00     0.002 C 
HETATM    9  C1  UNL     1      14.097   9.476  -4.733  1.00  0.00     0.005 C 
ENDBRANCH   6   8
ENDBRANCH   3   6
ENDBRANCH   1   3
BRANCH   1  10
HETATM   10  C8  UNL     1      14.012  10.033   1.200  1.00  0.00     0.672 C 
HETATM   11  N2  UNL     1      12.962   9.366   1.492  1.00  0.00    -0.225 N 
HETATM   12  C9  UNL     1      13.024   8.799   2.810  1.00  0.00     0.158 C 
ATOM     13  H2  UNL     1      12.168   9.250   0.862  1.00  0.00     0.177 HD
HETATM   14  C10 UNL     1      14.145   9.549   3.488  1.00  0.00     0.161 C 
HETATM   15  N3  UNL     1      14.919   9.986   2.315  1.00  0.00    -0.221 N 
HETATM   16  C11 UNL     1      16.321  10.302   2.313  1.00  0.00     0.168 C 
ENDBRANCH   1  10
TORSDOF 4
ENDMDL
MODEL 4
REMARK VINA RESULT: -5.863910725      1.129      1.707
REMARK  4 active torsions:
REMARK  status: ('A' for Active; 'I' for Inactive)
REMARK    1  A    between atoms: C2_2  and  C3_3 
REMARK    2  A    between atoms: C3_3  and  C5_5 
REMARK    3  A    between atoms: C5_5  and  N1_8 
REMARK    4  A    between atoms: N1_8  and  C8_10 
ROOT
HETATM    1  N1  UNL     1      15.028  10.911  -0.281  1.00  0.00    -0.218 N 
ATOM      2  H1  UNL     1      14.728  11.882  -0.375  1.00  0.00     0.178 HD
ENDROOT
BRANCH   1   3
HETATM    3  C5  UNL     1      14.989  10.054  -1.439  1.00  0.00     0.043 C 
HETATM    4  C6  UNL     1      14.887   8.586  -1.123  1.00  0.00     0.039 C 
HETATM    5  C7  UNL     1      16.394  10.203  -2.073  1.00  0.00     0.039 C 
BRANCH   3   6
HETATM    6  C3  UNL     1      14.042  10.520  -2.477  1.00  0.00     0.009 C 
HETATM    7  C4  UNL     1      12.627  10.142  -2.093  1.00  0.00     0.012 C 
BRANCH   6   8
HETATM    8  C2  UNL     1      14.291  10.101  -3.874  1.00  0.00     0.002 C 
HETATM    9  C1  UNL     1      13.151   9.419  -4.577  1.00  0.00     0.005 C 
ENDBRANCH   6   8
ENDBRANCH   3   6
ENDBRANCH   1   3
BRANCH   1  10
HETATM   10  C8  UNL     1      15.477  10.440   1.005  1.00  0.00     0.672 C 
HETATM   11  N2  UNL     1      16.669  10.258   1.429  1.00  0.00    -0.225 N 
HETATM   12  C9  UNL     1      16.699   9.772   2.780  1.00  0.00     0.158 C 
ATOM     13  H2  UNL     1      17.504  10.437   0.872  1.00  0.00     0.177 HD
HETATM   14  C10 UNL     1      15.293   9.287   3.035  1.00  0.00     0.161 C 
HETATM   15  N3  UNL     1      14.552  10.089   2.048  1.00  0.00    -0.221 N 
HETATM   16  C11 UNL     1      13.162  10.440   2.136  1.00  0.00     0.168 C 
ENDBRANCH   1  10
TORSDOF 4
ENDMDL
MODEL 5
REMARK VINA RESULT: -5.857885003      1.621      2.228
REMARK  4 active torsions:
REMARK  status: ('A' for Active; 'I' for Inactive)
REMARK    1  A    between atoms: C2_2  and  C3_3 
REMARK    2  A    between atoms: C3_3  and  C5_5 
REMARK    3  A    between atoms: C5_5  and  N1_8 
REMARK    4  A    between atoms: N1_8  and  C8_10 
ROOT
HETATM    1  N1  UNL     1      15.702   9.493  -0.827  1.00  0.00    -0.218 N 
ATOM      2  H1  UNL     1      15.888   8.492  -0.894  1.00  0.00     0.178 HD
ENDROOT
BRANCH   1   3
HETATM    3  C5  UNL     1      14.459  10.008  -1.345  1.00  0.00     0.043 C 
HETATM    4  C6  UNL     1      14.304  11.499  -1.222  1.00  0.00     0.039 C 
HETATM    5  C7  UNL     1      13.381   9.439  -0.388  1.00  0.00     0.039 C 
BRANCH   3   6
HETATM    6  C3  UNL     1      14.116   9.468  -2.680  1.00  0.00     0.009 C 
HETATM    7  C4  UNL     1      15.074  10.014  -3.719  1.00  0.00     0.012 C 
BRANCH   6   8
HETATM    8  C2  UNL     1      12.728   9.648  -3.161  1.00  0.00     0.002 C 
HETATM    9  C1  UNL     1      12.517   9.525  -4.644  1.00  0.00     0.005 C 
ENDBRANCH   6   8
ENDBRANCH   3   6
ENDBRANCH   1   3
BRANCH   1  10
HETATM   10  C8  UNL     1      16.689  10.347  -0.219  1.00  0.00     0.672 C 
HETATM   11  N2  UNL     1      17.602  11.052  -0.771  1.00  0.00    -0.225 N 
HETATM   12  C9  UNL     1      18.393  11.771   0.188  1.00  0.00     0.158 C 
ATOM     13  H2  UNL     1      17.751  11.098  -1.779  1.00  0.00     0.177 HD
HETATM   14  C10 UNL     1      18.088  11.098   1.504  1.00  0.00     0.161 C 
HETATM   15  N3  UNL     1      16.768  10.518   1.207  1.00  0.00    -0.221 N 
HETATM   16  C11 UNL     1      15.763  10.194   2.181  1.00  0.00     0.168 C 
ENDBRANCH   1  10
TORSDOF 4
ENDMDL
