MODEL 1
REMARK VINA RESULT: -5.099750737      0.000      0.000
REMARK  2 active torsions:
REMARK  status: ('A' for Active; 'I' for Inactive)
REMARK    1  A    between atoms: C2_2  and  C3_3 
REMARK    2  A    between atoms: N1_11  and  C9_12 
ROOT
HETATM    1  C3  UNL     1      13.910   9.765   3.757  1.00  0.00     0.174 C 
HETATM    2  O1  UNL     1      13.376   8.629   4.349  1.00  0.00    -0.377 OA
HETATM    3  C4  UNL     1      13.402   8.827   5.745  1.00  0.00     0.196 C 
HETATM    4  C5  UNL     1      14.303   9.980   6.016  1.00  0.00     0.135 C 
HETATM    5  C6  UNL     1      15.081  10.048   4.715  1.00  0.00     0.178 C 
HETATM    6  O2  UNL     1      15.897   8.944   4.660  1.00  0.00    -0.379 OA
HETATM    7  C7  UNL     1      16.807   8.932   5.680  1.00  0.00     0.187 C 
HETATM    8  C8  UNL     1      16.199   8.927   7.060  1.00  0.00     0.144 C 
HETATM    9  N1  UNL     1      15.157   9.905   7.131  1.00  0.00    -0.397 N 
ENDROOT
BRANCH   9  10
HETATM   10  C9  UNL     1      14.521  10.015   8.395  1.00  0.00     0.080 A 
HETATM   11  C10 UNL     1      14.648  11.327   9.125  1.00  0.00     0.027 A 
HETATM   12  C11 UNL     1      15.288  10.081   9.663  1.00  0.00     0.027 A 
ENDBRANCH   9  10
BRANCH   1  13
HETATM   13  C2  UNL     1      14.347   9.466   2.402  1.00  0.00    -0.003 C 
HETATM   14  C1  UNL     1      13.771   8.508   1.698  1.00  0.00     0.009 C 
ENDBRANCH   1  13
TORSDOF 2
ENDMDL
MODEL 2
REMARK VINA RESULT: -5.009822428      2.441      5.637
REMARK  2 active torsions:
REMARK  status: ('A' for Active; 'I' for Inactive)
REMARK    1  A    between atoms: C2_2  and  C3_3 
REMARK    2  A    between atoms: N1_11  and  C9_12 
ROOT
HETATM    1  C3  UNL     1      16.520   9.592   9.945  1.00  0.00     0.174 C 
HETATM    2  O1  UNL     1      16.228   8.266   9.661  1.00  0.00    -0.377 OA
HETATM    3  C4  UNL     1      15.889   8.190   8.294  1.00  0.00     0.196 C 
HETATM    4  C5  UNL     1      15.632   9.577   7.820  1.00  0.00     0.135 C 
HETATM    5  C6  UNL     1      15.412  10.294   9.139  1.00  0.00     0.178 C 
HETATM    6  O2  UNL     1      14.220   9.853   9.660  1.00  0.00    -0.379 OA
HETATM    7  C7  UNL     1      13.165  10.160   8.847  1.00  0.00     0.187 C 
HETATM    8  C8  UNL     1      13.252   9.573   7.461  1.00  0.00     0.144 C 
HETATM    9  N1  UNL     1      14.564   9.785   6.930  1.00  0.00    -0.397 N 
ENDROOT
BRANCH   9  10
HETATM   10  C9  UNL     1      14.765   9.297   5.612  1.00  0.00     0.080 A 
HETATM   11  C10 UNL     1      14.792  10.306   4.494  1.00  0.00     0.027 A 
HETATM   12  C11 UNL     1      13.684   9.298   4.595  1.00  0.00     0.027 A 
ENDBRANCH   9  10
BRANCH   1  13
HETATM   13  C2  UNL     1      16.418   9.833  11.377  1.00  0.00    -0.003 C 
HETATM   14  C1  UNL     1      16.513  11.056  11.869  1.00  0.00     0.009 C 
ENDBRANCH   1  13
TORSDOF 2
ENDMDL
MODEL 3
REMARK VINA RESULT: -4.938810353      1.258      1.509
REMARK  2 active torsions:
REMARK  status: ('A' for Active; 'I' for Inactive)
REMARK    1  A    between atoms: C2_2  and  C3_3 
REMARK    2  A    between atoms: N1_11  and  C9_12 
ROOT
HETATM    1  C3  UNL     1      14.234   9.694   4.835  1.00  0.00     0.174 C 
HETATM    2  O1  UNL     1      13.524   8.600   5.307  1.00  0.00    -0.377 OA
HETATM    3  C4  UNL     1      13.151   8.879   6.639  1.00  0.00     0.196 C 
HETATM    4  C5  UNL     1      13.965  10.038   7.097  1.00  0.00     0.135 C 
HETATM    5  C6  UNL     1      15.087  10.022   6.074  1.00  0.00     0.178 C 
HETATM    6  O2  UNL     1      15.855   8.910   6.317  1.00  0.00    -0.379 OA
HETATM    7  C7  UNL     1      16.432   8.948   7.555  1.00  0.00     0.187 C 
HETATM    8  C8  UNL     1      15.452   9.030   8.699  1.00  0.00     0.144 C 
HETATM    9  N1  UNL     1      14.460  10.020   8.413  1.00  0.00    -0.397 N 
ENDROOT
BRANCH   9  10
HETATM   10  C9  UNL     1      13.490  10.210   9.431  1.00  0.00     0.080 A 
HETATM   11  C10 UNL     1      12.785  11.541   9.481  1.00  0.00     0.027 A 
HETATM   12  C11 UNL     1      13.717  11.122  10.580  1.00  0.00     0.027 A 
ENDBRANCH   9  10
BRANCH   1  13
HETATM   13  C2  UNL     1      15.035   9.313   3.682  1.00  0.00    -0.003 C 
HETATM   14  C1  UNL     1      14.475   9.114   2.501  1.00  0.00     0.009 C 
ENDBRANCH   1  13
TORSDOF 2
ENDMDL
MODEL 4
REMARK VINA RESULT: -4.906308714      3.426      4.850
REMARK  2 active torsions:
REMARK  status: ('A' for Active; 'I' for Inactive)
REMARK    1  A    between atoms: C2_2  and  C3_3 
REMARK    2  A    between atoms: N1_11  and  C9_12 
ROOT
HETATM    1  C3  UNL     1      17.932  11.639   1.956  1.00  0.00     0.174 C 
HETATM    2  O1  UNL     1      17.191  12.745   2.344  1.00  0.00    -0.377 OA
HETATM    3  C4  UNL     1      16.255  12.312   3.306  1.00  0.00     0.196 C 
HETATM    4  C5  UNL     1      16.202  10.826   3.240  1.00  0.00     0.135 C 
HETATM    5  C6  UNL     1      16.820  10.578   1.876  1.00  0.00     0.178 C 
HETATM    6  O2  UNL     1      15.932  11.024   0.928  1.00  0.00    -0.379 OA
HETATM    7  C7  UNL     1      14.751  10.336   0.973  1.00  0.00     0.187 C 
HETATM    8  C8  UNL     1      14.026  10.424   2.292  1.00  0.00     0.144 C 
HETATM    9  N1  UNL     1      14.947  10.202   3.364  1.00  0.00    -0.397 N 
ENDROOT
BRANCH   9  10
HETATM   10  C9  UNL     1      14.377  10.234   4.663  1.00  0.00     0.080 A 
HETATM   11  C10 UNL     1      14.931   9.280   5.690  1.00  0.00     0.027 A 
HETATM   12  C11 UNL     1      13.527   9.133   5.180  1.00  0.00     0.027 A 
ENDBRANCH   9  10
BRANCH   1  13
HETATM   13  C2  UNL     1      18.571  11.887   0.672  1.00  0.00    -0.003 C 
HETATM   14  C1  UNL     1      19.885  11.837   0.546  1.00  0.00     0.009 C 
ENDBRANCH   1  13
TORSDOF 2
ENDMDL
MODEL 5
REMARK VINA RESULT: -4.872140803      1.089      1.208
REMARK  2 active torsions:
REMARK  status: ('A' for Active; 'I' for Inactive)
REMARK    1  A    between atoms: C2_2  and  C3_3 
REMARK    2  A    between atoms: N1_11  and  C9_12 
ROOT
HETATM    1  C3  UNL     1      14.646   9.898   3.591  1.00  0.00     0.174 C 
HETATM    2  O1  UNL     1      13.843   8.806   3.884  1.00  0.00    -0.377 OA
HETATM    3  C4  UNL     1      13.317   9.001   5.179  1.00  0.00     0.196 C 
HETATM    4  C5  UNL     1      14.109  10.084   5.823  1.00  0.00     0.135 C 
HETATM    5  C6  UNL     1      15.348  10.093   4.947  1.00  0.00     0.178 C 
HETATM    6  O2  UNL     1      16.040   8.932   5.191  1.00  0.00    -0.379 OA
HETATM    7  C7  UNL     1      16.458   8.852   6.490  1.00  0.00     0.187 C 
HETATM    8  C8  UNL     1      15.347   8.892   7.509  1.00  0.00     0.144 C 
HETATM    9  N1  UNL     1      14.435   9.946   7.184  1.00  0.00    -0.397 N 
ENDROOT
BRANCH   9  10
HETATM   10  C9  UNL     1      13.352  10.103   8.089  1.00  0.00     0.080 A 
HETATM   11  C10 UNL     1      13.489  11.153   9.160  1.00  0.00     0.027 A 
HETATM   12  C11 UNL     1      13.446   9.695   9.512  1.00  0.00     0.027 A 
ENDBRANCH   9  10
BRANCH   1  13
HETATM   13  C2  UNL     1      15.570   9.568   2.517  1.00  0.00    -0.003 C 
HETATM   14  C1  UNL     1      15.891  10.461   1.597  1.00  0.00     0.009 C 
ENDBRANCH   1  13
TORSDOF 2
ENDMDL
