MODEL 1
REMARK VINA RESULT: -9.379208790      0.000      0.000
REMARK  8 active torsions:
REMARK  status: ('A' for Active; 'I' for Inactive)
REMARK    1  A    between atoms: C5_5  and  N1_6 
REMARK    2  A    between atoms: N1_6  and  C6_9 
REMARK    3  A    between atoms: C6_9  and  C7_10 
REMARK    4  A    between atoms: C7_10  and  C8_11 
REMARK    5  A    between atoms: C8_11  and  N2_12 
REMARK    6  A    between atoms: N2_12  and  C9_15 
REMARK    7  A    between atoms: C9_15  and  C10_16 
REMARK    8  A    between atoms: C10_16  and  C11_17 
ROOT
HETATM    1  C1  UNL     1     -10.863 -28.196   2.435  1.00  0.00     0.018 C 
HETATM    2  C2  UNL     1      -9.582 -27.372   2.658  1.00  0.00    -0.014 C 
HETATM    3  C3  UNL     1      -8.633 -28.282   3.357  1.00  0.00     0.018 C 
HETATM    4  C4  UNL     1      -9.896 -26.181   3.529  1.00  0.00     0.054 C 
HETATM    5  C5  UNL     1      -8.631 -25.475   3.939  1.00  0.00     0.277 C 
HETATM    6  C17 UNL     1      -7.632 -25.519   2.819  1.00  0.00     0.249 C 
HETATM    7  O1  UNL     1      -6.439 -25.284   3.048  1.00  0.00    -0.271 OA
HETATM    8  N3  UNL     1      -8.104 -25.831   1.543  1.00  0.00    -0.344 N 
ATOM      9  H3  UNL     1      -7.757 -25.306   0.741  1.00  0.00     0.163 HD
HETATM   10  C18 UNL     1      -9.087 -26.896   1.328  1.00  0.00     0.083 C 
HETATM   11  C19 UNL     1     -10.179 -26.340   0.474  1.00  0.00     0.043 C 
HETATM   12  C20 UNL     1     -10.328 -27.266  -0.692  1.00  0.00     0.043 C 
HETATM   13  C21 UNL     1      -9.131 -28.102  -0.682  1.00  0.00    -0.033 A 
HETATM   14  C22 UNL     1      -8.617 -29.013  -1.617  1.00  0.00     0.010 A 
HETATM   15  C23 UNL     1      -7.455 -29.664  -1.327  1.00  0.00     0.018 A 
HETATM   16  C24 UNL     1      -6.763 -29.462  -0.147  1.00  0.00     0.088 A 
HETATM   17  N4  UNL     1      -7.280 -28.583   0.727  1.00  0.00    -0.367 N 
ATOM     18  H4  UNL     1      -6.788 -28.415   1.604  1.00  0.00     0.165 HD
HETATM   19  C25 UNL     1      -8.441 -27.906   0.482  1.00  0.00     0.044 A 
ENDROOT
BRANCH   5  20
HETATM   20  N1  UNL     1      -8.892 -24.031   4.133  1.00  0.00    -0.062 N 
ATOM     21  H12 UNL     1      -8.504 -23.458   3.384  1.00  0.00     0.278 HD
ATOM     22  H11 UNL     1      -9.873 -23.788   4.000  1.00  0.00     0.278 HD
BRANCH  20  23
HETATM   23  C6  UNL     1      -8.397 -23.650   5.436  1.00  0.00     0.235 C 
BRANCH  23  24
HETATM   24  C7  UNL     1      -7.263 -22.644   5.322  1.00  0.00     0.055 C 
BRANCH  24  25
HETATM   25  C8  UNL     1      -6.136 -23.089   6.191  1.00  0.00     0.233 C 
BRANCH  25  26
HETATM   26  N2  UNL     1      -5.096 -23.734   5.460  1.00  0.00    -0.075 N 
ATOM     27  H22 UNL     1      -5.153 -24.750   5.543  1.00  0.00     0.277 HD
ATOM     28  H21 UNL     1      -5.238 -23.651   4.453  1.00  0.00     0.277 HD
BRANCH  26  29
HETATM   29  C9  UNL     1      -3.787 -23.241   5.857  1.00  0.00     0.232 C 
BRANCH  29  30
HETATM   30  C10 UNL     1      -3.747 -22.586   7.206  1.00  0.00     0.032 C 
BRANCH  30  31
HETATM   31  C11 UNL     1      -2.296 -22.517   7.619  1.00  0.00    -0.013 C 
HETATM   32  C12 UNL     1      -1.339 -23.007   6.522  1.00  0.00     0.005 C 
HETATM   33  C13 UNL     1      -0.012 -23.192   7.291  1.00  0.00     0.000 C 
HETATM   34  C14 UNL     1       0.445 -21.858   7.779  1.00  0.00     0.000 C 
HETATM   35  C15 UNL     1      -0.570 -21.055   8.519  1.00  0.00     0.000 C 
HETATM   36  C16 UNL     1      -1.895 -21.037   7.785  1.00  0.00     0.005 C 
ENDBRANCH  30  31
ENDBRANCH  29  30
ENDBRANCH  26  29
ENDBRANCH  25  26
ENDBRANCH  24  25
ENDBRANCH  23  24
ENDBRANCH  20  23
ENDBRANCH   5  20
TORSDOF 8
ENDMDL
MODEL 2
REMARK VINA RESULT: -9.321045475      1.303      1.889
REMARK  8 active torsions:
REMARK  status: ('A' for Active; 'I' for Inactive)
REMARK    1  A    between atoms: C5_5  and  N1_6 
REMARK    2  A    between atoms: N1_6  and  C6_9 
REMARK    3  A    between atoms: C6_9  and  C7_10 
REMARK    4  A    between atoms: C7_10  and  C8_11 
REMARK    5  A    between atoms: C8_11  and  N2_12 
REMARK    6  A    between atoms: N2_12  and  C9_15 
REMARK    7  A    between atoms: C9_15  and  C10_16 
REMARK    8  A    between atoms: C10_16  and  C11_17 
ROOT
HETATM    1  C1  UNL     1     -11.018 -26.050   2.737  1.00  0.00     0.018 C 
HETATM    2  C2  UNL     1      -9.610 -26.025   3.360  1.00  0.00    -0.014 C 
HETATM    3  C3  UNL     1      -9.560 -27.185   4.292  1.00  0.00     0.018 C 
HETATM    4  C4  UNL     1      -9.422 -24.737   4.123  1.00  0.00     0.054 C 
HETATM    5  C5  UNL     1      -8.142 -24.772   4.916  1.00  0.00     0.277 C 
HETATM    6  C17 UNL     1      -7.085 -25.517   4.153  1.00  0.00     0.249 C 
HETATM    7  O1  UNL     1      -6.078 -25.931   4.741  1.00  0.00    -0.271 OA
HETATM    8  N3  UNL     1      -7.291 -25.714   2.786  1.00  0.00    -0.344 N 
ATOM      9  H3  UNL     1      -6.512 -25.588   2.142  1.00  0.00     0.163 HD
HETATM   10  C18 UNL     1      -8.602 -26.098   2.256  1.00  0.00     0.083 C 
HETATM   11  C19 UNL     1      -8.921 -25.178   1.124  1.00  0.00     0.043 C 
HETATM   12  C20 UNL     1      -9.246 -26.041  -0.055  1.00  0.00     0.043 C 
HETATM   13  C21 UNL     1      -8.777 -27.378   0.299  1.00  0.00    -0.033 A 
HETATM   14  C22 UNL     1      -8.635 -28.552  -0.457  1.00  0.00     0.010 A 
HETATM   15  C23 UNL     1      -8.164 -29.674   0.158  1.00  0.00     0.018 A 
HETATM   16  C24 UNL     1      -7.821 -29.702   1.497  1.00  0.00     0.088 A 
HETATM   17  N4  UNL     1      -7.968 -28.562   2.193  1.00  0.00    -0.367 N 
ATOM     18  H4  UNL     1      -7.720 -28.555   3.183  1.00  0.00     0.165 HD
HETATM   19  C25 UNL     1      -8.435 -27.412   1.623  1.00  0.00     0.044 A 
ENDROOT
BRANCH   5  20
HETATM   20  N1  UNL     1      -7.590 -23.406   5.057  1.00  0.00    -0.062 N 
ATOM     21  H12 UNL     1      -6.883 -23.195   4.354  1.00  0.00     0.278 HD
ATOM     22  H11 UNL     1      -8.262 -22.683   4.799  1.00  0.00     0.278 HD
BRANCH  20  23
HETATM   23  C6  UNL     1      -7.097 -23.251   6.406  1.00  0.00     0.235 C 
BRANCH  23  24
HETATM   24  C7  UNL     1      -5.832 -22.409   6.436  1.00  0.00     0.055 C 
BRANCH  24  25
HETATM   25  C8  UNL     1      -4.718 -23.193   5.827  1.00  0.00     0.233 C 
BRANCH  25  26
HETATM   26  N2  UNL     1      -3.450 -22.561   5.980  1.00  0.00    -0.075 N 
ATOM     27  H22 UNL     1      -2.770 -22.916   5.307  1.00  0.00     0.277 HD
ATOM     28  H21 UNL     1      -3.477 -21.587   5.674  1.00  0.00     0.277 HD
BRANCH  26  29
HETATM   29  C9  UNL     1      -2.961 -22.678   7.343  1.00  0.00     0.232 C 
BRANCH  29  30
HETATM   30  C10 UNL     1      -2.202 -21.484   7.843  1.00  0.00     0.032 C 
BRANCH  30  31
HETATM   31  C11 UNL     1      -0.757 -21.686   7.455  1.00  0.00    -0.013 C 
HETATM   32  C12 UNL     1       0.223 -21.061   8.459  1.00  0.00     0.005 C 
HETATM   33  C13 UNL     1       1.555 -21.067   7.677  1.00  0.00     0.000 C 
HETATM   34  C14 UNL     1       1.952 -22.483   7.425  1.00  0.00     0.000 C 
HETATM   35  C15 UNL     1       0.900 -23.354   6.826  1.00  0.00     0.000 C 
HETATM   36  C16 UNL     1      -0.423 -23.189   7.544  1.00  0.00     0.005 C 
ENDBRANCH  30  31
ENDBRANCH  29  30
ENDBRANCH  26  29
ENDBRANCH  25  26
ENDBRANCH  24  25
ENDBRANCH  23  24
ENDBRANCH  20  23
ENDBRANCH   5  20
TORSDOF 8
ENDMDL
MODEL 3
REMARK VINA RESULT: -9.246126256      1.855      2.590
REMARK  8 active torsions:
REMARK  status: ('A' for Active; 'I' for Inactive)
REMARK    1  A    between atoms: C5_5  and  N1_6 
REMARK    2  A    between atoms: N1_6  and  C6_9 
REMARK    3  A    between atoms: C6_9  and  C7_10 
REMARK    4  A    between atoms: C7_10  and  C8_11 
REMARK    5  A    between atoms: C8_11  and  N2_12 
REMARK    6  A    between atoms: N2_12  and  C9_15 
REMARK    7  A    between atoms: C9_15  and  C10_16 
REMARK    8  A    between atoms: C10_16  and  C11_17 
ROOT
HETATM    1  C1  UNL     1     -10.685 -28.859   1.097  1.00  0.00     0.018 C 
HETATM    2  C2  UNL     1     -10.009 -27.480   0.983  1.00  0.00    -0.014 C 
HETATM    3  C3  UNL     1      -8.621 -27.748   0.515  1.00  0.00     0.018 C 
HETATM    4  C4  UNL     1      -9.981 -26.822   2.340  1.00  0.00     0.054 C 
HETATM    5  C5  UNL     1      -9.143 -25.571   2.306  1.00  0.00     0.277 C 
HETATM    6  C17 UNL     1      -9.308 -24.878   0.984  1.00  0.00     0.249 C 
HETATM    7  O1  UNL     1      -8.486 -24.024   0.629  1.00  0.00    -0.271 OA
HETATM    8  N3  UNL     1     -10.404 -25.238   0.197  1.00  0.00    -0.344 N 
ATOM      9  H3  UNL     1     -10.935 -24.510  -0.280  1.00  0.00     0.163 HD
HETATM   10  C18 UNL     1     -10.809 -26.637   0.040  1.00  0.00     0.083 C 
HETATM   11  C19 UNL     1     -12.277 -26.716   0.302  1.00  0.00     0.043 C 
HETATM   12  C20 UNL     1     -12.890 -27.394  -0.883  1.00  0.00     0.043 C 
HETATM   13  C21 UNL     1     -11.864 -27.368  -1.922  1.00  0.00    -0.033 A 
HETATM   14  C22 UNL     1     -11.907 -27.678  -3.290  1.00  0.00     0.010 A 
HETATM   15  C23 UNL     1     -10.765 -27.561  -4.025  1.00  0.00     0.018 A 
HETATM   16  C24 UNL     1      -9.565 -27.148  -3.476  1.00  0.00     0.088 A 
HETATM   17  N4  UNL     1      -9.556 -26.859  -2.164  1.00  0.00    -0.367 N 
ATOM     18  H4  UNL     1      -8.684 -26.551  -1.734  1.00  0.00     0.165 HD
HETATM   19  C25 UNL     1     -10.674 -26.961  -1.386  1.00  0.00     0.044 A 
ENDROOT
BRANCH   5  20
HETATM   20  N1  UNL     1      -9.648 -24.590   3.292  1.00  0.00    -0.062 N 
ATOM     21  H12 UNL     1      -9.655 -23.637   2.930  1.00  0.00     0.278 HD
ATOM     22  H11 UNL     1     -10.650 -24.682   3.460  1.00  0.00     0.278 HD
BRANCH  20  23
HETATM   23  C6  UNL     1      -8.869 -24.719   4.502  1.00  0.00     0.235 C 
BRANCH  23  24
HETATM   24  C7  UNL     1      -8.162 -23.417   4.842  1.00  0.00     0.055 C 
BRANCH  24  25
HETATM   25  C8  UNL     1      -6.947 -23.726   5.651  1.00  0.00     0.233 C 
BRANCH  25  26
HETATM   26  N2  UNL     1      -5.849 -24.162   4.853  1.00  0.00    -0.075 N 
ATOM     27  H22 UNL     1      -5.893 -25.165   4.671  1.00  0.00     0.277 HD
ATOM     28  H21 UNL     1      -5.925 -23.825   3.893  1.00  0.00     0.277 HD
BRANCH  26  29
HETATM   29  C9  UNL     1      -4.579 -23.784   5.451  1.00  0.00     0.232 C 
BRANCH  29  30
HETATM   30  C10 UNL     1      -4.627 -22.542   6.291  1.00  0.00     0.032 C 
BRANCH  30  31
HETATM   31  C11 UNL     1      -3.199 -22.174   6.615  1.00  0.00    -0.013 C 
HETATM   32  C12 UNL     1      -3.017 -21.717   8.071  1.00  0.00     0.005 C 
HETATM   33  C13 UNL     1      -1.618 -21.062   8.045  1.00  0.00     0.000 C 
HETATM   34  C14 UNL     1      -0.606 -22.112   7.732  1.00  0.00     0.000 C 
HETATM   35  C15 UNL     1      -0.895 -22.956   6.537  1.00  0.00     0.000 C 
HETATM   36  C16 UNL     1      -2.329 -23.445   6.545  1.00  0.00     0.005 C 
ENDBRANCH  30  31
ENDBRANCH  29  30
ENDBRANCH  26  29
ENDBRANCH  25  26
ENDBRANCH  24  25
ENDBRANCH  23  24
ENDBRANCH  20  23
ENDBRANCH   5  20
TORSDOF 8
ENDMDL
MODEL 4
REMARK VINA RESULT: -9.195038208      1.897      2.474
REMARK  8 active torsions:
REMARK  status: ('A' for Active; 'I' for Inactive)
REMARK    1  A    between atoms: C5_5  and  N1_6 
REMARK    2  A    between atoms: N1_6  and  C6_9 
REMARK    3  A    between atoms: C6_9  and  C7_10 
REMARK    4  A    between atoms: C7_10  and  C8_11 
REMARK    5  A    between atoms: C8_11  and  N2_12 
REMARK    6  A    between atoms: N2_12  and  C9_15 
REMARK    7  A    between atoms: C9_15  and  C10_16 
REMARK    8  A    between atoms: C10_16  and  C11_17 
ROOT
HETATM    1  C1  UNL     1     -10.678 -28.859   0.974  1.00  0.00     0.018 C 
HETATM    2  C2  UNL     1     -10.009 -27.475   0.889  1.00  0.00    -0.014 C 
HETATM    3  C3  UNL     1      -8.630 -27.722   0.386  1.00  0.00     0.018 C 
HETATM    4  C4  UNL     1      -9.956 -26.858   2.265  1.00  0.00     0.054 C 
HETATM    5  C5  UNL     1      -9.123 -25.603   2.253  1.00  0.00     0.277 C 
HETATM    6  C17 UNL     1      -9.316 -24.871   0.956  1.00  0.00     0.249 C 
HETATM    7  O1  UNL     1      -8.505 -24.003   0.612  1.00  0.00    -0.271 OA
HETATM    8  N3  UNL     1     -10.427 -25.211   0.181  1.00  0.00    -0.344 N 
ATOM      9  H3  UNL     1     -10.970 -24.470  -0.263  1.00  0.00     0.163 HD
HETATM   10  C18 UNL     1     -10.830 -26.606  -0.011  1.00  0.00     0.083 C 
HETATM   11  C19 UNL     1     -12.293 -26.699   0.277  1.00  0.00     0.043 C 
HETATM   12  C20 UNL     1     -12.927 -27.342  -0.916  1.00  0.00     0.043 C 
HETATM   13  C21 UNL     1     -11.922 -27.281  -1.974  1.00  0.00    -0.033 A 
HETATM   14  C22 UNL     1     -11.991 -27.549  -3.349  1.00  0.00     0.010 A 
HETATM   15  C23 UNL     1     -10.864 -27.404  -4.103  1.00  0.00     0.018 A 
HETATM   16  C24 UNL     1      -9.655 -27.004  -3.565  1.00  0.00     0.088 A 
HETATM   17  N4  UNL     1      -9.621 -26.755  -2.246  1.00  0.00    -0.367 N 
ATOM     18  H4  UNL     1      -8.741 -26.457  -1.824  1.00  0.00     0.165 HD
HETATM   19  C25 UNL     1     -10.723 -26.885  -1.449  1.00  0.00     0.044 A 
ENDROOT
BRANCH   5  20
HETATM   20  N1  UNL     1      -9.612 -24.655   3.279  1.00  0.00    -0.062 N 
ATOM     21  H12 UNL     1      -9.672 -23.698   2.932  1.00  0.00     0.278 HD
ATOM     22  H11 UNL     1     -10.600 -24.787   3.496  1.00  0.00     0.278 HD
BRANCH  20  23
HETATM   23  C6  UNL     1      -8.766 -24.771   4.445  1.00  0.00     0.235 C 
BRANCH  23  24
HETATM   24  C7  UNL     1      -8.079 -23.451   4.759  1.00  0.00     0.055 C 
BRANCH  24  25
HETATM   25  C8  UNL     1      -6.726 -23.735   5.317  1.00  0.00     0.233 C 
BRANCH  25  26
HETATM   26  N2  UNL     1      -6.296 -22.749   6.253  1.00  0.00    -0.075 N 
ATOM     27  H22 UNL     1      -6.628 -21.819   5.997  1.00  0.00     0.277 HD
ATOM     28  H21 UNL     1      -6.777 -22.846   7.147  1.00  0.00     0.277 HD
BRANCH  26  29
HETATM   29  C9  UNL     1      -4.853 -22.773   6.420  1.00  0.00     0.232 C 
BRANCH  29  30
HETATM   30  C10 UNL     1      -4.341 -21.959   7.571  1.00  0.00     0.032 C 
BRANCH  30  31
HETATM   31  C11 UNL     1      -2.869 -22.266   7.710  1.00  0.00    -0.013 C 
HETATM   32  C12 UNL     1      -2.288 -22.968   6.473  1.00  0.00     0.005 C 
HETATM   33  C13 UNL     1      -0.931 -23.494   6.992  1.00  0.00     0.000 C 
HETATM   34  C14 UNL     1      -0.070 -22.327   7.341  1.00  0.00     0.000 C 
HETATM   35  C15 UNL     1      -0.695 -21.302   8.226  1.00  0.00     0.000 C 
HETATM   36  C16 UNL     1      -2.085 -20.939   7.748  1.00  0.00     0.005 C 
ENDBRANCH  30  31
ENDBRANCH  29  30
ENDBRANCH  26  29
ENDBRANCH  25  26
ENDBRANCH  24  25
ENDBRANCH  23  24
ENDBRANCH  20  23
ENDBRANCH   5  20
TORSDOF 8
ENDMDL
MODEL 5
REMARK VINA RESULT: -9.135791023      1.849      2.992
REMARK  8 active torsions:
REMARK  status: ('A' for Active; 'I' for Inactive)
REMARK    1  A    between atoms: C5_5  and  N1_6 
REMARK    2  A    between atoms: N1_6  and  C6_9 
REMARK    3  A    between atoms: C6_9  and  C7_10 
REMARK    4  A    between atoms: C7_10  and  C8_11 
REMARK    5  A    between atoms: C8_11  and  N2_12 
REMARK    6  A    between atoms: N2_12  and  C9_15 
REMARK    7  A    between atoms: C9_15  and  C10_16 
REMARK    8  A    between atoms: C10_16  and  C11_17 
ROOT
HETATM    1  C1  UNL     1      -8.408 -26.789  -0.811  1.00  0.00     0.018 C 
HETATM    2  C2  UNL     1      -8.933 -26.330   0.561  1.00  0.00    -0.014 C 
HETATM    3  C3  UNL     1      -9.502 -24.972   0.343  1.00  0.00     0.018 C 
HETATM    4  C4  UNL     1      -7.786 -26.260   1.540  1.00  0.00     0.054 C 
HETATM    5  C5  UNL     1      -8.226 -25.616   2.827  1.00  0.00     0.277 C 
HETATM    6  C17 UNL     1      -9.640 -26.007   3.142  1.00  0.00     0.249 C 
HETATM    7  O1  UNL     1     -10.292 -25.354   3.966  1.00  0.00    -0.271 OA
HETATM    8  N3  UNL     1     -10.169 -27.114   2.474  1.00  0.00    -0.344 N 
ATOM      9  H3  UNL     1     -10.730 -27.788   2.994  1.00  0.00     0.163 HD
HETATM   10  C18 UNL     1      -9.935 -27.331   1.045  1.00  0.00     0.083 C 
HETATM   11  C19 UNL     1      -9.471 -28.740   0.869  1.00  0.00     0.043 C 
HETATM   12  C20 UNL     1     -10.371 -29.366  -0.150  1.00  0.00     0.043 C 
HETATM   13  C21 UNL     1     -11.512 -28.462  -0.272  1.00  0.00    -0.033 A 
HETATM   14  C22 UNL     1     -12.750 -28.597  -0.919  1.00  0.00     0.010 A 
HETATM   15  C23 UNL     1     -13.635 -27.562  -0.863  1.00  0.00     0.018 A 
HETATM   16  C24 UNL     1     -13.362 -26.383  -0.193  1.00  0.00     0.088 A 
HETATM   17  N4  UNL     1     -12.169 -26.285   0.417  1.00  0.00    -0.367 N 
ATOM     18  H4  UNL     1     -11.943 -25.427   0.919  1.00  0.00     0.165 HD
HETATM   19  C25 UNL     1     -11.249 -27.295   0.389  1.00  0.00     0.044 A 
ENDROOT
BRANCH   5  20
HETATM   20  N1  UNL     1      -7.442 -26.154   3.962  1.00  0.00    -0.062 N 
ATOM     21  H12 UNL     1      -8.031 -26.450   4.740  1.00  0.00     0.278 HD
ATOM     22  H11 UNL     1      -7.021 -27.059   3.754  1.00  0.00     0.278 HD
BRANCH  20  23
HETATM   23  C6  UNL     1      -6.464 -25.163   4.350  1.00  0.00     0.235 C 
BRANCH  23  24
HETATM   24  C7  UNL     1      -7.040 -24.193   5.370  1.00  0.00     0.055 C 
BRANCH  24  25
HETATM   25  C8  UNL     1      -5.947 -23.301   5.855  1.00  0.00     0.233 C 
BRANCH  25  26
HETATM   26  N2  UNL     1      -4.651 -23.759   5.475  1.00  0.00    -0.075 N 
ATOM     27  H22 UNL     1      -4.469 -24.701   5.822  1.00  0.00     0.277 HD
ATOM     28  H21 UNL     1      -4.599 -23.948   4.474  1.00  0.00     0.277 HD
BRANCH  26  29
HETATM   29  C9  UNL     1      -3.618 -22.827   5.896  1.00  0.00     0.232 C 
BRANCH  29  30
HETATM   30  C10 UNL     1      -3.537 -22.608   7.378  1.00  0.00     0.032 C 
BRANCH  30  31
HETATM   31  C11 UNL     1      -2.076 -22.443   7.721  1.00  0.00    -0.013 C 
HETATM   32  C12 UNL     1      -1.143 -22.930   6.603  1.00  0.00     0.005 C 
HETATM   33  C13 UNL     1       0.225 -23.008   7.317  1.00  0.00     0.000 C 
HETATM   34  C14 UNL     1       0.629 -21.631   7.725  1.00  0.00     0.000 C 
HETATM   35  C15 UNL     1      -0.397 -20.851   8.475  1.00  0.00     0.000 C 
HETATM   36  C16 UNL     1      -1.751 -20.937   7.804  1.00  0.00     0.005 C 
ENDBRANCH  30  31
ENDBRANCH  29  30
ENDBRANCH  26  29
ENDBRANCH  25  26
ENDBRANCH  24  25
ENDBRANCH  23  24
ENDBRANCH  20  23
ENDBRANCH   5  20
TORSDOF 8
ENDMDL
