MODEL 1
REMARK VINA RESULT: -7.956701215      0.000      0.000
REMARK  3 active torsions:
REMARK  status: ('A' for Active; 'I' for Inactive)
REMARK    1  A    between atoms: C3_4  and  C4_5 
REMARK    2  A    between atoms: C7_8  and  C8_9 
REMARK    3  A    between atoms: C9_10  and  C10_11 
ROOT
HETATM    1  N1  UNL     1      20.159  -0.834  10.762  1.00  0.00    -0.182 NA
HETATM    2  C1  UNL     1      19.304  -1.473  11.188  1.00  0.00     0.152 C 
HETATM    3  C2  UNL     1      18.246  -2.273  11.693  1.00  0.00     0.018 C 
HETATM    4  C3  UNL     1      17.355  -2.969  12.113  1.00  0.00    -0.051 C 
ENDROOT
BRANCH   4   5
HETATM    5  C4  UNL     1      16.303  -3.824  12.615  1.00  0.00     0.020 A 
HETATM    6  C5  UNL     1      16.077  -5.089  12.132  1.00  0.00     0.022 A 
HETATM    7  C6  UNL     1      15.056  -5.851  12.654  1.00  0.00     0.024 A 
HETATM    8  C7  UNL     1      14.224  -5.401  13.666  1.00  0.00     0.038 A 
HETATM    9  C16 UNL     1      14.449  -4.131  14.153  1.00  0.00     0.064 A 
HETATM   10  C17 UNL     1      13.613  -3.607  15.210  1.00  0.00     0.101 C 
HETATM   11  C18 UNL     1      15.481  -3.359  13.625  1.00  0.00     0.044 A 
HETATM   12  N6  UNL     1      12.948  -3.166  16.058  1.00  0.00    -0.191 NA
BRANCH   8  13
HETATM   13  C8  UNL     1      13.164  -6.240  14.184  1.00  0.00    -0.062 C 
HETATM   14  C9  UNL     1      12.288  -6.957  14.606  1.00  0.00    -0.052 C 
BRANCH  14  15
HETATM   15  C10 UNL     1      11.234  -7.850  15.121  1.00  0.00     0.202 C 
HETATM   16  C11 UNL     1       9.951  -7.412  14.548  1.00  0.00     0.106 C 
HETATM   17  N2  UNL     1       8.939  -7.067  14.077  1.00  0.00    -0.193 NA
HETATM   18  C12 UNL     1      11.534  -9.226  14.587  1.00  0.00     0.072 C 
HETATM   19  C13 UNL     1      10.515 -10.262  14.931  1.00  0.00     0.087 C 
HETATM   20  S1  UNL     1      10.629 -10.505  16.747  1.00  0.00    -0.093 SA
HETATM   21  C14 UNL     1      10.971  -8.879  17.410  1.00  0.00     0.151 C 
HETATM   22  N3  UNL     1      10.999  -8.780  18.693  1.00  0.00    -0.379 N 
HETATM   23  N4  UNL     1      11.196  -7.777  16.544  1.00  0.00    -0.229 N 
ATOM     24  H32 UNL     1      10.839  -9.572  19.316  1.00  0.00     0.158 HD
ATOM     25  H31 UNL     1      11.194  -7.852  19.071  1.00  0.00     0.158 HD
HETATM   26  C15 UNL     1      11.392  -6.528  17.139  1.00  0.00     0.188 C 
HETATM   27  N5  UNL     1      11.546  -5.498  17.649  1.00  0.00    -0.172 NA
ENDBRANCH  14  15
ENDBRANCH   8  13
ENDBRANCH   4   5
TORSDOF 3
ENDMDL
MODEL 2
REMARK VINA RESULT: -7.726856877      1.162      1.299
REMARK  3 active torsions:
REMARK  status: ('A' for Active; 'I' for Inactive)
REMARK    1  A    between atoms: C3_4  and  C4_5 
REMARK    2  A    between atoms: C7_8  and  C8_9 
REMARK    3  A    between atoms: C9_10  and  C10_11 
ROOT
HETATM    1  N1  UNL     1      20.072  -1.034  10.800  1.00  0.00    -0.182 NA
HETATM    2  C1  UNL     1      19.236  -1.673  11.262  1.00  0.00     0.152 C 
HETATM    3  C2  UNL     1      18.199  -2.471  11.812  1.00  0.00     0.018 C 
HETATM    4  C3  UNL     1      17.324  -3.164  12.269  1.00  0.00    -0.051 C 
ENDROOT
BRANCH   4   5
HETATM    5  C4  UNL     1      16.290  -4.016  12.810  1.00  0.00     0.020 A 
HETATM    6  C5  UNL     1      16.535  -4.973  13.764  1.00  0.00     0.022 A 
HETATM    7  C6  UNL     1      15.503  -5.751  14.237  1.00  0.00     0.024 A 
HETATM    8  C7  UNL     1      14.197  -5.620  13.793  1.00  0.00     0.038 A 
HETATM    9  C16 UNL     1      13.948  -4.660  12.835  1.00  0.00     0.064 A 
HETATM   10  C17 UNL     1      12.605  -4.476  12.334  1.00  0.00     0.101 C 
HETATM   11  C18 UNL     1      14.992  -3.872  12.356  1.00  0.00     0.044 A 
HETATM   12  N6  UNL     1      11.529  -4.316  11.915  1.00  0.00    -0.191 NA
BRANCH   8  13
HETATM   13  C8  UNL     1      13.145  -6.462  14.321  1.00  0.00    -0.062 C 
HETATM   14  C9  UNL     1      12.281  -7.178  14.771  1.00  0.00    -0.052 C 
BRANCH  14  15
HETATM   15  C10 UNL     1      11.242  -8.056  15.339  1.00  0.00     0.202 C 
HETATM   16  C11 UNL     1       9.959  -7.699  14.713  1.00  0.00     0.106 C 
HETATM   17  N2  UNL     1       8.947  -7.420  14.201  1.00  0.00    -0.193 NA
HETATM   18  C12 UNL     1      11.587  -9.461  14.919  1.00  0.00     0.072 C 
HETATM   19  C13 UNL     1      10.590 -10.494  15.328  1.00  0.00     0.087 C 
HETATM   20  S1  UNL     1      10.678 -10.591  17.160  1.00  0.00    -0.093 SA
HETATM   21  C14 UNL     1      10.966  -8.910  17.697  1.00  0.00     0.151 C 
HETATM   22  N3  UNL     1      10.970  -8.709  18.969  1.00  0.00    -0.379 N 
HETATM   23  N4  UNL     1      11.177  -7.873  16.751  1.00  0.00    -0.229 N 
ATOM     24  H32 UNL     1      10.819  -9.454  19.649  1.00  0.00     0.158 HD
ATOM     25  H31 UNL     1      11.134  -7.750  19.276  1.00  0.00     0.158 HD
HETATM   26  C15 UNL     1      11.331  -6.577  17.248  1.00  0.00     0.188 C 
HETATM   27  N5  UNL     1      11.449  -5.506  17.678  1.00  0.00    -0.172 NA
ENDBRANCH  14  15
ENDBRANCH   8  13
ENDBRANCH   4   5
TORSDOF 3
ENDMDL
MODEL 3
REMARK VINA RESULT: -7.083640133      4.206      7.927
REMARK  3 active torsions:
REMARK  status: ('A' for Active; 'I' for Inactive)
REMARK    1  A    between atoms: C3_4  and  C4_5 
REMARK    2  A    between atoms: C7_8  and  C8_9 
REMARK    3  A    between atoms: C9_10  and  C10_11 
ROOT
HETATM    1  N1  UNL     1       5.451  -4.750  13.292  1.00  0.00    -0.182 NA
HETATM    2  C1  UNL     1       6.599  -4.716  13.340  1.00  0.00     0.152 C 
HETATM    3  C2  UNL     1       8.015  -4.679  13.423  1.00  0.00     0.018 C 
HETATM    4  C3  UNL     1       9.219  -4.666  13.504  1.00  0.00    -0.051 C 
ENDROOT
BRANCH   4   5
HETATM    5  C4  UNL     1      10.661  -4.674  13.605  1.00  0.00     0.020 A 
HETATM    6  C5  UNL     1      11.485  -4.689  12.506  1.00  0.00     0.022 A 
HETATM    7  C6  UNL     1      12.851  -4.697  12.674  1.00  0.00     0.024 A 
HETATM    8  C7  UNL     1      13.457  -4.689  13.919  1.00  0.00     0.038 A 
HETATM    9  C16 UNL     1      12.631  -4.675  15.024  1.00  0.00     0.064 A 
HETATM   10  C17 UNL     1      13.206  -4.667  16.350  1.00  0.00     0.101 C 
HETATM   11  C18 UNL     1      11.249  -4.667  14.856  1.00  0.00     0.044 A 
HETATM   12  N6  UNL     1      13.650  -4.664  17.427  1.00  0.00    -0.191 NA
BRANCH   8  13
HETATM   13  C8  UNL     1      14.899  -4.698  14.044  1.00  0.00    -0.062 C 
HETATM   14  C9  UNL     1      16.103  -4.726  14.147  1.00  0.00    -0.052 C 
BRANCH  14  15
HETATM   15  C10 UNL     1      17.572  -4.781  14.261  1.00  0.00     0.202 C 
HETATM   16  C11 UNL     1      18.052  -5.860  13.384  1.00  0.00     0.106 C 
HETATM   17  N2  UNL     1      18.426  -6.709  12.674  1.00  0.00    -0.193 NA
HETATM   18  C12 UNL     1      18.097  -3.476  13.720  1.00  0.00     0.072 C 
HETATM   19  C13 UNL     1      19.585  -3.380  13.669  1.00  0.00     0.087 C 
HETATM   20  S1  UNL     1      20.154  -3.347  15.415  1.00  0.00    -0.093 SA
HETATM   21  C14 UNL     1      19.044  -4.448  16.283  1.00  0.00     0.151 C 
HETATM   22  N3  UNL     1      19.309  -4.664  17.524  1.00  0.00    -0.379 N 
HETATM   23  N4  UNL     1      17.939  -5.036  15.615  1.00  0.00    -0.229 N 
ATOM     24  H32 UNL     1      20.102  -4.241  18.005  1.00  0.00     0.158 HD
ATOM     25  H31 UNL     1      18.675  -5.292  18.019  1.00  0.00     0.158 HD
HETATM   26  C15 UNL     1      17.157  -5.935  16.344  1.00  0.00     0.188 C 
HETATM   27  N5  UNL     1      16.523  -6.684  16.962  1.00  0.00    -0.172 NA
ENDBRANCH  14  15
ENDBRANCH   8  13
ENDBRANCH   4   5
TORSDOF 3
ENDMDL
MODEL 4
REMARK VINA RESULT: -6.855032101      3.961      8.542
REMARK  3 active torsions:
REMARK  status: ('A' for Active; 'I' for Inactive)
REMARK    1  A    between atoms: C3_4  and  C4_5 
REMARK    2  A    between atoms: C7_8  and  C8_9 
REMARK    3  A    between atoms: C9_10  and  C10_11 
ROOT
HETATM    1  N1  UNL     1       5.529  -5.194  13.397  1.00  0.00    -0.182 NA
HETATM    2  C1  UNL     1       6.666  -5.032  13.358  1.00  0.00     0.152 C 
HETATM    3  C2  UNL     1       8.067  -4.817  13.293  1.00  0.00     0.018 C 
HETATM    4  C3  UNL     1       9.255  -4.613  13.237  1.00  0.00    -0.051 C 
ENDROOT
BRANCH   4   5
HETATM    5  C4  UNL     1      10.674  -4.346  13.179  1.00  0.00     0.020 A 
HETATM    6  C5  UNL     1      11.303  -3.900  12.042  1.00  0.00     0.022 A 
HETATM    7  C6  UNL     1      12.659  -3.665  12.056  1.00  0.00     0.024 A 
HETATM    8  C7  UNL     1      13.445  -3.857  13.180  1.00  0.00     0.038 A 
HETATM    9  C16 UNL     1      12.816  -4.305  14.323  1.00  0.00     0.064 A 
HETATM   10  C17 UNL     1      13.585  -4.523  15.527  1.00  0.00     0.101 C 
HETATM   11  C18 UNL     1      11.444  -4.543  14.310  1.00  0.00     0.044 A 
HETATM   12  N6  UNL     1      14.187  -4.709  16.507  1.00  0.00    -0.191 NA
BRANCH   8  13
HETATM   13  C8  UNL     1      14.868  -3.595  13.145  1.00  0.00    -0.062 C 
HETATM   14  C9  UNL     1      16.054  -3.368  13.096  1.00  0.00    -0.052 C 
BRANCH  14  15
HETATM   15  C10 UNL     1      17.497  -3.071  13.023  1.00  0.00     0.202 C 
HETATM   16  C11 UNL     1      17.811  -2.698  11.635  1.00  0.00     0.106 C 
HETATM   17  N2  UNL     1      18.049  -2.389  10.534  1.00  0.00    -0.193 NA
HETATM   18  C12 UNL     1      17.734  -1.864  13.892  1.00  0.00     0.072 C 
HETATM   19  C13 UNL     1      19.137  -1.353  13.874  1.00  0.00     0.087 C 
HETATM   20  S1  UNL     1      20.159  -2.641  14.692  1.00  0.00    -0.093 SA
HETATM   21  C14 UNL     1      19.433  -4.195  14.186  1.00  0.00     0.151 C 
HETATM   22  N3  UNL     1      20.047  -5.262  14.564  1.00  0.00    -0.379 N 
HETATM   23  N4  UNL     1      18.244  -4.221  13.413  1.00  0.00    -0.229 N 
ATOM     24  H32 UNL     1      20.902  -5.244  15.120  1.00  0.00     0.158 HD
ATOM     25  H31 UNL     1      19.633  -6.149  14.275  1.00  0.00     0.158 HD
HETATM   26  C15 UNL     1      17.775  -5.472  13.004  1.00  0.00     0.188 C 
HETATM   27  N5  UNL     1      17.405  -6.518  12.666  1.00  0.00    -0.172 NA
ENDBRANCH  14  15
ENDBRANCH   8  13
ENDBRANCH   4   5
TORSDOF 3
ENDMDL
MODEL 5
REMARK VINA RESULT: -6.427386568      2.508      3.992
REMARK  3 active torsions:
REMARK  status: ('A' for Active; 'I' for Inactive)
REMARK    1  A    between atoms: C3_4  and  C4_5 
REMARK    2  A    between atoms: C7_8  and  C8_9 
REMARK    3  A    between atoms: C9_10  and  C10_11 
ROOT
HETATM    1  N1  UNL     1      18.429  -2.034  10.800  1.00  0.00    -0.182 NA
HETATM    2  C1  UNL     1      17.853  -2.611  11.611  1.00  0.00     0.152 C 
HETATM    3  C2  UNL     1      17.149  -3.343  12.602  1.00  0.00     0.018 C 
HETATM    4  C3  UNL     1      16.566  -3.978  13.446  1.00  0.00    -0.051 C 
ENDROOT
BRANCH   4   5
HETATM    5  C4  UNL     1      15.890  -4.748  14.465  1.00  0.00     0.020 A 
HETATM    6  C5  UNL     1      16.560  -5.510  15.391  1.00  0.00     0.022 A 
HETATM    7  C6  UNL     1      15.853  -6.220  16.335  1.00  0.00     0.024 A 
HETATM    8  C7  UNL     1      14.470  -6.209  16.406  1.00  0.00     0.038 A 
HETATM    9  C16 UNL     1      13.795  -5.445  15.477  1.00  0.00     0.064 A 
HETATM   10  C17 UNL     1      12.351  -5.394  15.501  1.00  0.00     0.101 C 
HETATM   11  C18 UNL     1      14.509  -4.727  14.521  1.00  0.00     0.044 A 
HETATM   12  N6  UNL     1      11.187  -5.344  15.502  1.00  0.00    -0.191 NA
BRANCH   8  13
HETATM   13  C8  UNL     1      13.772  -6.972  17.418  1.00  0.00    -0.062 C 
HETATM   14  C9  UNL     1      13.192  -7.627  18.252  1.00  0.00    -0.052 C 
BRANCH  14  15
HETATM   15  C10 UNL     1      12.496  -8.446  19.262  1.00  0.00     0.202 C 
HETATM   16  C11 UNL     1      13.519  -9.102  20.093  1.00  0.00     0.106 C 
HETATM   17  N2  UNL     1      14.336  -9.607  20.757  1.00  0.00    -0.193 NA
HETATM   18  C12 UNL     1      11.729  -7.491  20.139  1.00  0.00     0.072 C 
HETATM   19  C13 UNL     1      11.025  -8.133  21.288  1.00  0.00     0.087 C 
HETATM   20  S1  UNL     1       9.692  -9.164  20.557  1.00  0.00    -0.093 SA
HETATM   21  C14 UNL     1      10.392  -9.822  19.049  1.00  0.00     0.151 C 
HETATM   22  N3  UNL     1       9.665 -10.664  18.402  1.00  0.00    -0.379 N 
HETATM   23  N4  UNL     1      11.681  -9.419  18.613  1.00  0.00    -0.229 N 
ATOM     24  H32 UNL     1       8.738 -10.954  18.715  1.00  0.00     0.158 HD
ATOM     25  H31 UNL     1      10.064 -11.040  17.541  1.00  0.00     0.158 HD
HETATM   26  C15 UNL     1      12.183 -10.026  17.460  1.00  0.00     0.188 C 
HETATM   27  N5  UNL     1      12.588 -10.546  16.505  1.00  0.00    -0.172 NA
ENDBRANCH  14  15
ENDBRANCH   8  13
ENDBRANCH   4   5
TORSDOF 3
ENDMDL
