MODEL 1
REMARK VINA RESULT: -7.129588057      0.000      0.000
REMARK  2 active torsions:
REMARK  status: ('A' for Active; 'I' for Inactive)
REMARK    1  A    between atoms: C10_11  and  C11_12 
REMARK    2  A    between atoms: C11_12  and  O2_13 
ROOT
HETATM    1  C1  UNL     1      15.727  -4.243  14.184  1.00  0.00     0.048 C 
HETATM    2  C2  UNL     1      14.826  -4.997  13.263  1.00  0.00     0.079 C 
HETATM    3  C3  UNL     1      15.581  -5.203  11.944  1.00  0.00     0.048 C 
HETATM    4  C4  UNL     1      13.538  -4.263  12.964  1.00  0.00     0.209 C 
HETATM    5  O1  UNL     1      12.715  -4.726  13.956  1.00  0.00    -0.352 OA
HETATM    6  C5  UNL     1      13.105  -6.018  14.299  1.00  0.00     0.168 C 
HETATM    7  C6  UNL     1      13.259  -6.089  15.763  1.00  0.00     0.077 C 
HETATM    8  C7  UNL     1      12.106  -6.689  16.533  1.00  0.00    -0.034 C 
HETATM    9  C8  UNL     1      12.707  -7.231  17.809  1.00  0.00     0.015 C 
HETATM   10  C9  UNL     1      11.166  -5.559  16.990  1.00  0.00     0.015 C 
HETATM   11  C10 UNL     1      11.365  -7.730  15.783  1.00  0.00     0.057 C 
HETATM   12  C12 UNL     1      10.942  -7.219  14.415  1.00  0.00     0.125 C 
HETATM   13  C13 UNL     1      12.229  -7.029  13.641  1.00  0.00     0.112 C 
HETATM   14  O3  UNL     1      10.432  -5.885  14.585  1.00  0.00    -0.321 OA
HETATM   15  C14 UNL     1       9.592  -5.290  13.649  1.00  0.00     0.136 C 
HETATM   16  N1  UNL     1       9.249  -4.054  13.701  1.00  0.00    -0.382 N 
ATOM     17  H11 UNL     1       8.634  -3.618  13.015  1.00  0.00     0.158 HD
ATOM     18  H12 UNL     1       9.567  -3.418  14.432  1.00  0.00     0.158 HD
HETATM   19  C15 UNL     1       9.126  -6.225  12.577  1.00  0.00     0.254 C 
HETATM   20  O4  UNL     1       8.841  -7.401  13.200  1.00  0.00    -0.354 OA
HETATM   21  C16 UNL     1       9.938  -8.090  13.725  1.00  0.00     0.166 C 
HETATM   22  C17 UNL     1      10.480  -8.905  12.590  1.00  0.00     0.067 C 
HETATM   23 CL1  UNL     1       9.153  -9.231  14.885  1.00  0.00    -0.085 Cl
HETATM   24  O5  UNL     1      14.387  -6.202  13.729  1.00  0.00    -0.343 OA
ENDROOT
BRANCH  11  25
HETATM   25  C11 UNL     1      12.144  -8.992  15.714  1.00  0.00     0.172 C 
BRANCH  25  26
HETATM   26  O2  UNL     1      11.684 -10.018  16.517  1.00  0.00    -0.400 OA
ATOM     27  H2  UNL     1      12.280 -10.751  16.625  1.00  0.00     0.209 HD
ENDBRANCH  25  26
ENDBRANCH  11  25
TORSDOF 2
ENDMDL
MODEL 2
REMARK VINA RESULT: -6.586977752      2.597      5.393
REMARK  2 active torsions:
REMARK  status: ('A' for Active; 'I' for Inactive)
REMARK    1  A    between atoms: C10_11  and  C11_12 
REMARK    2  A    between atoms: C11_12  and  O2_13 
ROOT
HETATM    1  C1  UNL     1      10.030 -10.390  14.820  1.00  0.00     0.048 C 
HETATM    2  C2  UNL     1      11.253  -9.777  15.415  1.00  0.00     0.079 C 
HETATM    3  C3  UNL     1      12.210 -10.917  15.783  1.00  0.00     0.048 C 
HETATM    4  C4  UNL     1      10.964  -8.977  16.666  1.00  0.00     0.209 C 
HETATM    5  O1  UNL     1      10.732  -7.729  16.154  1.00  0.00    -0.352 OA
HETATM    6  C5  UNL     1      11.474  -7.576  14.986  1.00  0.00     0.168 C 
HETATM    7  C6  UNL     1      10.579  -7.092  13.920  1.00  0.00     0.077 C 
HETATM    8  C7  UNL     1      10.615  -5.610  13.632  1.00  0.00    -0.034 C 
HETATM    9  C8  UNL     1      10.172  -5.463  12.195  1.00  0.00     0.015 C 
HETATM   10  C9  UNL     1       9.516  -4.912  14.454  1.00  0.00     0.015 C 
HETATM   11  C10 UNL     1      11.938  -4.987  13.872  1.00  0.00     0.057 C 
HETATM   12  C12 UNL     1      12.452  -5.317  15.263  1.00  0.00     0.125 C 
HETATM   13  C13 UNL     1      12.723  -6.805  15.248  1.00  0.00     0.112 C 
HETATM   14  O3  UNL     1      11.355  -5.168  16.181  1.00  0.00    -0.321 OA
HETATM   15  C14 UNL     1      11.553  -4.981  17.546  1.00  0.00     0.136 C 
HETATM   16  N1  UNL     1      10.597  -4.998  18.401  1.00  0.00    -0.382 N 
ATOM     17  H11 UNL     1      10.742  -4.862  19.402  1.00  0.00     0.158 HD
ATOM     18  H12 UNL     1       9.621  -5.150  18.145  1.00  0.00     0.158 HD
HETATM   19  C15 UNL     1      12.984  -4.758  17.921  1.00  0.00     0.254 C 
HETATM   20  O4  UNL     1      13.501  -3.935  16.969  1.00  0.00    -0.354 OA
HETATM   21  C16 UNL     1      13.622  -4.487  15.691  1.00  0.00     0.166 C 
HETATM   22  C17 UNL     1      14.940  -5.201  15.686  1.00  0.00     0.067 C 
HETATM   23 CL1  UNL     1      13.798  -3.017  14.654  1.00  0.00    -0.085 Cl
HETATM   24  O5  UNL     1      11.902  -8.875  14.622  1.00  0.00    -0.343 OA
ENDROOT
BRANCH  11  25
HETATM   25  C11 UNL     1      12.897  -5.349  12.798  1.00  0.00     0.172 C 
BRANCH  25  26
HETATM   26  O2  UNL     1      13.339  -4.299  12.016  1.00  0.00    -0.400 OA
ATOM     27  H2  UNL     1      14.145  -4.456  11.538  1.00  0.00     0.209 HD
ENDBRANCH  25  26
ENDBRANCH  11  25
TORSDOF 2
ENDMDL
MODEL 3
REMARK VINA RESULT: -6.123291925      2.981      5.353
REMARK  2 active torsions:
REMARK  status: ('A' for Active; 'I' for Inactive)
REMARK    1  A    between atoms: C10_11  and  C11_12 
REMARK    2  A    between atoms: C11_12  and  O2_13 
ROOT
HETATM    1  C1  UNL     1      10.302  -7.392  12.812  1.00  0.00     0.048 C 
HETATM    2  C2  UNL     1      10.523  -6.630  14.075  1.00  0.00     0.079 C 
HETATM    3  C3  UNL     1       9.805  -5.282  13.933  1.00  0.00     0.048 C 
HETATM    4  C4  UNL     1      11.985  -6.362  14.355  1.00  0.00     0.209 C 
HETATM    5  O1  UNL     1      12.334  -7.459  15.097  1.00  0.00    -0.352 OA
HETATM    6  C5  UNL     1      11.218  -7.901  15.801  1.00  0.00     0.168 C 
HETATM    7  C6  UNL     1      11.056  -9.347  15.569  1.00  0.00     0.077 C 
HETATM    8  C7  UNL     1      11.574 -10.265  16.650  1.00  0.00    -0.034 C 
HETATM    9  C8  UNL     1      10.769 -11.538  16.525  1.00  0.00     0.015 C 
HETATM   10  C9  UNL     1      13.018 -10.679  16.310  1.00  0.00     0.015 C 
HETATM   11  C10 UNL     1      11.491  -9.689  18.012  1.00  0.00     0.057 C 
HETATM   12  C12 UNL     1      12.139  -8.315  18.063  1.00  0.00     0.125 C 
HETATM   13  C13 UNL     1      11.258  -7.424  17.213  1.00  0.00     0.112 C 
HETATM   14  O3  UNL     1      13.376  -8.386  17.333  1.00  0.00    -0.321 OA
HETATM   15  C14 UNL     1      14.401  -7.466  17.523  1.00  0.00     0.136 C 
HETATM   16  N1  UNL     1      15.447  -7.418  16.780  1.00  0.00    -0.382 N 
ATOM     17  H11 UNL     1      16.198  -6.742  16.920  1.00  0.00     0.158 HD
ATOM     18  H12 UNL     1      15.603  -8.051  15.997  1.00  0.00     0.158 HD
HETATM   19  C15 UNL     1      14.171  -6.537  18.674  1.00  0.00     0.254 C 
HETATM   20  O4  UNL     1      13.651  -7.298  19.675  1.00  0.00    -0.354 OA
HETATM   21  C16 UNL     1      12.367  -7.801  19.451  1.00  0.00     0.166 C 
HETATM   22  C17 UNL     1      11.430  -6.716  19.887  1.00  0.00     0.067 C 
HETATM   23 CL1  UNL     1      12.259  -9.132  20.668  1.00  0.00    -0.085 Cl
HETATM   24  O5  UNL     1      10.104  -7.251  15.216  1.00  0.00    -0.343 OA
ENDROOT
BRANCH  11  25
HETATM   25  C11 UNL     1      10.091  -9.688  18.505  1.00  0.00     0.172 C 
BRANCH  25  26
HETATM   26  O2  UNL     1       9.693 -10.832  19.169  1.00  0.00    -0.400 OA
ATOM     27  H2  UNL     1       9.284 -11.498  18.629  1.00  0.00     0.209 HD
ENDBRANCH  25  26
ENDBRANCH  11  25
TORSDOF 2
ENDMDL
MODEL 4
REMARK VINA RESULT: -6.035304433      2.909      5.310
REMARK  2 active torsions:
REMARK  status: ('A' for Active; 'I' for Inactive)
REMARK    1  A    between atoms: C10_11  and  C11_12 
REMARK    2  A    between atoms: C11_12  and  O2_13 
ROOT
HETATM    1  C1  UNL     1      10.147  -6.884  12.687  1.00  0.00     0.048 C 
HETATM    2  C2  UNL     1      10.810  -7.692  13.751  1.00  0.00     0.079 C 
HETATM    3  C3  UNL     1      10.582  -9.172  13.418  1.00  0.00     0.048 C 
HETATM    4  C4  UNL     1      10.253  -7.424  15.132  1.00  0.00     0.209 C 
HETATM    5  O1  UNL     1      11.060  -6.407  15.567  1.00  0.00    -0.352 OA
HETATM    6  C5  UNL     1      12.312  -6.539  14.974  1.00  0.00     0.168 C 
HETATM    7  C6  UNL     1      12.688  -5.246  14.376  1.00  0.00     0.077 C 
HETATM    8  C7  UNL     1      13.631  -4.382  15.179  1.00  0.00    -0.034 C 
HETATM    9  C8  UNL     1      14.341  -3.508  14.171  1.00  0.00     0.015 C 
HETATM   10  C9  UNL     1      12.808  -3.403  16.036  1.00  0.00     0.015 C 
HETATM   11  C10 UNL     1      14.582  -5.152  16.014  1.00  0.00     0.057 C 
HETATM   12  C12 UNL     1      13.851  -6.166  16.878  1.00  0.00     0.125 C 
HETATM   13  C13 UNL     1      13.279  -7.180  15.911  1.00  0.00     0.112 C 
HETATM   14  O3  UNL     1      12.694  -5.516  17.433  1.00  0.00    -0.321 OA
HETATM   15  C14 UNL     1      12.051  -5.995  18.569  1.00  0.00     0.136 C 
HETATM   16  N1  UNL     1      10.934  -5.525  18.992  1.00  0.00    -0.382 N 
ATOM     17  H11 UNL     1      10.462  -5.877  19.825  1.00  0.00     0.158 HD
ATOM     18  H12 UNL     1      10.437  -4.765  18.528  1.00  0.00     0.158 HD
HETATM   19  C15 UNL     1      12.781  -7.110  19.250  1.00  0.00     0.254 C 
HETATM   20  O4  UNL     1      14.099  -6.770  19.222  1.00  0.00    -0.354 OA
HETATM   21  C16 UNL     1      14.697  -6.764  17.960  1.00  0.00     0.166 C 
HETATM   22  C17 UNL     1      15.130  -8.178  17.715  1.00  0.00     0.067 C 
HETATM   23 CL1  UNL     1      16.187  -5.783  18.246  1.00  0.00    -0.085 Cl
HETATM   24  O5  UNL     1      12.146  -7.463  13.914  1.00  0.00    -0.343 OA
ENDROOT
BRANCH  11  25
HETATM   25  C11 UNL     1      15.647  -5.762  15.179  1.00  0.00     0.172 C 
BRANCH  25  26
HETATM   26  O2  UNL     1      16.887  -5.157  15.262  1.00  0.00    -0.400 OA
ATOM     27  H2  UNL     1      17.472  -5.322  14.531  1.00  0.00     0.209 HD
ENDBRANCH  25  26
ENDBRANCH  11  25
TORSDOF 2
ENDMDL
MODEL 5
REMARK VINA RESULT: -5.663701302      2.460      4.580
REMARK  2 active torsions:
REMARK  status: ('A' for Active; 'I' for Inactive)
REMARK    1  A    between atoms: C10_11  and  C11_12 
REMARK    2  A    between atoms: C11_12  and  O2_13 
ROOT
HETATM    1  C1  UNL     1      13.080  -5.265  18.547  1.00  0.00     0.048 C 
HETATM    2  C2  UNL     1      11.771  -5.860  18.148  1.00  0.00     0.079 C 
HETATM    3  C3  UNL     1      10.832  -5.763  19.357  1.00  0.00     0.048 C 
HETATM    4  C4  UNL     1      11.881  -7.314  17.746  1.00  0.00     0.209 C 
HETATM    5  O1  UNL     1      12.111  -7.216  16.400  1.00  0.00    -0.352 OA
HETATM    6  C5  UNL     1      11.499  -6.062  15.920  1.00  0.00     0.168 C 
HETATM    7  C6  UNL     1      12.485  -5.297  15.135  1.00  0.00     0.077 C 
HETATM    8  C7  UNL     1      12.414  -5.449  13.635  1.00  0.00    -0.034 C 
HETATM    9  C8  UNL     1      13.008  -4.180  13.069  1.00  0.00     0.015 C 
HETATM   10  C9  UNL     1      13.380  -6.564  13.196  1.00  0.00     0.015 C 
HETATM   11  C10 UNL     1      11.045  -5.696  13.124  1.00  0.00     0.057 C 
HETATM   12  C12 UNL     1      10.393  -6.860  13.852  1.00  0.00     0.125 C 
HETATM   13  C13 UNL     1      10.194  -6.382  15.274  1.00  0.00     0.112 C 
HETATM   14  O3  UNL     1      11.372  -7.908  13.966  1.00  0.00    -0.321 OA
HETATM   15  C14 UNL     1      11.013  -9.233  14.189  1.00  0.00     0.136 C 
HETATM   16  N1  UNL     1      11.867 -10.156  14.445  1.00  0.00    -0.382 N 
ATOM     17  H11 UNL     1      11.604 -11.128  14.609  1.00  0.00     0.158 HD
ATOM     18  H12 UNL     1      12.871  -9.987  14.504  1.00  0.00     0.158 HD
HETATM   19  C15 UNL     1       9.540  -9.481  14.102  1.00  0.00     0.254 C 
HETATM   20  O4  UNL     1       9.096  -8.752  13.042  1.00  0.00    -0.354 OA
HETATM   21  C16 UNL     1       9.145  -7.365  13.197  1.00  0.00     0.166 C 
HETATM   22  C17 UNL     1       7.870  -6.994  13.893  1.00  0.00     0.067 C 
HETATM   23 CL1  UNL     1       9.020  -6.784  11.490  1.00  0.00    -0.085 Cl
HETATM   24  O5  UNL     1      11.175  -5.289  17.061  1.00  0.00    -0.343 OA
ENDROOT
BRANCH  11  25
HETATM   25  C11 UNL     1      10.230  -4.456  13.167  1.00  0.00     0.172 C 
BRANCH  25  26
HETATM   26  O2  UNL     1      10.013  -3.844  11.947  1.00  0.00    -0.400 OA
ATOM     27  H2  UNL     1       9.110  -3.620  11.756  1.00  0.00     0.209 HD
ENDBRANCH  25  26
ENDBRANCH  11  25
TORSDOF 2
ENDMDL
