MODEL 1
REMARK VINA RESULT: -7.843376247      0.000      0.000
REMARK  2 active torsions:
REMARK  status: ('A' for Active; 'I' for Inactive)
REMARK    1  A    between atoms: C3_3  and  O1_4 
REMARK    2  A    between atoms: C6_8  and  O2_10 
ROOT
HETATM    1  C1  UNL     1      10.934  -9.041  17.150  1.00  0.00     0.015 C 
HETATM    2  C2  UNL     1      11.538  -8.419  15.941  1.00  0.00     0.040 C 
HETATM    3  C3  UNL     1      10.441  -8.376  14.862  1.00  0.00     0.124 C 
HETATM    4  C4  UNL     1      11.002  -8.145  13.505  1.00  0.00     0.035 C 
HETATM    5  C5  UNL     1      10.594  -6.916  12.807  1.00  0.00     0.046 C 
HETATM    6  C6  UNL     1      10.834  -5.587  13.403  1.00  0.00     0.111 C 
HETATM    7  C7  UNL     1       9.566  -5.136  14.124  1.00  0.00     0.051 C 
HETATM    8  C8  UNL     1      11.988  -5.437  14.325  1.00  0.00     0.210 C 
HETATM    9  O3  UNL     1      11.728  -4.301  15.136  1.00  0.00    -0.317 OA
HETATM   10  C9  UNL     1      12.950  -3.646  14.936  1.00  0.00     0.313 C 
HETATM   11  O4  UNL     1      13.647  -3.831  16.148  1.00  0.00    -0.206 OA
HETATM   12  O5  UNL     1      13.540  -5.047  16.433  1.00  0.00    -0.229 OA
HETATM   13  C10 UNL     1      13.459  -5.576  17.632  1.00  0.00     0.214 A 
HETATM   14  C11 UNL     1      12.319  -5.917  18.463  1.00  0.00     0.142 A 
HETATM   15  C12 UNL     1      12.555  -6.402  19.879  1.00  0.00     0.055 C 
HETATM   16  F1  UNL     1      11.073  -5.335  18.335  1.00  0.00    -0.239 F 
HETATM   17  C13 UNL     1      12.729  -6.940  17.409  1.00  0.00     0.053 A 
HETATM   18  C14 UNL     1      13.515  -8.127  17.838  1.00  0.00     0.024 C 
HETATM   19  C15 UNL     1      11.878  -6.925  16.183  1.00  0.00     0.145 C 
HETATM   20  O6  UNL     1      12.363  -6.522  15.025  1.00  0.00    -0.345 OA
HETATM   21  C16 UNL     1      13.229  -4.727  13.909  1.00  0.00     0.065 C 
HETATM   22  C17 UNL     1      14.529  -5.515  14.150  1.00  0.00     0.026 C 
HETATM   23  C18 UNL     1      13.340  -4.073  12.568  1.00  0.00     0.026 C 
ENDROOT
BRANCH   6  24
HETATM   24  O2  UNL     1      10.898  -4.710  12.283  1.00  0.00    -0.385 OA
ATOM     25  H2  UNL     1      10.615  -5.247  11.552  1.00  0.00     0.210 HD
ENDBRANCH   6  24
BRANCH   3  26
HETATM   26  O1  UNL     1       9.812  -9.641  14.989  1.00  0.00    -0.395 OA
ATOM     27  H1  UNL     1      10.134 -10.120  14.234  1.00  0.00     0.210 HD
ENDBRANCH   3  26
TORSDOF 2
ENDMDL
MODEL 2
REMARK VINA RESULT: -6.956683328      1.771      4.573
REMARK  2 active torsions:
REMARK  status: ('A' for Active; 'I' for Inactive)
REMARK    1  A    between atoms: C3_3  and  O1_4 
REMARK    2  A    between atoms: C6_8  and  O2_10 
ROOT
HETATM    1  C1  UNL     1      12.279  -3.867  11.953  1.00  0.00     0.015 C 
HETATM    2  C2  UNL     1      11.638  -4.387  13.191  1.00  0.00     0.040 C 
HETATM    3  C3  UNL     1      10.608  -5.444  12.753  1.00  0.00     0.124 C 
HETATM    4  C4  UNL     1       9.636  -5.757  13.833  1.00  0.00     0.035 C 
HETATM    5  C5  UNL     1       9.617  -7.136  14.344  1.00  0.00     0.046 C 
HETATM    6  C6  UNL     1      10.830  -7.752  14.917  1.00  0.00     0.111 C 
HETATM    7  C7  UNL     1      11.522  -8.576  13.833  1.00  0.00     0.051 C 
HETATM    8  C8  UNL     1      11.831  -6.858  15.550  1.00  0.00     0.210 C 
HETATM    9  O3  UNL     1      13.070  -7.552  15.551  1.00  0.00    -0.317 OA
HETATM   10  C9  UNL     1      13.379  -7.378  16.906  1.00  0.00     0.313 C 
HETATM   11  O4  UNL     1      14.402  -6.407  16.908  1.00  0.00    -0.206 OA
HETATM   12  O5  UNL     1      14.014  -5.486  16.151  1.00  0.00    -0.229 OA
HETATM   13  C10 UNL     1      14.757  -4.728  15.378  1.00  0.00     0.214 A 
HETATM   14  C11 UNL     1      15.154  -4.861  13.989  1.00  0.00     0.142 A 
HETATM   15  C12 UNL     1      16.143  -3.872  13.405  1.00  0.00     0.055 C 
HETATM   16  F1  UNL     1      15.192  -6.064  13.312  1.00  0.00    -0.239 F 
HETATM   17  C13 UNL     1      13.785  -4.245  14.253  1.00  0.00     0.053 A 
HETATM   18  C14 UNL     1      13.641  -2.767  14.168  1.00  0.00     0.024 C 
HETATM   19  C15 UNL     1      12.645  -5.188  14.057  1.00  0.00     0.145 C 
HETATM   20  O6  UNL     1      11.921  -5.601  15.078  1.00  0.00    -0.345 OA
HETATM   21  C16 UNL     1      11.987  -6.787  17.029  1.00  0.00     0.065 C 
HETATM   22  C17 UNL     1      11.949  -5.363  17.610  1.00  0.00     0.026 C 
HETATM   23  C18 UNL     1      11.191  -7.668  17.939  1.00  0.00     0.026 C 
ENDROOT
BRANCH   6  24
HETATM   24  O2  UNL     1      10.330  -8.745  15.806  1.00  0.00    -0.385 OA
ATOM     25  H2  UNL     1       9.632  -9.165  15.316  1.00  0.00     0.210 HD
ENDBRANCH   6  24
BRANCH   3  26
HETATM   26  O1  UNL     1       9.996  -4.850  11.619  1.00  0.00    -0.395 OA
ATOM     27  H1  UNL     1       9.109  -4.682  11.914  1.00  0.00     0.210 HD
ENDBRANCH   3  26
TORSDOF 2
ENDMDL
MODEL 3
REMARK VINA RESULT: -6.751801976      2.924      5.374
REMARK  2 active torsions:
REMARK  status: ('A' for Active; 'I' for Inactive)
REMARK    1  A    between atoms: C3_3  and  O1_4 
REMARK    2  A    between atoms: C6_8  and  O2_10 
ROOT
HETATM    1  C1  UNL     1       8.562  -3.370  13.040  1.00  0.00     0.015 C 
HETATM    2  C2  UNL     1       8.475  -4.693  13.714  1.00  0.00     0.040 C 
HETATM    3  C3  UNL     1       7.247  -5.415  13.129  1.00  0.00     0.124 C 
HETATM    4  C4  UNL     1       6.819  -6.561  13.973  1.00  0.00     0.035 C 
HETATM    5  C5  UNL     1       6.874  -7.901  13.369  1.00  0.00     0.046 C 
HETATM    6  C6  UNL     1       8.139  -8.445  12.837  1.00  0.00     0.111 C 
HETATM    7  C7  UNL     1       8.190  -8.189  11.333  1.00  0.00     0.051 C 
HETATM    8  C8  UNL     1       9.408  -7.974  13.445  1.00  0.00     0.210 C 
HETATM    9  O3  UNL     1      10.437  -8.200  12.492  1.00  0.00    -0.317 OA
HETATM   10  C9  UNL     1      11.326  -8.878  13.336  1.00  0.00     0.313 C 
HETATM   11  O4  UNL     1      12.346  -7.939  13.593  1.00  0.00    -0.206 OA
HETATM   12  O5  UNL     1      11.770  -6.867  13.893  1.00  0.00    -0.229 OA
HETATM   13  C10 UNL     1      12.178  -5.646  13.631  1.00  0.00     0.214 A 
HETATM   14  C11 UNL     1      11.909  -4.756  12.517  1.00  0.00     0.142 A 
HETATM   15  C12 UNL     1      12.644  -3.434  12.433  1.00  0.00     0.055 C 
HETATM   16  F1  UNL     1      11.512  -5.189  11.267  1.00  0.00    -0.239 F 
HETATM   17  C13 UNL     1      10.871  -4.789  13.634  1.00  0.00     0.053 A 
HETATM   18  C14 UNL     1      10.869  -3.688  14.634  1.00  0.00     0.024 C 
HETATM   19  C15 UNL     1       9.664  -5.608  13.320  1.00  0.00     0.145 C 
HETATM   20  O6  UNL     1       9.420  -6.733  13.963  1.00  0.00    -0.345 OA
HETATM   21  C16 UNL     1      10.204  -8.842  14.357  1.00  0.00     0.065 C 
HETATM   22  C17 UNL     1      10.582  -8.187  15.697  1.00  0.00     0.026 C 
HETATM   23  C18 UNL     1       9.795 -10.252  14.643  1.00  0.00     0.026 C 
ENDROOT
BRANCH   6  24
HETATM   24  O2  UNL     1       7.972  -9.856  12.918  1.00  0.00    -0.385 OA
ATOM     25  H2  UNL     1       8.772 -10.161  13.331  1.00  0.00     0.210 HD
ENDBRANCH   6  24
BRANCH   3  26
HETATM   26  O1  UNL     1       6.271  -4.388  13.060  1.00  0.00    -0.395 OA
ATOM     27  H1  UNL     1       5.682  -4.694  12.379  1.00  0.00     0.210 HD
ENDBRANCH   3  26
TORSDOF 2
ENDMDL
MODEL 4
REMARK VINA RESULT: -6.529384155      2.276      4.814
REMARK  2 active torsions:
REMARK  status: ('A' for Active; 'I' for Inactive)
REMARK    1  A    between atoms: C3_3  and  O1_4 
REMARK    2  A    between atoms: C6_8  and  O2_10 
ROOT
HETATM    1  C1  UNL     1       7.757  -6.233  12.087  1.00  0.00     0.015 C 
HETATM    2  C2  UNL     1       8.346  -6.782  13.339  1.00  0.00     0.040 C 
HETATM    3  C3  UNL     1       8.414  -8.310  13.169  1.00  0.00     0.124 C 
HETATM    4  C4  UNL     1       8.612  -9.007  14.467  1.00  0.00     0.035 C 
HETATM    5  C5  UNL     1       9.846  -9.789  14.632  1.00  0.00     0.046 C 
HETATM    6  C6  UNL     1      11.172  -9.158  14.485  1.00  0.00     0.111 C 
HETATM    7  C7  UNL     1      11.674  -9.393  13.063  1.00  0.00     0.051 C 
HETATM    8  C8  UNL     1      11.294  -7.714  14.803  1.00  0.00     0.210 C 
HETATM    9  O3  UNL     1      12.446  -7.233  14.127  1.00  0.00    -0.317 OA
HETATM   10  C9  UNL     1      13.057  -6.609  15.223  1.00  0.00     0.313 C 
HETATM   11  O4  UNL     1      12.862  -5.232  14.993  1.00  0.00    -0.206 OA
HETATM   12  O5  UNL     1      11.654  -5.094  14.690  1.00  0.00    -0.229 OA
HETATM   13  C10 UNL     1      11.140  -4.221  13.854  1.00  0.00     0.214 A 
HETATM   14  C11 UNL     1      10.846  -4.300  12.435  1.00  0.00     0.142 A 
HETATM   15  C12 UNL     1      10.369  -3.059  11.709  1.00  0.00     0.055 C 
HETATM   16  F1  UNL     1      11.469  -5.177  11.569  1.00  0.00    -0.239 F 
HETATM   17  C13 UNL     1       9.799  -4.873  13.384  1.00  0.00     0.053 A 
HETATM   18  C14 UNL     1       8.591  -4.060  13.684  1.00  0.00     0.024 C 
HETATM   19  C15 UNL     1       9.830  -6.360  13.498  1.00  0.00     0.145 C 
HETATM   20  O6  UNL     1      10.204  -6.948  14.618  1.00  0.00    -0.345 OA
HETATM   21  C16 UNL     1      11.957  -7.245  16.052  1.00  0.00     0.065 C 
HETATM   22  C17 UNL     1      11.129  -6.248  16.881  1.00  0.00     0.026 C 
HETATM   23  C18 UNL     1      12.593  -8.206  17.004  1.00  0.00     0.026 C 
ENDROOT
BRANCH   6  24
HETATM   24  O2  UNL     1      12.035  -9.976  15.270  1.00  0.00    -0.385 OA
ATOM     25  H2  UNL     1      11.930 -10.845  14.900  1.00  0.00     0.210 HD
ENDBRANCH   6  24
BRANCH   3  26
HETATM   26  O1  UNL     1       7.172  -8.625  12.561  1.00  0.00    -0.395 OA
ATOM     27  H1  UNL     1       6.585  -8.721  13.302  1.00  0.00     0.210 HD
ENDBRANCH   3  26
TORSDOF 2
ENDMDL
MODEL 5
REMARK VINA RESULT: -6.219273487      1.971      4.357
REMARK  2 active torsions:
REMARK  status: ('A' for Active; 'I' for Inactive)
REMARK    1  A    between atoms: C3_3  and  O1_4 
REMARK    2  A    between atoms: C6_8  and  O2_10 
ROOT
HETATM    1  C1  UNL     1      13.558  -7.153  16.803  1.00  0.00     0.015 C 
HETATM    2  C2  UNL     1      12.824  -6.003  16.207  1.00  0.00     0.040 C 
HETATM    3  C3  UNL     1      13.885  -5.016  15.688  1.00  0.00     0.124 C 
HETATM    4  C4  UNL     1      13.312  -3.669  15.427  1.00  0.00     0.035 C 
HETATM    5  C5  UNL     1      13.354  -3.175  14.042  1.00  0.00     0.046 C 
HETATM    6  C6  UNL     1      12.719  -3.930  12.945  1.00  0.00     0.111 C 
HETATM    7  C7  UNL     1      13.780  -4.788  12.260  1.00  0.00     0.051 C 
HETATM    8  C8  UNL     1      11.552  -4.786  13.274  1.00  0.00     0.210 C 
HETATM    9  O3  UNL     1      11.446  -5.761  12.247  1.00  0.00    -0.317 OA
HETATM   10  C9  UNL     1      10.090  -5.572  11.951  1.00  0.00     0.313 C 
HETATM   11  O4  UNL     1       9.451  -6.698  12.509  1.00  0.00    -0.206 OA
HETATM   12  O5  UNL     1       9.906  -6.820  13.671  1.00  0.00    -0.229 OA
HETATM   13  C10 UNL     1      10.112  -7.938  14.329  1.00  0.00     0.214 A 
HETATM   14  C11 UNL     1      11.283  -8.788  14.447  1.00  0.00     0.142 A 
HETATM   15  C12 UNL     1      11.168 -10.105  15.187  1.00  0.00     0.055 C 
HETATM   16  F1  UNL     1      12.304  -8.824  13.518  1.00  0.00    -0.239 F 
HETATM   17  C13 UNL     1      11.217  -7.579  15.374  1.00  0.00     0.053 A 
HETATM   18  C14 UNL     1      10.807  -7.788  16.788  1.00  0.00     0.024 C 
HETATM   19  C15 UNL     1      12.053  -6.425  14.929  1.00  0.00     0.145 C 
HETATM   20  O6  UNL     1      11.498  -5.304  14.514  1.00  0.00    -0.345 OA
HETATM   21  C16 UNL     1      10.166  -4.390  12.899  1.00  0.00     0.065 C 
HETATM   22  C17 UNL     1       9.152  -4.435  14.055  1.00  0.00     0.026 C 
HETATM   23  C18 UNL     1       9.897  -3.148  12.111  1.00  0.00     0.026 C 
ENDROOT
BRANCH   6  24
HETATM   24  O2  UNL     1      12.425  -2.940  11.965  1.00  0.00    -0.385 OA
ATOM     25  H2  UNL     1      12.275  -3.438  11.170  1.00  0.00     0.210 HD
ENDBRANCH   6  24
BRANCH   3  26
HETATM   26  O1  UNL     1      14.856  -5.009  16.722  1.00  0.00    -0.395 OA
ATOM     27  H1  UNL     1      15.621  -5.386  16.303  1.00  0.00     0.210 HD
ENDBRANCH   3  26
TORSDOF 2
ENDMDL
