MODEL 1
REMARK VINA RESULT: -10.062628690      0.000      0.000
REMARK  12 active torsions:
REMARK  status: ('A' for Active; 'I' for Inactive)
REMARK    1  A    between atoms: C2_2  and  C3_3 
REMARK    2  A    between atoms: C3_3  and  O1_4 
REMARK    3  A    between atoms: O1_4  and  C4_5 
REMARK    4  A    between atoms: C4_5  and  C5_7 
REMARK    5  A    between atoms: C5_7  and  O3_8 
REMARK    6  A    between atoms: C5_7  and  C6_10 
REMARK    7  A    between atoms: C17_22  and  C19_24 
REMARK    8  A    between atoms: C19_24  and  C20_25 
REMARK    9  A    between atoms: C22_27  and  C23_28 
REMARK   10  A    between atoms: C23_28  and  O5_30 
REMARK   11  A    between atoms: O5_30  and  C24_31 
REMARK   12  A    between atoms: C28_39  and  O6_40 
ROOT
HETATM    1  C6  UNL     1      36.877  45.971  16.070  1.00  0.00     0.018 C 
HETATM    2  C7  UNL     1      36.467  45.227  17.099  1.00  0.00    -0.069 C 
HETATM    3  C8  UNL     1      37.148  45.343  18.375  1.00  0.00     0.035 C 
HETATM    4  C9  UNL     1      36.923  44.298  19.398  1.00  0.00     0.008 C 
HETATM    5  C10 UNL     1      35.763  43.380  19.147  1.00  0.00     0.046 C 
HETATM    6  C11 UNL     1      34.728  44.056  18.272  1.00  0.00     0.122 C 
HETATM    7  F1  UNL     1      34.615  45.351  18.832  1.00  0.00    -0.241 F 
HETATM    8  C12 UNL     1      35.325  44.281  16.932  1.00  0.00     0.016 C 
HETATM    9  C13 UNL     1      35.974  43.069  16.294  1.00  0.00     0.023 C 
HETATM   10  C14 UNL     1      34.355  44.969  15.978  1.00  0.00     0.017 C 
HETATM   11  C15 UNL     1      32.904  44.817  16.422  1.00  0.00     0.007 C 
HETATM   12  C16 UNL     1      32.746  43.461  17.004  1.00  0.00     0.008 C 
HETATM   13  C17 UNL     1      31.358  42.884  16.827  1.00  0.00    -0.008 C 
HETATM   14  C18 UNL     1      31.210  42.634  15.336  1.00  0.00     0.018 C 
HETATM   15  C28 UNL     1      31.214  41.581  17.527  1.00  0.00     0.127 C 
HETATM   16  C29 UNL     1      32.059  41.354  18.747  1.00  0.00     0.033 C 
HETATM   17  C30 UNL     1      33.414  41.953  18.752  1.00  0.00     0.015 C 
HETATM   18  C31 UNL     1      33.376  43.403  18.327  1.00  0.00    -0.002 C 
HETATM   19  C32 UNL     1      32.634  44.110  19.452  1.00  0.00     0.019 C 
ENDROOT
BRANCH  13  20
HETATM   20  C19 UNL     1      30.296  43.891  17.153  1.00  0.00     0.070 C 
BRANCH  20  21
HETATM   21  C20 UNL     1      28.973  43.680  16.575  1.00  0.00     0.029 A 
HETATM   22  C21 UNL     1      28.189  42.524  16.796  1.00  0.00     0.063 A 
HETATM   23  C22 UNL     1      27.016  42.697  16.127  1.00  0.00     0.125 A 
HETATM   24  N1  UNL     1      27.049  43.882  15.521  1.00  0.00    -0.295 N 
HETATM   25  N2  UNL     1      28.222  44.456  15.798  1.00  0.00    -0.304 N 
ATOM     26  H1  UNL     1      26.308  44.282  14.946  1.00  0.00     0.187 HD
ATOM     27  H2  UNL     1      28.507  45.374  15.457  1.00  0.00     0.186 HD
BRANCH  23  28
HETATM   28  C23 UNL     1      25.874  41.764  16.046  1.00  0.00     0.312 C 
HETATM   29  O4  UNL     1      24.824  42.141  15.509  1.00  0.00    -0.258 OA
BRANCH  28  30
HETATM   30  O5  UNL     1      25.926  40.482  16.545  1.00  0.00    -0.306 OA
BRANCH  30  31
HETATM   31  C24 UNL     1      25.825  40.145  17.907  1.00  0.00     0.060 C 
HETATM   32  C25 UNL     1      25.370  41.272  18.783  1.00  0.00     0.046 C 
HETATM   33  C26 UNL     1      24.858  38.992  18.121  1.00  0.00     0.046 C 
HETATM   34  C27 UNL     1      27.194  39.698  18.367  1.00  0.00     0.046 C 
ENDBRANCH  30  31
ENDBRANCH  28  30
ENDBRANCH  23  28
ENDBRANCH  20  21
ENDBRANCH  13  20
BRANCH  15  35
HETATM   35  O6  UNL     1      31.455  40.488  16.687  1.00  0.00    -0.395 OA
ATOM     36  H6  UNL     1      32.367  40.221  16.688  1.00  0.00     0.210 HD
ENDBRANCH  15  35
BRANCH   1  37
HETATM   37  C5  UNL     1      37.995  46.933  16.106  1.00  0.00     0.240 C 
BRANCH  37  38
HETATM   38  C4  UNL     1      39.224  46.435  15.454  1.00  0.00     0.291 C 
HETATM   39  O2  UNL     1      39.181  45.897  14.301  1.00  0.00    -0.262 OA
BRANCH  38  40
HETATM   40  O1  UNL     1      40.447  46.561  16.121  1.00  0.00    -0.316 OA
BRANCH  40  41
HETATM   41  C3  UNL     1      40.440  47.250  17.369  1.00  0.00     0.205 C 
BRANCH  41  42
HETATM   42  C2  UNL     1      41.025  46.451  18.465  1.00  0.00    -0.011 C 
HETATM   43  C1  UNL     1      40.716  45.174  18.605  1.00  0.00     0.009 C 
ENDBRANCH  41  42
ENDBRANCH  40  41
ENDBRANCH  38  40
ENDBRANCH  37  38
BRANCH  37  44
HETATM   44  O3  UNL     1      37.621  48.123  15.436  1.00  0.00    -0.382 OA
ATOM     45  H3  UNL     1      38.205  48.220  14.693  1.00  0.00     0.211 HD
ENDBRANCH  37  44
ENDBRANCH   1  37
TORSDOF 12
ENDMDL
MODEL 2
REMARK VINA RESULT: -10.045105846      1.099      1.451
REMARK  12 active torsions:
REMARK  status: ('A' for Active; 'I' for Inactive)
REMARK    1  A    between atoms: C2_2  and  C3_3 
REMARK    2  A    between atoms: C3_3  and  O1_4 
REMARK    3  A    between atoms: O1_4  and  C4_5 
REMARK    4  A    between atoms: C4_5  and  C5_7 
REMARK    5  A    between atoms: C5_7  and  O3_8 
REMARK    6  A    between atoms: C5_7  and  C6_10 
REMARK    7  A    between atoms: C17_22  and  C19_24 
REMARK    8  A    between atoms: C19_24  and  C20_25 
REMARK    9  A    between atoms: C22_27  and  C23_28 
REMARK   10  A    between atoms: C23_28  and  O5_30 
REMARK   11  A    between atoms: O5_30  and  C24_31 
REMARK   12  A    between atoms: C28_39  and  O6_40 
ROOT
HETATM    1  C6  UNL     1      36.325  45.796  16.088  1.00  0.00     0.018 C 
HETATM    2  C7  UNL     1      35.986  45.009  17.111  1.00  0.00    -0.069 C 
HETATM    3  C8  UNL     1      36.727  45.105  18.355  1.00  0.00     0.035 C 
HETATM    4  C9  UNL     1      36.582  44.024  19.354  1.00  0.00     0.008 C 
HETATM    5  C10 UNL     1      35.436  43.081  19.131  1.00  0.00     0.046 C 
HETATM    6  C11 UNL     1      34.341  43.754  18.330  1.00  0.00     0.122 C 
HETATM    7  F1  UNL     1      34.220  45.027  18.936  1.00  0.00    -0.241 F 
HETATM    8  C12 UNL     1      34.864  44.036  16.970  1.00  0.00     0.016 C 
HETATM    9  C13 UNL     1      35.513  42.863  16.263  1.00  0.00     0.023 C 
HETATM   10  C14 UNL     1      33.829  44.724  16.087  1.00  0.00     0.017 C 
HETATM   11  C15 UNL     1      32.407  44.517  16.597  1.00  0.00     0.007 C 
HETATM   12  C16 UNL     1      32.315  43.140  17.143  1.00  0.00     0.008 C 
HETATM   13  C17 UNL     1      30.936  42.529  17.015  1.00  0.00    -0.008 C 
HETATM   14  C18 UNL     1      30.721  42.320  15.526  1.00  0.00     0.018 C 
HETATM   15  C28 UNL     1      30.863  41.202  17.680  1.00  0.00     0.127 C 
HETATM   16  C29 UNL     1      31.774  40.962  18.849  1.00  0.00     0.033 C 
HETATM   17  C30 UNL     1      33.111  41.599  18.807  1.00  0.00     0.015 C 
HETATM   18  C31 UNL     1      33.012  43.060  18.431  1.00  0.00    -0.002 C 
HETATM   19  C32 UNL     1      32.308  43.711  19.612  1.00  0.00     0.019 C 
ENDROOT
BRANCH  13  20
HETATM   20  C19 UNL     1      29.865  43.494  17.425  1.00  0.00     0.070 C 
BRANCH  20  21
HETATM   21  C20 UNL     1      28.485  43.021  17.384  1.00  0.00     0.029 A 
HETATM   22  C21 UNL     1      28.092  41.703  17.718  1.00  0.00     0.063 A 
HETATM   23  C22 UNL     1      26.738  41.643  17.594  1.00  0.00     0.125 A 
HETATM   24  N1  UNL     1      26.297  42.839  17.208  1.00  0.00    -0.295 N 
HETATM   25  N2  UNL     1      27.351  43.649  17.088  1.00  0.00    -0.304 N 
ATOM     26  H1  UNL     1      25.325  43.092  17.034  1.00  0.00     0.187 HD
ATOM     27  H2  UNL     1      27.294  44.628  16.804  1.00  0.00     0.186 HD
BRANCH  23  28
HETATM   28  C23 UNL     1      25.858  40.479  17.826  1.00  0.00     0.312 C 
HETATM   29  O4  UNL     1      25.844  39.559  16.998  1.00  0.00    -0.258 OA
BRANCH  28  30
HETATM   30  O5  UNL     1      25.046  40.372  18.933  1.00  0.00    -0.306 OA
BRANCH  30  31
HETATM   31  C24 UNL     1      25.491  40.045  20.226  1.00  0.00     0.060 C 
HETATM   32  C25 UNL     1      26.758  39.247  20.254  1.00  0.00     0.046 C 
HETATM   33  C26 UNL     1      25.727  41.292  21.062  1.00  0.00     0.046 C 
HETATM   34  C27 UNL     1      24.398  39.237  20.891  1.00  0.00     0.046 C 
ENDBRANCH  30  31
ENDBRANCH  28  30
ENDBRANCH  23  28
ENDBRANCH  20  21
ENDBRANCH  13  20
BRANCH  15  35
HETATM   35  O6  UNL     1      31.092  40.142  16.795  1.00  0.00    -0.395 OA
ATOM     36  H6  UNL     1      31.944  39.739  16.919  1.00  0.00     0.210 HD
ENDBRANCH  15  35
BRANCH   1  37
HETATM   37  C5  UNL     1      37.416  46.788  16.099  1.00  0.00     0.240 C 
BRANCH  37  38
HETATM   38  C4  UNL     1      38.634  46.334  15.398  1.00  0.00     0.291 C 
HETATM   39  O2  UNL     1      38.567  45.816  14.236  1.00  0.00    -0.262 OA
BRANCH  38  40
HETATM   40  O1  UNL     1      39.876  46.480  16.026  1.00  0.00    -0.316 OA
BRANCH  40  41
HETATM   41  C3  UNL     1      39.877  47.004  17.351  1.00  0.00     0.205 C 
BRANCH  41  42
HETATM   42  C2  UNL     1      40.761  46.249  18.262  1.00  0.00    -0.011 C 
HETATM   43  C1  UNL     1      40.385  45.079  18.747  1.00  0.00     0.009 C 
ENDBRANCH  41  42
ENDBRANCH  40  41
ENDBRANCH  38  40
ENDBRANCH  37  38
BRANCH  37  44
HETATM   44  O3  UNL     1      36.986  47.976  15.461  1.00  0.00    -0.382 OA
ATOM     45  H3  UNL     1      36.055  47.885  15.300  1.00  0.00     0.211 HD
ENDBRANCH  37  44
ENDBRANCH   1  37
TORSDOF 12
ENDMDL
MODEL 3
REMARK VINA RESULT: -9.902777162      1.819      2.732
REMARK  12 active torsions:
REMARK  status: ('A' for Active; 'I' for Inactive)
REMARK    1  A    between atoms: C2_2  and  C3_3 
REMARK    2  A    between atoms: C3_3  and  O1_4 
REMARK    3  A    between atoms: O1_4  and  C4_5 
REMARK    4  A    between atoms: C4_5  and  C5_7 
REMARK    5  A    between atoms: C5_7  and  O3_8 
REMARK    6  A    between atoms: C5_7  and  C6_10 
REMARK    7  A    between atoms: C17_22  and  C19_24 
REMARK    8  A    between atoms: C19_24  and  C20_25 
REMARK    9  A    between atoms: C22_27  and  C23_28 
REMARK   10  A    between atoms: C23_28  and  O5_30 
REMARK   11  A    between atoms: O5_30  and  C24_31 
REMARK   12  A    between atoms: C28_39  and  O6_40 
ROOT
HETATM    1  C6  UNL     1      36.334  45.835  16.080  1.00  0.00     0.018 C 
HETATM    2  C7  UNL     1      35.976  45.040  17.089  1.00  0.00    -0.069 C 
HETATM    3  C8  UNL     1      36.718  45.098  18.336  1.00  0.00     0.035 C 
HETATM    4  C9  UNL     1      36.545  44.004  19.316  1.00  0.00     0.008 C 
HETATM    5  C10 UNL     1      35.377  43.094  19.077  1.00  0.00     0.046 C 
HETATM    6  C11 UNL     1      34.299  43.806  18.287  1.00  0.00     0.122 C 
HETATM    7  F1  UNL     1      34.210  45.071  18.914  1.00  0.00    -0.241 F 
HETATM    8  C12 UNL     1      34.831  44.098  16.932  1.00  0.00     0.016 C 
HETATM    9  C13 UNL     1      35.450  42.921  16.205  1.00  0.00     0.023 C 
HETATM   10  C14 UNL     1      33.813  44.826  16.060  1.00  0.00     0.017 C 
HETATM   11  C15 UNL     1      32.386  44.645  16.566  1.00  0.00     0.007 C 
HETATM   12  C16 UNL     1      32.260  43.262  17.089  1.00  0.00     0.008 C 
HETATM   13  C17 UNL     1      30.866  42.688  16.951  1.00  0.00    -0.008 C 
HETATM   14  C18 UNL     1      30.647  42.509  15.459  1.00  0.00     0.018 C 
HETATM   15  C28 UNL     1      30.760  41.352  17.593  1.00  0.00     0.127 C 
HETATM   16  C29 UNL     1      31.663  41.070  18.759  1.00  0.00     0.033 C 
HETATM   17  C30 UNL     1      33.016  41.675  18.728  1.00  0.00     0.015 C 
HETATM   18  C31 UNL     1      32.953  43.144  18.376  1.00  0.00    -0.002 C 
HETATM   19  C32 UNL     1      32.265  43.792  19.567  1.00  0.00     0.019 C 
ENDROOT
BRANCH  13  20
HETATM   20  C19 UNL     1      29.819  43.672  17.376  1.00  0.00     0.070 C 
BRANCH  20  21
HETATM   21  C20 UNL     1      28.430  43.347  17.070  1.00  0.00     0.029 A 
HETATM   22  C21 UNL     1      27.644  44.048  16.125  1.00  0.00     0.063 A 
HETATM   23  C22 UNL     1      26.424  43.446  16.089  1.00  0.00     0.125 A 
HETATM   24  N1  UNL     1      26.430  42.431  16.951  1.00  0.00    -0.295 N 
HETATM   25  N2  UNL     1      27.633  42.385  17.528  1.00  0.00    -0.304 N 
ATOM     26  H1  UNL     1      25.652  41.800  17.138  1.00  0.00     0.187 HD
ATOM     27  H2  UNL     1      27.907  41.699  18.231  1.00  0.00     0.186 HD
BRANCH  23  28
HETATM   28  C23 UNL     1      25.256  43.815  15.263  1.00  0.00     0.312 C 
HETATM   29  O4  UNL     1      24.571  42.920  14.751  1.00  0.00    -0.258 OA
BRANCH  28  30
HETATM   30  O5  UNL     1      24.892  45.124  15.036  1.00  0.00    -0.306 OA
BRANCH  30  31
HETATM   31  C24 UNL     1      24.615  45.672  13.771  1.00  0.00     0.060 C 
HETATM   32  C25 UNL     1      23.514  44.977  13.031  1.00  0.00     0.046 C 
HETATM   33  C26 UNL     1      24.228  47.139  13.877  1.00  0.00     0.046 C 
HETATM   34  C27 UNL     1      25.882  45.583  12.949  1.00  0.00     0.046 C 
ENDBRANCH  30  31
ENDBRANCH  28  30
ENDBRANCH  23  28
ENDBRANCH  20  21
ENDBRANCH  13  20
BRANCH  15  35
HETATM   35  O6  UNL     1      30.963  40.301  16.691  1.00  0.00    -0.395 OA
ATOM     36  H6  UNL     1      31.642  39.701  16.976  1.00  0.00     0.210 HD
ENDBRANCH  15  35
BRANCH   1  37
HETATM   37  C5  UNL     1      37.450  46.800  16.108  1.00  0.00     0.240 C 
BRANCH  37  38
HETATM   38  C4  UNL     1      38.658  46.327  15.402  1.00  0.00     0.291 C 
HETATM   39  O2  UNL     1      38.598  45.932  14.193  1.00  0.00    -0.262 OA
BRANCH  38  40
HETATM   40  O1  UNL     1      39.882  46.315  16.080  1.00  0.00    -0.316 OA
BRANCH  40  41
HETATM   41  C3  UNL     1      39.958  47.050  17.299  1.00  0.00     0.205 C 
BRANCH  41  42
HETATM   42  C2  UNL     1      40.760  46.362  18.331  1.00  0.00    -0.011 C 
HETATM   43  C1  UNL     1      40.464  45.129  18.701  1.00  0.00     0.009 C 
ENDBRANCH  41  42
ENDBRANCH  40  41
ENDBRANCH  38  40
ENDBRANCH  37  38
BRANCH  37  44
HETATM   44  O3  UNL     1      37.051  48.008  15.486  1.00  0.00    -0.382 OA
ATOM     45  H3  UNL     1      36.156  48.178  15.755  1.00  0.00     0.211 HD
ENDBRANCH  37  44
ENDBRANCH   1  37
TORSDOF 12
ENDMDL
MODEL 4
REMARK VINA RESULT: -9.796804058      1.325      1.847
REMARK  12 active torsions:
REMARK  status: ('A' for Active; 'I' for Inactive)
REMARK    1  A    between atoms: C2_2  and  C3_3 
REMARK    2  A    between atoms: C3_3  and  O1_4 
REMARK    3  A    between atoms: O1_4  and  C4_5 
REMARK    4  A    between atoms: C4_5  and  C5_7 
REMARK    5  A    between atoms: C5_7  and  O3_8 
REMARK    6  A    between atoms: C5_7  and  C6_10 
REMARK    7  A    between atoms: C17_22  and  C19_24 
REMARK    8  A    between atoms: C19_24  and  C20_25 
REMARK    9  A    between atoms: C22_27  and  C23_28 
REMARK   10  A    between atoms: C23_28  and  O5_30 
REMARK   11  A    between atoms: O5_30  and  C24_31 
REMARK   12  A    between atoms: C28_39  and  O6_40 
ROOT
HETATM    1  C6  UNL     1      36.123  45.802  15.974  1.00  0.00     0.018 C 
HETATM    2  C7  UNL     1      35.826  45.013  17.008  1.00  0.00    -0.069 C 
HETATM    3  C8  UNL     1      36.596  45.130  18.234  1.00  0.00     0.035 C 
HETATM    4  C9  UNL     1      36.497  44.050  19.240  1.00  0.00     0.008 C 
HETATM    5  C10 UNL     1      35.366  43.084  19.049  1.00  0.00     0.046 C 
HETATM    6  C11 UNL     1      34.237  43.730  18.273  1.00  0.00     0.122 C 
HETATM    7  F1  UNL     1      34.106  45.003  18.877  1.00  0.00    -0.241 F 
HETATM    8  C12 UNL     1      34.721  44.017  16.899  1.00  0.00     0.016 C 
HETATM    9  C13 UNL     1      35.375  42.855  16.180  1.00  0.00     0.023 C 
HETATM   10  C14 UNL     1      33.650  44.681  16.040  1.00  0.00     0.017 C 
HETATM   11  C15 UNL     1      32.246  44.447  16.586  1.00  0.00     0.007 C 
HETATM   12  C16 UNL     1      32.195  43.071  17.139  1.00  0.00     0.008 C 
HETATM   13  C17 UNL     1      30.826  42.432  17.048  1.00  0.00    -0.008 C 
HETATM   14  C18 UNL     1      30.578  42.213  15.566  1.00  0.00     0.018 C 
HETATM   15  C28 UNL     1      30.796  41.106  17.720  1.00  0.00     0.127 C 
HETATM   16  C29 UNL     1      31.740  40.890  18.867  1.00  0.00     0.033 C 
HETATM   17  C30 UNL     1      33.063  41.554  18.789  1.00  0.00     0.015 C 
HETATM   18  C31 UNL     1      32.925  43.011  18.410  1.00  0.00    -0.002 C 
HETATM   19  C32 UNL     1      32.238  43.652  19.606  1.00  0.00     0.019 C 
ENDROOT
BRANCH  13  20
HETATM   20  C19 UNL     1      29.746  43.377  17.481  1.00  0.00     0.070 C 
BRANCH  20  21
HETATM   21  C20 UNL     1      28.371  42.890  17.438  1.00  0.00     0.029 A 
HETATM   22  C21 UNL     1      27.994  41.563  17.751  1.00  0.00     0.063 A 
HETATM   23  C22 UNL     1      26.640  41.490  17.631  1.00  0.00     0.125 A 
HETATM   24  N1  UNL     1      26.185  42.687  17.266  1.00  0.00    -0.295 N 
HETATM   25  N2  UNL     1      27.230  43.510  17.155  1.00  0.00    -0.304 N 
ATOM     26  H1  UNL     1      25.209  42.932  17.099  1.00  0.00     0.187 HD
ATOM     27  H2  UNL     1      27.161  44.492  16.888  1.00  0.00     0.186 HD
BRANCH  23  28
HETATM   28  C23 UNL     1      25.774  40.313  17.847  1.00  0.00     0.312 C 
HETATM   29  O4  UNL     1      25.750  39.416  16.993  1.00  0.00    -0.258 OA
BRANCH  28  30
HETATM   30  O5  UNL     1      24.985  40.167  18.967  1.00  0.00    -0.306 OA
BRANCH  30  31
HETATM   31  C24 UNL     1      25.471  39.943  20.267  1.00  0.00     0.060 C 
HETATM   32  C25 UNL     1      26.729  39.132  20.319  1.00  0.00     0.046 C 
HETATM   33  C26 UNL     1      25.750  41.252  20.987  1.00  0.00     0.046 C 
HETATM   34  C27 UNL     1      24.392  39.210  21.034  1.00  0.00     0.046 C 
ENDBRANCH  30  31
ENDBRANCH  28  30
ENDBRANCH  23  28
ENDBRANCH  20  21
ENDBRANCH  13  20
BRANCH  15  35
HETATM   35  O6  UNL     1      31.024  40.047  16.833  1.00  0.00    -0.395 OA
ATOM     36  H6  UNL     1      31.914  40.036  16.499  1.00  0.00     0.210 HD
ENDBRANCH  15  35
BRANCH   1  37
HETATM   37  C5  UNL     1      37.194  46.816  15.954  1.00  0.00     0.240 C 
BRANCH  37  38
HETATM   38  C4  UNL     1      38.469  46.317  15.401  1.00  0.00     0.291 C 
HETATM   39  O2  UNL     1      38.524  45.810  14.234  1.00  0.00    -0.262 OA
BRANCH  38  40
HETATM   40  O1  UNL     1      39.630  46.406  16.177  1.00  0.00    -0.316 OA
BRANCH  40  41
HETATM   41  C3  UNL     1      40.069  47.712  16.543  1.00  0.00     0.205 C 
BRANCH  41  42
HETATM   42  C2  UNL     1      40.471  48.526  15.378  1.00  0.00    -0.011 C 
HETATM   43  C1  UNL     1      41.204  49.613  15.538  1.00  0.00     0.009 C 
ENDBRANCH  41  42
ENDBRANCH  40  41
ENDBRANCH  38  40
ENDBRANCH  37  38
BRANCH  37  44
HETATM   44  O3  UNL     1      36.795  47.914  15.155  1.00  0.00    -0.382 OA
ATOM     45  H3  UNL     1      35.874  47.795  14.956  1.00  0.00     0.211 HD
ENDBRANCH  37  44
ENDBRANCH   1  37
TORSDOF 12
ENDMDL
MODEL 5
REMARK VINA RESULT: -9.656872147      1.426      2.417
REMARK  12 active torsions:
REMARK  status: ('A' for Active; 'I' for Inactive)
REMARK    1  A    between atoms: C2_2  and  C3_3 
REMARK    2  A    between atoms: C3_3  and  O1_4 
REMARK    3  A    between atoms: O1_4  and  C4_5 
REMARK    4  A    between atoms: C4_5  and  C5_7 
REMARK    5  A    between atoms: C5_7  and  O3_8 
REMARK    6  A    between atoms: C5_7  and  C6_10 
REMARK    7  A    between atoms: C17_22  and  C19_24 
REMARK    8  A    between atoms: C19_24  and  C20_25 
REMARK    9  A    between atoms: C22_27  and  C23_28 
REMARK   10  A    between atoms: C23_28  and  O5_30 
REMARK   11  A    between atoms: O5_30  and  C24_31 
REMARK   12  A    between atoms: C28_39  and  O6_40 
ROOT
HETATM    1  C6  UNL     1      37.748  45.480  15.294  1.00  0.00     0.018 C 
HETATM    2  C7  UNL     1      37.286  45.075  16.478  1.00  0.00    -0.069 C 
HETATM    3  C8  UNL     1      38.004  45.445  17.684  1.00  0.00     0.035 C 
HETATM    4  C9  UNL     1      37.695  44.730  18.942  1.00  0.00     0.008 C 
HETATM    5  C10 UNL     1      36.442  43.905  18.931  1.00  0.00     0.046 C 
HETATM    6  C11 UNL     1      35.463  44.437  17.906  1.00  0.00     0.122 C 
HETATM    7  F1  UNL     1      35.495  45.837  18.109  1.00  0.00    -0.241 F 
HETATM    8  C12 UNL     1      36.050  44.243  16.556  1.00  0.00     0.016 C 
HETATM    9  C13 UNL     1      36.557  42.846  16.258  1.00  0.00     0.023 C 
HETATM   10  C14 UNL     1      35.134  44.758  15.451  1.00  0.00     0.017 C 
HETATM   11  C15 UNL     1      33.686  44.879  15.912  1.00  0.00     0.007 C 
HETATM   12  C16 UNL     1      33.403  43.744  16.825  1.00  0.00     0.008 C 
HETATM   13  C17 UNL     1      31.959  43.290  16.796  1.00  0.00    -0.008 C 
HETATM   14  C18 UNL     1      31.753  42.680  15.421  1.00  0.00     0.018 C 
HETATM   15  C28 UNL     1      31.697  42.235  17.810  1.00  0.00     0.127 C 
HETATM   16  C29 UNL     1      32.541  42.245  19.052  1.00  0.00     0.033 C 
HETATM   17  C30 UNL     1      33.951  42.679  18.909  1.00  0.00     0.015 C 
HETATM   18  C31 UNL     1      34.052  43.966  18.121  1.00  0.00    -0.002 C 
HETATM   19  C32 UNL     1      33.412  45.013  19.019  1.00  0.00     0.019 C 
ENDROOT
BRANCH  13  20
HETATM   20  C19 UNL     1      31.013  44.452  16.844  1.00  0.00     0.070 C 
BRANCH  20  21
HETATM   21  C20 UNL     1      29.629  44.207  16.455  1.00  0.00     0.029 A 
HETATM   22  C21 UNL     1      28.710  43.465  17.233  1.00  0.00     0.063 A 
HETATM   23  C22 UNL     1      27.520  43.475  16.571  1.00  0.00     0.125 A 
HETATM   24  N1  UNL     1      27.670  44.174  15.448  1.00  0.00    -0.295 N 
HETATM   25  N2  UNL     1      28.933  44.604  15.393  1.00  0.00    -0.304 N 
ATOM     26  H1  UNL     1      26.947  44.351  14.751  1.00  0.00     0.187 HD
ATOM     27  H2  UNL     1      29.316  45.167  14.634  1.00  0.00     0.186 HD
BRANCH  23  28
HETATM   28  C23 UNL     1      26.253  42.833  16.976  1.00  0.00     0.312 C 
HETATM   29  O4  UNL     1      25.188  43.242  16.494  1.00  0.00    -0.258 OA
BRANCH  28  30
HETATM   30  O5  UNL     1      26.204  41.789  17.873  1.00  0.00    -0.306 OA
BRANCH  30  31
HETATM   31  C24 UNL     1      26.400  40.436  17.542  1.00  0.00     0.060 C 
HETATM   32  C25 UNL     1      25.989  40.082  16.146  1.00  0.00     0.046 C 
HETATM   33  C26 UNL     1      27.859  40.035  17.696  1.00  0.00     0.046 C 
HETATM   34  C27 UNL     1      25.585  39.609  18.511  1.00  0.00     0.046 C 
ENDBRANCH  30  31
ENDBRANCH  28  30
ENDBRANCH  23  28
ENDBRANCH  20  21
ENDBRANCH  13  20
BRANCH  15  35
HETATM   35  O6  UNL     1      31.807  40.943  17.284  1.00  0.00    -0.395 OA
ATOM     36  H6  UNL     1      32.695  40.607  17.321  1.00  0.00     0.210 HD
ENDBRANCH  15  35
BRANCH   1  37
HETATM   37  C5  UNL     1      38.959  46.296  15.084  1.00  0.00     0.240 C 
BRANCH  37  38
HETATM   38  C4  UNL     1      38.673  47.717  14.804  1.00  0.00     0.291 C 
HETATM   39  O2  UNL     1      38.875  48.613  15.687  1.00  0.00    -0.262 OA
BRANCH  38  40
HETATM   40  O1  UNL     1      38.171  48.076  13.548  1.00  0.00    -0.316 OA
BRANCH  40  41
HETATM   41  C3  UNL     1      36.764  48.284  13.446  1.00  0.00     0.205 C 
BRANCH  41  42
HETATM   42  C2  UNL     1      36.076  47.187  12.736  1.00  0.00    -0.011 C 
HETATM   43  C1  UNL     1      36.754  46.360  11.960  1.00  0.00     0.009 C 
ENDBRANCH  41  42
ENDBRANCH  40  41
ENDBRANCH  38  40
ENDBRANCH  37  38
BRANCH  37  44
HETATM   44  O3  UNL     1      39.768  46.255  16.245  1.00  0.00    -0.382 OA
ATOM     45  H3  UNL     1      39.755  45.360  16.563  1.00  0.00     0.211 HD
ENDBRANCH  37  44
ENDBRANCH   1  37
TORSDOF 12
ENDMDL
