MODEL 1
REMARK VINA RESULT: -5.645514408      0.000      0.000
REMARK  6 active torsions:
REMARK  status: ('A' for Active; 'I' for Inactive)
REMARK    1  A    between atoms: N1_1  and  C1_5 
REMARK    2  A    between atoms: C1_5  and  N2_6 
REMARK    3  A    between atoms: C1_5  and  C2_10 
REMARK    4  A    between atoms: C2_10  and  O1_11 
REMARK    5  A    between atoms: C2_10  and  C3_13 
REMARK    6  A    between atoms: C5_21  and  N4_22 
ROOT
HETATM    1  C3  UNL     1      44.780  50.497  13.435  1.00  0.00     0.097 C 
HETATM    2  C4  UNL     1      45.399  51.483  12.495  1.00  0.00     0.203 C 
HETATM    3  O2  UNL     1      46.015  50.832  11.394  1.00  0.00    -0.259 OA
HETATM    4  S1  UNL     1      44.706  50.194  10.505  1.00  0.00     0.359 S 
HETATM    5  O3  UNL     1      45.143  49.575   9.236  1.00  0.00    -0.176 OA
HETATM    6  O4  UNL     1      43.724  51.305  10.299  1.00  0.00    -0.176 OA
HETATM    7  N3  UNL     1      43.970  49.048  11.603  1.00  0.00    -0.264 N 
ATOM      8  H3  UNL     1      43.169  48.444  11.426  1.00  0.00     0.176 HD
HETATM    9  C5  UNL     1      44.746  49.145  12.814  1.00  0.00     0.342 C 
ENDROOT
BRANCH   1  10
HETATM   10  C2  UNL     1      43.511  50.944  14.057  1.00  0.00     0.185 C 
BRANCH  10  11
HETATM   11  C1  UNL     1      43.057  52.298  13.578  1.00  0.00     0.406 C 
BRANCH  11  12
HETATM   12  N1  UNL     1      42.025  52.295  12.599  1.00  0.00    -0.048 N 
ATOM     13  H13 UNL     1      41.281  52.955  12.823  1.00  0.00     0.276 HD
ATOM     14  H12 UNL     1      42.329  52.710  11.718  1.00  0.00     0.276 HD
ATOM     15  H11 UNL     1      41.673  51.345  12.476  1.00  0.00     0.276 HD
ENDBRANCH  11  12
BRANCH  11  16
HETATM   16  N2  UNL     1      42.634  53.076  14.730  1.00  0.00    -0.048 N 
ATOM     17  H23 UNL     1      43.194  53.920  14.852  1.00  0.00     0.276 HD
ATOM     18  H22 UNL     1      41.729  53.522  14.582  1.00  0.00     0.276 HD
ATOM     19  H21 UNL     1      42.641  52.486  15.562  1.00  0.00     0.276 HD
ENDBRANCH  11  16
ENDBRANCH  10  11
BRANCH  10  20
HETATM   20  O1  UNL     1      43.503  50.928  15.431  1.00  0.00    -0.391 OA
ATOM     21  H1  UNL     1      44.295  50.505  15.741  1.00  0.00     0.210 HD
ENDBRANCH  10  20
ENDBRANCH   1  10
BRANCH   9  22
HETATM   22  N4  UNL     1      44.494  48.057  13.747  1.00  0.00     0.122 N 
HETATM   23  C6  UNL     1      45.477  48.095  14.743  1.00  0.00     0.286 C 
HETATM   24  C7  UNL     1      45.588  46.784  15.466  1.00  0.00     0.106 C 
HETATM   25  S2  UNL     1      45.472  45.643  14.029  1.00  0.00    -0.138 SA
HETATM   26  C8  UNL     1      44.570  46.849  12.978  1.00  0.00     0.349 C 
ENDBRANCH   9  22
TORSDOF 6
ENDMDL
MODEL 2
REMARK VINA RESULT: -4.865673043      3.295      4.569
REMARK  6 active torsions:
REMARK  status: ('A' for Active; 'I' for Inactive)
REMARK    1  A    between atoms: N1_1  and  C1_5 
REMARK    2  A    between atoms: C1_5  and  N2_6 
REMARK    3  A    between atoms: C1_5  and  C2_10 
REMARK    4  A    between atoms: C2_10  and  O1_11 
REMARK    5  A    between atoms: C2_10  and  C3_13 
REMARK    6  A    between atoms: C5_21  and  N4_22 
ROOT
HETATM    1  C3  UNL     1      45.890  51.535   9.824  1.00  0.00     0.097 C 
HETATM    2  C4  UNL     1      45.147  52.149   8.680  1.00  0.00     0.203 C 
HETATM    3  O2  UNL     1      43.769  51.808   8.716  1.00  0.00    -0.259 OA
HETATM    4  S1  UNL     1      43.172  52.643  10.079  1.00  0.00     0.359 S 
HETATM    5  O3  UNL     1      41.706  52.511  10.215  1.00  0.00    -0.176 OA
HETATM    6  O4  UNL     1      43.617  54.067   9.959  1.00  0.00    -0.176 OA
HETATM    7  N3  UNL     1      44.046  51.937  11.420  1.00  0.00    -0.264 N 
ATOM      8  H3  UNL     1      43.948  52.159  12.410  1.00  0.00     0.176 HD
HETATM    9  C5  UNL     1      44.935  50.975  10.818  1.00  0.00     0.342 C 
ENDROOT
BRANCH   1  10
HETATM   10  C2  UNL     1      46.972  52.378  10.386  1.00  0.00     0.185 C 
BRANCH  10  11
HETATM   11  C1  UNL     1      47.514  53.383   9.404  1.00  0.00     0.406 C 
BRANCH  11  12
HETATM   12  N1  UNL     1      47.732  54.693   9.915  1.00  0.00    -0.048 N 
ATOM     13  H13 UNL     1      48.700  54.994   9.801  1.00  0.00     0.276 HD
ATOM     14  H12 UNL     1      47.287  55.409   9.340  1.00  0.00     0.276 HD
ATOM     15  H11 UNL     1      47.427  54.735  10.888  1.00  0.00     0.276 HD
ENDBRANCH  11  12
BRANCH  11  16
HETATM   16  N2  UNL     1      48.754  52.864   8.851  1.00  0.00    -0.048 N 
ATOM     17  H23 UNL     1      48.650  52.573   7.878  1.00  0.00     0.276 HD
ATOM     18  H22 UNL     1      49.449  53.596   8.710  1.00  0.00     0.276 HD
ATOM     19  H21 UNL     1      49.103  52.110   9.442  1.00  0.00     0.276 HD
ENDBRANCH  11  16
ENDBRANCH  10  11
BRANCH  10  20
HETATM   20  O1  UNL     1      48.019  51.682  10.940  1.00  0.00    -0.391 OA
ATOM     21  H1  UNL     1      48.710  51.595  10.295  1.00  0.00     0.210 HD
ENDBRANCH  10  20
ENDBRANCH   1  10
BRANCH   9  22
HETATM   22  N4  UNL     1      45.529  50.061  11.781  1.00  0.00     0.122 N 
HETATM   23  C6  UNL     1      45.136  48.758  11.453  1.00  0.00     0.286 C 
HETATM   24  C7  UNL     1      45.298  47.818  12.611  1.00  0.00     0.106 C 
HETATM   25  S2  UNL     1      44.654  48.893  13.957  1.00  0.00    -0.138 SA
HETATM   26  C8  UNL     1      45.027  50.455  13.066  1.00  0.00     0.349 C 
ENDBRANCH   9  22
TORSDOF 6
ENDMDL
MODEL 3
REMARK VINA RESULT: -4.444642238      8.819     10.990
REMARK  6 active torsions:
REMARK  status: ('A' for Active; 'I' for Inactive)
REMARK    1  A    between atoms: N1_1  and  C1_5 
REMARK    2  A    between atoms: C1_5  and  N2_6 
REMARK    3  A    between atoms: C1_5  and  C2_10 
REMARK    4  A    between atoms: C2_10  and  O1_11 
REMARK    5  A    between atoms: C2_10  and  C3_13 
REMARK    6  A    between atoms: C5_21  and  N4_22 
ROOT
HETATM    1  C3  UNL     1      49.582  55.812   8.231  1.00  0.00     0.097 C 
HETATM    2  C4  UNL     1      50.674  55.781   9.253  1.00  0.00     0.203 C 
HETATM    3  O2  UNL     1      51.656  56.774   8.992  1.00  0.00    -0.259 OA
HETATM    4  S1  UNL     1      50.850  58.245   9.305  1.00  0.00     0.359 S 
HETATM    5  O3  UNL     1      51.756  59.409   9.207  1.00  0.00    -0.176 OA
HETATM    6  O4  UNL     1      50.209  58.123  10.653  1.00  0.00    -0.176 OA
HETATM    7  N3  UNL     1      49.564  58.281   8.120  1.00  0.00    -0.264 N 
ATOM      8  H3  UNL     1      48.876  59.018   7.973  1.00  0.00     0.176 HD
HETATM    9  C5  UNL     1      49.690  57.040   7.398  1.00  0.00     0.342 C 
ENDROOT
BRANCH   1  10
HETATM   10  C2  UNL     1      48.229  55.518   8.759  1.00  0.00     0.185 C 
BRANCH  10  11
HETATM   11  C1  UNL     1      48.083  54.109   9.271  1.00  0.00     0.406 C 
BRANCH  11  12
HETATM   12  N1  UNL     1      46.749  53.660   9.477  1.00  0.00    -0.048 N 
ATOM     13  H13 UNL     1      46.179  53.748   8.636  1.00  0.00     0.276 HD
ATOM     14  H12 UNL     1      46.696  52.647   9.584  1.00  0.00     0.276 HD
ATOM     15  H11 UNL     1      46.341  54.154  10.272  1.00  0.00     0.276 HD
ENDBRANCH  11  12
BRANCH  11  16
HETATM   16  N2  UNL     1      48.761  53.212   8.350  1.00  0.00    -0.048 N 
ATOM     17  H23 UNL     1      48.343  53.227   7.419  1.00  0.00     0.276 HD
ATOM     18  H22 UNL     1      49.690  53.550   8.098  1.00  0.00     0.276 HD
ATOM     19  H21 UNL     1      48.787  52.272   8.745  1.00  0.00     0.276 HD
ENDBRANCH  11  16
ENDBRANCH  10  11
BRANCH  10  20
HETATM   20  O1  UNL     1      47.198  55.790   7.892  1.00  0.00    -0.391 OA
ATOM     21  H1  UNL     1      46.509  56.244   8.361  1.00  0.00     0.210 HD
ENDBRANCH  10  20
ENDBRANCH   1  10
BRANCH   9  22
HETATM   22  N4  UNL     1      48.913  57.009   6.169  1.00  0.00     0.122 N 
HETATM   23  C6  UNL     1      49.719  56.488   5.150  1.00  0.00     0.286 C 
HETATM   24  C7  UNL     1      49.193  56.837   3.789  1.00  0.00     0.106 C 
HETATM   25  S2  UNL     1      48.735  58.593   4.090  1.00  0.00    -0.138 SA
HETATM   26  C8  UNL     1      48.537  58.367   5.902  1.00  0.00     0.349 C 
ENDBRANCH   9  22
TORSDOF 6
ENDMDL
MODEL 4
REMARK VINA RESULT: -4.416565685      9.109     10.913
REMARK  6 active torsions:
REMARK  status: ('A' for Active; 'I' for Inactive)
REMARK    1  A    between atoms: N1_1  and  C1_5 
REMARK    2  A    between atoms: C1_5  and  N2_6 
REMARK    3  A    between atoms: C1_5  and  C2_10 
REMARK    4  A    between atoms: C2_10  and  O1_11 
REMARK    5  A    between atoms: C2_10  and  C3_13 
REMARK    6  A    between atoms: C5_21  and  N4_22 
ROOT
HETATM    1  C3  UNL     1      48.656  56.739   7.733  1.00  0.00     0.097 C 
HETATM    2  C4  UNL     1      47.965  56.990   6.430  1.00  0.00     0.203 C 
HETATM    3  O2  UNL     1      48.442  58.175   5.810  1.00  0.00    -0.259 OA
HETATM    4  S1  UNL     1      50.039  57.787   5.352  1.00  0.00     0.359 S 
HETATM    5  O3  UNL     1      50.672  58.869   4.569  1.00  0.00    -0.176 OA
HETATM    6  O4  UNL     1      49.986  56.489   4.608  1.00  0.00    -0.176 OA
HETATM    7  N3  UNL     1      50.850  57.482   6.871  1.00  0.00    -0.264 N 
ATOM      8  H3  UNL     1      51.831  57.243   7.015  1.00  0.00     0.176 HD
HETATM    9  C5  UNL     1      49.830  57.644   7.876  1.00  0.00     0.342 C 
ENDROOT
BRANCH   1  10
HETATM   10  C2  UNL     1      48.912  55.311   8.037  1.00  0.00     0.185 C 
BRANCH  10  11
HETATM   11  C1  UNL     1      47.872  54.699   8.938  1.00  0.00     0.406 C 
BRANCH  11  12
HETATM   12  N1  UNL     1      47.803  53.278   8.927  1.00  0.00    -0.048 N 
ATOM     13  H13 UNL     1      48.416  52.868   8.223  1.00  0.00     0.276 HD
ATOM     14  H12 UNL     1      48.234  52.865   9.754  1.00  0.00     0.276 HD
ATOM     15  H11 UNL     1      46.833  52.984   8.810  1.00  0.00     0.276 HD
ENDBRANCH  11  12
BRANCH  11  16
HETATM   16  N2  UNL     1      48.106  55.165  10.294  1.00  0.00    -0.048 N 
ATOM     17  H23 UNL     1      47.312  55.687  10.665  1.00  0.00     0.276 HD
ATOM     18  H22 UNL     1      48.106  54.400  10.969  1.00  0.00     0.276 HD
ATOM     19  H21 UNL     1      48.970  55.706  10.325  1.00  0.00     0.276 HD
ENDBRANCH  11  16
ENDBRANCH  10  11
BRANCH  10  20
HETATM   20  O1  UNL     1      50.161  55.043   8.544  1.00  0.00    -0.391 OA
ATOM     21  H1  UNL     1      50.799  55.594   8.107  1.00  0.00     0.210 HD
ENDBRANCH  10  20
ENDBRANCH   1  10
BRANCH   9  22
HETATM   22  N4  UNL     1      50.361  57.737   9.226  1.00  0.00     0.122 N 
HETATM   23  C6  UNL     1      49.589  58.660   9.942  1.00  0.00     0.286 C 
HETATM   24  C7  UNL     1      50.309  59.167  11.156  1.00  0.00     0.106 C 
HETATM   25  S2  UNL     1      51.982  59.407  10.430  1.00  0.00    -0.138 SA
HETATM   26  C8  UNL     1      51.719  58.180   9.089  1.00  0.00     0.349 C 
ENDBRANCH   9  22
TORSDOF 6
ENDMDL
MODEL 5
REMARK VINA RESULT: -4.281822376      8.943     10.690
REMARK  6 active torsions:
REMARK  status: ('A' for Active; 'I' for Inactive)
REMARK    1  A    between atoms: N1_1  and  C1_5 
REMARK    2  A    between atoms: C1_5  and  N2_6 
REMARK    3  A    between atoms: C1_5  and  C2_10 
REMARK    4  A    between atoms: C2_10  and  O1_11 
REMARK    5  A    between atoms: C2_10  and  C3_13 
REMARK    6  A    between atoms: C5_21  and  N4_22 
ROOT
HETATM    1  C3  UNL     1      48.813  57.198   9.001  1.00  0.00     0.097 C 
HETATM    2  C4  UNL     1      48.030  57.454   7.753  1.00  0.00     0.203 C 
HETATM    3  O2  UNL     1      48.713  58.350   6.888  1.00  0.00    -0.259 OA
HETATM    4  S1  UNL     1      50.060  57.455   6.344  1.00  0.00     0.359 S 
HETATM    5  O3  UNL     1      50.838  58.186   5.322  1.00  0.00    -0.176 OA
HETATM    6  O4  UNL     1      49.548  56.137   5.849  1.00  0.00    -0.176 OA
HETATM    7  N3  UNL     1      50.973  57.143   7.802  1.00  0.00    -0.264 N 
ATOM      8  H3  UNL     1      51.863  56.651   7.885  1.00  0.00     0.176 HD
HETATM    9  C5  UNL     1      50.195  57.733   8.862  1.00  0.00     0.342 C 
ENDROOT
BRANCH   1  10
HETATM   10  C2  UNL     1      48.716  55.814   9.524  1.00  0.00     0.185 C 
BRANCH  10  11
HETATM   11  C1  UNL     1      48.137  54.842   8.529  1.00  0.00     0.406 C 
BRANCH  11  12
HETATM   12  N1  UNL     1      49.042  53.877   8.007  1.00  0.00    -0.048 N 
ATOM     13  H13 UNL     1      49.284  54.063   7.034  1.00  0.00     0.276 HD
ATOM     14  H12 UNL     1      49.976  53.968   8.410  1.00  0.00     0.276 HD
ATOM     15  H11 UNL     1      48.656  52.941   8.137  1.00  0.00     0.276 HD
ENDBRANCH  11  12
BRANCH  11  16
HETATM   16  N2  UNL     1      47.009  54.167   9.149  1.00  0.00    -0.048 N 
ATOM     17  H23 UNL     1      46.674  53.382   8.589  1.00  0.00     0.276 HD
ATOM     18  H22 UNL     1      47.283  53.646   9.982  1.00  0.00     0.276 HD
ATOM     19  H21 UNL     1      46.271  54.843   9.343  1.00  0.00     0.276 HD
ENDBRANCH  11  16
ENDBRANCH  10  11
BRANCH  10  20
HETATM   20  O1  UNL     1      48.043  55.692  10.715  1.00  0.00    -0.391 OA
ATOM     21  H1  UNL     1      48.563  55.166  11.312  1.00  0.00     0.210 HD
ENDBRANCH  10  20
ENDBRANCH   1  10
BRANCH   9  22
HETATM   22  N4  UNL     1      50.926  57.855  10.113  1.00  0.00     0.122 N 
HETATM   23  C6  UNL     1      50.367  58.907  10.849  1.00  0.00     0.286 C 
HETATM   24  C7  UNL     1      51.307  59.409  11.906  1.00  0.00     0.106 C 
HETATM   25  S2  UNL     1      52.870  59.405  10.938  1.00  0.00    -0.138 SA
HETATM   26  C8  UNL     1      52.287  58.129   9.753  1.00  0.00     0.349 C 
ENDBRANCH   9  22
TORSDOF 6
ENDMDL
