MODEL 1
REMARK VINA RESULT: -9.112327736      0.000      0.000
REMARK  10 active torsions:
REMARK  status: ('A' for Active; 'I' for Inactive)
REMARK    1  A    between atoms: C2_2  and  N1_3 
REMARK    2  A    between atoms: N1_3  and  C3_4 
REMARK       I    between atoms: N1_3  and  C5_6 
REMARK    3  A    between atoms: C5_6  and  C6_8 
REMARK    4  A    between atoms: N2_10  and  C8_11 
REMARK    5  A    between atoms: C8_11  and  C9_12 
REMARK    6  A    between atoms: C22_25  and  C23_26 
REMARK    7  A    between atoms: N3_29  and  C24_30 
REMARK    8  A    between atoms: C24_30  and  C25_31 
REMARK    9  A    between atoms: C25_31  and  O4_32 
REMARK   10  A    between atoms: N4_34  and  O5_36 
ROOT
HETATM    1  C6  UNL     1      19.856 -27.929  -1.679  1.00  0.00     0.056 A 
HETATM    2  C7  UNL     1      19.280 -28.409  -2.849  1.00  0.00     0.108 A 
HETATM    3  N2  UNL     1      17.955 -28.150  -2.829  1.00  0.00    -0.357 N 
HETATM    4  C19 UNL     1      17.681 -27.526  -1.687  1.00  0.00     0.032 A 
HETATM    5  C20 UNL     1      18.841 -27.381  -0.965  1.00  0.00    -0.015 A 
HETATM    6  C21 UNL     1      18.760 -26.717   0.342  1.00  0.00     0.072 C 
HETATM    7  C22 UNL     1      17.710 -25.648   0.439  1.00  0.00     0.168 C 
HETATM    8  N3  UNL     1      16.552 -25.847  -0.328  1.00  0.00    -0.268 NA
HETATM    9  C27 UNL     1      16.440 -27.010  -1.127  1.00  0.00     0.153 C 
ENDROOT
BRANCH   3  10
HETATM   10  C8  UNL     1      17.077 -28.533  -3.915  1.00  0.00     0.138 C 
BRANCH  10  11
HETATM   11  C9  UNL     1      16.326 -29.798  -3.690  1.00  0.00    -0.023 C 
HETATM   12  C10 UNL     1      15.148 -29.692  -2.784  1.00  0.00     0.015 C 
HETATM   13  C11 UNL     1      14.455 -31.034  -2.716  1.00  0.00    -0.013 C 
HETATM   14  C12 UNL     1      13.931 -31.461  -4.077  1.00  0.00     0.009 C 
HETATM   15  C16 UNL     1      15.354 -32.130  -2.223  1.00  0.00     0.009 C 
HETATM   16  C13 UNL     1      15.117 -31.571  -5.003  1.00  0.00    -0.013 C 
HETATM   17  C14 UNL     1      16.116 -32.607  -4.531  1.00  0.00     0.009 C 
HETATM   18  C18 UNL     1      15.826 -30.252  -5.068  1.00  0.00     0.015 C 
HETATM   19  C15 UNL     1      16.549 -32.223  -3.145  1.00  0.00    -0.013 C 
HETATM   20  C17 UNL     1      17.236 -30.884  -3.150  1.00  0.00     0.015 C 
ENDBRANCH  10  11
ENDBRANCH   3  10
BRANCH   1  21
HETATM   21  C5  UNL     1      21.277 -28.014  -1.329  1.00  0.00     0.255 C 
HETATM   22  N1  UNL     1      22.098 -29.122  -1.599  1.00  0.00    -0.349 N 
HETATM   23  O1  UNL     1      21.804 -27.009  -0.737  1.00  0.00    -0.267 OA
BRANCH  22  24
HETATM   24  C2  UNL     1      23.483 -29.108  -1.221  1.00  0.00     0.121 C 
HETATM   25  C1  UNL     1      23.731 -29.680   0.149  1.00  0.00     0.026 C 
ENDBRANCH  22  24
BRANCH  22  26
HETATM   26  C3  UNL     1      21.545 -30.283  -2.255  1.00  0.00     0.121 C 
HETATM   27  C4  UNL     1      22.494 -31.007  -3.147  1.00  0.00     0.026 C 
ENDBRANCH  22  26
ENDBRANCH   1  21
BRANCH   8  28
HETATM   28  C24 UNL     1      16.151 -24.733  -1.122  1.00  0.00     0.118 C 
BRANCH  28  29
HETATM   29  C25 UNL     1      15.096 -24.938  -2.096  1.00  0.00     0.170 C 
HETATM   30  N4  UNL     1      13.840 -25.045  -1.742  1.00  0.00    -0.245 N 
ATOM     31  H4  UNL     1      13.572 -24.986  -0.760  1.00  0.00     0.196 HD
BRANCH  29  32
HETATM   32  O4  UNL     1      15.419 -25.022  -3.449  1.00  0.00    -0.344 OA
ATOM     33  H4  UNL     1      15.961 -25.740  -3.756  1.00  0.00     0.219 HD
ENDBRANCH  29  32
BRANCH  30  34
HETATM   34  O5  UNL     1      12.876 -25.240  -2.725  1.00  0.00    -0.283 OA
HETATM   35  C26 UNL     1      11.513 -24.975  -2.455  1.00  0.00     0.237 C 
ENDBRANCH  30  34
ENDBRANCH  28  29
ENDBRANCH   8  28
BRANCH   7  36
HETATM   36  C23 UNL     1      17.370 -25.556   1.881  1.00  0.00     0.192 C 
HETATM   37  O2  UNL     1      18.286 -25.616   2.727  1.00  0.00    -0.647 OA
HETATM   38  O3  UNL     1      16.069 -25.408   2.305  1.00  0.00    -0.647 OA
ENDBRANCH   7  36
TORSDOF 10
ENDMDL
MODEL 2
REMARK VINA RESULT: -8.653374281      1.067      1.232
REMARK  10 active torsions:
REMARK  status: ('A' for Active; 'I' for Inactive)
REMARK    1  A    between atoms: C2_2  and  N1_3 
REMARK    2  A    between atoms: N1_3  and  C3_4 
REMARK       I    between atoms: N1_3  and  C5_6 
REMARK    3  A    between atoms: C5_6  and  C6_8 
REMARK    4  A    between atoms: N2_10  and  C8_11 
REMARK    5  A    between atoms: C8_11  and  C9_12 
REMARK    6  A    between atoms: C22_25  and  C23_26 
REMARK    7  A    between atoms: N3_29  and  C24_30 
REMARK    8  A    between atoms: C24_30  and  C25_31 
REMARK    9  A    between atoms: C25_31  and  O4_32 
REMARK   10  A    between atoms: N4_34  and  O5_36 
ROOT
HETATM    1  C6  UNL     1      20.449 -28.260  -1.700  1.00  0.00     0.056 A 
HETATM    2  C7  UNL     1      19.697 -28.568  -2.827  1.00  0.00     0.108 A 
HETATM    3  N2  UNL     1      18.413 -28.209  -2.615  1.00  0.00    -0.357 N 
HETATM    4  C19 UNL     1      18.334 -27.688  -1.393  1.00  0.00     0.032 A 
HETATM    5  C20 UNL     1      19.581 -27.712  -0.814  1.00  0.00    -0.015 A 
HETATM    6  C21 UNL     1      19.716 -27.184   0.549  1.00  0.00     0.072 C 
HETATM    7  C22 UNL     1      18.788 -26.051   0.880  1.00  0.00     0.168 C 
HETATM    8  N3  UNL     1      17.533 -26.076   0.250  1.00  0.00    -0.268 NA
HETATM    9  C27 UNL     1      17.222 -27.137  -0.634  1.00  0.00     0.153 C 
ENDROOT
BRANCH   3  10
HETATM   10  C8  UNL     1      17.380 -28.405  -3.610  1.00  0.00     0.138 C 
BRANCH  10  11
HETATM   11  C9  UNL     1      16.600 -29.663  -3.456  1.00  0.00    -0.023 C 
HETATM   12  C10 UNL     1      15.520 -29.627  -2.431  1.00  0.00     0.015 C 
HETATM   13  C11 UNL     1      14.778 -30.943  -2.447  1.00  0.00    -0.013 C 
HETATM   14  C12 UNL     1      14.110 -31.192  -3.789  1.00  0.00     0.009 C 
HETATM   15  C16 UNL     1      15.672 -32.118  -2.173  1.00  0.00     0.009 C 
HETATM   16  C13 UNL     1      15.196 -31.232  -4.834  1.00  0.00    -0.013 C 
HETATM   17  C14 UNL     1      16.190 -32.347  -4.584  1.00  0.00     0.009 C 
HETATM   18  C18 UNL     1      15.952 -29.937  -4.820  1.00  0.00     0.015 C 
HETATM   19  C15 UNL     1      16.769 -32.141  -3.214  1.00  0.00    -0.013 C 
HETATM   20  C17 UNL     1      17.509 -30.834  -3.136  1.00  0.00     0.015 C 
ENDBRANCH  10  11
ENDBRANCH   3  10
BRANCH   1  21
HETATM   21  C5  UNL     1      21.888 -28.492  -1.544  1.00  0.00     0.255 C 
HETATM   22  N1  UNL     1      22.564 -29.634  -2.005  1.00  0.00    -0.349 N 
HETATM   23  O1  UNL     1      22.573 -27.593  -0.946  1.00  0.00    -0.267 OA
BRANCH  22  24
HETATM   24  C2  UNL     1      23.980 -29.769  -1.809  1.00  0.00     0.121 C 
HETATM   25  C1  UNL     1      24.347 -30.908  -0.896  1.00  0.00     0.026 C 
ENDBRANCH  22  24
BRANCH  22  26
HETATM   26  C3  UNL     1      21.830 -30.681  -2.676  1.00  0.00     0.121 C 
HETATM   27  C4  UNL     1      22.413 -31.116  -3.978  1.00  0.00     0.026 C 
ENDBRANCH  22  26
ENDBRANCH   1  21
BRANCH   8  28
HETATM   28  C24 UNL     1      17.143 -24.857  -0.377  1.00  0.00     0.118 C 
BRANCH  28  29
HETATM   29  C25 UNL     1      15.727 -24.617  -0.574  1.00  0.00     0.170 C 
HETATM   30  N4  UNL     1      15.045 -25.227  -1.511  1.00  0.00    -0.245 N 
ATOM     31  H4  UNL     1      15.503 -25.895  -2.132  1.00  0.00     0.196 HD
BRANCH  29  32
HETATM   32  O4  UNL     1      15.064 -23.714   0.255  1.00  0.00    -0.344 OA
ATOM     33  H4  UNL     1      15.545 -22.989   0.637  1.00  0.00     0.219 HD
ENDBRANCH  29  32
BRANCH  30  34
HETATM   34  O5  UNL     1      13.689 -24.953  -1.647  1.00  0.00    -0.283 OA
HETATM   35  C26 UNL     1      12.806 -25.938  -2.146  1.00  0.00     0.237 C 
ENDBRANCH  30  34
ENDBRANCH  28  29
ENDBRANCH   8  28
BRANCH   7  36
HETATM   36  C23 UNL     1      18.631 -26.084   2.355  1.00  0.00     0.192 C 
HETATM   37  O2  UNL     1      18.628 -25.009   2.990  1.00  0.00    -0.647 OA
HETATM   38  O3  UNL     1      18.488 -27.271   3.037  1.00  0.00    -0.647 OA
ENDBRANCH   7  36
TORSDOF 10
ENDMDL
MODEL 3
REMARK VINA RESULT: -8.563135781      3.311      6.578
REMARK  10 active torsions:
REMARK  status: ('A' for Active; 'I' for Inactive)
REMARK    1  A    between atoms: C2_2  and  N1_3 
REMARK    2  A    between atoms: N1_3  and  C3_4 
REMARK       I    between atoms: N1_3  and  C5_6 
REMARK    3  A    between atoms: C5_6  and  C6_8 
REMARK    4  A    between atoms: N2_10  and  C8_11 
REMARK    5  A    between atoms: C8_11  and  C9_12 
REMARK    6  A    between atoms: C22_25  and  C23_26 
REMARK    7  A    between atoms: N3_29  and  C24_30 
REMARK    8  A    between atoms: C24_30  and  C25_31 
REMARK    9  A    between atoms: C25_31  and  O4_32 
REMARK   10  A    between atoms: N4_34  and  O5_36 
ROOT
HETATM    1  C6  UNL     1      16.233 -29.859  -2.312  1.00  0.00     0.056 A 
HETATM    2  C7  UNL     1      17.303 -29.118  -1.826  1.00  0.00     0.108 A 
HETATM    3  N2  UNL     1      17.115 -27.816  -2.130  1.00  0.00    -0.357 N 
HETATM    4  C19 UNL     1      15.965 -27.716  -2.790  1.00  0.00     0.032 A 
HETATM    5  C20 UNL     1      15.407 -28.966  -2.912  1.00  0.00    -0.015 A 
HETATM    6  C21 UNL     1      14.126 -29.082  -3.619  1.00  0.00     0.072 C 
HETATM    7  C22 UNL     1      13.216 -27.896  -3.471  1.00  0.00     0.168 C 
HETATM    8  N3  UNL     1      13.845 -26.648  -3.341  1.00  0.00    -0.268 NA
HETATM    9  C27 UNL     1      15.258 -26.577  -3.358  1.00  0.00     0.153 C 
ENDROOT
BRANCH   3  10
HETATM   10  C8  UNL     1      18.066 -26.790  -1.757  1.00  0.00     0.138 C 
BRANCH  10  11
HETATM   11  C9  UNL     1      18.052 -26.424  -0.315  1.00  0.00    -0.023 C 
HETATM   12  C10 UNL     1      18.409 -27.519   0.629  1.00  0.00     0.015 C 
HETATM   13  C11 UNL     1      18.421 -26.974   2.039  1.00  0.00    -0.013 C 
HETATM   14  C12 UNL     1      19.466 -25.884   2.207  1.00  0.00     0.009 C 
HETATM   15  C16 UNL     1      17.100 -26.387   2.447  1.00  0.00     0.009 C 
HETATM   16  C13 UNL     1      19.113 -24.768   1.255  1.00  0.00    -0.013 C 
HETATM   17  C14 UNL     1      17.753 -24.172   1.552  1.00  0.00     0.009 C 
HETATM   18  C18 UNL     1      19.081 -25.298  -0.147  1.00  0.00     0.015 C 
HETATM   19  C15 UNL     1      16.744 -25.282   1.478  1.00  0.00    -0.013 C 
HETATM   20  C17 UNL     1      16.700 -25.875   0.096  1.00  0.00     0.015 C 
ENDBRANCH  10  11
ENDBRANCH   3  10
BRANCH   1  21
HETATM   21  C5  UNL     1      16.066 -31.309  -2.176  1.00  0.00     0.255 C 
HETATM   22  N1  UNL     1      16.093 -32.216  -3.249  1.00  0.00    -0.349 N 
HETATM   23  O1  UNL     1      15.883 -31.778  -1.000  1.00  0.00    -0.267 OA
BRANCH  22  24
HETATM   24  C2  UNL     1      15.924 -33.623  -3.015  1.00  0.00     0.121 C 
HETATM   25  C1  UNL     1      16.270 -34.470  -4.210  1.00  0.00     0.026 C 
ENDBRANCH  22  24
BRANCH  22  26
HETATM   26  C3  UNL     1      16.285 -31.732  -4.595  1.00  0.00     0.121 C 
HETATM   27  C4  UNL     1      15.051 -31.697  -5.429  1.00  0.00     0.026 C 
ENDBRANCH  22  26
ENDBRANCH   1  21
BRANCH   8  28
HETATM   28  C24 UNL     1      13.381 -25.844  -2.259  1.00  0.00     0.118 C 
BRANCH  28  29
HETATM   29  C25 UNL     1      12.384 -24.831  -2.544  1.00  0.00     0.170 C 
HETATM   30  N4  UNL     1      12.534 -23.966  -3.516  1.00  0.00    -0.245 N 
ATOM     31  H4  UNL     1      13.369 -23.987  -4.102  1.00  0.00     0.196 HD
BRANCH  29  32
HETATM   32  O4  UNL     1      11.228 -24.769  -1.767  1.00  0.00    -0.344 OA
ATOM     33  H4  UNL     1      10.816 -23.927  -1.609  1.00  0.00     0.219 HD
ENDBRANCH  29  32
BRANCH  30  34
HETATM   34  O5  UNL     1      11.541 -23.020  -3.738  1.00  0.00    -0.283 OA
HETATM   35  C26 UNL     1      11.356 -22.463  -5.024  1.00  0.00     0.237 C 
ENDBRANCH  30  34
ENDBRANCH  28  29
ENDBRANCH   8  28
BRANCH   7  36
HETATM   36  C23 UNL     1      12.340 -27.916  -4.668  1.00  0.00     0.192 C 
HETATM   37  O2  UNL     1      11.206 -27.399  -4.599  1.00  0.00    -0.647 OA
HETATM   38  O3  UNL     1      12.749 -28.489  -5.851  1.00  0.00    -0.647 OA
ENDBRANCH   7  36
TORSDOF 10
ENDMDL
MODEL 4
REMARK VINA RESULT: -8.239560543      2.477      6.101
REMARK  10 active torsions:
REMARK  status: ('A' for Active; 'I' for Inactive)
REMARK    1  A    between atoms: C2_2  and  N1_3 
REMARK    2  A    between atoms: N1_3  and  C3_4 
REMARK       I    between atoms: N1_3  and  C5_6 
REMARK    3  A    between atoms: C5_6  and  C6_8 
REMARK    4  A    between atoms: N2_10  and  C8_11 
REMARK    5  A    between atoms: C8_11  and  C9_12 
REMARK    6  A    between atoms: C22_25  and  C23_26 
REMARK    7  A    between atoms: N3_29  and  C24_30 
REMARK    8  A    between atoms: C24_30  and  C25_31 
REMARK    9  A    between atoms: C25_31  and  O4_32 
REMARK   10  A    between atoms: N4_34  and  O5_36 
ROOT
HETATM    1  C6  UNL     1      15.030 -26.088  -2.006  1.00  0.00     0.056 A 
HETATM    2  C7  UNL     1      15.433 -27.137  -2.824  1.00  0.00     0.108 A 
HETATM    3  N2  UNL     1      16.678 -27.523  -2.470  1.00  0.00    -0.357 N 
HETATM    4  C19 UNL     1      17.070 -26.750  -1.460  1.00  0.00     0.032 A 
HETATM    5  C20 UNL     1      16.066 -25.860  -1.161  1.00  0.00    -0.015 A 
HETATM    6  C21 UNL     1      16.298 -24.904  -0.071  1.00  0.00     0.072 C 
HETATM    7  C22 UNL     1      17.163 -25.418   1.043  1.00  0.00     0.168 C 
HETATM    8  N3  UNL     1      18.164 -26.332   0.677  1.00  0.00    -0.268 NA
HETATM    9  C27 UNL     1      18.298 -26.706  -0.681  1.00  0.00     0.153 C 
ENDROOT
BRANCH   3  10
HETATM   10  C8  UNL     1      17.374 -28.599  -3.143  1.00  0.00     0.138 C 
BRANCH  10  11
HETATM   11  C9  UNL     1      16.540 -29.797  -3.427  1.00  0.00    -0.023 C 
HETATM   12  C10 UNL     1      15.925 -29.844  -4.783  1.00  0.00     0.015 C 
HETATM   13  C11 UNL     1      15.175 -31.146  -4.942  1.00  0.00    -0.013 C 
HETATM   14  C12 UNL     1      16.105 -32.343  -4.835  1.00  0.00     0.009 C 
HETATM   15  C16 UNL     1      14.099 -31.328  -3.910  1.00  0.00     0.009 C 
HETATM   16  C13 UNL     1      16.733 -32.306  -3.464  1.00  0.00    -0.013 C 
HETATM   17  C14 UNL     1      15.703 -32.405  -2.360  1.00  0.00     0.009 C 
HETATM   18  C18 UNL     1      17.468 -31.011  -3.285  1.00  0.00     0.015 C 
HETATM   19  C15 UNL     1      14.733 -31.272  -2.539  1.00  0.00    -0.013 C 
HETATM   20  C17 UNL     1      15.430 -29.945  -2.405  1.00  0.00     0.015 C 
ENDBRANCH  10  11
ENDBRANCH   3  10
BRANCH   1  21
HETATM   21  C5  UNL     1      13.738 -25.401  -2.073  1.00  0.00     0.255 C 
HETATM   22  N1  UNL     1      12.580 -25.939  -2.659  1.00  0.00    -0.349 N 
HETATM   23  O1  UNL     1      13.661 -24.229  -1.564  1.00  0.00    -0.267 OA
BRANCH  22  24
HETATM   24  C2  UNL     1      11.356 -25.189  -2.672  1.00  0.00     0.121 C 
HETATM   25  C1  UNL     1      11.390 -24.012  -3.610  1.00  0.00     0.026 C 
ENDBRANCH  22  24
BRANCH  22  26
HETATM   26  C3  UNL     1      12.622 -27.253  -3.257  1.00  0.00     0.121 C 
HETATM   27  C4  UNL     1      11.668 -27.457  -4.383  1.00  0.00     0.026 C 
ENDBRANCH  22  26
ENDBRANCH   1  21
BRANCH   8  28
HETATM   28  C24 UNL     1      18.220 -27.520   1.463  1.00  0.00     0.118 C 
BRANCH  28  29
HETATM   29  C25 UNL     1      18.402 -27.378   2.894  1.00  0.00     0.170 C 
HETATM   30  N4  UNL     1      17.524 -27.834   3.753  1.00  0.00    -0.245 N 
ATOM     31  H4  UNL     1      16.680 -28.305   3.428  1.00  0.00     0.196 HD
BRANCH  29  32
HETATM   32  O4  UNL     1      19.544 -26.742   3.381  1.00  0.00    -0.344 OA
ATOM     33  H4  UNL     1      19.452 -25.961   3.915  1.00  0.00     0.219 HD
ENDBRANCH  29  32
BRANCH  30  34
HETATM   34  O5  UNL     1      17.759 -27.667   5.113  1.00  0.00    -0.283 OA
HETATM   35  C26 UNL     1      16.949 -26.798   5.879  1.00  0.00     0.237 C 
ENDBRANCH  30  34
ENDBRANCH  28  29
ENDBRANCH   8  28
BRANCH   7  36
HETATM   36  C23 UNL     1      17.763 -24.213   1.669  1.00  0.00     0.192 C 
HETATM   37  O2  UNL     1      17.067 -23.519   2.439  1.00  0.00    -0.647 OA
HETATM   38  O3  UNL     1      19.065 -23.845   1.420  1.00  0.00    -0.647 OA
ENDBRANCH   7  36
TORSDOF 10
ENDMDL
MODEL 5
REMARK VINA RESULT: -8.220742886      2.118      2.542
REMARK  10 active torsions:
REMARK  status: ('A' for Active; 'I' for Inactive)
REMARK    1  A    between atoms: C2_2  and  N1_3 
REMARK    2  A    between atoms: N1_3  and  C3_4 
REMARK       I    between atoms: N1_3  and  C5_6 
REMARK    3  A    between atoms: C5_6  and  C6_8 
REMARK    4  A    between atoms: N2_10  and  C8_11 
REMARK    5  A    between atoms: C8_11  and  C9_12 
REMARK    6  A    between atoms: C22_25  and  C23_26 
REMARK    7  A    between atoms: N3_29  and  C24_30 
REMARK    8  A    between atoms: C24_30  and  C25_31 
REMARK    9  A    between atoms: C25_31  and  O4_32 
REMARK   10  A    between atoms: N4_34  and  O5_36 
ROOT
HETATM    1  C6  UNL     1      20.847 -28.523  -1.846  1.00  0.00     0.056 A 
HETATM    2  C7  UNL     1      19.977 -28.669  -2.920  1.00  0.00     0.108 A 
HETATM    3  N2  UNL     1      18.725 -28.357  -2.523  1.00  0.00    -0.357 N 
HETATM    4  C19 UNL     1      18.780 -28.021  -1.237  1.00  0.00     0.032 A 
HETATM    5  C20 UNL     1      20.080 -28.118  -0.803  1.00  0.00    -0.015 A 
HETATM    6  C21 UNL     1      20.363 -27.793   0.601  1.00  0.00     0.072 C 
HETATM    7  C22 UNL     1      19.482 -26.730   1.190  1.00  0.00     0.168 C 
HETATM    8  N3  UNL     1      18.168 -26.675   0.700  1.00  0.00    -0.268 NA
HETATM    9  C27 UNL     1      17.757 -27.597  -0.291  1.00  0.00     0.153 C 
ENDROOT
BRANCH   3  10
HETATM   10  C8  UNL     1      17.591 -28.416  -3.421  1.00  0.00     0.138 C 
BRANCH  10  11
HETATM   11  C9  UNL     1      16.783 -29.662  -3.322  1.00  0.00    -0.023 C 
HETATM   12  C10 UNL     1      15.758 -29.677  -2.242  1.00  0.00     0.015 C 
HETATM   13  C11 UNL     1      14.978 -30.969  -2.318  1.00  0.00    -0.013 C 
HETATM   14  C12 UNL     1      14.236 -31.096  -3.637  1.00  0.00     0.009 C 
HETATM   15  C16 UNL     1      15.850 -32.184  -2.182  1.00  0.00     0.009 C 
HETATM   16  C13 UNL     1      15.266 -31.083  -4.739  1.00  0.00    -0.013 C 
HETATM   17  C14 UNL     1      16.238 -32.238  -4.627  1.00  0.00     0.009 C 
HETATM   18  C18 UNL     1      16.060 -29.813  -4.667  1.00  0.00     0.015 C 
HETATM   19  C15 UNL     1      16.892 -32.154  -3.278  1.00  0.00    -0.013 C 
HETATM   20  C17 UNL     1      17.673 -30.876  -3.140  1.00  0.00     0.015 C 
ENDBRANCH  10  11
ENDBRANCH   3  10
BRANCH   1  21
HETATM   21  C5  UNL     1      22.292 -28.762  -1.879  1.00  0.00     0.255 C 
HETATM   22  N1  UNL     1      22.901 -29.868  -2.494  1.00  0.00    -0.349 N 
HETATM   23  O1  UNL     1      23.049 -27.904  -1.306  1.00  0.00    -0.267 OA
BRANCH  22  24
HETATM   24  C2  UNL     1      24.330 -30.013  -2.478  1.00  0.00     0.121 C 
HETATM   25  C1  UNL     1      24.806 -31.107  -1.560  1.00  0.00     0.026 C 
ENDBRANCH  22  24
BRANCH  22  26
HETATM   26  C3  UNL     1      22.087 -30.868  -3.143  1.00  0.00     0.121 C 
HETATM   27  C4  UNL     1      22.533 -31.242  -4.515  1.00  0.00     0.026 C 
ENDBRANCH  22  26
ENDBRANCH   1  21
BRANCH   8  28
HETATM   28  C24 UNL     1      17.721 -25.381   0.303  1.00  0.00     0.118 C 
BRANCH  28  29
HETATM   29  C25 UNL     1      16.714 -24.730   1.117  1.00  0.00     0.170 C 
HETATM   30  N4  UNL     1      16.421 -25.150   2.323  1.00  0.00    -0.245 N 
ATOM     31  H4  UNL     1      16.903 -25.957   2.720  1.00  0.00     0.196 HD
BRANCH  29  32
HETATM   32  O4  UNL     1      16.034 -23.622   0.612  1.00  0.00    -0.344 OA
ATOM     33  H4  UNL     1      15.116 -23.703   0.381  1.00  0.00     0.219 HD
ENDBRANCH  29  32
BRANCH  30  34
HETATM   34  O5  UNL     1      15.446 -24.481   3.053  1.00  0.00    -0.283 OA
HETATM   35  C26 UNL     1      15.397 -24.599   4.461  1.00  0.00     0.237 C 
ENDBRANCH  30  34
ENDBRANCH  28  29
ENDBRANCH   8  28
BRANCH   7  36
HETATM   36  C23 UNL     1      19.482 -26.980   2.653  1.00  0.00     0.192 C 
HETATM   37  O2  UNL     1      20.568 -26.979   3.269  1.00  0.00    -0.647 OA
HETATM   38  O3  UNL     1      18.314 -27.211   3.344  1.00  0.00    -0.647 OA
ENDBRANCH   7  36
TORSDOF 10
ENDMDL
