MODEL 1
REMARK VINA RESULT: -7.502644445      0.000      0.000
REMARK  11 active torsions:
REMARK  status: ('A' for Active; 'I' for Inactive)
REMARK    1  A    between atoms: C2_2  and  C3_3 
REMARK    2  A    between atoms: C11_11  and  C12_12 
REMARK    3  A    between atoms: C11_11  and  C15_17 
REMARK    4  A    between atoms: C12_12  and  O1_13 
REMARK    5  A    between atoms: O1_13  and  C13_14 
REMARK    6  A    between atoms: C24_28  and  O5_29 
REMARK    7  A    between atoms: O5_29  and  C25_30 
REMARK    8  A    between atoms: C25_30  and  C26_32 
REMARK    9  A    between atoms: C26_32  and  O7_33 
REMARK   10  A    between atoms: C26_32  and  N1_35 
REMARK   11  A    between atoms: N1_35  and  C27_37 
ROOT
HETATM    1  C3  UNL     1      18.308 -28.193  -1.939  1.00  0.00     0.000 C 
HETATM    2  C4  UNL     1      17.754 -29.611  -1.819  1.00  0.00     0.022 C 
HETATM    3  C5  UNL     1      18.799 -27.789  -0.600  1.00  0.00     0.022 C 
HETATM    4  C6  UNL     1      18.504 -26.333  -0.201  1.00  0.00     0.003 C 
HETATM    5  C7  UNL     1      17.113 -25.944  -0.447  1.00  0.00    -0.037 C 
HETATM    6  C8  UNL     1      16.896 -24.607  -1.127  1.00  0.00     0.015 C 
HETATM    7  C9  UNL     1      16.202 -26.026   0.792  1.00  0.00     0.011 C 
HETATM    8  C10 UNL     1      16.404 -24.768   1.507  1.00  0.00     0.024 C 
HETATM    9  C11 UNL     1      17.333 -25.090   2.675  1.00  0.00     0.074 C 
HETATM   10  C16 UNL     1      18.445 -25.980   2.348  1.00  0.00     0.015 C 
HETATM   11  C17 UNL     1      19.400 -25.906   3.520  1.00  0.00     0.007 C 
HETATM   12  C18 UNL     1      20.324 -27.142   3.523  1.00  0.00     0.000 C 
HETATM   13  C19 UNL     1      21.238 -26.783   2.348  1.00  0.00     0.001 C 
HETATM   14  C20 UNL     1      20.356 -26.880   1.149  1.00  0.00     0.010 C 
HETATM   15  C21 UNL     1      19.165 -25.928   1.083  1.00  0.00    -0.035 C 
HETATM   16  C22 UNL     1      19.874 -24.571   0.895  1.00  0.00     0.016 C 
HETATM   17  C23 UNL     1      16.385 -26.922  -1.393  1.00  0.00     0.043 C 
HETATM   18  C24 UNL     1      17.287 -27.242  -2.507  1.00  0.00     0.144 C 
ENDROOT
BRANCH  18  19
HETATM   19  O5  UNL     1      16.671 -27.712  -3.675  1.00  0.00    -0.311 OA
BRANCH  19  20
HETATM   20  C25 UNL     1      15.315 -27.898  -3.801  1.00  0.00     0.308 C 
HETATM   21  O6  UNL     1      14.588 -26.973  -3.384  1.00  0.00    -0.260 OA
BRANCH  20  22
HETATM   22  C26 UNL     1      14.694 -29.109  -4.388  1.00  0.00     0.315 C 
BRANCH  22  23
HETATM   23  O7  UNL     1      15.610 -29.770  -5.200  1.00  0.00    -0.368 OA
ATOM     24  H7  UNL     1      15.156 -30.356  -5.794  1.00  0.00     0.212 HD
ENDBRANCH  22  23
BRANCH  22  25
HETATM   25  N1  UNL     1      13.583 -28.689  -5.184  1.00  0.00    -0.389 N 
ATOM     26  H1  UNL     1      13.690 -28.045  -5.967  1.00  0.00     0.156 HD
BRANCH  25  27
HETATM   27  C27 UNL     1      12.315 -29.231  -4.813  1.00  0.00     0.112 C 
HETATM   28  C28 UNL     1      12.236 -30.721  -4.824  1.00  0.00     0.026 C 
ENDBRANCH  25  27
ENDBRANCH  22  25
ENDBRANCH  20  22
ENDBRANCH  19  20
ENDBRANCH  18  19
BRANCH   1  29
HETATM   29  C2  UNL     1      19.360 -28.289  -2.992  1.00  0.00    -0.025 C 
HETATM   30  C1  UNL     1      20.655 -28.107  -2.771  1.00  0.00     0.008 C 
ENDBRANCH   1  29
BRANCH   9  31
HETATM   31  C12 UNL     1      17.551 -23.774   3.321  1.00  0.00     0.199 C 
BRANCH  31  32
HETATM   32  O1  UNL     1      17.577 -22.635   2.506  1.00  0.00    -0.320 OA
BRANCH  32  33
HETATM   33  C13 UNL     1      18.230 -21.515   2.937  1.00  0.00     0.254 C 
HETATM   34  C14 UNL     1      19.676 -21.604   3.239  1.00  0.00     0.126 C 
HETATM   35  O2  UNL     1      17.580 -20.439   3.065  1.00  0.00    -0.266 OA
ENDBRANCH  32  33
ENDBRANCH  31  32
ENDBRANCH   9  31
BRANCH   9  36
HETATM   36  C15 UNL     1      16.428 -25.846   3.633  1.00  0.00     0.184 C 
HETATM   37  O3  UNL     1      16.625 -27.011   3.997  1.00  0.00    -0.647 OA
HETATM   38  O4  UNL     1      15.296 -25.211   4.155  1.00  0.00    -0.647 OA
ENDBRANCH   9  36
TORSDOF 11
ENDMDL
MODEL 2
REMARK VINA RESULT: -7.498956893      3.501      8.050
REMARK  11 active torsions:
REMARK  status: ('A' for Active; 'I' for Inactive)
REMARK    1  A    between atoms: C2_2  and  C3_3 
REMARK    2  A    between atoms: C11_11  and  C12_12 
REMARK    3  A    between atoms: C11_11  and  C15_17 
REMARK    4  A    between atoms: C12_12  and  O1_13 
REMARK    5  A    between atoms: O1_13  and  C13_14 
REMARK    6  A    between atoms: C24_28  and  O5_29 
REMARK    7  A    between atoms: O5_29  and  C25_30 
REMARK    8  A    between atoms: C25_30  and  C26_32 
REMARK    9  A    between atoms: C26_32  and  O7_33 
REMARK   10  A    between atoms: C26_32  and  N1_35 
REMARK   11  A    between atoms: N1_35  and  C27_37 
ROOT
HETATM    1  C3  UNL     1      18.495 -26.607   0.189  1.00  0.00     0.000 C 
HETATM    2  C4  UNL     1      18.318 -27.148   1.606  1.00  0.00     0.022 C 
HETATM    3  C5  UNL     1      17.152 -26.538  -0.435  1.00  0.00     0.022 C 
HETATM    4  C6  UNL     1      17.087 -26.962  -1.912  1.00  0.00     0.003 C 
HETATM    5  C7  UNL     1      17.780 -28.225  -2.174  1.00  0.00    -0.037 C 
HETATM    6  C8  UNL     1      18.695 -28.255  -3.383  1.00  0.00     0.015 C 
HETATM    7  C9  UNL     1      16.860 -29.459  -2.216  1.00  0.00     0.011 C 
HETATM    8  C10 UNL     1      16.323 -29.497  -3.575  1.00  0.00     0.024 C 
HETATM    9  C11 UNL     1      14.902 -28.946  -3.484  1.00  0.00     0.074 C 
HETATM   10  C16 UNL     1      14.751 -27.772  -2.626  1.00  0.00     0.015 C 
HETATM   11  C17 UNL     1      13.381 -27.205  -2.928  1.00  0.00     0.007 C 
HETATM   12  C18 UNL     1      12.919 -26.302  -1.765  1.00  0.00     0.000 C 
HETATM   13  C19 UNL     1      13.822 -25.090  -2.006  1.00  0.00     0.001 C 
HETATM   14  C20 UNL     1      15.193 -25.579  -1.682  1.00  0.00     0.010 C 
HETATM   15  C21 UNL     1      15.747 -26.714  -2.539  1.00  0.00    -0.035 C 
HETATM   16  C22 UNL     1      15.934 -26.004  -3.895  1.00  0.00     0.016 C 
HETATM   17  C23 UNL     1      18.731 -28.627  -1.027  1.00  0.00     0.043 C 
HETATM   18  C24 UNL     1      19.474 -27.432  -0.605  1.00  0.00     0.144 C 
ENDROOT
BRANCH  18  19
HETATM   19  O5  UNL     1      20.681 -27.670   0.066  1.00  0.00    -0.311 OA
BRANCH  19  20
HETATM   20  C25 UNL     1      21.871 -27.931  -0.572  1.00  0.00     0.308 C 
HETATM   21  O6  UNL     1      22.228 -27.104  -1.437  1.00  0.00    -0.260 OA
BRANCH  20  22
HETATM   22  C26 UNL     1      22.722 -29.110  -0.291  1.00  0.00     0.315 C 
BRANCH  22  23
HETATM   23  O7  UNL     1      23.704 -28.781   0.637  1.00  0.00    -0.368 OA
ATOM     24  H7  UNL     1      24.330 -29.492   0.716  1.00  0.00     0.212 HD
ENDBRANCH  22  23
BRANCH  22  25
HETATM   25  N1  UNL     1      23.349 -29.500  -1.516  1.00  0.00    -0.389 N 
ATOM     26  H1  UNL     1      24.070 -28.932  -1.960  1.00  0.00     0.156 HD
BRANCH  25  27
HETATM   27  C27 UNL     1      22.902 -30.735  -2.076  1.00  0.00     0.112 C 
HETATM   28  C28 UNL     1      21.608 -30.661  -2.816  1.00  0.00     0.026 C 
ENDBRANCH  25  27
ENDBRANCH  22  25
ENDBRANCH  20  22
ENDBRANCH  19  20
ENDBRANCH  18  19
BRANCH   1  29
HETATM   29  C2  UNL     1      19.172 -25.291   0.371  1.00  0.00    -0.025 C 
HETATM   30  C1  UNL     1      18.674 -24.288   1.081  1.00  0.00     0.008 C 
ENDBRANCH   1  29
BRANCH   9  31
HETATM   31  C12 UNL     1      14.435 -28.950  -4.890  1.00  0.00     0.199 C 
BRANCH  31  32
HETATM   32  O1  UNL     1      13.639 -30.019  -5.319  1.00  0.00    -0.320 OA
BRANCH  32  33
HETATM   33  C13 UNL     1      12.328 -29.798  -5.635  1.00  0.00     0.254 C 
HETATM   34  C14 UNL     1      11.897 -28.421  -5.965  1.00  0.00     0.126 C 
HETATM   35  O2  UNL     1      11.525 -30.773  -5.636  1.00  0.00    -0.266 OA
ENDBRANCH  32  33
ENDBRANCH  31  32
ENDBRANCH   9  31
BRANCH   9  36
HETATM   36  C15 UNL     1      14.138 -30.080  -2.820  1.00  0.00     0.184 C 
HETATM   37  O3  UNL     1      12.945 -30.016  -2.499  1.00  0.00    -0.647 OA
HETATM   38  O4  UNL     1      14.796 -31.283  -2.544  1.00  0.00    -0.647 OA
ENDBRANCH   9  36
TORSDOF 11
ENDMDL
MODEL 3
REMARK VINA RESULT: -7.352338696      1.133      1.501
REMARK  11 active torsions:
REMARK  status: ('A' for Active; 'I' for Inactive)
REMARK    1  A    between atoms: C2_2  and  C3_3 
REMARK    2  A    between atoms: C11_11  and  C12_12 
REMARK    3  A    between atoms: C11_11  and  C15_17 
REMARK    4  A    between atoms: C12_12  and  O1_13 
REMARK    5  A    between atoms: O1_13  and  C13_14 
REMARK    6  A    between atoms: C24_28  and  O5_29 
REMARK    7  A    between atoms: O5_29  and  C25_30 
REMARK    8  A    between atoms: C25_30  and  C26_32 
REMARK    9  A    between atoms: C26_32  and  O7_33 
REMARK   10  A    between atoms: C26_32  and  N1_35 
REMARK   11  A    between atoms: N1_35  and  C27_37 
ROOT
HETATM    1  C3  UNL     1      18.672 -28.079  -1.584  1.00  0.00     0.000 C 
HETATM    2  C4  UNL     1      18.217 -29.533  -1.472  1.00  0.00     0.022 C 
HETATM    3  C5  UNL     1      19.200 -27.672  -0.260  1.00  0.00     0.022 C 
HETATM    4  C6  UNL     1      18.832 -26.247   0.188  1.00  0.00     0.003 C 
HETATM    5  C7  UNL     1      17.409 -25.946   0.017  1.00  0.00    -0.037 C 
HETATM    6  C8  UNL     1      17.073 -24.611  -0.620  1.00  0.00     0.015 C 
HETATM    7  C9  UNL     1      16.565 -26.114   1.294  1.00  0.00     0.011 C 
HETATM    8  C10 UNL     1      16.720 -24.860   2.029  1.00  0.00     0.024 C 
HETATM    9  C11 UNL     1      17.724 -25.145   3.144  1.00  0.00     0.074 C 
HETATM   10  C16 UNL     1      18.874 -25.954   2.744  1.00  0.00     0.015 C 
HETATM   11  C17 UNL     1      19.877 -25.842   3.872  1.00  0.00     0.007 C 
HETATM   12  C18 UNL     1      20.878 -27.015   3.801  1.00  0.00     0.000 C 
HETATM   13  C19 UNL     1      21.709 -26.572   2.595  1.00  0.00     0.001 C 
HETATM   14  C20 UNL     1      20.779 -26.701   1.436  1.00  0.00     0.010 C 
HETATM   15  C21 UNL     1      19.527 -25.828   1.449  1.00  0.00    -0.035 C 
HETATM   16  C22 UNL     1      20.137 -24.424   1.260  1.00  0.00     0.016 C 
HETATM   17  C23 UNL     1      16.700 -26.948  -0.918  1.00  0.00     0.043 C 
HETATM   18  C24 UNL     1      17.566 -27.185  -2.081  1.00  0.00     0.144 C 
ENDROOT
BRANCH  18  19
HETATM   19  O5  UNL     1      16.926 -27.669  -3.230  1.00  0.00    -0.311 OA
BRANCH  19  20
HETATM   20  C25 UNL     1      15.760 -27.143  -3.733  1.00  0.00     0.308 C 
HETATM   21  O6  UNL     1      15.822 -25.972  -4.163  1.00  0.00    -0.260 OA
BRANCH  20  22
HETATM   22  C26 UNL     1      14.474 -27.876  -3.787  1.00  0.00     0.315 C 
BRANCH  22  23
HETATM   23  O7  UNL     1      14.296 -28.439  -5.046  1.00  0.00    -0.368 OA
ATOM     24  H7  UNL     1      15.084 -28.897  -5.313  1.00  0.00     0.212 HD
ENDBRANCH  22  23
BRANCH  22  25
HETATM   25  N1  UNL     1      13.424 -26.936  -3.545  1.00  0.00    -0.389 N 
ATOM     26  H1  UNL     1      12.801 -26.616  -4.286  1.00  0.00     0.156 HD
BRANCH  25  27
HETATM   27  C27 UNL     1      13.302 -26.476  -2.199  1.00  0.00     0.112 C 
HETATM   28  C28 UNL     1      13.176 -24.997  -2.046  1.00  0.00     0.026 C 
ENDBRANCH  25  27
ENDBRANCH  22  25
ENDBRANCH  20  22
ENDBRANCH  19  20
ENDBRANCH  18  19
BRANCH   1  29
HETATM   29  C2  UNL     1      19.677 -28.083  -2.687  1.00  0.00    -0.025 C 
HETATM   30  C1  UNL     1      20.989 -28.091  -2.500  1.00  0.00     0.008 C 
ENDBRANCH   1  29
BRANCH   9  31
HETATM   31  C12 UNL     1      17.887 -23.832   3.811  1.00  0.00     0.199 C 
BRANCH  31  32
HETATM   32  O1  UNL     1      17.447 -22.689   3.134  1.00  0.00    -0.320 OA
BRANCH  32  33
HETATM   33  C13 UNL     1      18.214 -21.558   3.153  1.00  0.00     0.254 C 
HETATM   34  C14 UNL     1      19.590 -21.639   3.692  1.00  0.00     0.126 C 
HETATM   35  O2  UNL     1      17.726 -20.479   2.713  1.00  0.00    -0.266 OA
ENDBRANCH  32  33
ENDBRANCH  31  32
ENDBRANCH   9  31
BRANCH   9  36
HETATM   36  C15 UNL     1      16.916 -25.979   4.126  1.00  0.00     0.184 C 
HETATM   37  O3  UNL     1      17.165 -27.159   4.399  1.00  0.00    -0.647 OA
HETATM   38  O4  UNL     1      15.820 -25.404   4.776  1.00  0.00    -0.647 OA
ENDBRANCH   9  36
TORSDOF 11
ENDMDL
MODEL 4
REMARK VINA RESULT: -7.297567336      3.373      8.455
REMARK  11 active torsions:
REMARK  status: ('A' for Active; 'I' for Inactive)
REMARK    1  A    between atoms: C2_2  and  C3_3 
REMARK    2  A    between atoms: C11_11  and  C12_12 
REMARK    3  A    between atoms: C11_11  and  C15_17 
REMARK    4  A    between atoms: C12_12  and  O1_13 
REMARK    5  A    between atoms: O1_13  and  C13_14 
REMARK    6  A    between atoms: C24_28  and  O5_29 
REMARK    7  A    between atoms: O5_29  and  C25_30 
REMARK    8  A    between atoms: C25_30  and  C26_32 
REMARK    9  A    between atoms: C26_32  and  O7_33 
REMARK   10  A    between atoms: C26_32  and  N1_35 
REMARK   11  A    between atoms: N1_35  and  C27_37 
ROOT
HETATM    1  C3  UNL     1      18.214 -26.051   0.529  1.00  0.00     0.000 C 
HETATM    2  C4  UNL     1      17.874 -26.450   1.963  1.00  0.00     0.022 C 
HETATM    3  C5  UNL     1      16.980 -26.194  -0.280  1.00  0.00     0.022 C 
HETATM    4  C6  UNL     1      17.179 -26.781  -1.689  1.00  0.00     0.003 C 
HETATM    5  C7  UNL     1      18.014 -27.984  -1.693  1.00  0.00    -0.037 C 
HETATM    6  C8  UNL     1      19.101 -28.047  -2.749  1.00  0.00     0.015 C 
HETATM    7  C9  UNL     1      17.225 -29.306  -1.711  1.00  0.00     0.011 C 
HETATM    8  C10 UNL     1      16.906 -29.549  -3.116  1.00  0.00     0.024 C 
HETATM    9  C11 UNL     1      15.443 -29.147  -3.293  1.00  0.00     0.074 C 
HETATM   10  C16 UNL     1      15.060 -27.909  -2.617  1.00  0.00     0.015 C 
HETATM   11  C17 UNL     1      13.706 -27.528  -3.175  1.00  0.00     0.007 C 
HETATM   12  C18 UNL     1      12.994 -26.559  -2.209  1.00  0.00     0.000 C 
HETATM   13  C19 UNL     1      13.810 -25.290  -2.469  1.00  0.00     0.001 C 
HETATM   14  C20 UNL     1      15.155 -25.591  -1.898  1.00  0.00     0.010 C 
HETATM   15  C21 UNL     1      15.932 -26.747  -2.522  1.00  0.00    -0.035 C 
HETATM   16  C22 UNL     1      16.258 -26.174  -3.916  1.00  0.00     0.016 C 
HETATM   17  C23 UNL     1      18.812 -28.154  -0.383  1.00  0.00     0.043 C 
HETATM   18  C24 UNL     1      19.372 -26.848  -0.012  1.00  0.00     0.144 C 
ENDROOT
BRANCH  18  19
HETATM   19  O5  UNL     1      20.480 -26.880   0.845  1.00  0.00    -0.311 OA
BRANCH  19  20
HETATM   20  C25 UNL     1      21.691 -27.439   0.508  1.00  0.00     0.308 C 
HETATM   21  O6  UNL     1      22.047 -27.311  -0.682  1.00  0.00    -0.260 OA
BRANCH  20  22
HETATM   22  C26 UNL     1      22.565 -28.164   1.460  1.00  0.00     0.315 C 
BRANCH  22  23
HETATM   23  O7  UNL     1      23.372 -27.264   2.148  1.00  0.00    -0.368 OA
ATOM     24  H7  UNL     1      24.263 -27.590   2.189  1.00  0.00     0.212 HD
ENDBRANCH  22  23
BRANCH  22  25
HETATM   25  N1  UNL     1      23.394 -29.051   0.705  1.00  0.00    -0.389 N 
ATOM     26  H1  UNL     1      23.399 -29.052  -0.315  1.00  0.00     0.156 HD
BRANCH  25  27
HETATM   27  C27 UNL     1      24.215 -29.933   1.470  1.00  0.00     0.112 C 
HETATM   28  C28 UNL     1      24.870 -31.023   0.689  1.00  0.00     0.026 C 
ENDBRANCH  25  27
ENDBRANCH  22  25
ENDBRANCH  20  22
ENDBRANCH  19  20
ENDBRANCH  18  19
BRANCH   1  29
HETATM   29  C2  UNL     1      18.735 -24.658   0.640  1.00  0.00    -0.025 C 
HETATM   30  C1  UNL     1      18.683 -23.928   1.746  1.00  0.00     0.008 C 
ENDBRANCH   1  29
BRANCH   9  31
HETATM   31  C12 UNL     1      15.197 -29.354  -4.740  1.00  0.00     0.199 C 
BRANCH  31  32
HETATM   32  O1  UNL     1      15.789 -30.462  -5.358  1.00  0.00    -0.320 OA
BRANCH  32  33
HETATM   33  C13 UNL     1      15.128 -31.657  -5.372  1.00  0.00     0.254 C 
HETATM   34  C14 UNL     1      15.847 -32.873  -4.930  1.00  0.00     0.126 C 
HETATM   35  O2  UNL     1      13.926 -31.689  -5.761  1.00  0.00    -0.266 OA
ENDBRANCH  32  33
ENDBRANCH  31  32
ENDBRANCH   9  31
BRANCH   9  36
HETATM   36  C15 UNL     1      14.693 -30.277  -2.608  1.00  0.00     0.184 C 
HETATM   37  O3  UNL     1      15.223 -31.104  -1.857  1.00  0.00    -0.647 OA
HETATM   38  O4  UNL     1      13.317 -30.415  -2.819  1.00  0.00    -0.647 OA
ENDBRANCH   9  36
TORSDOF 11
ENDMDL
MODEL 5
REMARK VINA RESULT: -7.209386862      3.192      8.457
REMARK  11 active torsions:
REMARK  status: ('A' for Active; 'I' for Inactive)
REMARK    1  A    between atoms: C2_2  and  C3_3 
REMARK    2  A    between atoms: C11_11  and  C12_12 
REMARK    3  A    between atoms: C11_11  and  C15_17 
REMARK    4  A    between atoms: C12_12  and  O1_13 
REMARK    5  A    between atoms: O1_13  and  C13_14 
REMARK    6  A    between atoms: C24_28  and  O5_29 
REMARK    7  A    between atoms: O5_29  and  C25_30 
REMARK    8  A    between atoms: C25_30  and  C26_32 
REMARK    9  A    between atoms: C26_32  and  O7_33 
REMARK   10  A    between atoms: C26_32  and  N1_35 
REMARK   11  A    between atoms: N1_35  and  C27_37 
ROOT
HETATM    1  C3  UNL     1      17.872 -25.956   0.791  1.00  0.00     0.000 C 
HETATM    2  C4  UNL     1      17.424 -26.369   2.191  1.00  0.00     0.022 C 
HETATM    3  C5  UNL     1      16.710 -26.115  -0.116  1.00  0.00     0.022 C 
HETATM    4  C6  UNL     1      17.032 -26.690  -1.506  1.00  0.00     0.003 C 
HETATM    5  C7  UNL     1      17.886 -27.879  -1.448  1.00  0.00    -0.037 C 
HETATM    6  C8  UNL     1      19.055 -27.918  -2.412  1.00  0.00     0.015 C 
HETATM    7  C9  UNL     1      17.123 -29.213  -1.535  1.00  0.00     0.011 C 
HETATM    8  C10 UNL     1      16.923 -29.454  -2.963  1.00  0.00     0.024 C 
HETATM    9  C11 UNL     1      15.473 -29.075  -3.257  1.00  0.00     0.074 C 
HETATM   10  C16 UNL     1      15.015 -27.848  -2.608  1.00  0.00     0.015 C 
HETATM   11  C17 UNL     1      13.705 -27.486  -3.273  1.00  0.00     0.007 C 
HETATM   12  C18 UNL     1      12.900 -26.534  -2.363  1.00  0.00     0.000 C 
HETATM   13  C19 UNL     1      13.713 -25.251  -2.550  1.00  0.00     0.001 C 
HETATM   14  C20 UNL     1      15.012 -25.533  -1.873  1.00  0.00     0.010 C 
HETATM   15  C21 UNL     1      15.857 -26.672  -2.438  1.00  0.00    -0.035 C 
HETATM   16  C22 UNL     1      16.285 -26.085  -3.798  1.00  0.00     0.016 C 
HETATM   17  C23 UNL     1      18.578 -28.043  -0.079  1.00  0.00     0.043 C 
HETATM   18  C24 UNL     1      19.084 -26.730   0.342  1.00  0.00     0.144 C 
ENDROOT
BRANCH  18  19
HETATM   19  O5  UNL     1      20.119 -26.749   1.287  1.00  0.00    -0.311 OA
BRANCH  19  20
HETATM   20  C25 UNL     1      21.436 -26.988   0.971  1.00  0.00     0.308 C 
HETATM   21  O6  UNL     1      21.714 -27.032  -0.245  1.00  0.00    -0.260 OA
BRANCH  20  22
HETATM   22  C26 UNL     1      22.507 -27.190   1.975  1.00  0.00     0.315 C 
BRANCH  22  23
HETATM   23  O7  UNL     1      23.308 -28.266   1.610  1.00  0.00    -0.368 OA
ATOM     24  H7  UNL     1      22.864 -28.798   0.960  1.00  0.00     0.212 HD
ENDBRANCH  22  23
BRANCH  22  25
HETATM   25  N1  UNL     1      21.884 -27.477   3.229  1.00  0.00    -0.389 N 
ATOM     26  H1  UNL     1      21.450 -28.379   3.425  1.00  0.00     0.156 HD
BRANCH  25  27
HETATM   27  C27 UNL     1      21.907 -26.421   4.190  1.00  0.00     0.112 C 
HETATM   28  C28 UNL     1      20.566 -25.961   4.655  1.00  0.00     0.026 C 
ENDBRANCH  25  27
ENDBRANCH  22  25
ENDBRANCH  20  22
ENDBRANCH  19  20
ENDBRANCH  18  19
BRANCH   1  29
HETATM   29  C2  UNL     1      18.358 -24.555   0.950  1.00  0.00    -0.025 C 
HETATM   30  C1  UNL     1      18.160 -23.815   2.033  1.00  0.00     0.008 C 
ENDBRANCH   1  29
BRANCH   9  31
HETATM   31  C12 UNL     1      15.349 -29.278  -4.719  1.00  0.00     0.199 C 
BRANCH  31  32
HETATM   32  O1  UNL     1      15.934 -30.419  -5.280  1.00  0.00    -0.320 OA
BRANCH  32  33
HETATM   33  C13 UNL     1      15.212 -31.576  -5.360  1.00  0.00     0.254 C 
HETATM   34  C14 UNL     1      15.842 -32.841  -4.923  1.00  0.00     0.126 C 
HETATM   35  O2  UNL     1      14.030 -31.531  -5.806  1.00  0.00    -0.266 OA
ENDBRANCH  32  33
ENDBRANCH  31  32
ENDBRANCH   9  31
BRANCH   9  36
HETATM   36  C15 UNL     1      14.689 -30.222  -2.640  1.00  0.00     0.184 C 
HETATM   37  O3  UNL     1      15.191 -31.097  -1.926  1.00  0.00    -0.647 OA
HETATM   38  O4  UNL     1      13.314 -30.317  -2.874  1.00  0.00    -0.647 OA
ENDBRANCH   9  36
TORSDOF 11
ENDMDL
