MODEL 1
REMARK VINA RESULT: -9.405968033      0.000      0.000
REMARK  12 active torsions:
REMARK  status: ('A' for Active; 'I' for Inactive)
REMARK    1  A    between atoms: O1_1  and  C1_3 
REMARK    2  A    between atoms: C1_3  and  N1_4 
REMARK    3  A    between atoms: C1_3  and  C5_9 
REMARK    4  A    between atoms: N1_4  and  C2_6 
REMARK    5  A    between atoms: C7_12  and  C8_13 
REMARK       I    between atoms: N2_16  and  C11_17 
REMARK    6  A    between atoms: C11_17  and  O3_19 
REMARK    7  A    between atoms: O3_19  and  C12_20 
REMARK    8  A    between atoms: C12_20  and  C13_21 
REMARK    9  A    between atoms: C20_31  and  C21_32 
REMARK   10  A    between atoms: C21_32  and  N4_33 
REMARK   11  A    between atoms: C25_37  and  C26_38 
REMARK   12  A    between atoms: C26_38  and  O4_39 
ROOT
HETATM    1  C5  UNL     1      15.199 -27.043  -2.598  1.00  0.00     0.063 A 
HETATM    2  S1  UNL     1      15.449 -25.669  -1.599  1.00  0.00    -0.120 SA
HETATM    3  C6  UNL     1      17.000 -25.965  -1.067  1.00  0.00     0.119 A 
HETATM    4  C7  UNL     1      17.356 -27.192  -1.687  1.00  0.00    -0.030 A 
HETATM    5  C20 UNL     1      16.420 -27.731  -2.478  1.00  0.00     0.003 A 
ENDROOT
BRANCH   4   6
HETATM    6  C8  UNL     1      18.712 -27.647  -1.266  1.00  0.00    -0.051 C 
HETATM    7  C9  UNL     1      19.700 -27.803  -2.179  1.00  0.00     0.001 C 
HETATM    8  C10 UNL     1      21.048 -28.257  -1.748  1.00  0.00     0.155 C 
HETATM    9  N2  UNL     1      21.488 -27.439  -0.651  1.00  0.00    -0.324 N 
HETATM   10  C11 UNL     1      22.873 -27.154  -0.472  1.00  0.00     0.363 C 
HETATM   11  C18 UNL     1      20.499 -26.914   0.264  1.00  0.00     0.133 C 
HETATM   12  O2  UNL     1      23.288 -26.446   0.479  1.00  0.00    -0.238 OA
HETATM   13  C19 UNL     1      19.179 -27.731   0.143  1.00  0.00     0.059 C 
BRANCH  10  14
HETATM   14  O3  UNL     1      23.785 -27.663  -1.358  1.00  0.00    -0.304 OA
BRANCH  14  15
HETATM   15  C12 UNL     1      24.499 -28.880  -1.117  1.00  0.00     0.185 C 
BRANCH  15  16
HETATM   16  C13 UNL     1      24.632 -29.590  -2.433  1.00  0.00     0.013 C 
HETATM   17  C14 UNL     1      26.012 -30.208  -2.518  1.00  0.00     0.034 C 
HETATM   18  C15 UNL     1      26.312 -30.661  -3.924  1.00  0.00     0.232 C 
HETATM   19  N3  UNL     1      25.061 -31.088  -4.517  1.00  0.00    -0.075 N 
HETATM   20  C16 UNL     1      24.218 -31.727  -3.531  1.00  0.00     0.232 C 
ATOM     21  H32 UNL     1      24.581 -30.318  -4.982  1.00  0.00     0.277 HD
ATOM     22  H31 UNL     1      25.212 -31.687  -5.329  1.00  0.00     0.277 HD
HETATM   23  C17 UNL     1      23.612 -30.697  -2.585  1.00  0.00     0.034 C 
ENDBRANCH  15  16
ENDBRANCH  14  15
ENDBRANCH  10  14
ENDBRANCH   4   6
BRANCH   5  24
HETATM   24  C21 UNL     1      16.531 -28.980  -3.322  1.00  0.00     0.073 C 
BRANCH  24  25
HETATM   25  N4  UNL     1      15.940 -30.172  -2.930  1.00  0.00    -0.285 NA
HETATM   26  C22 UNL     1      16.810 -30.869  -1.983  1.00  0.00     0.095 C 
HETATM   27  C23 UNL     1      17.359 -32.059  -2.742  1.00  0.00     0.017 C 
HETATM   28  C24 UNL     1      16.267 -32.392  -3.735  1.00  0.00     0.023 C 
HETATM   29  C25 UNL     1      15.537 -31.081  -3.929  1.00  0.00     0.086 C 
BRANCH  29  30
HETATM   30  C26 UNL     1      15.699 -30.650  -5.348  1.00  0.00     0.184 C 
BRANCH  30  31
HETATM   31  O4  UNL     1      14.991 -31.583  -6.142  1.00  0.00    -0.399 OA
ATOM     32  H4  UNL     1      15.153 -31.350  -7.048  1.00  0.00     0.209 HD
ENDBRANCH  30  31
ENDBRANCH  29  30
ENDBRANCH  24  25
ENDBRANCH   5  24
BRANCH   1  33
HETATM   33  C1  UNL     1      13.980 -27.347  -3.349  1.00  0.00     0.154 C 
BRANCH  33  34
HETATM   34  O1  UNL     1      12.899 -26.891  -2.721  1.00  0.00    -0.345 OA
ATOM     35  H1  UNL     1      12.525 -27.487  -2.082  1.00  0.00     0.219 HD
ENDBRANCH  33  34
BRANCH  33  36
HETATM   36  N1  UNL     1      13.732 -27.991  -4.535  1.00  0.00    -0.365 N 
ATOM     37  H1  UNL     1      14.466 -28.099  -5.235  1.00  0.00     0.162 HD
BRANCH  36  38
HETATM   38  C2  UNL     1      12.366 -28.527  -4.774  1.00  0.00     0.083 A 
HETATM   39  C3  UNL     1      12.195 -29.968  -4.994  1.00  0.00     0.027 A 
HETATM   40  C4  UNL     1      12.158 -29.056  -6.194  1.00  0.00     0.027 A 
ENDBRANCH  36  38
ENDBRANCH  33  36
ENDBRANCH   1  33
TORSDOF 12
ENDMDL
MODEL 2
REMARK VINA RESULT: -9.298861483      1.095      1.427
REMARK  12 active torsions:
REMARK  status: ('A' for Active; 'I' for Inactive)
REMARK    1  A    between atoms: O1_1  and  C1_3 
REMARK    2  A    between atoms: C1_3  and  N1_4 
REMARK    3  A    between atoms: C1_3  and  C5_9 
REMARK    4  A    between atoms: N1_4  and  C2_6 
REMARK    5  A    between atoms: C7_12  and  C8_13 
REMARK       I    between atoms: N2_16  and  C11_17 
REMARK    6  A    between atoms: C11_17  and  O3_19 
REMARK    7  A    between atoms: O3_19  and  C12_20 
REMARK    8  A    between atoms: C12_20  and  C13_21 
REMARK    9  A    between atoms: C20_31  and  C21_32 
REMARK   10  A    between atoms: C21_32  and  N4_33 
REMARK   11  A    between atoms: C25_37  and  C26_38 
REMARK   12  A    between atoms: C26_38  and  O4_39 
ROOT
HETATM    1  C5  UNL     1      15.282 -27.102  -2.659  1.00  0.00     0.063 A 
HETATM    2  S1  UNL     1      15.625 -25.733  -1.682  1.00  0.00    -0.120 SA
HETATM    3  C6  UNL     1      17.188 -26.078  -1.222  1.00  0.00     0.119 A 
HETATM    4  C7  UNL     1      17.473 -27.320  -1.850  1.00  0.00    -0.030 A 
HETATM    5  C20 UNL     1      16.483 -27.831  -2.593  1.00  0.00     0.003 A 
ENDROOT
BRANCH   4   6
HETATM    6  C8  UNL     1      18.832 -27.818  -1.491  1.00  0.00    -0.051 C 
HETATM    7  C9  UNL     1      19.597 -28.453  -2.410  1.00  0.00     0.001 C 
HETATM    8  C10 UNL     1      20.950 -28.945  -2.040  1.00  0.00     0.155 C 
HETATM    9  N2  UNL     1      21.682 -27.878  -1.414  1.00  0.00    -0.324 N 
HETATM   10  C11 UNL     1      23.096 -27.787  -1.561  1.00  0.00     0.363 C 
HETATM   11  C18 UNL     1      20.953 -26.902  -0.633  1.00  0.00     0.133 C 
HETATM   12  O2  UNL     1      23.762 -26.868  -1.023  1.00  0.00    -0.238 OA
HETATM   13  C19 UNL     1      19.558 -27.473  -0.241  1.00  0.00     0.059 C 
BRANCH  10  14
HETATM   14  O3  UNL     1      23.757 -28.724  -2.310  1.00  0.00    -0.304 OA
BRANCH  14  15
HETATM   15  C12 UNL     1      24.477 -29.813  -1.723  1.00  0.00     0.185 C 
BRANCH  15  16
HETATM   16  C13 UNL     1      25.938 -29.559  -1.950  1.00  0.00     0.013 C 
HETATM   17  C14 UNL     1      26.740 -30.549  -1.131  1.00  0.00     0.034 C 
HETATM   18  C15 UNL     1      28.192 -30.149  -1.076  1.00  0.00     0.232 C 
HETATM   19  N3  UNL     1      28.511 -29.504  -2.334  1.00  0.00    -0.075 N 
HETATM   20  C16 UNL     1      27.795 -30.125  -3.425  1.00  0.00     0.232 C 
ATOM     21  H32 UNL     1      28.344 -28.498  -2.296  1.00  0.00     0.277 HD
ATOM     22  H31 UNL     1      29.517 -29.485  -2.505  1.00  0.00     0.277 HD
HETATM   23  C17 UNL     1      26.323 -29.730  -3.404  1.00  0.00     0.034 C 
ENDBRANCH  15  16
ENDBRANCH  14  15
ENDBRANCH  10  14
ENDBRANCH   4   6
BRANCH   5  24
HETATM   24  C21 UNL     1      16.513 -29.087  -3.433  1.00  0.00     0.073 C 
BRANCH  24  25
HETATM   25  N4  UNL     1      15.897 -30.254  -3.009  1.00  0.00    -0.285 NA
HETATM   26  C22 UNL     1      16.741 -30.931  -2.024  1.00  0.00     0.095 C 
HETATM   27  C23 UNL     1      17.283 -32.155  -2.732  1.00  0.00     0.017 C 
HETATM   28  C24 UNL     1      16.200 -32.506  -3.729  1.00  0.00     0.023 C 
HETATM   29  C25 UNL     1      15.494 -31.192  -3.981  1.00  0.00     0.086 C 
BRANCH  29  30
HETATM   30  C26 UNL     1      15.684 -30.814  -5.412  1.00  0.00     0.184 C 
BRANCH  30  31
HETATM   31  O4  UNL     1      14.775 -31.594  -6.164  1.00  0.00    -0.399 OA
ATOM     32  H4  UNL     1      14.608 -31.119  -6.970  1.00  0.00     0.209 HD
ENDBRANCH  30  31
ENDBRANCH  29  30
ENDBRANCH  24  25
ENDBRANCH   5  24
BRANCH   1  33
HETATM   33  C1  UNL     1      14.019 -27.369  -3.350  1.00  0.00     0.154 C 
BRANCH  33  34
HETATM   34  O1  UNL     1      12.980 -26.927  -2.645  1.00  0.00    -0.345 OA
ATOM     35  H1  UNL     1      12.468 -27.604  -2.218  1.00  0.00     0.219 HD
ENDBRANCH  33  34
BRANCH  33  36
HETATM   36  N1  UNL     1      13.698 -27.968  -4.542  1.00  0.00    -0.365 N 
ATOM     37  H1  UNL     1      14.387 -28.048  -5.289  1.00  0.00     0.162 HD
BRANCH  36  38
HETATM   38  C2  UNL     1      12.319 -28.496  -4.716  1.00  0.00     0.083 A 
HETATM   39  C3  UNL     1      12.132 -29.931  -4.959  1.00  0.00     0.027 A 
HETATM   40  C4  UNL     1      12.031 -28.992  -6.135  1.00  0.00     0.027 A 
ENDBRANCH  36  38
ENDBRANCH  33  36
ENDBRANCH   1  33
TORSDOF 12
ENDMDL
MODEL 3
REMARK VINA RESULT: -8.940378937      1.858      2.472
REMARK  12 active torsions:
REMARK  status: ('A' for Active; 'I' for Inactive)
REMARK    1  A    between atoms: O1_1  and  C1_3 
REMARK    2  A    between atoms: C1_3  and  N1_4 
REMARK    3  A    between atoms: C1_3  and  C5_9 
REMARK    4  A    between atoms: N1_4  and  C2_6 
REMARK    5  A    between atoms: C7_12  and  C8_13 
REMARK       I    between atoms: N2_16  and  C11_17 
REMARK    6  A    between atoms: C11_17  and  O3_19 
REMARK    7  A    between atoms: O3_19  and  C12_20 
REMARK    8  A    between atoms: C12_20  and  C13_21 
REMARK    9  A    between atoms: C20_31  and  C21_32 
REMARK   10  A    between atoms: C21_32  and  N4_33 
REMARK   11  A    between atoms: C25_37  and  C26_38 
REMARK   12  A    between atoms: C26_38  and  O4_39 
ROOT
HETATM    1  C5  UNL     1      15.084 -25.959  -2.057  1.00  0.00     0.063 A 
HETATM    2  S1  UNL     1      15.816 -24.960  -0.869  1.00  0.00    -0.120 SA
HETATM    3  C6  UNL     1      17.258 -25.765  -0.650  1.00  0.00     0.119 A 
HETATM    4  C7  UNL     1      17.181 -26.871  -1.537  1.00  0.00    -0.030 A 
HETATM    5  C20 UNL     1      16.058 -26.953  -2.261  1.00  0.00     0.003 A 
ENDROOT
BRANCH   4   6
HETATM    6  C8  UNL     1      18.381 -27.749  -1.425  1.00  0.00    -0.051 C 
HETATM    7  C9  UNL     1      19.080 -28.104  -2.529  1.00  0.00     0.001 C 
HETATM    8  C10 UNL     1      20.275 -28.980  -2.405  1.00  0.00     0.155 C 
HETATM    9  N2  UNL     1      21.147 -28.441  -1.399  1.00  0.00    -0.324 N 
HETATM   10  C11 UNL     1      22.559 -28.602  -1.504  1.00  0.00     0.363 C 
HETATM   11  C18 UNL     1      20.563 -27.735  -0.279  1.00  0.00     0.133 C 
HETATM   12  O2  UNL     1      23.347 -28.146  -0.638  1.00  0.00    -0.238 OA
HETATM   13  C19 UNL     1      19.056 -28.104  -0.149  1.00  0.00     0.059 C 
BRANCH  10  14
HETATM   14  O3  UNL     1      23.082 -29.272  -2.578  1.00  0.00    -0.304 OA
BRANCH  14  15
HETATM   15  C12 UNL     1      23.913 -30.429  -2.435  1.00  0.00     0.185 C 
BRANCH  15  16
HETATM   16  C13 UNL     1      25.339 -29.973  -2.540  1.00  0.00     0.013 C 
HETATM   17  C14 UNL     1      26.160 -30.686  -1.486  1.00  0.00     0.034 C 
HETATM   18  C15 UNL     1      27.517 -30.047  -1.338  1.00  0.00     0.232 C 
HETATM   19  N3  UNL     1      27.904 -29.548  -2.643  1.00  0.00    -0.075 N 
HETATM   20  C16 UNL     1      27.440 -30.431  -3.689  1.00  0.00     0.232 C 
ATOM     21  H32 UNL     1      27.588 -28.589  -2.789  1.00  0.00     0.277 HD
ATOM     22  H31 UNL     1      28.910 -29.387  -2.703  1.00  0.00     0.277 HD
HETATM   23  C17 UNL     1      25.936 -30.287  -3.894  1.00  0.00     0.034 C 
ENDBRANCH  15  16
ENDBRANCH  14  15
ENDBRANCH  10  14
ENDBRANCH   4   6
BRANCH   5  24
HETATM   24  C21 UNL     1      15.720 -27.965  -3.331  1.00  0.00     0.073 C 
BRANCH  24  25
HETATM   25  N4  UNL     1      15.169 -29.197  -3.013  1.00  0.00    -0.285 NA
HETATM   26  C22 UNL     1      16.209 -30.226  -3.035  1.00  0.00     0.095 C 
HETATM   27  C23 UNL     1      15.922 -31.061  -4.265  1.00  0.00     0.017 C 
HETATM   28  C24 UNL     1      14.421 -30.962  -4.429  1.00  0.00     0.023 C 
HETATM   29  C25 UNL     1      14.066 -29.652  -3.763  1.00  0.00     0.086 C 
BRANCH  29  30
HETATM   30  C26 UNL     1      13.514 -28.725  -4.795  1.00  0.00     0.184 C 
BRANCH  30  31
HETATM   31  O4  UNL     1      12.208 -28.378  -4.375  1.00  0.00    -0.399 OA
ATOM     32  H4  UNL     1      11.840 -27.827  -5.055  1.00  0.00     0.209 HD
ENDBRANCH  30  31
ENDBRANCH  29  30
ENDBRANCH  24  25
ENDBRANCH   5  24
BRANCH   1  33
HETATM   33  C1  UNL     1      13.762 -25.756  -2.654  1.00  0.00     0.154 C 
BRANCH  33  34
HETATM   34  O1  UNL     1      12.865 -26.591  -2.137  1.00  0.00    -0.345 OA
ATOM     35  H1  UNL     1      12.449 -27.171  -2.764  1.00  0.00     0.219 HD
ENDBRANCH  33  34
BRANCH  33  36
HETATM   36  N1  UNL     1      13.275 -24.903  -3.613  1.00  0.00    -0.365 N 
ATOM     37  H1  UNL     1      13.883 -24.540  -4.347  1.00  0.00     0.162 HD
BRANCH  36  38
HETATM   38  C2  UNL     1      11.840 -24.521  -3.551  1.00  0.00     0.083 A 
HETATM   39  C3  UNL     1      10.959 -24.880  -4.668  1.00  0.00     0.027 A 
HETATM   40  C4  UNL     1      11.448 -23.456  -4.579  1.00  0.00     0.027 A 
ENDBRANCH  36  38
ENDBRANCH  33  36
ENDBRANCH   1  33
TORSDOF 12
ENDMDL
MODEL 4
REMARK VINA RESULT: -8.929941409      1.423      1.793
REMARK  12 active torsions:
REMARK  status: ('A' for Active; 'I' for Inactive)
REMARK    1  A    between atoms: O1_1  and  C1_3 
REMARK    2  A    between atoms: C1_3  and  N1_4 
REMARK    3  A    between atoms: C1_3  and  C5_9 
REMARK    4  A    between atoms: N1_4  and  C2_6 
REMARK    5  A    between atoms: C7_12  and  C8_13 
REMARK       I    between atoms: N2_16  and  C11_17 
REMARK    6  A    between atoms: C11_17  and  O3_19 
REMARK    7  A    between atoms: O3_19  and  C12_20 
REMARK    8  A    between atoms: C12_20  and  C13_21 
REMARK    9  A    between atoms: C20_31  and  C21_32 
REMARK   10  A    between atoms: C21_32  and  N4_33 
REMARK   11  A    between atoms: C25_37  and  C26_38 
REMARK   12  A    between atoms: C26_38  and  O4_39 
ROOT
HETATM    1  C5  UNL     1      14.461 -27.551  -3.164  1.00  0.00     0.063 A 
HETATM    2  S1  UNL     1      14.588 -26.093  -2.267  1.00  0.00    -0.120 SA
HETATM    3  C6  UNL     1      16.142 -26.236  -1.683  1.00  0.00     0.119 A 
HETATM    4  C7  UNL     1      16.599 -27.477  -2.201  1.00  0.00    -0.030 A 
HETATM    5  C20 UNL     1      15.724 -28.139  -2.969  1.00  0.00     0.003 A 
ENDROOT
BRANCH   4   6
HETATM    6  C8  UNL     1      17.973 -27.800  -1.720  1.00  0.00    -0.051 C 
HETATM    7  C9  UNL     1      18.942 -28.157  -2.596  1.00  0.00     0.001 C 
HETATM    8  C10 UNL     1      20.308 -28.477  -2.104  1.00  0.00     0.155 C 
HETATM    9  N2  UNL     1      20.758 -27.415  -1.247  1.00  0.00    -0.324 N 
HETATM   10  C11 UNL     1      22.140 -27.077  -1.177  1.00  0.00     0.363 C 
HETATM   11  C18 UNL     1      19.779 -26.699  -0.457  1.00  0.00     0.133 C 
HETATM   12  O2  UNL     1      22.564 -26.157  -0.434  1.00  0.00    -0.238 OA
HETATM   13  C19 UNL     1      18.473 -27.538  -0.345  1.00  0.00     0.059 C 
BRANCH  10  14
HETATM   14  O3  UNL     1      23.042 -27.771  -1.940  1.00  0.00    -0.304 OA
BRANCH  14  15
HETATM   15  C12 UNL     1      24.440 -27.464  -1.953  1.00  0.00     0.185 C 
BRANCH  15  16
HETATM   16  C13 UNL     1      25.184 -28.757  -1.785  1.00  0.00     0.013 C 
HETATM   17  C14 UNL     1      24.226 -29.907  -2.013  1.00  0.00     0.034 C 
HETATM   18  C15 UNL     1      24.832 -31.210  -1.559  1.00  0.00     0.232 C 
HETATM   19  N3  UNL     1      26.261 -31.126  -1.790  1.00  0.00    -0.075 N 
HETATM   20  C16 UNL     1      26.542 -30.380  -2.996  1.00  0.00     0.232 C 
ATOM     21  H32 UNL     1      26.751 -30.740  -0.984  1.00  0.00     0.277 HD
ATOM     22  H31 UNL     1      26.695 -32.049  -1.807  1.00  0.00     0.277 HD
HETATM   23  C17 UNL     1      26.321 -28.888  -2.776  1.00  0.00     0.034 C 
ENDBRANCH  15  16
ENDBRANCH  14  15
ENDBRANCH  10  14
ENDBRANCH   4   6
BRANCH   5  24
HETATM   24  C21 UNL     1      15.944 -29.436  -3.713  1.00  0.00     0.073 C 
BRANCH  24  25
HETATM   25  N4  UNL     1      15.611 -30.658  -3.150  1.00  0.00    -0.285 NA
HETATM   26  C22 UNL     1      16.651 -31.069  -2.207  1.00  0.00     0.095 C 
HETATM   27  C23 UNL     1      17.367 -32.224  -2.876  1.00  0.00     0.017 C 
HETATM   28  C24 UNL     1      16.299 -32.863  -3.736  1.00  0.00     0.023 C 
HETATM   29  C25 UNL     1      15.327 -31.738  -4.010  1.00  0.00     0.086 C 
BRANCH  29  30
HETATM   30  C26 UNL     1      15.320 -31.458  -5.476  1.00  0.00     0.184 C 
BRANCH  30  31
HETATM   31  O4  UNL     1      14.000 -31.077  -5.812  1.00  0.00    -0.399 OA
ATOM     32  H4  UNL     1      13.543 -31.869  -6.069  1.00  0.00     0.209 HD
ENDBRANCH  30  31
ENDBRANCH  29  30
ENDBRANCH  24  25
ENDBRANCH   5  24
BRANCH   1  33
HETATM   33  C1  UNL     1      13.286 -27.998  -3.914  1.00  0.00     0.154 C 
BRANCH  33  34
HETATM   34  O1  UNL     1      12.933 -29.234  -3.569  1.00  0.00    -0.345 OA
ATOM     35  H1  UNL     1      12.569 -29.318  -2.696  1.00  0.00     0.219 HD
ENDBRANCH  33  34
BRANCH  33  36
HETATM   36  N1  UNL     1      12.497 -27.417  -4.875  1.00  0.00    -0.365 N 
ATOM     37  H1  UNL     1      12.796 -27.388  -5.850  1.00  0.00     0.162 HD
BRANCH  36  38
HETATM   38  C2  UNL     1      11.196 -26.831  -4.459  1.00  0.00     0.083 A 
HETATM   39  C3  UNL     1      10.486 -25.942  -5.385  1.00  0.00     0.027 A 
HETATM   40  C4  UNL     1      11.249 -25.317  -4.245  1.00  0.00     0.027 A 
ENDBRANCH  36  38
ENDBRANCH  33  36
ENDBRANCH   1  33
TORSDOF 12
ENDMDL
MODEL 5
REMARK VINA RESULT: -8.926090398      1.576      2.022
REMARK  12 active torsions:
REMARK  status: ('A' for Active; 'I' for Inactive)
REMARK    1  A    between atoms: O1_1  and  C1_3 
REMARK    2  A    between atoms: C1_3  and  N1_4 
REMARK    3  A    between atoms: C1_3  and  C5_9 
REMARK    4  A    between atoms: N1_4  and  C2_6 
REMARK    5  A    between atoms: C7_12  and  C8_13 
REMARK       I    between atoms: N2_16  and  C11_17 
REMARK    6  A    between atoms: C11_17  and  O3_19 
REMARK    7  A    between atoms: O3_19  and  C12_20 
REMARK    8  A    between atoms: C12_20  and  C13_21 
REMARK    9  A    between atoms: C20_31  and  C21_32 
REMARK   10  A    between atoms: C21_32  and  N4_33 
REMARK   11  A    between atoms: C25_37  and  C26_38 
REMARK   12  A    between atoms: C26_38  and  O4_39 
ROOT
HETATM    1  C5  UNL     1      15.180 -27.148  -2.854  1.00  0.00     0.063 A 
HETATM    2  S1  UNL     1      15.560 -25.779  -1.890  1.00  0.00    -0.120 SA
HETATM    3  C6  UNL     1      17.101 -26.177  -1.398  1.00  0.00     0.119 A 
HETATM    4  C7  UNL     1      17.347 -27.438  -2.004  1.00  0.00    -0.030 A 
HETATM    5  C20 UNL     1      16.351 -27.921  -2.757  1.00  0.00     0.003 A 
ENDROOT
BRANCH   4   6
HETATM    6  C8  UNL     1      18.680 -27.983  -1.614  1.00  0.00    -0.051 C 
HETATM    7  C9  UNL     1      19.509 -28.507  -2.548  1.00  0.00     0.001 C 
HETATM    8  C10 UNL     1      20.834 -29.048  -2.148  1.00  0.00     0.155 C 
HETATM    9  N2  UNL     1      21.518 -28.067  -1.349  1.00  0.00    -0.324 N 
HETATM   10  C11 UNL     1      22.938 -27.967  -1.386  1.00  0.00     0.363 C 
HETATM   11  C18 UNL     1      20.734 -27.188  -0.509  1.00  0.00     0.133 C 
HETATM   12  O2  UNL     1      23.563 -27.123  -0.697  1.00  0.00    -0.238 OA
HETATM   13  C19 UNL     1      19.317 -27.794  -0.285  1.00  0.00     0.059 C 
BRANCH  10  14
HETATM   14  O3  UNL     1      23.652 -28.811  -2.195  1.00  0.00    -0.304 OA
BRANCH  14  15
HETATM   15  C12 UNL     1      24.355 -29.951  -1.691  1.00  0.00     0.185 C 
BRANCH  15  16
HETATM   16  C13 UNL     1      25.823 -29.666  -1.821  1.00  0.00     0.013 C 
HETATM   17  C14 UNL     1      26.598 -30.753  -1.105  1.00  0.00     0.034 C 
HETATM   18  C15 UNL     1      28.043 -30.360  -0.936  1.00  0.00     0.232 C 
HETATM   19  N3  UNL     1      28.410 -29.555  -2.084  1.00  0.00    -0.075 N 
HETATM   20  C16 UNL     1      27.744 -30.030  -3.277  1.00  0.00     0.232 C 
ATOM     21  H32 UNL     1      28.233 -28.564  -1.922  1.00  0.00     0.277 HD
ATOM     22  H31 UNL     1      29.421 -29.511  -2.208  1.00  0.00     0.277 HD
HETATM   23  C17 UNL     1      26.270 -29.645  -3.266  1.00  0.00     0.034 C 
ENDBRANCH  15  16
ENDBRANCH  14  15
ENDBRANCH  10  14
ENDBRANCH   4   6
BRANCH   5  24
HETATM   24  C21 UNL     1      16.346 -29.189  -3.579  1.00  0.00     0.073 C 
BRANCH  24  25
HETATM   25  N4  UNL     1      15.816 -30.370  -3.082  1.00  0.00    -0.285 NA
HETATM   26  C22 UNL     1      16.752 -30.972  -2.132  1.00  0.00     0.095 C 
HETATM   27  C23 UNL     1      17.310 -32.192  -2.835  1.00  0.00     0.017 C 
HETATM   28  C24 UNL     1      16.187 -32.627  -3.751  1.00  0.00     0.023 C 
HETATM   29  C25 UNL     1      15.403 -31.358  -3.998  1.00  0.00     0.086 C 
BRANCH  29  30
HETATM   30  C26 UNL     1      15.486 -31.019  -5.449  1.00  0.00     0.184 C 
BRANCH  30  31
HETATM   31  O4  UNL     1      14.164 -30.764  -5.885  1.00  0.00    -0.399 OA
ATOM     32  H4  UNL     1      14.214 -30.572  -6.813  1.00  0.00     0.209 HD
ENDBRANCH  30  31
ENDBRANCH  29  30
ENDBRANCH  24  25
ENDBRANCH   5  24
BRANCH   1  33
HETATM   33  C1  UNL     1      13.920 -27.376  -3.562  1.00  0.00     0.154 C 
BRANCH  33  34
HETATM   34  O1  UNL     1      14.116 -28.049  -4.693  1.00  0.00    -0.345 OA
ATOM     35  H1  UNL     1      14.992 -27.976  -5.056  1.00  0.00     0.219 HD
ENDBRANCH  33  34
BRANCH  33  36
HETATM   36  N1  UNL     1      12.613 -27.044  -3.305  1.00  0.00    -0.365 N 
ATOM     37  H1  UNL     1      11.976 -27.718  -2.881  1.00  0.00     0.162 HD
BRANCH  36  38
HETATM   38  C2  UNL     1      12.151 -25.676  -3.661  1.00  0.00     0.083 A 
HETATM   39  C3  UNL     1      11.257 -24.965  -2.742  1.00  0.00     0.027 A 
HETATM   40  C4  UNL     1      10.654 -25.600  -3.970  1.00  0.00     0.027 A 
ENDBRANCH  36  38
ENDBRANCH  33  36
ENDBRANCH   1  33
TORSDOF 12
ENDMDL
