MODEL 1
REMARK VINA RESULT: -6.135165786      0.000      0.000
REMARK  3 active torsions:
REMARK  status: ('A' for Active; 'I' for Inactive)
REMARK    1  A    between atoms: C2_3  and  C3_4 
REMARK    2  A    between atoms: C3_4  and  C4_5 
REMARK       I    between atoms: C4_5  and  N2_7 
REMARK    3  A    between atoms: N2_7  and  O2_9 
ROOT
HETATM    1  N1  UNL     1      31.451   4.329  37.227  1.00  0.00    -0.194 NA
HETATM    2  C1  UNL     1      30.773   4.981  37.915  1.00  0.00     0.098 C 
HETATM    3  C2  UNL     1      29.882   5.813  38.777  1.00  0.00     0.157 C 
HETATM    4  C5  UNL     1      30.825   6.407  39.792  1.00  0.00     0.054 C 
HETATM    5  C6  UNL     1      31.772   7.308  38.985  1.00  0.00     0.006 C 
HETATM    6  C7  UNL     1      30.875   8.421  38.487  1.00  0.00     0.026 C 
HETATM    7  C8  UNL     1      29.863   7.808  37.560  1.00  0.00     0.170 C 
HETATM    8  O3  UNL     1      29.265   6.689  37.968  1.00  0.00    -0.365 OA
ENDROOT
BRANCH   3   9
HETATM    9  C3  UNL     1      28.908   4.829  39.384  1.00  0.00     0.158 C 
BRANCH   9  10
HETATM   10  C4  UNL     1      28.076   5.378  40.452  1.00  0.00     0.244 C 
HETATM   11  O1  UNL     1      28.052   4.811  41.571  1.00  0.00    -0.271 OA
HETATM   12  N2  UNL     1      27.281   6.542  40.283  1.00  0.00    -0.237 N 
ATOM     13  H2  UNL     1      27.297   7.008  39.375  1.00  0.00     0.197 HD
BRANCH  12  14
HETATM   14  O2  UNL     1      26.511   7.064  41.247  1.00  0.00    -0.287 OA
ATOM     15  H2  UNL     1      25.937   7.810  41.117  1.00  0.00     0.244 HD
ENDBRANCH  12  14
ENDBRANCH   9  10
ENDBRANCH   3   9
TORSDOF 3
ENDMDL
MODEL 2
REMARK VINA RESULT: -6.081492907      6.393      7.869
REMARK  3 active torsions:
REMARK  status: ('A' for Active; 'I' for Inactive)
REMARK    1  A    between atoms: C2_3  and  C3_4 
REMARK    2  A    between atoms: C3_4  and  C4_5 
REMARK       I    between atoms: C4_5  and  N2_7 
REMARK    3  A    between atoms: N2_7  and  O2_9 
ROOT
HETATM    1  N1  UNL     1      26.234  -0.538  40.846  1.00  0.00    -0.194 NA
HETATM    2  C1  UNL     1      27.063  -0.396  41.651  1.00  0.00     0.098 C 
HETATM    3  C2  UNL     1      28.111  -0.192  42.695  1.00  0.00     0.157 C 
HETATM    4  C5  UNL     1      29.263  -1.033  42.210  1.00  0.00     0.054 C 
HETATM    5  C6  UNL     1      29.704  -0.391  40.886  1.00  0.00     0.006 C 
HETATM    6  C7  UNL     1      30.262   0.953  41.304  1.00  0.00     0.026 C 
HETATM    7  C8  UNL     1      29.133   1.751  41.892  1.00  0.00     0.170 C 
HETATM    8  O3  UNL     1      28.339   1.129  42.764  1.00  0.00    -0.365 OA
ENDROOT
BRANCH   3   9
HETATM    9  C3  UNL     1      27.491  -0.721  43.969  1.00  0.00     0.158 C 
BRANCH   9  10
HETATM   10  C4  UNL     1      28.372  -0.681  45.134  1.00  0.00     0.244 C 
HETATM   11  O1  UNL     1      28.378  -1.644  45.939  1.00  0.00    -0.271 OA
HETATM   12  N2  UNL     1      29.236   0.413  45.405  1.00  0.00    -0.237 N 
ATOM     13  H2  UNL     1      29.236   1.199  44.755  1.00  0.00     0.197 HD
BRANCH  12  14
HETATM   14  O2  UNL     1      30.051   0.472  46.467  1.00  0.00    -0.287 OA
ATOM     15  H2  UNL     1      30.710   1.145  46.588  1.00  0.00     0.244 HD
ENDBRANCH  12  14
ENDBRANCH   9  10
ENDBRANCH   3   9
TORSDOF 3
ENDMDL
MODEL 3
REMARK VINA RESULT: -5.981749202      2.275      4.766
REMARK  3 active torsions:
REMARK  status: ('A' for Active; 'I' for Inactive)
REMARK    1  A    between atoms: C2_3  and  C3_4 
REMARK    2  A    between atoms: C3_4  and  C4_5 
REMARK       I    between atoms: C4_5  and  N2_7 
REMARK    3  A    between atoms: N2_7  and  O2_9 
ROOT
HETATM    1  N1  UNL     1      27.781   5.787  41.721  1.00  0.00    -0.194 NA
HETATM    2  C1  UNL     1      28.689   5.463  41.068  1.00  0.00     0.098 C 
HETATM    3  C2  UNL     1      29.836   5.033  40.215  1.00  0.00     0.157 C 
HETATM    4  C5  UNL     1      31.047   5.459  41.006  1.00  0.00     0.054 C 
HETATM    5  C6  UNL     1      31.003   4.621  42.294  1.00  0.00     0.006 C 
HETATM    6  C7  UNL     1      31.244   3.206  41.813  1.00  0.00     0.026 C 
HETATM    7  C8  UNL     1      30.088   2.823  40.931  1.00  0.00     0.170 C 
HETATM    8  O3  UNL     1      29.701   3.713  40.018  1.00  0.00    -0.365 OA
ENDROOT
BRANCH   3   9
HETATM    9  C3  UNL     1      29.671   5.812  38.929  1.00  0.00     0.158 C 
BRANCH   9  10
HETATM   10  C4  UNL     1      30.624   5.459  37.879  1.00  0.00     0.244 C 
HETATM   11  O1  UNL     1      31.223   6.368  37.257  1.00  0.00    -0.271 OA
HETATM   12  N2  UNL     1      30.908   4.114  37.522  1.00  0.00    -0.237 N 
ATOM     13  H2  UNL     1      30.424   3.370  38.025  1.00  0.00     0.197 HD
BRANCH  12  14
HETATM   14  O2  UNL     1      31.777   3.767  36.563  1.00  0.00    -0.287 OA
ATOM     15  H2  UNL     1      31.546   3.692  35.645  1.00  0.00     0.244 HD
ENDBRANCH  12  14
ENDBRANCH   9  10
ENDBRANCH   3   9
TORSDOF 3
ENDMDL
MODEL 4
REMARK VINA RESULT: -5.842565905      5.458      7.047
REMARK  3 active torsions:
REMARK  status: ('A' for Active; 'I' for Inactive)
REMARK    1  A    between atoms: C2_3  and  C3_4 
REMARK    2  A    between atoms: C3_4  and  C4_5 
REMARK       I    between atoms: C4_5  and  N2_7 
REMARK    3  A    between atoms: N2_7  and  O2_9 
ROOT
HETATM    1  N1  UNL     1      26.103   1.828  42.098  1.00  0.00    -0.194 NA
HETATM    2  C1  UNL     1      27.133   1.513  42.538  1.00  0.00     0.098 C 
HETATM    3  C2  UNL     1      28.449   1.124  43.127  1.00  0.00     0.157 C 
HETATM    4  C5  UNL     1      29.169   0.462  41.980  1.00  0.00     0.054 C 
HETATM    5  C6  UNL     1      29.365   1.569  40.932  1.00  0.00     0.006 C 
HETATM    6  C7  UNL     1      30.336   2.523  41.593  1.00  0.00     0.026 C 
HETATM    7  C8  UNL     1      29.656   3.100  42.803  1.00  0.00     0.170 C 
HETATM    8  O3  UNL     1      29.011   2.247  43.600  1.00  0.00    -0.365 OA
ENDROOT
BRANCH   3   9
HETATM    9  C3  UNL     1      28.102   0.159  44.239  1.00  0.00     0.158 C 
BRANCH   9  10
HETATM   10  C4  UNL     1      28.393   0.653  45.583  1.00  0.00     0.244 C 
HETATM   11  O1  UNL     1      29.453   0.304  46.155  1.00  0.00    -0.271 OA
HETATM   12  N2  UNL     1      27.517   1.523  46.286  1.00  0.00    -0.237 N 
ATOM     13  H2  UNL     1      26.653   1.810  45.827  1.00  0.00     0.197 HD
BRANCH  12  14
HETATM   14  O2  UNL     1      27.762   1.987  47.519  1.00  0.00    -0.287 OA
ATOM     15  H2  UNL     1      27.824   1.433  48.288  1.00  0.00     0.244 HD
ENDBRANCH  12  14
ENDBRANCH   9  10
ENDBRANCH   3   9
TORSDOF 3
ENDMDL
MODEL 5
REMARK VINA RESULT: -5.826567399      2.245      3.027
REMARK  3 active torsions:
REMARK  status: ('A' for Active; 'I' for Inactive)
REMARK    1  A    between atoms: C2_3  and  C3_4 
REMARK    2  A    between atoms: C3_4  and  C4_5 
REMARK       I    between atoms: C4_5  and  N2_7 
REMARK    3  A    between atoms: N2_7  and  O2_9 
ROOT
HETATM    1  N1  UNL     1      30.277   9.429  38.522  1.00  0.00    -0.194 NA
HETATM    2  C1  UNL     1      29.773   8.424  38.824  1.00  0.00     0.098 C 
HETATM    3  C2  UNL     1      29.126   7.144  39.239  1.00  0.00     0.157 C 
HETATM    4  C5  UNL     1      29.304   6.251  38.037  1.00  0.00     0.054 C 
HETATM    5  C6  UNL     1      30.821   6.055  37.900  1.00  0.00     0.006 C 
HETATM    6  C7  UNL     1      31.195   5.252  39.127  1.00  0.00     0.026 C 
HETATM    7  C8  UNL     1      30.911   6.104  40.332  1.00  0.00     0.170 C 
HETATM    8  O3  UNL     1      29.741   6.743  40.362  1.00  0.00    -0.365 OA
ENDROOT
BRANCH   3   9
HETATM    9  C3  UNL     1      27.680   7.509  39.491  1.00  0.00     0.158 C 
BRANCH   9  10
HETATM   10  C4  UNL     1      27.311   7.586  40.902  1.00  0.00     0.244 C 
HETATM   11  O1  UNL     1      26.990   8.692  41.399  1.00  0.00    -0.271 OA
HETATM   12  N2  UNL     1      27.298   6.449  41.754  1.00  0.00    -0.237 N 
ATOM     13  H2  UNL     1      27.558   5.547  41.357  1.00  0.00     0.197 HD
BRANCH  12  14
HETATM   14  O2  UNL     1      26.964   6.495  43.051  1.00  0.00    -0.287 OA
ATOM     15  H2  UNL     1      26.128   6.200  43.391  1.00  0.00     0.244 HD
ENDBRANCH  12  14
ENDBRANCH   9  10
ENDBRANCH   3   9
TORSDOF 3
ENDMDL
