MODEL 1
REMARK VINA RESULT: -9.559776632      0.000      0.000
REMARK  5 active torsions:
REMARK  status: ('A' for Active; 'I' for Inactive)
REMARK    1  A    between atoms: C4_4  and  C5_5 
REMARK    2  A    between atoms: C5_5  and  C6_6 
REMARK    3  A    between atoms: C8_10  and  N2_11 
REMARK    4  A    between atoms: N2_11  and  C9_13 
REMARK    5  A    between atoms: C19_25  and  C20_26 
ROOT
HETATM    1  C6  UNL     1       6.686  35.501  74.106  1.00  0.00    -0.010 A 
HETATM    2  C7  UNL     1       5.737  34.866  74.976  1.00  0.00     0.116 A 
HETATM    3  N1  UNL     1       5.367  35.517  76.078  1.00  0.00    -0.201 N 
ATOM      4  H1  UNL     1       4.694  35.074  76.703  1.00  0.00     0.183 HD
HETATM    5  C8  UNL     1       5.843  36.737  76.404  1.00  0.00     0.683 A 
HETATM    6  N3  UNL     1       6.727  37.304  75.577  1.00  0.00    -0.190 N 
ATOM      7  H3  UNL     1       7.091  38.225  75.817  1.00  0.00     0.184 HD
HETATM    8  C19 UNL     1       7.172  36.709  74.417  1.00  0.00     0.067 A 
ENDROOT
BRANCH   5   9
HETATM    9  N2  UNL     1       5.483  37.370  77.470  1.00  0.00    -0.192 N 
ATOM     10  H2  UNL     1       5.954  37.114  78.337  1.00  0.00     0.184 HD
BRANCH   9  11
HETATM   11  C9  UNL     1       4.511  38.374  77.555  1.00  0.00     0.050 A 
HETATM   12  C10 UNL     1       3.236  38.070  77.977  1.00  0.00     0.031 A 
HETATM   13  C11 UNL     1       2.255  39.049  78.065  1.00  0.00     0.014 A 
HETATM   14  C12 UNL     1       2.552  40.355  77.726  1.00  0.00    -0.026 A 
HETATM   15  C13 UNL     1       1.580  41.352  77.810  1.00  0.00     0.012 A 
HETATM   16  C17 UNL     1       3.813  40.681  77.303  1.00  0.00    -0.024 A 
HETATM   17  C14 UNL     1       1.853  42.654  77.478  1.00  0.00     0.001 A 
HETATM   18  C15 UNL     1       3.119  42.971  77.055  1.00  0.00     0.001 A 
HETATM   19  C16 UNL     1       4.079  41.991  76.973  1.00  0.00     0.012 A 
HETATM   20  C18 UNL     1       4.776  39.685  77.225  1.00  0.00     0.042 A 
ENDBRANCH   9  11
ENDBRANCH   5   9
BRANCH   8  21
HETATM   21  C20 UNL     1       8.116  37.489  73.648  1.00  0.00    -0.006 A 
HETATM   22  C21 UNL     1       7.887  38.538  72.834  1.00  0.00     0.030 A 
HETATM   23  C22 UNL     1       8.850  39.286  72.198  1.00  0.00     0.088 A 
HETATM   24  N4  UNL     1      10.131  38.941  72.403  1.00  0.00    -0.375 N 
HETATM   25  C23 UNL     1      10.430  37.888  73.214  1.00  0.00     0.088 A 
ATOM     26  H4  UNL     1      10.880  39.468  71.953  1.00  0.00     0.164 HD
HETATM   27  C24 UNL     1       9.480  37.145  73.847  1.00  0.00     0.030 A 
ENDBRANCH   8  21
BRANCH   1  28
HETATM   28  C5  UNL     1       6.903  34.802  72.843  1.00  0.00     0.080 C 
BRANCH  28  29
HETATM   29  C4  UNL     1       7.846  33.652  72.945  1.00  0.00    -0.054 A 
HETATM   30  C3  UNL     1       7.600  32.561  72.100  1.00  0.00     0.007 A 
HETATM   31  C2  UNL     1       8.395  31.435  72.111  1.00  0.00     0.001 A 
HETATM   32  C1  UNL     1       9.474  31.353  72.971  1.00  0.00     0.000 A 
HETATM   33  C26 UNL     1       9.724  32.407  73.798  1.00  0.00     0.001 A 
HETATM   34  C25 UNL     1       8.911  33.538  73.775  1.00  0.00     0.007 A 
ENDBRANCH  28  29
ENDBRANCH   1  28
TORSDOF 5
ENDMDL
MODEL 2
REMARK VINA RESULT: -9.384435572      2.170      4.415
REMARK  5 active torsions:
REMARK  status: ('A' for Active; 'I' for Inactive)
REMARK    1  A    between atoms: C4_4  and  C5_5 
REMARK    2  A    between atoms: C5_5  and  C6_6 
REMARK    3  A    between atoms: C8_10  and  N2_11 
REMARK    4  A    between atoms: N2_11  and  C9_13 
REMARK    5  A    between atoms: C19_25  and  C20_26 
ROOT
HETATM    1  C6  UNL     1       7.175  36.988  75.984  1.00  0.00    -0.010 A 
HETATM    2  C7  UNL     1       7.164  38.151  76.826  1.00  0.00     0.116 A 
HETATM    3  N1  UNL     1       6.040  38.435  77.483  1.00  0.00    -0.201 N 
ATOM      4  H1  UNL     1       6.021  39.260  78.082  1.00  0.00     0.183 HD
HETATM    5  C8  UNL     1       4.925  37.680  77.390  1.00  0.00     0.683 A 
HETATM    6  N3  UNL     1       4.963  36.604  76.598  1.00  0.00    -0.190 N 
ATOM      7  H3  UNL     1       4.124  36.030  76.523  1.00  0.00     0.184 HD
HETATM    8  C19 UNL     1       6.076  36.231  75.878  1.00  0.00     0.067 A 
ENDROOT
BRANCH   5   9
HETATM    9  N2  UNL     1       3.836  37.953  78.028  1.00  0.00    -0.192 N 
ATOM     10  H2  UNL     1       3.426  37.200  78.580  1.00  0.00     0.184 HD
BRANCH   9  11
HETATM   11  C9  UNL     1       3.162  39.180  78.038  1.00  0.00     0.050 A 
HETATM   12  C10 UNL     1       3.323  40.067  76.997  1.00  0.00     0.031 A 
HETATM   13  C11 UNL     1       2.667  41.292  76.988  1.00  0.00     0.014 A 
HETATM   14  C12 UNL     1       1.836  41.637  78.036  1.00  0.00    -0.026 A 
HETATM   15  C13 UNL     1       1.168  42.861  78.044  1.00  0.00     0.012 A 
HETATM   16  C17 UNL     1       1.661  40.770  79.083  1.00  0.00    -0.024 A 
HETATM   17  C14 UNL     1       0.338  43.222  79.073  1.00  0.00     0.001 A 
HETATM   18  C15 UNL     1       0.170  42.349  80.117  1.00  0.00     0.001 A 
HETATM   19  C16 UNL     1       0.826  41.141  80.112  1.00  0.00     0.012 A 
HETATM   20  C18 UNL     1       2.327  39.552  79.068  1.00  0.00     0.042 A 
ENDBRANCH   9  11
ENDBRANCH   5   9
BRANCH   8  21
HETATM   21  C20 UNL     1       5.925  35.027  75.091  1.00  0.00    -0.006 A 
HETATM   22  C21 UNL     1       5.856  34.890  73.752  1.00  0.00     0.030 A 
HETATM   23  C22 UNL     1       5.796  33.698  73.069  1.00  0.00     0.088 A 
HETATM   24  N4  UNL     1       5.806  32.571  73.797  1.00  0.00    -0.375 N 
HETATM   25  C23 UNL     1       5.872  32.641  75.156  1.00  0.00     0.088 A 
ATOM     26  H4  UNL     1       5.764  31.663  73.333  1.00  0.00     0.164 HD
HETATM   27  C24 UNL     1       5.933  33.818  75.838  1.00  0.00     0.030 A 
ENDBRANCH   8  21
BRANCH   1  28
HETATM   28  C5  UNL     1       8.488  36.653  75.442  1.00  0.00     0.080 C 
BRANCH  28  29
HETATM   29  C4  UNL     1       8.879  37.472  74.260  1.00  0.00    -0.054 A 
HETATM   30  C3  UNL     1      10.222  37.403  73.864  1.00  0.00     0.007 A 
HETATM   31  C2  UNL     1      10.705  38.124  72.793  1.00  0.00     0.001 A 
HETATM   32  C1  UNL     1       9.863  38.948  72.071  1.00  0.00     0.000 A 
HETATM   33  C26 UNL     1       8.555  39.024  72.445  1.00  0.00     0.001 A 
HETATM   34  C25 UNL     1       8.081  38.289  73.530  1.00  0.00     0.007 A 
ENDBRANCH  28  29
ENDBRANCH   1  28
TORSDOF 5
ENDMDL
MODEL 3
REMARK VINA RESULT: -9.267003345      2.039      4.145
REMARK  5 active torsions:
REMARK  status: ('A' for Active; 'I' for Inactive)
REMARK    1  A    between atoms: C4_4  and  C5_5 
REMARK    2  A    between atoms: C5_5  and  C6_6 
REMARK    3  A    between atoms: C8_10  and  N2_11 
REMARK    4  A    between atoms: N2_11  and  C9_13 
REMARK    5  A    between atoms: C19_25  and  C20_26 
ROOT
HETATM    1  C6  UNL     1       7.233  36.845  76.073  1.00  0.00    -0.010 A 
HETATM    2  C7  UNL     1       7.106  37.929  77.006  1.00  0.00     0.116 A 
HETATM    3  N1  UNL     1       5.949  38.063  77.652  1.00  0.00    -0.201 N 
ATOM      4  H1  UNL     1       5.848  38.830  78.316  1.00  0.00     0.183 HD
HETATM    5  C8  UNL     1       4.904  37.228  77.468  1.00  0.00     0.683 A 
HETATM    6  N3  UNL     1       5.050  36.229  76.592  1.00  0.00    -0.190 N 
ATOM      7  H3  UNL     1       4.264  35.595  76.447  1.00  0.00     0.184 HD
HETATM    8  C19 UNL     1       6.205  36.011  75.874  1.00  0.00     0.067 A 
ENDROOT
BRANCH   5   9
HETATM    9  N2  UNL     1       3.783  37.356  78.096  1.00  0.00    -0.192 N 
ATOM     10  H2  UNL     1       3.363  36.502  78.465  1.00  0.00     0.184 HD
BRANCH   9  11
HETATM   11  C9  UNL     1       3.085  38.549  78.321  1.00  0.00     0.050 A 
HETATM   12  C10 UNL     1       2.082  38.597  79.263  1.00  0.00     0.031 A 
HETATM   13  C11 UNL     1       1.374  39.769  79.500  1.00  0.00     0.014 A 
HETATM   14  C12 UNL     1       1.673  40.912  78.783  1.00  0.00    -0.026 A 
HETATM   15  C13 UNL     1       0.974  42.098  79.008  1.00  0.00     0.012 A 
HETATM   16  C17 UNL     1       2.667  40.887  77.841  1.00  0.00    -0.024 A 
HETATM   17  C14 UNL     1       1.256  43.243  78.309  1.00  0.00     0.001 A 
HETATM   18  C15 UNL     1       2.252  43.208  77.367  1.00  0.00     0.001 A 
HETATM   19  C16 UNL     1       2.943  42.041  77.144  1.00  0.00     0.012 A 
HETATM   20  C18 UNL     1       3.361  39.704  77.624  1.00  0.00     0.042 A 
ENDBRANCH   9  11
ENDBRANCH   5   9
BRANCH   8  21
HETATM   21  C20 UNL     1       6.173  34.868  74.988  1.00  0.00    -0.006 A 
HETATM   22  C21 UNL     1       6.126  34.839  73.641  1.00  0.00     0.030 A 
HETATM   23  C22 UNL     1       6.183  33.708  72.861  1.00  0.00     0.088 A 
HETATM   24  N4  UNL     1       6.293  32.529  73.493  1.00  0.00    -0.375 N 
HETATM   25  C23 UNL     1       6.342  32.490  74.854  1.00  0.00     0.088 A 
ATOM     26  H4  UNL     1       6.339  31.664  72.955  1.00  0.00     0.164 HD
HETATM   27  C24 UNL     1       6.287  33.607  75.632  1.00  0.00     0.030 A 
ENDBRANCH   8  21
BRANCH   1  28
HETATM   28  C5  UNL     1       8.580  36.666  75.541  1.00  0.00     0.080 C 
BRANCH  28  29
HETATM   29  C4  UNL     1       8.884  37.529  74.364  1.00  0.00    -0.054 A 
HETATM   30  C3  UNL     1      10.175  37.428  73.827  1.00  0.00     0.007 A 
HETATM   31  C2  UNL     1      10.577  38.184  72.746  1.00  0.00     0.001 A 
HETATM   32  C1  UNL     1       9.701  39.076  72.156  1.00  0.00     0.000 A 
HETATM   33  C26 UNL     1       8.443  39.184  72.669  1.00  0.00     0.001 A 
HETATM   34  C25 UNL     1       8.052  38.413  73.761  1.00  0.00     0.007 A 
ENDBRANCH  28  29
ENDBRANCH   1  28
TORSDOF 5
ENDMDL
MODEL 4
REMARK VINA RESULT: -9.243453185      1.402      2.450
REMARK  5 active torsions:
REMARK  status: ('A' for Active; 'I' for Inactive)
REMARK    1  A    between atoms: C4_4  and  C5_5 
REMARK    2  A    between atoms: C5_5  and  C6_6 
REMARK    3  A    between atoms: C8_10  and  N2_11 
REMARK    4  A    between atoms: N2_11  and  C9_13 
REMARK    5  A    between atoms: C19_25  and  C20_26 
ROOT
HETATM    1  C6  UNL     1       6.982  37.080  75.542  1.00  0.00    -0.010 A 
HETATM    2  C7  UNL     1       5.875  37.023  76.453  1.00  0.00     0.116 A 
HETATM    3  N1  UNL     1       4.983  38.013  76.414  1.00  0.00    -0.201 N 
ATOM      4  H1  UNL     1       4.193  37.983  77.058  1.00  0.00     0.183 HD
HETATM    5  C8  UNL     1       5.078  39.053  75.559  1.00  0.00     0.683 A 
HETATM    6  N3  UNL     1       6.121  39.081  74.723  1.00  0.00    -0.190 N 
ATOM      7  H3  UNL     1       6.199  39.864  74.075  1.00  0.00     0.184 HD
HETATM    8  C19 UNL     1       7.094  38.108  74.691  1.00  0.00     0.067 A 
ENDROOT
BRANCH   5   9
HETATM    9  N2  UNL     1       4.213  40.011  75.518  1.00  0.00    -0.192 N 
ATOM     10  H2  UNL     1       4.164  40.549  74.653  1.00  0.00     0.184 HD
BRANCH   9  11
HETATM   11  C9  UNL     1       3.336  40.385  76.543  1.00  0.00     0.050 A 
HETATM   12  C10 UNL     1       2.825  39.435  77.400  1.00  0.00     0.031 A 
HETATM   13  C11 UNL     1       1.950  39.783  78.421  1.00  0.00     0.014 A 
HETATM   14  C12 UNL     1       1.579  41.103  78.590  1.00  0.00    -0.026 A 
HETATM   15  C13 UNL     1       0.702  41.472  79.611  1.00  0.00     0.012 A 
HETATM   16  C17 UNL     1       2.073  42.065  77.750  1.00  0.00    -0.024 A 
HETATM   17  C14 UNL     1       0.321  42.776  79.797  1.00  0.00     0.001 A 
HETATM   18  C15 UNL     1       0.821  43.732  78.950  1.00  0.00     0.001 A 
HETATM   19  C16 UNL     1       1.686  43.372  77.944  1.00  0.00     0.012 A 
HETATM   20  C18 UNL     1       2.947  41.692  76.738  1.00  0.00     0.042 A 
ENDBRANCH   9  11
ENDBRANCH   5   9
BRANCH   8  21
HETATM   21  C20 UNL     1       8.133  38.308  73.704  1.00  0.00    -0.006 A 
HETATM   22  C21 UNL     1       9.457  38.078  73.807  1.00  0.00     0.030 A 
HETATM   23  C22 UNL     1      10.376  38.215  72.793  1.00  0.00     0.088 A 
HETATM   24  N4  UNL     1       9.917  38.613  71.596  1.00  0.00    -0.375 N 
HETATM   25  C23 UNL     1       8.589  38.863  71.428  1.00  0.00     0.088 A 
ATOM     26  H4  UNL     1      10.562  38.727  70.814  1.00  0.00     0.164 HD
HETATM   27  C24 UNL     1       7.674  38.729  72.428  1.00  0.00     0.030 A 
ENDBRANCH   8  21
BRANCH   1  28
HETATM   28  C5  UNL     1       7.811  35.879  75.530  1.00  0.00     0.080 C 
BRANCH  28  29
HETATM   29  C4  UNL     1       7.438  34.899  74.471  1.00  0.00    -0.054 A 
HETATM   30  C3  UNL     1       8.485  34.165  73.896  1.00  0.00     0.007 A 
HETATM   31  C2  UNL     1       8.266  33.238  72.900  1.00  0.00     0.001 A 
HETATM   32  C1  UNL     1       6.986  33.006  72.434  1.00  0.00     0.000 A 
HETATM   33  C26 UNL     1       5.958  33.713  72.984  1.00  0.00     0.001 A 
HETATM   34  C25 UNL     1       6.196  34.646  73.990  1.00  0.00     0.007 A 
ENDBRANCH  28  29
ENDBRANCH   1  28
TORSDOF 5
ENDMDL
MODEL 5
REMARK VINA RESULT: -9.230208648      0.529      1.334
REMARK  5 active torsions:
REMARK  status: ('A' for Active; 'I' for Inactive)
REMARK    1  A    between atoms: C4_4  and  C5_5 
REMARK    2  A    between atoms: C5_5  and  C6_6 
REMARK    3  A    between atoms: C8_10  and  N2_11 
REMARK    4  A    between atoms: N2_11  and  C9_13 
REMARK    5  A    between atoms: C19_25  and  C20_26 
ROOT
HETATM    1  C6  UNL     1       6.695  35.508  74.045  1.00  0.00    -0.010 A 
HETATM    2  C7  UNL     1       5.707  34.885  74.879  1.00  0.00     0.116 A 
HETATM    3  N1  UNL     1       5.291  35.551  75.957  1.00  0.00    -0.201 N 
ATOM      4  H1  UNL     1       4.590  35.117  76.557  1.00  0.00     0.183 HD
HETATM    5  C8  UNL     1       5.757  36.773  76.289  1.00  0.00     0.683 A 
HETATM    6  N3  UNL     1       6.679  37.328  75.495  1.00  0.00    -0.190 N 
ATOM      7  H3  UNL     1       7.035  38.251  75.741  1.00  0.00     0.184 HD
HETATM    8  C19 UNL     1       7.171  36.718  74.363  1.00  0.00     0.067 A 
ENDROOT
BRANCH   5   9
HETATM    9  N2  UNL     1       5.353  37.420  77.332  1.00  0.00    -0.192 N 
ATOM     10  H2  UNL     1       5.635  37.049  78.239  1.00  0.00     0.184 HD
BRANCH   9  11
HETATM   11  C9  UNL     1       4.567  38.579  77.341  1.00  0.00     0.050 A 
HETATM   12  C10 UNL     1       4.936  39.671  76.588  1.00  0.00     0.031 A 
HETATM   13  C11 UNL     1       4.174  40.833  76.586  1.00  0.00     0.014 A 
HETATM   14  C12 UNL     1       3.023  40.904  77.347  1.00  0.00    -0.026 A 
HETATM   15  C13 UNL     1       2.244  42.061  77.356  1.00  0.00     0.012 A 
HETATM   16  C17 UNL     1       2.637  39.829  78.104  1.00  0.00    -0.024 A 
HETATM   17  C14 UNL     1       1.099  42.152  78.104  1.00  0.00     0.001 A 
HETATM   18  C15 UNL     1       0.721  41.071  78.859  1.00  0.00     0.001 A 
HETATM   19  C16 UNL     1       1.486  39.930  78.851  1.00  0.00     0.012 A 
HETATM   20  C18 UNL     1       3.416  38.680  78.089  1.00  0.00     0.042 A 
ENDBRANCH   9  11
ENDBRANCH   5   9
BRANCH   8  21
HETATM   21  C20 UNL     1       8.151  37.486  73.627  1.00  0.00    -0.006 A 
HETATM   22  C21 UNL     1       7.965  38.550  72.821  1.00  0.00     0.030 A 
HETATM   23  C22 UNL     1       8.960  39.284  72.218  1.00  0.00     0.088 A 
HETATM   24  N4  UNL     1      10.228  38.909  72.451  1.00  0.00    -0.375 N 
HETATM   25  C23 UNL     1      10.483  37.840  73.255  1.00  0.00     0.088 A 
ATOM     26  H4  UNL     1      10.998  39.425  72.025  1.00  0.00     0.164 HD
HETATM   27  C24 UNL     1       9.502  37.110  73.855  1.00  0.00     0.030 A 
ENDBRANCH   8  21
BRANCH   1  28
HETATM   28  C5  UNL     1       6.965  34.794  72.801  1.00  0.00     0.080 C 
BRANCH  28  29
HETATM   29  C4  UNL     1       7.863  33.616  72.964  1.00  0.00    -0.054 A 
HETATM   30  C3  UNL     1       7.711  32.576  72.036  1.00  0.00     0.007 A 
HETATM   31  C2  UNL     1       8.476  31.431  72.092  1.00  0.00     0.001 A 
HETATM   32  C1  UNL     1       9.427  31.276  73.082  1.00  0.00     0.000 A 
HETATM   33  C26 UNL     1       9.585  32.279  73.991  1.00  0.00     0.001 A 
HETATM   34  C25 UNL     1       8.805  33.431  73.921  1.00  0.00     0.007 A 
ENDBRANCH  28  29
ENDBRANCH   1  28
TORSDOF 5
ENDMDL
