MODEL 1
REMARK VINA RESULT: -8.095823670      0.000      0.000
REMARK  5 active torsions:
REMARK  status: ('A' for Active; 'I' for Inactive)
REMARK    1  A    between atoms: N1_1  and  N2_4 
REMARK    2  A    between atoms: C1_5  and  C2_6 
REMARK    3  A    between atoms: C8_14  and  C9_15 
REMARK    4  A    between atoms: C15_21  and  C16_22 
REMARK    5  A    between atoms: C15_21  and  C22_28 
ROOT
HETATM    1  N2  UNL     1       6.958  35.821  74.819  1.00  0.00    -0.261 N 
HETATM    2  C1  UNL     1       8.172  36.531  74.963  1.00  0.00     0.130 C 
HETATM    3  N3  UNL     1       8.722  36.250  76.092  1.00  0.00    -0.362 N 
ATOM      4  H3  UNL     1       9.605  36.637  76.425  1.00  0.00     0.162 HD
HETATM    5  C8  UNL     1       7.893  35.288  76.832  1.00  0.00     0.156 C 
HETATM    6  C15 UNL     1       6.588  35.368  76.172  1.00  0.00     0.133 C 
ENDROOT
BRANCH   6   7
HETATM    7  C16 UNL     1       5.672  36.395  76.787  1.00  0.00    -0.021 A 
HETATM    8  C17 UNL     1       5.616  37.682  76.286  1.00  0.00     0.010 A 
HETATM    9  C18 UNL     1       4.782  38.628  76.855  1.00  0.00     0.001 A 
HETATM   10  C19 UNL     1       3.987  38.310  77.934  1.00  0.00     0.000 A 
HETATM   11  C20 UNL     1       4.022  37.037  78.457  1.00  0.00     0.001 A 
HETATM   12  C21 UNL     1       4.867  36.112  77.864  1.00  0.00     0.010 A 
ENDBRANCH   6   7
BRANCH   6  13
HETATM   13  C22 UNL     1       5.775  34.145  76.098  1.00  0.00    -0.021 A 
HETATM   14  C23 UNL     1       6.425  32.923  76.220  1.00  0.00     0.010 A 
HETATM   15  C24 UNL     1       5.703  31.746  76.164  1.00  0.00     0.001 A 
HETATM   16  C25 UNL     1       4.331  31.734  75.988  1.00  0.00     0.000 A 
HETATM   17  C26 UNL     1       3.698  32.947  75.868  1.00  0.00     0.001 A 
HETATM   18  C27 UNL     1       4.437  34.129  75.927  1.00  0.00     0.010 A 
ENDBRANCH   6  13
BRANCH   1  19
HETATM   19  N1  UNL     1       6.306  35.613  73.615  1.00  0.00    -0.340 N 
ATOM     20  H12 UNL     1       6.696  35.510  72.677  1.00  0.00     0.177 HD
ATOM     21  H11 UNL     1       5.295  35.546  73.509  1.00  0.00     0.177 HD
ENDBRANCH   1  19
BRANCH   5  22
HETATM   22  C9  UNL     1       8.000  35.549  78.260  1.00  0.00    -0.032 A 
HETATM   23  C10 UNL     1       7.725  34.571  79.181  1.00  0.00     0.009 A 
HETATM   24  C11 UNL     1       7.857  34.824  80.556  1.00  0.00     0.001 A 
HETATM   25  C12 UNL     1       8.266  36.065  80.997  1.00  0.00     0.000 A 
HETATM   26  C13 UNL     1       8.541  37.045  80.073  1.00  0.00     0.001 A 
HETATM   27  C14 UNL     1       8.403  36.768  78.738  1.00  0.00     0.009 A 
ENDBRANCH   5  22
BRANCH   2  28
HETATM   28  C2  UNL     1       8.813  37.457  74.014  1.00  0.00     0.009 A 
HETATM   29  C3  UNL     1      10.129  37.295  73.683  1.00  0.00     0.015 A 
HETATM   30  C4  UNL     1      10.703  38.201  72.793  1.00  0.00     0.001 A 
HETATM   31  C5  UNL     1       9.973  39.234  72.256  1.00  0.00     0.000 A 
HETATM   32  C6  UNL     1       8.645  39.412  72.578  1.00  0.00     0.001 A 
HETATM   33  C7  UNL     1       8.089  38.517  73.454  1.00  0.00     0.015 A 
ENDBRANCH   2  28
TORSDOF 5
ENDMDL
MODEL 2
REMARK VINA RESULT: -7.325548614      1.339      3.984
REMARK  5 active torsions:
REMARK  status: ('A' for Active; 'I' for Inactive)
REMARK    1  A    between atoms: N1_1  and  N2_4 
REMARK    2  A    between atoms: C1_5  and  C2_6 
REMARK    3  A    between atoms: C8_14  and  C9_15 
REMARK    4  A    between atoms: C15_21  and  C16_22 
REMARK    5  A    between atoms: C15_21  and  C22_28 
ROOT
HETATM    1  N2  UNL     1       8.294  36.452  76.467  1.00  0.00    -0.261 N 
HETATM    2  C1  UNL     1       8.047  37.600  75.680  1.00  0.00     0.130 C 
HETATM    3  N3  UNL     1       7.138  38.330  76.228  1.00  0.00    -0.362 N 
ATOM      4  H3  UNL     1       6.787  39.209  75.849  1.00  0.00     0.162 HD
HETATM    5  C8  UNL     1       6.681  37.710  77.480  1.00  0.00     0.156 C 
HETATM    6  C15 UNL     1       7.139  36.323  77.373  1.00  0.00     0.133 C 
ENDROOT
BRANCH   6   7
HETATM    7  C16 UNL     1       6.127  35.408  76.732  1.00  0.00    -0.021 A 
HETATM    8  C17 UNL     1       6.163  35.157  75.374  1.00  0.00     0.010 A 
HETATM    9  C18 UNL     1       5.229  34.325  74.782  1.00  0.00     0.001 A 
HETATM   10  C19 UNL     1       4.241  33.727  75.533  1.00  0.00     0.000 A 
HETATM   11  C20 UNL     1       4.178  33.960  76.888  1.00  0.00     0.001 A 
HETATM   12  C21 UNL     1       5.128  34.797  77.451  1.00  0.00     0.010 A 
ENDBRANCH   6   7
BRANCH   6  13
HETATM   13  C22 UNL     1       7.533  35.629  78.609  1.00  0.00    -0.021 A 
HETATM   14  C23 UNL     1       7.929  36.403  79.692  1.00  0.00     0.010 A 
HETATM   15  C24 UNL     1       8.302  35.797  80.877  1.00  0.00     0.001 A 
HETATM   16  C25 UNL     1       8.297  34.423  81.031  1.00  0.00     0.000 A 
HETATM   17  C26 UNL     1       7.905  33.666  79.955  1.00  0.00     0.001 A 
HETATM   18  C27 UNL     1       7.529  34.288  78.763  1.00  0.00     0.010 A 
ENDBRANCH   6  13
BRANCH   1  19
HETATM   19  N1  UNL     1       9.425  35.659  76.367  1.00  0.00    -0.340 N 
ATOM     20  H12 UNL     1       9.671  34.968  75.657  1.00  0.00     0.177 HD
ATOM     21  H11 UNL     1      10.193  35.661  77.037  1.00  0.00     0.177 HD
ENDBRANCH   1  19
BRANCH   5  22
HETATM   22  C9  UNL     1       5.266  37.992  77.675  1.00  0.00    -0.032 A 
HETATM   23  C10 UNL     1       4.578  37.460  78.735  1.00  0.00     0.009 A 
HETATM   24  C11 UNL     1       3.221  37.759  78.931  1.00  0.00     0.001 A 
HETATM   25  C12 UNL     1       2.561  38.595  78.056  1.00  0.00     0.000 A 
HETATM   26  C13 UNL     1       3.251  39.128  76.993  1.00  0.00     0.001 A 
HETATM   27  C14 UNL     1       4.576  38.818  76.827  1.00  0.00     0.009 A 
ENDBRANCH   5  22
BRANCH   2  28
HETATM   28  C2  UNL     1       8.692  38.008  74.421  1.00  0.00     0.009 A 
HETATM   29  C3  UNL     1       9.943  37.551  74.113  1.00  0.00     0.015 A 
HETATM   30  C4  UNL     1      10.525  37.973  72.920  1.00  0.00     0.001 A 
HETATM   31  C5  UNL     1       9.867  38.824  72.065  1.00  0.00     0.000 A 
HETATM   32  C6  UNL     1       8.605  39.293  72.358  1.00  0.00     0.001 A 
HETATM   33  C7  UNL     1       8.040  38.874  73.534  1.00  0.00     0.015 A 
ENDBRANCH   2  28
TORSDOF 5
ENDMDL
MODEL 3
REMARK VINA RESULT: -7.315580758      1.473      6.102
REMARK  5 active torsions:
REMARK  status: ('A' for Active; 'I' for Inactive)
REMARK    1  A    between atoms: N1_1  and  N2_4 
REMARK    2  A    between atoms: C1_5  and  C2_6 
REMARK    3  A    between atoms: C8_14  and  C9_15 
REMARK    4  A    between atoms: C15_21  and  C16_22 
REMARK    5  A    between atoms: C15_21  and  C22_28 
ROOT
HETATM    1  N2  UNL     1       7.528  34.970  74.122  1.00  0.00    -0.261 N 
HETATM    2  C1  UNL     1       6.214  34.486  74.321  1.00  0.00     0.130 C 
HETATM    3  N3  UNL     1       5.405  35.466  74.531  1.00  0.00    -0.362 N 
ATOM      4  H3  UNL     1       4.404  35.370  74.702  1.00  0.00     0.162 HD
HETATM    5  C8  UNL     1       6.134  36.741  74.488  1.00  0.00     0.156 C 
HETATM    6  C15 UNL     1       7.537  36.349  74.643  1.00  0.00     0.133 C 
ENDROOT
BRANCH   6   7
HETATM    7  C16 UNL     1       7.991  36.315  76.080  1.00  0.00    -0.021 A 
HETATM    8  C17 UNL     1       7.782  35.194  76.860  1.00  0.00     0.010 A 
HETATM    9  C18 UNL     1       8.191  35.165  78.181  1.00  0.00     0.001 A 
HETATM   10  C19 UNL     1       8.816  36.253  78.751  1.00  0.00     0.000 A 
HETATM   11  C20 UNL     1       9.037  37.384  77.999  1.00  0.00     0.001 A 
HETATM   12  C21 UNL     1       8.617  37.382  76.678  1.00  0.00     0.010 A 
ENDBRANCH   6   7
BRANCH   6  13
HETATM   13  C22 UNL     1       8.558  37.151  73.951  1.00  0.00    -0.021 A 
HETATM   14  C23 UNL     1       8.132  38.235  73.194  1.00  0.00     0.010 A 
HETATM   15  C24 UNL     1       9.054  39.022  72.531  1.00  0.00     0.001 A 
HETATM   16  C25 UNL     1      10.413  38.769  72.592  1.00  0.00     0.000 A 
HETATM   17  C26 UNL     1      10.824  37.695  73.343  1.00  0.00     0.001 A 
HETATM   18  C27 UNL     1       9.884  36.908  74.008  1.00  0.00     0.010 A 
ENDBRANCH   6  13
BRANCH   1  19
HETATM   19  N1  UNL     1       8.551  34.247  73.533  1.00  0.00    -0.340 N 
ATOM     20  H12 UNL     1       8.737  34.076  72.544  1.00  0.00     0.177 HD
ATOM     21  H11 UNL     1       9.282  33.756  74.047  1.00  0.00     0.177 HD
ENDBRANCH   1  19
BRANCH   5  22
HETATM   22  C9  UNL     1       5.536  37.676  75.429  1.00  0.00    -0.032 A 
HETATM   23  C10 UNL     1       5.497  39.021  75.163  1.00  0.00     0.009 A 
HETATM   24  C11 UNL     1       4.894  39.913  76.064  1.00  0.00     0.001 A 
HETATM   25  C12 UNL     1       4.331  39.444  77.232  1.00  0.00     0.000 A 
HETATM   26  C13 UNL     1       4.370  38.096  77.499  1.00  0.00     0.001 A 
HETATM   27  C14 UNL     1       4.966  37.250  76.600  1.00  0.00     0.009 A 
ENDBRANCH   5  22
BRANCH   2  28
HETATM   28  C2  UNL     1       5.732  33.095  74.288  1.00  0.00     0.009 A 
HETATM   29  C3  UNL     1       5.301  32.548  73.112  1.00  0.00     0.015 A 
HETATM   30  C4  UNL     1       4.839  31.234  73.125  1.00  0.00     0.001 A 
HETATM   31  C5  UNL     1       4.814  30.497  74.285  1.00  0.00     0.000 A 
HETATM   32  C6  UNL     1       5.246  31.032  75.479  1.00  0.00     0.001 A 
HETATM   33  C7  UNL     1       5.698  32.325  75.457  1.00  0.00     0.015 A 
ENDBRANCH   2  28
TORSDOF 5
ENDMDL
MODEL 4
REMARK VINA RESULT: -7.227395192      1.572      4.774
REMARK  5 active torsions:
REMARK  status: ('A' for Active; 'I' for Inactive)
REMARK    1  A    between atoms: N1_1  and  N2_4 
REMARK    2  A    between atoms: C1_5  and  C2_6 
REMARK    3  A    between atoms: C8_14  and  C9_15 
REMARK    4  A    between atoms: C15_21  and  C16_22 
REMARK    5  A    between atoms: C15_21  and  C22_28 
ROOT
HETATM    1  N2  UNL     1       7.050  36.946  76.294  1.00  0.00    -0.261 N 
HETATM    2  C1  UNL     1       7.234  36.878  74.894  1.00  0.00     0.130 C 
HETATM    3  N3  UNL     1       6.357  36.097  74.365  1.00  0.00    -0.362 N 
ATOM      4  H3  UNL     1       6.285  35.886  73.370  1.00  0.00     0.162 HD
HETATM    5  C8  UNL     1       5.473  35.554  75.407  1.00  0.00     0.156 C 
HETATM    6  C15 UNL     1       6.209  35.789  76.651  1.00  0.00     0.133 C 
ENDROOT
BRANCH   6   7
HETATM    7  C16 UNL     1       7.111  34.643  77.035  1.00  0.00    -0.021 A 
HETATM    8  C17 UNL     1       8.412  34.583  76.575  1.00  0.00     0.010 A 
HETATM    9  C18 UNL     1       9.238  33.529  76.920  1.00  0.00     0.001 A 
HETATM   10  C19 UNL     1       8.782  32.512  77.731  1.00  0.00     0.000 A 
HETATM   11  C20 UNL     1       7.490  32.543  78.204  1.00  0.00     0.001 A 
HETATM   12  C21 UNL     1       6.689  33.614  77.841  1.00  0.00     0.010 A 
ENDBRANCH   6   7
BRANCH   6  13
HETATM   13  C22 UNL     1       5.435  36.075  77.868  1.00  0.00    -0.021 A 
HETATM   14  C23 UNL     1       4.147  36.572  77.718  1.00  0.00     0.010 A 
HETATM   15  C24 UNL     1       3.377  36.849  78.832  1.00  0.00     0.001 A 
HETATM   16  C25 UNL     1       3.848  36.648  80.117  1.00  0.00     0.000 A 
HETATM   17  C26 UNL     1       5.123  36.156  80.255  1.00  0.00     0.001 A 
HETATM   18  C27 UNL     1       5.890  35.879  79.123  1.00  0.00     0.010 A 
ENDBRANCH   6  13
BRANCH   1  19
HETATM   19  N1  UNL     1       7.569  37.939  77.107  1.00  0.00    -0.340 N 
ATOM     20  H12 UNL     1       7.710  38.930  76.909  1.00  0.00     0.177 HD
ATOM     21  H11 UNL     1       7.905  37.791  78.058  1.00  0.00     0.177 HD
ENDBRANCH   1  19
BRANCH   5  22
HETATM   22  C9  UNL     1       5.072  34.201  75.048  1.00  0.00    -0.032 A 
HETATM   23  C10 UNL     1       5.684  33.530  74.021  1.00  0.00     0.009 A 
HETATM   24  C11 UNL     1       5.309  32.215  73.700  1.00  0.00     0.001 A 
HETATM   25  C12 UNL     1       4.316  31.583  74.417  1.00  0.00     0.000 A 
HETATM   26  C13 UNL     1       3.701  32.256  75.446  1.00  0.00     0.001 A 
HETATM   27  C14 UNL     1       4.090  33.539  75.736  1.00  0.00     0.009 A 
ENDBRANCH   5  22
BRANCH   2  28
HETATM   28  C2  UNL     1       8.230  37.575  74.063  1.00  0.00     0.009 A 
HETATM   29  C3  UNL     1       7.863  38.662  73.320  1.00  0.00     0.015 A 
HETATM   30  C4  UNL     1       8.831  39.284  72.536  1.00  0.00     0.001 A 
HETATM   31  C5  UNL     1      10.127  38.826  72.502  1.00  0.00     0.000 A 
HETATM   32  C6  UNL     1      10.515  37.732  73.245  1.00  0.00     0.001 A 
HETATM   33  C7  UNL     1       9.555  37.126  74.013  1.00  0.00     0.015 A 
ENDBRANCH   2  28
TORSDOF 5
ENDMDL
MODEL 5
REMARK VINA RESULT: -7.148020580      2.370      5.553
REMARK  5 active torsions:
REMARK  status: ('A' for Active; 'I' for Inactive)
REMARK    1  A    between atoms: N1_1  and  N2_4 
REMARK    2  A    between atoms: C1_5  and  C2_6 
REMARK    3  A    between atoms: C8_14  and  C9_15 
REMARK    4  A    between atoms: C15_21  and  C16_22 
REMARK    5  A    between atoms: C15_21  and  C22_28 
ROOT
HETATM    1  N2  UNL     1       8.680  35.412  75.569  1.00  0.00    -0.261 N 
HETATM    2  C1  UNL     1       8.117  36.105  74.473  1.00  0.00     0.130 C 
HETATM    3  N3  UNL     1       6.980  35.589  74.156  1.00  0.00    -0.362 N 
ATOM      4  H3  UNL     1       6.382  35.915  73.396  1.00  0.00     0.162 HD
HETATM    5  C8  UNL     1       6.670  34.463  75.048  1.00  0.00     0.156 C 
HETATM    6  C15 UNL     1       7.961  34.128  75.653  1.00  0.00     0.133 C 
ENDROOT
BRANCH   6   7
HETATM    7  C16 UNL     1       8.734  33.095  74.872  1.00  0.00    -0.021 A 
HETATM    8  C17 UNL     1       9.591  33.473  73.856  1.00  0.00     0.010 A 
HETATM    9  C18 UNL     1      10.294  32.527  73.133  1.00  0.00     0.001 A 
HETATM   10  C19 UNL     1      10.158  31.184  73.410  1.00  0.00     0.000 A 
HETATM   11  C20 UNL     1       9.311  30.776  74.415  1.00  0.00     0.001 A 
HETATM   12  C21 UNL     1       8.621  31.749  75.121  1.00  0.00     0.010 A 
ENDBRANCH   6   7
BRANCH   6  13
HETATM   13  C22 UNL     1       7.967  33.627  77.035  1.00  0.00    -0.021 A 
HETATM   14  C23 UNL     1       6.933  34.022  77.875  1.00  0.00     0.010 A 
HETATM   15  C24 UNL     1       6.892  33.572  79.181  1.00  0.00     0.001 A 
HETATM   16  C25 UNL     1       7.857  32.727  79.697  1.00  0.00     0.000 A 
HETATM   17  C26 UNL     1       8.875  32.341  78.859  1.00  0.00     0.001 A 
HETATM   18  C27 UNL     1       8.906  32.802  77.542  1.00  0.00     0.010 A 
ENDBRANCH   6  13
BRANCH   1  19
HETATM   19  N1  UNL     1       9.692  35.907  76.375  1.00  0.00    -0.340 N 
ATOM     20  H12 UNL     1      10.462  36.532  76.137  1.00  0.00     0.177 HD
ATOM     21  H11 UNL     1       9.806  35.682  77.363  1.00  0.00     0.177 HD
ENDBRANCH   1  19
BRANCH   5  22
HETATM   22  C9  UNL     1       5.930  33.448  74.313  1.00  0.00    -0.032 A 
HETATM   23  C10 UNL     1       6.041  33.338  72.951  1.00  0.00     0.009 A 
HETATM   24  C11 UNL     1       5.345  32.338  72.253  1.00  0.00     0.001 A 
HETATM   25  C12 UNL     1       4.537  31.453  72.933  1.00  0.00     0.000 A 
HETATM   26  C13 UNL     1       4.424  31.564  74.299  1.00  0.00     0.001 A 
HETATM   27  C14 UNL     1       5.117  32.550  74.953  1.00  0.00     0.009 A 
ENDBRANCH   5  22
BRANCH   2  28
HETATM   28  C2  UNL     1       8.653  37.268  73.747  1.00  0.00     0.009 A 
HETATM   29  C3  UNL     1       7.812  38.260  73.326  1.00  0.00     0.015 A 
HETATM   30  C4  UNL     1       8.356  39.336  72.629  1.00  0.00     0.001 A 
HETATM   31  C5  UNL     1       9.704  39.410  72.367  1.00  0.00     0.000 A 
HETATM   32  C6  UNL     1      10.566  38.420  72.785  1.00  0.00     0.001 A 
HETATM   33  C7  UNL     1      10.022  37.365  73.469  1.00  0.00     0.015 A 
ENDBRANCH   2  28
TORSDOF 5
ENDMDL
