MODEL 1
REMARK VINA RESULT: -5.606894930      0.000      0.000
REMARK  1 active torsions:
REMARK  status: ('A' for Active; 'I' for Inactive)
REMARK    1  A    between atoms: O1_1  and  C1_3 
ROOT
HETATM    1  C1  UNL     1      27.035   2.883  43.451  1.00  0.00     0.215 C 
HETATM    2  C2  UNL     1      27.754   4.182  43.075  1.00  0.00     0.239 C 
HETATM    3  O2  UNL     1      29.088   3.994  43.288  1.00  0.00    -0.383 OA
HETATM    4  C3  UNL     1      29.338   2.717  43.704  1.00  0.00     0.205 C 
HETATM    5  C4  UNL     1      28.032   2.253  44.364  1.00  0.00     0.209 C 
HETATM    6  O3  UNL     1      28.040   0.902  44.412  1.00  0.00    -0.373 OA
HETATM    7  C5  UNL     1      27.140   0.242  43.633  1.00  0.00     0.239 C 
HETATM    8  C6  UNL     1      27.009   0.877  42.285  1.00  0.00     0.211 A 
HETATM    9  C7  UNL     1      27.472   0.175  41.076  1.00  0.00     0.242 A 
HETATM   10  O4  UNL     1      26.077   0.176  41.428  1.00  0.00    -0.346 OA
HETATM   11  O5  UNL     1      26.774   2.216  42.297  1.00  0.00    -0.310 OA
ENDROOT
BRANCH   1  12
HETATM   12  O1  UNL     1      25.821   3.170  44.081  1.00  0.00    -0.362 OA
ATOM     13  H1  UNL     1      25.833   2.849  44.975  1.00  0.00     0.213 HD
ENDBRANCH   1  12
TORSDOF 1
ENDMDL
MODEL 2
REMARK VINA RESULT: -5.489567290      1.926      2.531
REMARK  1 active torsions:
REMARK  status: ('A' for Active; 'I' for Inactive)
REMARK    1  A    between atoms: O1_1  and  C1_3 
ROOT
HETATM    1  C1  UNL     1      27.878   3.377  40.668  1.00  0.00     0.215 C 
HETATM    2  C2  UNL     1      29.306   3.641  40.183  1.00  0.00     0.239 C 
HETATM    3  O2  UNL     1      30.096   3.800  41.283  1.00  0.00    -0.383 OA
HETATM    4  C3  UNL     1      29.373   3.618  42.429  1.00  0.00     0.205 C 
HETATM    5  C4  UNL     1      27.927   3.956  42.042  1.00  0.00     0.209 C 
HETATM    6  O3  UNL     1      27.104   3.404  42.961  1.00  0.00    -0.373 OA
HETATM    7  C5  UNL     1      26.306   2.380  42.552  1.00  0.00     0.239 C 
HETATM    8  C6  UNL     1      27.032   1.447  41.637  1.00  0.00     0.211 A 
HETATM    9  C7  UNL     1      27.342   0.070  42.060  1.00  0.00     0.242 A 
HETATM   10  O4  UNL     1      26.212   0.333  41.210  1.00  0.00    -0.346 OA
HETATM   11  O5  UNL     1      27.663   2.039  40.589  1.00  0.00    -0.310 OA
ENDROOT
BRANCH   1  12
HETATM   12  O1  UNL     1      26.960   4.024  39.835  1.00  0.00    -0.362 OA
ATOM     13  H1  UNL     1      26.987   4.961  39.986  1.00  0.00     0.213 HD
ENDBRANCH   1  12
TORSDOF 1
ENDMDL
MODEL 3
REMARK VINA RESULT: -5.089724610      6.784      8.593
REMARK  1 active torsions:
REMARK  status: ('A' for Active; 'I' for Inactive)
REMARK    1  A    between atoms: O1_1  and  C1_3 
ROOT
HETATM    1  C1  UNL     1      30.630   8.823  38.600  1.00  0.00     0.215 C 
HETATM    2  C2  UNL     1      30.722  10.285  38.154  1.00  0.00     0.239 C 
HETATM    3  O2  UNL     1      30.098  10.390  36.946  1.00  0.00    -0.383 OA
HETATM    4  C3  UNL     1      29.562   9.190  36.571  1.00  0.00     0.205 C 
HETATM    5  C4  UNL     1      30.408   8.135  37.296  1.00  0.00     0.209 C 
HETATM    6  O3  UNL     1      29.704   6.981  37.331  1.00  0.00    -0.373 OA
HETATM    7  C5  UNL     1      29.269   6.551  38.547  1.00  0.00     0.239 C 
HETATM    8  C6  UNL     1      28.768   7.683  39.386  1.00  0.00     0.211 A 
HETATM    9  C7  UNL     1      27.339   7.791  39.726  1.00  0.00     0.242 A 
HETATM   10  O4  UNL     1      28.273   7.247  40.674  1.00  0.00    -0.346 OA
HETATM   11  O5  UNL     1      29.619   8.737  39.502  1.00  0.00    -0.310 OA
ENDROOT
BRANCH   1  12
HETATM   12  O1  UNL     1      31.818   8.436  39.227  1.00  0.00    -0.362 OA
ATOM     13  H1  UNL     1      32.171   7.660  38.808  1.00  0.00     0.213 HD
ENDBRANCH   1  12
TORSDOF 1
ENDMDL
MODEL 4
REMARK VINA RESULT: -5.061613591      4.942      6.872
REMARK  1 active torsions:
REMARK  status: ('A' for Active; 'I' for Inactive)
REMARK    1  A    between atoms: O1_1  and  C1_3 
ROOT
HETATM    1  C1  UNL     1      28.129   6.421  40.133  1.00  0.00     0.215 C 
HETATM    2  C2  UNL     1      28.259   5.551  41.387  1.00  0.00     0.239 C 
HETATM    3  O2  UNL     1      29.071   4.500  41.081  1.00  0.00    -0.383 OA
HETATM    4  C3  UNL     1      29.533   4.601  39.799  1.00  0.00     0.205 C 
HETATM    5  C4  UNL     1      28.480   5.441  39.064  1.00  0.00     0.209 C 
HETATM    6  O3  UNL     1      29.048   5.945  37.945  1.00  0.00    -0.373 OA
HETATM    7  C5  UNL     1      29.242   7.291  37.892  1.00  0.00     0.239 C 
HETATM    8  C6  UNL     1      29.719   7.831  39.202  1.00  0.00     0.211 A 
HETATM    9  C7  UNL     1      31.080   8.376  39.339  1.00  0.00     0.242 A 
HETATM   10  O4  UNL     1      29.958   9.258  39.163  1.00  0.00    -0.346 OA
HETATM   11  O5  UNL     1      28.972   7.474  40.280  1.00  0.00    -0.310 OA
ENDROOT
BRANCH   1  12
HETATM   12  O1  UNL     1      26.824   6.909  40.019  1.00  0.00    -0.362 OA
ATOM     13  H1  UNL     1      26.463   6.680  39.171  1.00  0.00     0.213 HD
ENDBRANCH   1  12
TORSDOF 1
ENDMDL
MODEL 5
REMARK VINA RESULT: -5.059379828      1.903      2.661
REMARK  1 active torsions:
REMARK  status: ('A' for Active; 'I' for Inactive)
REMARK    1  A    between atoms: O1_1  and  C1_3 
ROOT
HETATM    1  C1  UNL     1      28.031   4.750  41.567  1.00  0.00     0.215 C 
HETATM    2  C2  UNL     1      29.006   4.990  40.410  1.00  0.00     0.239 C 
HETATM    3  O2  UNL     1      30.200   4.427  40.750  1.00  0.00    -0.383 OA
HETATM    4  C3  UNL     1      30.114   3.801  41.961  1.00  0.00     0.205 C 
HETATM    5  C4  UNL     1      28.976   4.519  42.698  1.00  0.00     0.209 C 
HETATM    6  O3  UNL     1      28.543   3.713  43.694  1.00  0.00    -0.373 OA
HETATM    7  C5  UNL     1      27.291   3.193  43.578  1.00  0.00     0.239 C 
HETATM    8  C6  UNL     1      27.000   2.763  42.176  1.00  0.00     0.211 A 
HETATM    9  C7  UNL     1      26.833   1.337  41.847  1.00  0.00     0.242 A 
HETATM   10  O4  UNL     1      25.682   2.180  42.034  1.00  0.00    -0.346 OA
HETATM   11  O5  UNL     1      27.243   3.700  41.222  1.00  0.00    -0.310 OA
ENDROOT
BRANCH   1  12
HETATM   12  O1  UNL     1      27.219   5.872  41.753  1.00  0.00    -0.362 OA
ATOM     13  H1  UNL     1      27.522   6.374  42.501  1.00  0.00     0.213 HD
ENDBRANCH   1  12
TORSDOF 1
ENDMDL
