MODEL 1
REMARK VINA RESULT: -6.705631558      0.000      0.000
REMARK  5 active torsions:
REMARK  status: ('A' for Active; 'I' for Inactive)
REMARK       I    between atoms: N1_2  and  C2_4 
REMARK    1  A    between atoms: C2_4  and  C3_6 
REMARK    2  A    between atoms: C9_12  and  N2_13 
REMARK       I    between atoms: N2_13  and  C10_15 
REMARK    3  A    between atoms: C10_15  and  C11_17 
REMARK    4  A    between atoms: C11_17  and  N3_19 
REMARK       I    between atoms: N3_19  and  C13_21 
REMARK       I    between atoms: C13_21  and  N4_23 
REMARK    5  A    between atoms: N4_23  and  C14_25 
ROOT
HETATM    1  C3  UNL     1      24.621  -0.305   9.523  1.00  0.00     0.042 C 
HETATM    2  C4  UNL     1      26.043  -0.169   9.012  1.00  0.00     0.024 C 
HETATM    3  C5  UNL     1      26.907  -1.153   9.725  1.00  0.00    -0.013 C 
HETATM    4  C6  UNL     1      26.897  -0.879  11.211  1.00  0.00     0.011 C 
HETATM    5  C7  UNL     1      25.500  -0.999  11.726  1.00  0.00     0.010 C 
HETATM    6  C8  UNL     1      24.607   0.016  10.995  1.00  0.00     0.026 C 
HETATM    7  C9  UNL     1      24.857  -2.335  11.440  1.00  0.00     0.092 C 
HETATM    8  C17 UNL     1      24.969  -2.680   9.975  1.00  0.00     0.010 C 
HETATM    9  C18 UNL     1      26.402  -2.559   9.497  1.00  0.00     0.011 C 
HETATM   10  C19 UNL     1      24.083  -1.668   9.245  1.00  0.00     0.026 C 
ENDROOT
BRANCH   7  11
HETATM   11  N2  UNL     1      25.409  -3.433  12.181  1.00  0.00    -0.354 N 
HETATM   12  C10 UNL     1      24.904  -3.674  13.488  1.00  0.00     0.240 C 
HETATM   13  O2  UNL     1      24.024  -2.983  14.035  1.00  0.00    -0.271 OA
ATOM     14  H2  UNL     1      26.141  -4.021  11.782  1.00  0.00     0.162 HD
BRANCH  12  15
HETATM   15  C11 UNL     1      25.492  -4.836  14.197  1.00  0.00     0.174 C 
HETATM   16  C12 UNL     1      26.470  -5.482  13.207  1.00  0.00     0.042 C 
BRANCH  15  17
HETATM   17  N3  UNL     1      24.429  -5.767  14.524  1.00  0.00    -0.330 N 
HETATM   18  C13 UNL     1      24.540  -6.642  15.613  1.00  0.00     0.317 C 
HETATM   19  O3  UNL     1      25.617  -6.621  16.289  1.00  0.00    -0.247 OA
HETATM   20  N4  UNL     1      23.478  -7.512  15.937  1.00  0.00    -0.339 N 
ATOM     21  H4  UNL     1      22.617  -7.500  15.390  1.00  0.00     0.164 HD
ATOM     22  H3  UNL     1      23.585  -5.785  13.952  1.00  0.00     0.165 HD
BRANCH  20  23
HETATM   23  C14 UNL     1      23.623  -8.426  17.063  1.00  0.00     0.086 A 
HETATM   24  C15 UNL     1      22.541  -9.381  17.364  1.00  0.00     0.027 A 
HETATM   25  C16 UNL     1      22.648  -8.137  18.197  1.00  0.00     0.027 A 
ENDBRANCH  20  23
ENDBRANCH  15  17
ENDBRANCH  12  15
ENDBRANCH   7  11
BRANCH   1  26
HETATM   26  C2  UNL     1      23.708   0.673   8.828  1.00  0.00     0.226 C 
HETATM   27  N1  UNL     1      22.459   1.010   9.387  1.00  0.00    -0.365 N 
HETATM   28  C1  UNL     1      21.592   1.938   8.725  1.00  0.00     0.149 C 
ATOM     29  H1  UNL     1      22.171   0.590  10.270  1.00  0.00     0.161 HD
HETATM   30  O1  UNL     1      24.039   1.215   7.731  1.00  0.00    -0.273 OA
ENDBRANCH   1  26
TORSDOF 5
ENDMDL
MODEL 2
REMARK VINA RESULT: -6.672553450      2.263      3.680
REMARK  5 active torsions:
REMARK  status: ('A' for Active; 'I' for Inactive)
REMARK       I    between atoms: N1_2  and  C2_4 
REMARK    1  A    between atoms: C2_4  and  C3_6 
REMARK    2  A    between atoms: C9_12  and  N2_13 
REMARK       I    between atoms: N2_13  and  C10_15 
REMARK    3  A    between atoms: C10_15  and  C11_17 
REMARK    4  A    between atoms: C11_17  and  N3_19 
REMARK       I    between atoms: N3_19  and  C13_21 
REMARK       I    between atoms: C13_21  and  N4_23 
REMARK    5  A    between atoms: N4_23  and  C14_25 
ROOT
HETATM    1  C3  UNL     1      26.042  -1.298  12.914  1.00  0.00     0.042 C 
HETATM    2  C4  UNL     1      26.523  -0.592  14.168  1.00  0.00     0.024 C 
HETATM    3  C5  UNL     1      26.562  -1.573  15.289  1.00  0.00    -0.013 C 
HETATM    4  C6  UNL     1      25.181  -2.132  15.546  1.00  0.00     0.011 C 
HETATM    5  C7  UNL     1      24.690  -2.821  14.315  1.00  0.00     0.010 C 
HETATM    6  C8  UNL     1      24.646  -1.810  13.158  1.00  0.00     0.026 C 
HETATM    7  C9  UNL     1      25.608  -3.913  13.821  1.00  0.00     0.092 C 
HETATM    8  C17 UNL     1      27.020  -3.402  13.677  1.00  0.00     0.010 C 
HETATM    9  C18 UNL     1      27.484  -2.722  14.950  1.00  0.00     0.011 C 
HETATM   10  C19 UNL     1      26.977  -2.393  12.527  1.00  0.00     0.026 C 
ENDROOT
BRANCH   7  11
HETATM   11  N2  UNL     1      25.658  -5.075  14.662  1.00  0.00    -0.354 N 
HETATM   12  C10 UNL     1      24.757  -6.139  14.380  1.00  0.00     0.240 C 
HETATM   13  O2  UNL     1      23.918  -6.118  13.460  1.00  0.00    -0.271 OA
ATOM     14  H2  UNL     1      26.318  -5.135  15.437  1.00  0.00     0.162 HD
BRANCH  12  15
HETATM   15  C11 UNL     1      24.870  -7.324  15.264  1.00  0.00     0.174 C 
HETATM   16  C12 UNL     1      25.068  -8.526  14.332  1.00  0.00     0.042 C 
BRANCH  15  17
HETATM   17  N3  UNL     1      23.634  -7.470  16.008  1.00  0.00    -0.330 N 
HETATM   18  C13 UNL     1      23.636  -7.588  17.404  1.00  0.00     0.317 C 
HETATM   19  O3  UNL     1      24.759  -7.597  18.001  1.00  0.00    -0.247 OA
HETATM   20  N4  UNL     1      22.419  -7.688  18.110  1.00  0.00    -0.339 N 
ATOM     21  H4  UNL     1      21.530  -7.662  17.612  1.00  0.00     0.164 HD
ATOM     22  H3  UNL     1      22.746  -7.486  15.505  1.00  0.00     0.165 HD
BRANCH  20  23
HETATM   23  C14 UNL     1      22.447  -7.829  19.561  1.00  0.00     0.086 A 
HETATM   24  C15 UNL     1      22.263  -9.162  20.162  1.00  0.00     0.027 A 
HETATM   25  C16 UNL     1      21.097  -8.218  20.149  1.00  0.00     0.027 A 
ENDBRANCH  20  23
ENDBRANCH  15  17
ENDBRANCH  12  15
ENDBRANCH   7  11
BRANCH   1  26
HETATM   26  C2  UNL     1      25.986  -0.341  11.750  1.00  0.00     0.226 C 
HETATM   27  N1  UNL     1      25.545  -0.776  10.485  1.00  0.00    -0.365 N 
HETATM   28  C1  UNL     1      25.495   0.133   9.379  1.00  0.00     0.149 C 
ATOM     29  H1  UNL     1      25.261  -1.747  10.355  1.00  0.00     0.161 HD
HETATM   30  O1  UNL     1      26.330   0.872  11.880  1.00  0.00    -0.273 OA
ENDBRANCH   1  26
TORSDOF 5
ENDMDL
MODEL 3
REMARK VINA RESULT: -6.483148011      2.196      8.224
REMARK  5 active torsions:
REMARK  status: ('A' for Active; 'I' for Inactive)
REMARK       I    between atoms: N1_2  and  C2_4 
REMARK    1  A    between atoms: C2_4  and  C3_6 
REMARK    2  A    between atoms: C9_12  and  N2_13 
REMARK       I    between atoms: N2_13  and  C10_15 
REMARK    3  A    between atoms: C10_15  and  C11_17 
REMARK    4  A    between atoms: C11_17  and  N3_19 
REMARK       I    between atoms: N3_19  and  C13_21 
REMARK       I    between atoms: C13_21  and  N4_23 
REMARK    5  A    between atoms: N4_23  and  C14_25 
ROOT
HETATM    1  C3  UNL     1      25.770  -4.425  14.991  1.00  0.00     0.042 C 
HETATM    2  C4  UNL     1      25.264  -3.367  15.954  1.00  0.00     0.024 C 
HETATM    3  C5  UNL     1      25.449  -2.024  15.336  1.00  0.00    -0.013 C 
HETATM    4  C6  UNL     1      26.914  -1.770  15.062  1.00  0.00     0.011 C 
HETATM    5  C7  UNL     1      27.429  -2.811  14.122  1.00  0.00     0.010 C 
HETATM    6  C8  UNL     1      27.242  -4.198  14.759  1.00  0.00     0.026 C 
HETATM    7  C9  UNL     1      26.664  -2.891  12.823  1.00  0.00     0.092 C 
HETATM    8  C17 UNL     1      25.183  -3.021  13.081  1.00  0.00     0.010 C 
HETATM    9  C18 UNL     1      24.699  -1.940  14.026  1.00  0.00     0.011 C 
HETATM   10  C19 UNL     1      24.995  -4.400  13.717  1.00  0.00     0.026 C 
ENDROOT
BRANCH   7  11
HETATM   11  N2  UNL     1      26.849  -1.766  11.952  1.00  0.00    -0.354 N 
HETATM   12  C10 UNL     1      27.366  -2.010  10.650  1.00  0.00     0.240 C 
HETATM   13  O2  UNL     1      27.683  -3.137  10.225  1.00  0.00    -0.271 OA
ATOM     14  H2  UNL     1      26.617  -0.821  12.258  1.00  0.00     0.162 HD
BRANCH  12  15
HETATM   15  C11 UNL     1      27.512  -0.815   9.785  1.00  0.00     0.174 C 
HETATM   16  C12 UNL     1      28.717  -0.042  10.335  1.00  0.00     0.042 C 
BRANCH  15  17
HETATM   17  N3  UNL     1      26.311  -0.010   9.898  1.00  0.00    -0.330 N 
HETATM   18  C13 UNL     1      25.138  -0.356   9.213  1.00  0.00     0.317 C 
HETATM   19  O3  UNL     1      25.165  -1.380   8.460  1.00  0.00    -0.247 OA
HETATM   20  N4  UNL     1      23.970   0.420   9.369  1.00  0.00    -0.339 N 
ATOM     21  H4  UNL     1      23.967   1.228   9.991  1.00  0.00     0.164 HD
ATOM     22  H3  UNL     1      26.320   0.822  10.487  1.00  0.00     0.165 HD
BRANCH  20  23
HETATM   23  C14 UNL     1      22.767   0.052   8.632  1.00  0.00     0.086 A 
HETATM   24  C15 UNL     1      22.548   0.605   7.284  1.00  0.00     0.027 A 
HETATM   25  C16 UNL     1      21.808   1.219   8.436  1.00  0.00     0.027 A 
ENDBRANCH  20  23
ENDBRANCH  15  17
ENDBRANCH  12  15
ENDBRANCH   7  11
BRANCH   1  26
HETATM   26  C2  UNL     1      25.603  -5.804  15.576  1.00  0.00     0.226 C 
HETATM   27  N1  UNL     1      24.634  -6.049  16.569  1.00  0.00    -0.365 N 
HETATM   28  C1  UNL     1      24.477  -7.360  17.126  1.00  0.00     0.149 C 
ATOM     29  H1  UNL     1      24.039  -5.287  16.894  1.00  0.00     0.161 HD
HETATM   30  O1  UNL     1      26.323  -6.774  15.190  1.00  0.00    -0.273 OA
ENDBRANCH   1  26
TORSDOF 5
ENDMDL
MODEL 4
REMARK VINA RESULT: -6.460231993      3.123      4.826
REMARK  5 active torsions:
REMARK  status: ('A' for Active; 'I' for Inactive)
REMARK       I    between atoms: N1_2  and  C2_4 
REMARK    1  A    between atoms: C2_4  and  C3_6 
REMARK    2  A    between atoms: C9_12  and  N2_13 
REMARK       I    between atoms: N2_13  and  C10_15 
REMARK    3  A    between atoms: C10_15  and  C11_17 
REMARK    4  A    between atoms: C11_17  and  N3_19 
REMARK       I    between atoms: N3_19  and  C13_21 
REMARK       I    between atoms: C13_21  and  N4_23 
REMARK    5  A    between atoms: N4_23  and  C14_25 
ROOT
HETATM    1  C3  UNL     1      24.482  -0.008   9.421  1.00  0.00     0.042 C 
HETATM    2  C4  UNL     1      25.776   0.084   8.634  1.00  0.00     0.024 C 
HETATM    3  C5  UNL     1      26.874  -0.520   9.441  1.00  0.00    -0.013 C 
HETATM    4  C6  UNL     1      27.043   0.230  10.742  1.00  0.00     0.011 C 
HETATM    5  C7  UNL     1      25.771   0.157  11.523  1.00  0.00     0.010 C 
HETATM    6  C8  UNL     1      24.637   0.782  10.695  1.00  0.00     0.026 C 
HETATM    7  C9  UNL     1      25.303  -1.253  11.794  1.00  0.00     0.092 C 
HETATM    8  C17 UNL     1      25.248  -2.053  10.516  1.00  0.00     0.010 C 
HETATM    9  C18 UNL     1      26.559  -1.963   9.761  1.00  0.00     0.011 C 
HETATM   10  C19 UNL     1      24.121  -1.430   9.689  1.00  0.00     0.026 C 
ENDROOT
BRANCH   7  11
HETATM   11  N2  UNL     1      26.118  -1.984  12.721  1.00  0.00    -0.354 N 
HETATM   12  C10 UNL     1      25.516  -2.425  13.932  1.00  0.00     0.240 C 
HETATM   13  O2  UNL     1      24.332  -2.201  14.244  1.00  0.00    -0.271 OA
ATOM     14  H2  UNL     1      27.098  -2.181  12.517  1.00  0.00     0.162 HD
BRANCH  12  15
HETATM   15  C11 UNL     1      26.397  -3.197  14.840  1.00  0.00     0.174 C 
HETATM   16  C12 UNL     1      25.464  -4.060  15.698  1.00  0.00     0.042 C 
BRANCH  15  17
HETATM   17  N3  UNL     1      27.128  -2.268  15.680  1.00  0.00    -0.330 N 
HETATM   18  C13 UNL     1      28.432  -1.869  15.358  1.00  0.00     0.317 C 
HETATM   19  O3  UNL     1      28.972  -2.372  14.322  1.00  0.00    -0.247 OA
HETATM   20  N4  UNL     1      29.110  -0.934  16.168  1.00  0.00    -0.339 N 
ATOM     21  H4  UNL     1      28.651  -0.532  16.985  1.00  0.00     0.164 HD
ATOM     22  H3  UNL     1      26.685  -1.898  16.521  1.00  0.00     0.165 HD
BRANCH  20  23
HETATM   23  C14 UNL     1      30.472  -0.548  15.823  1.00  0.00     0.086 A 
HETATM   24  C15 UNL     1      31.586  -0.974  16.690  1.00  0.00     0.027 A 
HETATM   25  C16 UNL     1      31.083   0.435  16.815  1.00  0.00     0.027 A 
ENDBRANCH  20  23
ENDBRANCH  15  17
ENDBRANCH  12  15
ENDBRANCH   7  11
BRANCH   1  26
HETATM   26  C2  UNL     1      23.339   0.592   8.642  1.00  0.00     0.226 C 
HETATM   27  N1  UNL     1      22.391   1.416   9.280  1.00  0.00    -0.365 N 
HETATM   28  C1  UNL     1      21.304   1.984   8.540  1.00  0.00     0.149 C 
ATOM     29  H1  UNL     1      22.479   1.609  10.278  1.00  0.00     0.161 HD
HETATM   30  O1  UNL     1      23.204   0.374   7.401  1.00  0.00    -0.273 OA
ENDBRANCH   1  26
TORSDOF 5
ENDMDL
MODEL 5
REMARK VINA RESULT: -6.457045415      4.157      7.817
REMARK  5 active torsions:
REMARK  status: ('A' for Active; 'I' for Inactive)
REMARK       I    between atoms: N1_2  and  C2_4 
REMARK    1  A    between atoms: C2_4  and  C3_6 
REMARK    2  A    between atoms: C9_12  and  N2_13 
REMARK       I    between atoms: N2_13  and  C10_15 
REMARK    3  A    between atoms: C10_15  and  C11_17 
REMARK    4  A    between atoms: C11_17  and  N3_19 
REMARK       I    between atoms: N3_19  and  C13_21 
REMARK       I    between atoms: C13_21  and  N4_23 
REMARK    5  A    between atoms: N4_23  and  C14_25 
ROOT
HETATM    1  C3  UNL     1      27.195  -1.106  12.951  1.00  0.00     0.042 C 
HETATM    2  C4  UNL     1      26.812   0.358  13.067  1.00  0.00     0.024 C 
HETATM    3  C5  UNL     1      26.340   0.839  11.737  1.00  0.00    -0.013 C 
HETATM    4  C6  UNL     1      27.442   0.706  10.711  1.00  0.00     0.011 C 
HETATM    5  C7  UNL     1      27.838  -0.730  10.594  1.00  0.00     0.010 C 
HETATM    6  C8  UNL     1      28.327  -1.228  11.964  1.00  0.00     0.026 C 
HETATM    7  C9  UNL     1      26.692  -1.652  10.249  1.00  0.00     0.092 C 
HETATM    8  C17 UNL     1      25.534  -1.442  11.193  1.00  0.00     0.010 C 
HETATM    9  C18 UNL     1      25.156   0.023  11.272  1.00  0.00     0.011 C 
HETATM   10  C19 UNL     1      26.020  -1.936  12.557  1.00  0.00     0.026 C 
ENDROOT
BRANCH   7  11
HETATM   11  N2  UNL     1      26.189  -1.502   8.914  1.00  0.00    -0.354 N 
HETATM   12  C10 UNL     1      25.717  -2.667   8.247  1.00  0.00     0.240 C 
HETATM   13  O2  UNL     1      25.730  -3.809   8.743  1.00  0.00    -0.271 OA
ATOM     14  H2  UNL     1      26.169  -0.590   8.459  1.00  0.00     0.162 HD
BRANCH  12  15
HETATM   15  C11 UNL     1      25.184  -2.449   6.881  1.00  0.00     0.174 C 
HETATM   16  C12 UNL     1      26.389  -2.556   5.937  1.00  0.00     0.042 C 
BRANCH  15  17
HETATM   17  N3  UNL     1      24.614  -1.118   6.811  1.00  0.00    -0.330 N 
HETATM   18  C13 UNL     1      23.529  -0.750   7.618  1.00  0.00     0.317 C 
HETATM   19  O3  UNL     1      23.035  -1.629   8.392  1.00  0.00    -0.247 OA
HETATM   20  N4  UNL     1      23.015   0.563   7.562  1.00  0.00    -0.339 N 
ATOM     21  H4  UNL     1      23.438   1.256   6.944  1.00  0.00     0.164 HD
ATOM     22  H3  UNL     1      25.010  -0.437   6.163  1.00  0.00     0.165 HD
BRANCH  20  23
HETATM   23  C14 UNL     1      21.874   0.918   8.397  1.00  0.00     0.086 A 
HETATM   24  C15 UNL     1      21.564   2.339   8.631  1.00  0.00     0.027 A 
HETATM   25  C16 UNL     1      22.278   1.577   9.709  1.00  0.00     0.027 A 
ENDBRANCH  20  23
ENDBRANCH  15  17
ENDBRANCH  12  15
ENDBRANCH   7  11
BRANCH   1  26
HETATM   26  C2  UNL     1      27.679  -1.637  14.277  1.00  0.00     0.226 C 
HETATM   27  N1  UNL     1      28.514  -2.772  14.333  1.00  0.00    -0.365 N 
HETATM   28  C1  UNL     1      28.971  -3.277  15.592  1.00  0.00     0.149 C 
ATOM     29  H1  UNL     1      28.793  -3.236  13.469  1.00  0.00     0.161 HD
HETATM   30  O1  UNL     1      27.352  -1.080  15.367  1.00  0.00    -0.273 OA
ENDBRANCH   1  26
TORSDOF 5
ENDMDL
