MODEL 1
REMARK VINA RESULT: -8.517930020      0.000      0.000
REMARK  7 active torsions:
REMARK  status: ('A' for Active; 'I' for Inactive)
REMARK    1  A    between atoms: C10_10  and  C11_11 
REMARK    2  A    between atoms: C11_11  and  N1_12 
REMARK    3  A    between atoms: N1_12  and  C12_14 
REMARK    4  A    between atoms: C12_14  and  C13_15 
REMARK    5  A    between atoms: C13_15  and  C14_16 
REMARK    6  A    between atoms: C17_19  and  N2_20 
REMARK    7  A    between atoms: N2_20  and  S1_22 
ROOT
HETATM    1  N1  UNL     1     -11.128  -0.465 -18.645  1.00  0.00    -0.417 N 
ATOM      2  H1  UNL     1     -10.309  -0.851 -18.175  1.00  0.00     0.153 HD
ENDROOT
BRANCH   1   3
HETATM    3  C11 UNL     1     -11.229   0.921 -19.001  1.00  0.00     0.148 C 
BRANCH   3   4
HETATM    4  C10 UNL     1     -12.322   1.523 -18.162  1.00  0.00    -0.066 C 
HETATM    5  C9  UNL     1     -12.137   1.536 -16.862  1.00  0.00    -0.022 C 
HETATM    6  C8  UNL     1     -13.174   2.115 -15.956  1.00  0.00     0.033 C 
HETATM    7  C7  UNL     1     -14.538   2.013 -16.578  1.00  0.00    -0.002 C 
HETATM    8  C6  UNL     1     -15.575   2.712 -15.773  1.00  0.00     0.002 C 
HETATM    9  C22 UNL     1     -14.600   2.532 -17.986  1.00  0.00    -0.006 C 
HETATM   10  C5  UNL     1     -15.501   4.205 -15.778  1.00  0.00     0.006 C 
HETATM   11  C25 UNL     1     -16.951   2.328 -16.277  1.00  0.00    -0.017 C 
HETATM   12  C4  UNL     1     -16.311   4.689 -14.591  1.00  0.00     0.005 C 
HETATM   13  C3  UNL     1     -17.748   4.390 -14.845  1.00  0.00     0.034 C 
HETATM   14  C2  UNL     1     -18.001   3.180 -15.664  1.00  0.00    -0.081 C 
HETATM   15  C1  UNL     1     -19.264   2.835 -15.865  1.00  0.00     0.015 C 
HETATM   16  C24 UNL     1     -17.103   2.465 -17.765  1.00  0.00     0.014 C 
HETATM   17  C26 UNL     1     -17.186   0.898 -15.810  1.00  0.00     0.020 C 
HETATM   18  C23 UNL     1     -15.917   2.092 -18.575  1.00  0.00     0.006 C 
HETATM   19  C21 UNL     1     -13.500   2.043 -18.877  1.00  0.00     0.040 C 
ENDBRANCH   3   4
ENDBRANCH   1   3
BRANCH   1  20
HETATM   20  C12 UNL     1     -12.260  -1.266 -18.998  1.00  0.00     0.118 C 
BRANCH  20  21
HETATM   21  C13 UNL     1     -12.216  -2.566 -18.253  1.00  0.00     0.061 C 
BRANCH  21  22
HETATM   22  C14 UNL     1     -12.823  -2.482 -16.894  1.00  0.00    -0.015 A 
HETATM   23  C15 UNL     1     -13.636  -1.416 -16.569  1.00  0.00     0.013 A 
HETATM   24  C16 UNL     1     -14.217  -1.322 -15.298  1.00  0.00     0.034 A 
HETATM   25  C17 UNL     1     -13.999  -2.272 -14.341  1.00  0.00     0.084 A 
HETATM   26  C19 UNL     1     -13.172  -3.351 -14.679  1.00  0.00     0.182 A 
HETATM   27  F1  UNL     1     -12.973  -4.277 -13.712  1.00  0.00    -0.200 F 
HETATM   28  C20 UNL     1     -12.604  -3.440 -15.930  1.00  0.00     0.163 A 
HETATM   29  F2  UNL     1     -11.813  -4.495 -16.211  1.00  0.00    -0.202 F 
BRANCH  25  30
HETATM   30  N2  UNL     1     -14.590  -2.165 -13.069  1.00  0.00    -0.282 N 
ATOM     31  H2  UNL     1     -14.096  -1.670 -12.327  1.00  0.00     0.178 HD
BRANCH  30  32
HETATM   32  S1  UNL     1     -16.117  -2.848 -12.752  1.00  0.00     0.227 S 
HETATM   33  C18 UNL     1     -17.315  -2.582 -14.002  1.00  0.00     0.186 C 
HETATM   34  O1  UNL     1     -15.959  -4.344 -12.546  1.00  0.00    -0.206 OA
HETATM   35  O2  UNL     1     -16.671  -2.339 -11.423  1.00  0.00    -0.206 OA
ENDBRANCH  30  32
ENDBRANCH  25  30
ENDBRANCH  21  22
ENDBRANCH  20  21
ENDBRANCH   1  20
TORSDOF 7
ENDMDL
MODEL 2
REMARK VINA RESULT: -8.281303311      1.373      1.614
REMARK  7 active torsions:
REMARK  status: ('A' for Active; 'I' for Inactive)
REMARK    1  A    between atoms: C10_10  and  C11_11 
REMARK    2  A    between atoms: C11_11  and  N1_12 
REMARK    3  A    between atoms: N1_12  and  C12_14 
REMARK    4  A    between atoms: C12_14  and  C13_15 
REMARK    5  A    between atoms: C13_15  and  C14_16 
REMARK    6  A    between atoms: C17_19  and  N2_20 
REMARK    7  A    between atoms: N2_20  and  S1_22 
ROOT
HETATM    1  N1  UNL     1     -11.771   0.024 -19.683  1.00  0.00    -0.417 N 
ATOM      2  H1  UNL     1     -12.423   0.172 -20.454  1.00  0.00     0.153 HD
ENDROOT
BRANCH   1   3
HETATM    3  C11 UNL     1     -11.250   1.104 -18.895  1.00  0.00     0.148 C 
BRANCH   3   4
HETATM    4  C10 UNL     1     -12.385   1.652 -18.076  1.00  0.00    -0.066 C 
HETATM    5  C9  UNL     1     -12.267   1.582 -16.770  1.00  0.00    -0.022 C 
HETATM    6  C8  UNL     1     -13.351   2.104 -15.884  1.00  0.00     0.033 C 
HETATM    7  C7  UNL     1     -14.681   2.043 -16.580  1.00  0.00    -0.002 C 
HETATM    8  C6  UNL     1     -15.760   2.690 -15.787  1.00  0.00     0.002 C 
HETATM    9  C22 UNL     1     -14.672   2.650 -17.954  1.00  0.00    -0.006 C 
HETATM   10  C5  UNL     1     -15.689   4.180 -15.693  1.00  0.00     0.006 C 
HETATM   11  C25 UNL     1     -17.107   2.340 -16.383  1.00  0.00    -0.017 C 
HETATM   12  C4  UNL     1     -16.559   4.589 -14.521  1.00  0.00     0.005 C 
HETATM   13  C3  UNL     1     -17.980   4.308 -14.866  1.00  0.00     0.034 C 
HETATM   14  C2  UNL     1     -18.189   3.153 -15.772  1.00  0.00    -0.081 C 
HETATM   15  C1  UNL     1     -19.439   2.823 -16.059  1.00  0.00     0.015 C 
HETATM   16  C24 UNL     1     -17.183   2.572 -17.865  1.00  0.00     0.014 C 
HETATM   17  C26 UNL     1     -17.362   0.883 -16.021  1.00  0.00     0.020 C 
HETATM   18  C23 UNL     1     -15.956   2.250 -18.636  1.00  0.00     0.006 C 
HETATM   19  C21 UNL     1     -13.527   2.217 -18.816  1.00  0.00     0.040 C 
ENDBRANCH   3   4
ENDBRANCH   1   3
BRANCH   1  20
HETATM   20  C12 UNL     1     -11.309  -1.277 -19.307  1.00  0.00     0.118 C 
BRANCH  20  21
HETATM   21  C13 UNL     1     -12.475  -2.211 -19.167  1.00  0.00     0.061 C 
BRANCH  21  22
HETATM   22  C14 UNL     1     -12.886  -2.422 -17.750  1.00  0.00    -0.015 A 
HETATM   23  C15 UNL     1     -12.244  -3.371 -16.982  1.00  0.00     0.013 A 
HETATM   24  C16 UNL     1     -12.615  -3.582 -15.649  1.00  0.00     0.034 A 
HETATM   25  C17 UNL     1     -13.619  -2.862 -15.064  1.00  0.00     0.084 A 
HETATM   26  C19 UNL     1     -14.266  -1.901 -15.851  1.00  0.00     0.182 A 
HETATM   27  F1  UNL     1     -15.256  -1.203 -15.247  1.00  0.00    -0.200 F 
HETATM   28  C20 UNL     1     -13.897  -1.697 -17.161  1.00  0.00     0.163 A 
HETATM   29  F2  UNL     1     -14.549  -0.761 -17.882  1.00  0.00    -0.202 F 
BRANCH  25  30
HETATM   30  N2  UNL     1     -13.980  -3.084 -13.723  1.00  0.00    -0.282 N 
ATOM     31  H2  UNL     1     -13.441  -2.642 -12.978  1.00  0.00     0.178 HD
BRANCH  30  32
HETATM   32  S1  UNL     1     -15.304  -4.077 -13.325  1.00  0.00     0.227 S 
HETATM   33  C18 UNL     1     -16.306  -4.545 -14.683  1.00  0.00     0.186 C 
HETATM   34  O1  UNL     1     -14.794  -5.336 -12.646  1.00  0.00    -0.206 OA
HETATM   35  O2  UNL     1     -16.184  -3.409 -12.271  1.00  0.00    -0.206 OA
ENDBRANCH  30  32
ENDBRANCH  25  30
ENDBRANCH  21  22
ENDBRANCH  20  21
ENDBRANCH   1  20
TORSDOF 7
ENDMDL
MODEL 3
REMARK VINA RESULT: -8.147913518      5.139      7.845
REMARK  7 active torsions:
REMARK  status: ('A' for Active; 'I' for Inactive)
REMARK    1  A    between atoms: C10_10  and  C11_11 
REMARK    2  A    between atoms: C11_11  and  N1_12 
REMARK    3  A    between atoms: N1_12  and  C12_14 
REMARK    4  A    between atoms: C12_14  and  C13_15 
REMARK    5  A    between atoms: C13_15  and  C14_16 
REMARK    6  A    between atoms: C17_19  and  N2_20 
REMARK    7  A    between atoms: N2_20  and  S1_22 
ROOT
HETATM    1  N1  UNL     1     -17.480   4.034 -15.748  1.00  0.00    -0.417 N 
ATOM      2  H1  UNL     1     -17.575   4.645 -16.559  1.00  0.00     0.153 HD
ENDROOT
BRANCH   1   3
HETATM    3  C11 UNL     1     -16.297   4.009 -14.936  1.00  0.00     0.148 C 
BRANCH   3   4
HETATM    4  C10 UNL     1     -15.228   3.301 -15.720  1.00  0.00    -0.066 C 
HETATM    5  C9  UNL     1     -14.692   3.957 -16.724  1.00  0.00    -0.022 C 
HETATM    6  C8  UNL     1     -13.622   3.325 -17.555  1.00  0.00     0.033 C 
HETATM    7  C7  UNL     1     -13.758   1.829 -17.547  1.00  0.00    -0.002 C 
HETATM    8  C6  UNL     1     -12.627   1.159 -18.240  1.00  0.00     0.002 C 
HETATM    9  C22 UNL     1     -13.888   1.242 -16.171  1.00  0.00    -0.006 C 
HETATM   10  C5  UNL     1     -11.311   1.211 -17.531  1.00  0.00     0.006 C 
HETATM   11  C25 UNL     1     -12.961  -0.301 -18.462  1.00  0.00    -0.017 C 
HETATM   12  C4  UNL     1     -10.244   0.896 -18.560  1.00  0.00     0.005 C 
HETATM   13  C3  UNL     1     -10.387  -0.529 -18.970  1.00  0.00     0.034 C 
HETATM   14  C2  UNL     1     -11.772  -1.057 -18.931  1.00  0.00    -0.081 C 
HETATM   15  C1  UNL     1     -11.961  -2.300 -19.347  1.00  0.00     0.015 C 
HETATM   16  C24 UNL     1     -13.449  -0.997 -17.224  1.00  0.00     0.014 C 
HETATM   17  C26 UNL     1     -13.997  -0.330 -19.578  1.00  0.00     0.020 C 
HETATM   18  C23 UNL     1     -14.318  -0.195 -16.328  1.00  0.00     0.006 C 
HETATM   19  C21 UNL     1     -14.880   1.936 -15.290  1.00  0.00     0.040 C 
ENDBRANCH   3   4
ENDBRANCH   1   3
BRANCH   1  20
HETATM   20  C12 UNL     1     -18.517   3.138 -15.335  1.00  0.00     0.118 C 
BRANCH  20  21
HETATM   21  C13 UNL     1     -18.412   1.851 -16.098  1.00  0.00     0.061 C 
BRANCH  21  22
HETATM   22  C14 UNL     1     -18.862   1.973 -17.514  1.00  0.00    -0.015 A 
HETATM   23  C15 UNL     1     -20.164   2.332 -17.793  1.00  0.00     0.013 A 
HETATM   24  C16 UNL     1     -20.603   2.454 -19.117  1.00  0.00     0.034 A 
HETATM   25  C17 UNL     1     -19.766   2.223 -20.172  1.00  0.00     0.084 A 
HETATM   26  C19 UNL     1     -18.446   1.859 -19.880  1.00  0.00     0.182 A 
HETATM   27  F1  UNL     1     -17.638   1.635 -20.944  1.00  0.00    -0.200 F 
HETATM   28  C20 UNL     1     -18.018   1.741 -18.576  1.00  0.00     0.163 A 
HETATM   29  F2  UNL     1     -16.738   1.386 -18.342  1.00  0.00    -0.202 F 
BRANCH  25  30
HETATM   30  N2  UNL     1     -20.221   2.351 -21.496  1.00  0.00    -0.282 N 
ATOM     31  H2  UNL     1     -20.069   3.226 -21.997  1.00  0.00     0.178 HD
BRANCH  30  32
HETATM   32  S1  UNL     1     -21.022   1.066 -22.276  1.00  0.00     0.227 S 
HETATM   33  C18 UNL     1     -22.606   0.688 -21.631  1.00  0.00     0.186 C 
HETATM   34  O1  UNL     1     -21.168   1.394 -23.751  1.00  0.00    -0.206 OA
HETATM   35  O2  UNL     1     -20.166  -0.198 -22.252  1.00  0.00    -0.206 OA
ENDBRANCH  30  32
ENDBRANCH  25  30
ENDBRANCH  21  22
ENDBRANCH  20  21
ENDBRANCH   1  20
TORSDOF 7
ENDMDL
MODEL 4
REMARK VINA RESULT: -8.142119090      4.704      6.520
REMARK  7 active torsions:
REMARK  status: ('A' for Active; 'I' for Inactive)
REMARK    1  A    between atoms: C10_10  and  C11_11 
REMARK    2  A    between atoms: C11_11  and  N1_12 
REMARK    3  A    between atoms: N1_12  and  C12_14 
REMARK    4  A    between atoms: C12_14  and  C13_15 
REMARK    5  A    between atoms: C13_15  and  C14_16 
REMARK    6  A    between atoms: C17_19  and  N2_20 
REMARK    7  A    between atoms: N2_20  and  S1_22 
ROOT
HETATM    1  N1  UNL     1     -14.427   3.418 -16.999  1.00  0.00    -0.417 N 
ATOM      2  H1  UNL     1     -14.468   3.982 -17.847  1.00  0.00     0.153 HD
ENDROOT
BRANCH   1   3
HETATM    3  C11 UNL     1     -15.605   3.007 -16.289  1.00  0.00     0.148 C 
BRANCH   3   4
HETATM    4  C10 UNL     1     -16.650   2.661 -17.313  1.00  0.00    -0.066 C 
HETATM    5  C9  UNL     1     -17.889   2.557 -16.890  1.00  0.00    -0.022 C 
HETATM    6  C8  UNL     1     -18.988   2.215 -17.844  1.00  0.00     0.033 C 
HETATM    7  C7  UNL     1     -18.457   1.415 -18.999  1.00  0.00    -0.002 C 
HETATM    8  C6  UNL     1     -19.491   1.183 -20.042  1.00  0.00     0.002 C 
HETATM    9  C22 UNL     1     -17.250   2.024 -19.652  1.00  0.00    -0.006 C 
HETATM   10  C5  UNL     1     -19.886   2.384 -20.839  1.00  0.00     0.006 C 
HETATM   11  C25 UNL     1     -18.999   0.136 -21.020  1.00  0.00    -0.017 C 
HETATM   12  C4  UNL     1     -21.213   2.059 -21.496  1.00  0.00     0.005 C 
HETATM   13  C3  UNL     1     -20.988   0.996 -22.516  1.00  0.00     0.034 C 
HETATM   14  C2  UNL     1     -19.891   0.049 -22.204  1.00  0.00    -0.081 C 
HETATM   15  C1  UNL     1     -19.692  -0.952 -23.048  1.00  0.00     0.015 C 
HETATM   16  C24 UNL     1     -17.619   0.410 -21.544  1.00  0.00     0.014 C 
HETATM   17  C26 UNL     1     -19.076  -1.195 -20.284  1.00  0.00     0.020 C 
HETATM   18  C23 UNL     1     -16.657   0.984 -20.570  1.00  0.00     0.006 C 
HETATM   19  C21 UNL     1     -16.186   2.470 -18.698  1.00  0.00     0.040 C 
ENDBRANCH   3   4
ENDBRANCH   1   3
BRANCH   1  20
HETATM   20  C12 UNL     1     -13.192   2.977 -16.426  1.00  0.00     0.118 C 
BRANCH  20  21
HETATM   21  C13 UNL     1     -13.224   1.491 -16.230  1.00  0.00     0.061 C 
BRANCH  21  22
HETATM   22  C14 UNL     1     -13.021   0.730 -17.496  1.00  0.00    -0.015 A 
HETATM   23  C15 UNL     1     -14.030  -0.074 -17.984  1.00  0.00     0.013 A 
HETATM   24  C16 UNL     1     -13.859  -0.793 -19.173  1.00  0.00     0.034 A 
HETATM   25  C17 UNL     1     -12.696  -0.727 -19.888  1.00  0.00     0.084 A 
HETATM   26  C19 UNL     1     -11.677   0.092 -19.385  1.00  0.00     0.182 A 
HETATM   27  F1  UNL     1     -10.535   0.139 -20.113  1.00  0.00    -0.200 F 
HETATM   28  C20 UNL     1     -11.850   0.798 -18.216  1.00  0.00     0.163 A 
HETATM   29  F2  UNL     1     -10.841   1.573 -17.769  1.00  0.00    -0.202 F 
BRANCH  25  30
HETATM   30  N2  UNL     1     -12.538  -1.454 -21.081  1.00  0.00    -0.282 N 
ATOM     31  H2  UNL     1     -11.603  -1.720 -21.388  1.00  0.00     0.178 HD
BRANCH  30  32
HETATM   32  S1  UNL     1     -13.887  -1.897 -22.021  1.00  0.00     0.227 S 
HETATM   33  C18 UNL     1     -15.194  -2.644 -21.125  1.00  0.00     0.186 C 
HETATM   34  O1  UNL     1     -14.428  -0.666 -22.726  1.00  0.00    -0.206 OA
HETATM   35  O2  UNL     1     -13.472  -2.831 -23.156  1.00  0.00    -0.206 OA
ENDBRANCH  30  32
ENDBRANCH  25  30
ENDBRANCH  21  22
ENDBRANCH  20  21
ENDBRANCH   1  20
TORSDOF 7
ENDMDL
MODEL 5
REMARK VINA RESULT: -8.116548076      4.295      4.953
REMARK  7 active torsions:
REMARK  status: ('A' for Active; 'I' for Inactive)
REMARK    1  A    between atoms: C10_10  and  C11_11 
REMARK    2  A    between atoms: C11_11  and  N1_12 
REMARK    3  A    between atoms: N1_12  and  C12_14 
REMARK    4  A    between atoms: C12_14  and  C13_15 
REMARK    5  A    between atoms: C13_15  and  C14_16 
REMARK    6  A    between atoms: C17_19  and  N2_20 
REMARK    7  A    between atoms: N2_20  and  S1_22 
ROOT
HETATM    1  N1  UNL     1     -10.816  -0.017 -18.365  1.00  0.00    -0.417 N 
ATOM      2  H1  UNL     1      -9.967  -0.166 -17.821  1.00  0.00     0.153 HD
ENDROOT
BRANCH   1   3
HETATM    3  C11 UNL     1     -11.182   1.269 -18.887  1.00  0.00     0.148 C 
BRANCH   3   4
HETATM    4  C10 UNL     1     -12.331   1.780 -18.063  1.00  0.00    -0.066 C 
HETATM    5  C9  UNL     1     -12.219   1.681 -16.758  1.00  0.00    -0.022 C 
HETATM    6  C8  UNL     1     -13.316   2.165 -15.866  1.00  0.00     0.033 C 
HETATM    7  C7  UNL     1     -14.640   2.098 -16.571  1.00  0.00    -0.002 C 
HETATM    8  C6  UNL     1     -15.734   2.709 -15.770  1.00  0.00     0.002 C 
HETATM    9  C22 UNL     1     -14.634   2.736 -17.931  1.00  0.00    -0.006 C 
HETATM   10  C5  UNL     1     -15.688   4.198 -15.641  1.00  0.00     0.006 C 
HETATM   11  C25 UNL     1     -17.072   2.351 -16.382  1.00  0.00    -0.017 C 
HETATM   12  C4  UNL     1     -16.571   4.565 -14.465  1.00  0.00     0.005 C 
HETATM   13  C3  UNL     1     -17.986   4.268 -14.825  1.00  0.00     0.034 C 
HETATM   14  C2  UNL     1     -18.171   3.131 -15.758  1.00  0.00    -0.081 C 
HETATM   15  C1  UNL     1     -19.414   2.787 -16.060  1.00  0.00     0.015 C 
HETATM   16  C24 UNL     1     -17.144   2.615 -17.858  1.00  0.00     0.014 C 
HETATM   17  C26 UNL     1     -17.305   0.882 -16.054  1.00  0.00     0.020 C 
HETATM   18  C23 UNL     1     -15.908   2.331 -18.629  1.00  0.00     0.006 C 
HETATM   19  C21 UNL     1     -13.478   2.343 -18.796  1.00  0.00     0.040 C 
ENDBRANCH   3   4
ENDBRANCH   1   3
BRANCH   1  20
HETATM   20  C12 UNL     1     -11.732  -1.075 -18.665  1.00  0.00     0.118 C 
BRANCH  20  21
HETATM   21  C13 UNL     1     -12.065  -1.061 -20.127  1.00  0.00     0.061 C 
BRANCH  21  22
HETATM   22  C14 UNL     1     -13.530  -1.126 -20.394  1.00  0.00    -0.015 A 
HETATM   23  C15 UNL     1     -14.424  -1.015 -19.350  1.00  0.00     0.013 A 
HETATM   24  C16 UNL     1     -15.804  -1.071 -19.582  1.00  0.00     0.034 A 
HETATM   25  C17 UNL     1     -16.312  -1.238 -20.839  1.00  0.00     0.084 A 
HETATM   26  C19 UNL     1     -15.396  -1.351 -21.894  1.00  0.00     0.182 A 
HETATM   27  F1  UNL     1     -15.926  -1.516 -23.129  1.00  0.00    -0.200 F 
HETATM   28  C20 UNL     1     -14.040  -1.294 -21.661  1.00  0.00     0.163 A 
HETATM   29  F2  UNL     1     -13.196  -1.409 -22.706  1.00  0.00    -0.202 F 
BRANCH  25  30
HETATM   30  N2  UNL     1     -17.699  -1.292 -21.057  1.00  0.00    -0.282 N 
ATOM     31  H2  UNL     1     -18.152  -2.195 -21.196  1.00  0.00     0.178 HD
BRANCH  30  32
HETATM   32  S1  UNL     1     -18.636   0.130 -21.092  1.00  0.00     0.227 S 
HETATM   33  C18 UNL     1     -19.535   0.453 -19.625  1.00  0.00     0.186 C 
HETATM   34  O1  UNL     1     -17.729   1.315 -21.373  1.00  0.00    -0.206 OA
HETATM   35  O2  UNL     1     -19.607   0.109 -22.271  1.00  0.00    -0.206 OA
ENDBRANCH  30  32
ENDBRANCH  25  30
ENDBRANCH  21  22
ENDBRANCH  20  21
ENDBRANCH   1  20
TORSDOF 7
ENDMDL
