MODEL 1
REMARK VINA RESULT: -7.417712846      0.000      0.000
REMARK  7 active torsions:
REMARK  status: ('A' for Active; 'I' for Inactive)
REMARK    1  A    between atoms: C6_9  and  C7_10 
REMARK    2  A    between atoms: C7_10  and  O1_11 
REMARK    3  A    between atoms: O1_11  and  C8_12 
REMARK    4  A    between atoms: C13_19  and  C14_20 
REMARK       I    between atoms: C14_20  and  N2_22 
REMARK    5  A    between atoms: N2_22  and  C15_24 
REMARK    6  A    between atoms: C15_24  and  C16_25 
REMARK    7  A    between atoms: C16_25  and  N3_26 
ROOT
HETATM    1  C8  UNL     1     -14.967   1.978 -16.509  1.00  0.00     0.086 A 
HETATM    2  C9  UNL     1     -15.173   3.211 -15.855  1.00  0.00     0.063 A 
HETATM    3  C10 UNL     1     -16.424   3.564 -15.429  1.00  0.00     0.054 A 
HETATM    4 CL1  UNL     1     -16.735   5.064 -14.622  1.00  0.00    -0.083 Cl
HETATM    5  C11 UNL     1     -17.444   2.682 -15.663  1.00  0.00     0.033 A 
HETATM    6 BR1  UNL     1     -19.217   3.115 -15.092  1.00  0.00    -0.049 Br
HETATM    7  C12 UNL     1     -17.268   1.480 -16.295  1.00  0.00     0.040 A 
HETATM    8  C13 UNL     1     -15.989   1.095 -16.742  1.00  0.00     0.066 A 
ENDROOT
BRANCH   8   9
HETATM    9  C14 UNL     1     -15.812  -0.174 -17.410  1.00  0.00     0.254 C 
HETATM   10  O2  UNL     1     -15.884  -1.195 -16.615  1.00  0.00    -0.268 OA
HETATM   11  N2  UNL     1     -15.579  -0.441 -18.770  1.00  0.00    -0.355 N 
ATOM     12  H2  UNL     1     -15.508   0.348 -19.413  1.00  0.00     0.162 HD
BRANCH  11  13
HETATM   13  C15 UNL     1     -15.433  -1.783 -19.305  1.00  0.00     0.143 C 
BRANCH  13  14
HETATM   14  C16 UNL     1     -14.189  -1.887 -20.104  1.00  0.00     0.146 C 
BRANCH  14  15
HETATM   15  N3  UNL     1     -13.101  -2.523 -19.406  1.00  0.00    -0.372 N 
HETATM   16  C17 UNL     1     -11.909  -1.781 -19.324  1.00  0.00     0.063 C 
HETATM   17  C18 UNL     1     -11.646  -1.171 -17.995  1.00  0.00     0.045 C 
HETATM   18  C19 UNL     1     -12.405  -1.738 -16.847  1.00  0.00     0.010 C 
HETATM   19  C20 UNL     1     -12.626  -3.216 -17.118  1.00  0.00     0.045 C 
HETATM   20  C21 UNL     1     -13.490  -3.344 -18.333  1.00  0.00     0.063 C 
ENDBRANCH  14  15
ENDBRANCH  13  14
ENDBRANCH  11  13
ENDBRANCH   8   9
BRANCH   1  21
HETATM   21  O1  UNL     1     -13.674   1.691 -16.910  1.00  0.00    -0.349 OA
BRANCH  21  22
HETATM   22  C7  UNL     1     -13.288   1.897 -18.241  1.00  0.00     0.186 C 
BRANCH  22  23
HETATM   23  C6  UNL     1     -12.399   3.095 -18.357  1.00  0.00     0.055 C 
HETATM   24  C1  UNL     1     -13.078   4.302 -18.871  1.00  0.00    -0.014 C 
HETATM   25  N1  UNL     1     -14.322   4.369 -19.094  1.00  0.00    -0.405 N 
HETATM   26  C2  UNL     1     -12.227   5.498 -19.128  1.00  0.00     0.052 C 
ATOM     27  H12 UNL     1     -14.790   5.202 -19.448  1.00  0.00     0.155 HD
ATOM     28  H11 UNL     1     -14.904   3.551 -18.918  1.00  0.00     0.155 HD
HETATM   29  C3  UNL     1     -11.521   5.815 -17.824  1.00  0.00     0.006 C 
HETATM   30  C4  UNL     1     -11.958   4.919 -16.700  1.00  0.00     0.001 C 
HETATM   31  C5  UNL     1     -11.841   3.451 -16.997  1.00  0.00     0.013 C 
ENDBRANCH  22  23
ENDBRANCH  21  22
ENDBRANCH   1  21
TORSDOF 7
ENDMDL
MODEL 2
REMARK VINA RESULT: -7.355271533      3.497      4.114
REMARK  7 active torsions:
REMARK  status: ('A' for Active; 'I' for Inactive)
REMARK    1  A    between atoms: C6_9  and  C7_10 
REMARK    2  A    between atoms: C7_10  and  O1_11 
REMARK    3  A    between atoms: O1_11  and  C8_12 
REMARK    4  A    between atoms: C13_19  and  C14_20 
REMARK       I    between atoms: C14_20  and  N2_22 
REMARK    5  A    between atoms: N2_22  and  C15_24 
REMARK    6  A    between atoms: C15_24  and  C16_25 
REMARK    7  A    between atoms: C16_25  and  N3_26 
ROOT
HETATM    1  C8  UNL     1     -17.384   1.070 -20.277  1.00  0.00     0.086 A 
HETATM    2  C9  UNL     1     -18.511   1.911 -20.150  1.00  0.00     0.063 A 
HETATM    3  C10 UNL     1     -19.560   1.791 -21.019  1.00  0.00     0.054 A 
HETATM    4 CL1  UNL     1     -20.966   2.796 -20.912  1.00  0.00    -0.083 Cl
HETATM    5  C11 UNL     1     -19.467   0.837 -21.997  1.00  0.00     0.033 A 
HETATM    6 BR1  UNL     1     -20.899   0.619 -23.243  1.00  0.00    -0.049 Br
HETATM    7  C12 UNL     1     -18.385   0.010 -22.139  1.00  0.00     0.040 A 
HETATM    8  C13 UNL     1     -17.292   0.115 -21.255  1.00  0.00     0.066 A 
ENDROOT
BRANCH   8   9
HETATM    9  C14 UNL     1     -16.153  -0.760 -21.412  1.00  0.00     0.254 C 
HETATM   10  O2  UNL     1     -15.951  -1.137 -22.636  1.00  0.00    -0.268 OA
HETATM   11  N2  UNL     1     -15.259  -1.242 -20.441  1.00  0.00    -0.355 N 
ATOM     12  H2  UNL     1     -15.404  -0.967 -19.470  1.00  0.00     0.162 HD
BRANCH  11  13
HETATM   13  C15 UNL     1     -14.139  -2.113 -20.753  1.00  0.00     0.143 C 
BRANCH  13  14
HETATM   14  C16 UNL     1     -12.893  -1.322 -20.883  1.00  0.00     0.146 C 
BRANCH  14  15
HETATM   15  N3  UNL     1     -11.955  -1.534 -19.809  1.00  0.00    -0.372 N 
HETATM   16  C17 UNL     1     -11.016  -0.507 -19.605  1.00  0.00     0.063 C 
HETATM   17  C18 UNL     1     -11.288   0.359 -18.428  1.00  0.00     0.045 C 
HETATM   18  C19 UNL     1     -12.222  -0.188 -17.407  1.00  0.00     0.010 C 
HETATM   19  C20 UNL     1     -12.050  -1.697 -17.379  1.00  0.00     0.045 C 
HETATM   20  C21 UNL     1     -12.471  -2.240 -18.708  1.00  0.00     0.063 C 
ENDBRANCH  14  15
ENDBRANCH  13  14
ENDBRANCH  11  13
ENDBRANCH   8   9
BRANCH   1  21
HETATM   21  O1  UNL     1     -16.364   1.250 -19.360  1.00  0.00    -0.349 OA
BRANCH  21  22
HETATM   22  C7  UNL     1     -16.000   2.542 -18.957  1.00  0.00     0.186 C 
BRANCH  22  23
HETATM   23  C6  UNL     1     -14.619   2.549 -18.378  1.00  0.00     0.055 C 
HETATM   24  C1  UNL     1     -13.816   3.731 -18.750  1.00  0.00    -0.014 C 
HETATM   25  N1  UNL     1     -14.271   4.714 -19.406  1.00  0.00    -0.405 N 
HETATM   26  C2  UNL     1     -12.393   3.746 -18.311  1.00  0.00     0.052 C 
ATOM     27  H12 UNL     1     -13.716   5.530 -19.663  1.00  0.00     0.155 HD
ATOM     28  H11 UNL     1     -15.245   4.703 -19.707  1.00  0.00     0.155 HD
HETATM   29  C3  UNL     1     -12.403   3.580 -16.804  1.00  0.00     0.006 C 
HETATM   30  C4  UNL     1     -13.794   3.550 -16.238  1.00  0.00     0.001 C 
HETATM   31  C5  UNL     1     -14.698   2.530 -16.868  1.00  0.00     0.013 C 
ENDBRANCH  22  23
ENDBRANCH  21  22
ENDBRANCH   1  21
TORSDOF 7
ENDMDL
MODEL 3
REMARK VINA RESULT: -7.317308840      3.427      4.275
REMARK  7 active torsions:
REMARK  status: ('A' for Active; 'I' for Inactive)
REMARK    1  A    between atoms: C6_9  and  C7_10 
REMARK    2  A    between atoms: C7_10  and  O1_11 
REMARK    3  A    between atoms: O1_11  and  C8_12 
REMARK    4  A    between atoms: C13_19  and  C14_20 
REMARK       I    between atoms: C14_20  and  N2_22 
REMARK    5  A    between atoms: N2_22  and  C15_24 
REMARK    6  A    between atoms: C15_24  and  C16_25 
REMARK    7  A    between atoms: C16_25  and  N3_26 
ROOT
HETATM    1  C8  UNL     1     -16.988   1.391 -20.233  1.00  0.00     0.086 A 
HETATM    2  C9  UNL     1     -18.239   2.008 -20.014  1.00  0.00     0.063 A 
HETATM    3  C10 UNL     1     -19.306   1.702 -20.812  1.00  0.00     0.054 A 
HETATM    4 CL1  UNL     1     -20.862   2.429 -20.590  1.00  0.00    -0.083 Cl
HETATM    5  C11 UNL     1     -19.108   0.788 -21.811  1.00  0.00     0.033 A 
HETATM    6 BR1  UNL     1     -20.560   0.317 -22.962  1.00  0.00    -0.049 Br
HETATM    7  C12 UNL     1     -17.905   0.176 -22.042  1.00  0.00     0.040 A 
HETATM    8  C13 UNL     1     -16.791   0.475 -21.233  1.00  0.00     0.066 A 
ENDROOT
BRANCH   8   9
HETATM    9  C14 UNL     1     -15.524  -0.173 -21.484  1.00  0.00     0.254 C 
HETATM   10  O2  UNL     1     -15.194  -0.203 -22.737  1.00  0.00    -0.268 OA
HETATM   11  N2  UNL     1     -14.627  -0.759 -20.575  1.00  0.00    -0.355 N 
ATOM     12  H2  UNL     1     -14.871  -0.757 -19.584  1.00  0.00     0.162 HD
BRANCH  11  13
HETATM   13  C15 UNL     1     -13.371  -1.368 -20.976  1.00  0.00     0.143 C 
BRANCH  13  14
HETATM   14  C16 UNL     1     -12.247  -0.780 -20.210  1.00  0.00     0.146 C 
BRANCH  14  15
HETATM   15  N3  UNL     1     -11.721  -1.650 -19.189  1.00  0.00    -0.372 N 
HETATM   16  C17 UNL     1     -11.477  -1.052 -17.940  1.00  0.00     0.063 C 
HETATM   17  C18 UNL     1     -12.478  -1.374 -16.890  1.00  0.00     0.045 C 
HETATM   18  C19 UNL     1     -13.333  -2.567 -17.137  1.00  0.00     0.010 C 
HETATM   19  C20 UNL     1     -12.511  -3.575 -17.920  1.00  0.00     0.045 C 
HETATM   20  C21 UNL     1     -12.182  -2.977 -19.252  1.00  0.00     0.063 C 
ENDBRANCH  14  15
ENDBRANCH  13  14
ENDBRANCH  11  13
ENDBRANCH   8   9
BRANCH   1  21
HETATM   21  O1  UNL     1     -15.956   1.750 -19.384  1.00  0.00    -0.349 OA
BRANCH  21  22
HETATM   22  C7  UNL     1     -16.147   2.763 -18.435  1.00  0.00     0.186 C 
BRANCH  22  23
HETATM   23  C6  UNL     1     -14.884   3.022 -17.673  1.00  0.00     0.055 C 
HETATM   24  C1  UNL     1     -14.492   1.924 -16.767  1.00  0.00    -0.014 C 
HETATM   25  N1  UNL     1     -15.092   0.811 -16.707  1.00  0.00    -0.405 N 
HETATM   26  C2  UNL     1     -13.313   2.162 -15.887  1.00  0.00     0.052 C 
ATOM     27  H12 UNL     1     -14.821   0.053 -16.082  1.00  0.00     0.155 HD
ATOM     28  H11 UNL     1     -15.899   0.648 -17.309  1.00  0.00     0.155 HD
HETATM   29  C3  UNL     1     -12.157   2.520 -16.801  1.00  0.00     0.006 C 
HETATM   30  C4  UNL     1     -12.522   2.430 -18.255  1.00  0.00     0.001 C 
HETATM   31  C5  UNL     1     -13.737   3.226 -18.638  1.00  0.00     0.013 C 
ENDBRANCH  22  23
ENDBRANCH  21  22
ENDBRANCH   1  21
TORSDOF 7
ENDMDL
MODEL 4
REMARK VINA RESULT: -7.295441018      3.017      3.685
REMARK  7 active torsions:
REMARK  status: ('A' for Active; 'I' for Inactive)
REMARK    1  A    between atoms: C6_9  and  C7_10 
REMARK    2  A    between atoms: C7_10  and  O1_11 
REMARK    3  A    between atoms: O1_11  and  C8_12 
REMARK    4  A    between atoms: C13_19  and  C14_20 
REMARK       I    between atoms: C14_20  and  N2_22 
REMARK    5  A    between atoms: N2_22  and  C15_24 
REMARK    6  A    between atoms: C15_24  and  C16_25 
REMARK    7  A    between atoms: C16_25  and  N3_26 
ROOT
HETATM    1  C8  UNL     1     -16.873   1.446 -19.212  1.00  0.00     0.086 A 
HETATM    2  C9  UNL     1     -18.088   2.042 -18.811  1.00  0.00     0.063 A 
HETATM    3  C10 UNL     1     -19.170   2.032 -19.647  1.00  0.00     0.054 A 
HETATM    4 CL1  UNL     1     -20.683   2.748 -19.208  1.00  0.00    -0.083 Cl
HETATM    5  C11 UNL     1     -19.020   1.429 -20.867  1.00  0.00     0.033 A 
HETATM    6 BR1  UNL     1     -20.494   1.380 -22.084  1.00  0.00    -0.049 Br
HETATM    7  C12 UNL     1     -17.852   0.843 -21.278  1.00  0.00     0.040 A 
HETATM    8  C13 UNL     1     -16.725   0.841 -20.433  1.00  0.00     0.066 A 
ENDROOT
BRANCH   8   9
HETATM    9  C14 UNL     1     -15.496   0.224 -20.874  1.00  0.00     0.254 C 
HETATM   10  O2  UNL     1     -15.338   0.239 -22.161  1.00  0.00    -0.268 OA
HETATM   11  N2  UNL     1     -14.476  -0.374 -20.115  1.00  0.00    -0.355 N 
ATOM     12  H2  UNL     1     -14.583  -0.407 -19.101  1.00  0.00     0.162 HD
BRANCH  11  13
HETATM   13  C15 UNL     1     -13.278  -0.948 -20.702  1.00  0.00     0.143 C 
BRANCH  13  14
HETATM   14  C16 UNL     1     -13.248  -2.413 -20.482  1.00  0.00     0.146 C 
BRANCH  14  15
HETATM   15  N3  UNL     1     -12.365  -2.824 -19.418  1.00  0.00    -0.372 N 
HETATM   16  C17 UNL     1     -11.471  -1.844 -18.953  1.00  0.00     0.063 C 
HETATM   17  C18 UNL     1     -11.833  -1.243 -17.643  1.00  0.00     0.045 C 
HETATM   18  C19 UNL     1     -12.807  -2.005 -16.814  1.00  0.00     0.010 C 
HETATM   19  C20 UNL     1     -12.591  -3.483 -17.083  1.00  0.00     0.045 C 
HETATM   20  C21 UNL     1     -12.921  -3.750 -18.518  1.00  0.00     0.063 C 
ENDBRANCH  14  15
ENDBRANCH  13  14
ENDBRANCH  11  13
ENDBRANCH   8   9
BRANCH   1  21
HETATM   21  O1  UNL     1     -15.825   1.495 -18.311  1.00  0.00    -0.349 OA
BRANCH  21  22
HETATM   22  C7  UNL     1     -15.724   2.561 -17.407  1.00  0.00     0.186 C 
BRANCH  22  23
HETATM   23  C6  UNL     1     -14.298   2.985 -17.242  1.00  0.00     0.055 C 
HETATM   24  C1  UNL     1     -13.550   2.205 -16.236  1.00  0.00    -0.014 C 
HETATM   25  N1  UNL     1     -14.019   1.194 -15.636  1.00  0.00    -0.405 N 
HETATM   26  C2  UNL     1     -12.161   2.650 -15.931  1.00  0.00     0.052 C 
ATOM     27  H12 UNL     1     -13.503   0.655 -14.942  1.00  0.00     0.155 HD
ATOM     28  H11 UNL     1     -14.970   0.889 -15.845  1.00  0.00     0.155 HD
HETATM   29  C3  UNL     1     -11.409   2.654 -17.249  1.00  0.00     0.006 C 
HETATM   30  C4  UNL     1     -12.240   2.135 -18.387  1.00  0.00     0.001 C 
HETATM   31  C5  UNL     1     -13.563   2.827 -18.555  1.00  0.00     0.013 C 
ENDBRANCH  22  23
ENDBRANCH  21  22
ENDBRANCH   1  21
TORSDOF 7
ENDMDL
MODEL 5
REMARK VINA RESULT: -7.256525994      3.589      4.851
REMARK  7 active torsions:
REMARK  status: ('A' for Active; 'I' for Inactive)
REMARK    1  A    between atoms: C6_9  and  C7_10 
REMARK    2  A    between atoms: C7_10  and  O1_11 
REMARK    3  A    between atoms: O1_11  and  C8_12 
REMARK    4  A    between atoms: C13_19  and  C14_20 
REMARK       I    between atoms: C14_20  and  N2_22 
REMARK    5  A    between atoms: N2_22  and  C15_24 
REMARK    6  A    between atoms: C15_24  and  C16_25 
REMARK    7  A    between atoms: C16_25  and  N3_26 
ROOT
HETATM    1  C8  UNL     1     -17.258   1.367 -20.256  1.00  0.00     0.086 A 
HETATM    2  C9  UNL     1     -18.517   2.004 -20.229  1.00  0.00     0.063 A 
HETATM    3  C10 UNL     1     -19.499   1.624 -21.101  1.00  0.00     0.054 A 
HETATM    4 CL1  UNL     1     -21.062   2.370 -21.113  1.00  0.00    -0.083 Cl
HETATM    5  C11 UNL     1     -19.208   0.619 -21.983  1.00  0.00     0.033 A 
HETATM    6 BR1  UNL     1     -20.538   0.041 -23.229  1.00  0.00    -0.049 Br
HETATM    7  C12 UNL     1     -17.994  -0.014 -22.027  1.00  0.00     0.040 A 
HETATM    8  C13 UNL     1     -16.968   0.360 -21.139  1.00  0.00     0.066 A 
ENDROOT
BRANCH   8   9
HETATM    9  C14 UNL     1     -15.689  -0.310 -21.193  1.00  0.00     0.254 C 
HETATM   10  O2  UNL     1     -15.187  -0.379 -22.386  1.00  0.00    -0.268 OA
HETATM   11  N2  UNL     1     -14.937  -0.881 -20.152  1.00  0.00    -0.355 N 
ATOM     12  H2  UNL     1     -15.316  -0.848 -19.206  1.00  0.00     0.162 HD
BRANCH  11  13
HETATM   13  C15 UNL     1     -13.647  -1.516 -20.357  1.00  0.00     0.143 C 
BRANCH  13  14
HETATM   14  C16 UNL     1     -12.551  -0.564 -20.058  1.00  0.00     0.146 C 
BRANCH  14  15
HETATM   15  N3  UNL     1     -11.982  -0.727 -18.744  1.00  0.00    -0.372 N 
HETATM   16  C17 UNL     1     -12.114   0.373 -17.879  1.00  0.00     0.063 C 
HETATM   17  C18 UNL     1     -13.147   0.214 -16.823  1.00  0.00     0.045 C 
HETATM   18  C19 UNL     1     -13.597  -1.177 -16.545  1.00  0.00     0.010 C 
HETATM   19  C20 UNL     1     -12.419  -2.105 -16.781  1.00  0.00     0.045 C 
HETATM   20  C21 UNL     1     -12.052  -2.034 -18.231  1.00  0.00     0.063 C 
ENDBRANCH  14  15
ENDBRANCH  13  14
ENDBRANCH  11  13
ENDBRANCH   8   9
BRANCH   1  21
HETATM   21  O1  UNL     1     -16.315   1.806 -19.342  1.00  0.00    -0.349 OA
BRANCH  21  22
HETATM   22  C7  UNL     1     -16.468   1.515 -17.980  1.00  0.00     0.186 C 
BRANCH  22  23
HETATM   23  C6  UNL     1     -16.699   2.767 -17.192  1.00  0.00     0.055 C 
HETATM   24  C1  UNL     1     -17.676   2.617 -16.095  1.00  0.00    -0.014 C 
HETATM   25  N1  UNL     1     -18.199   1.514 -15.764  1.00  0.00    -0.405 N 
HETATM   26  C2  UNL     1     -18.046   3.852 -15.347  1.00  0.00     0.052 C 
ATOM     27  H12 UNL     1     -18.874   1.410 -15.006  1.00  0.00     0.155 HD
ATOM     28  H11 UNL     1     -17.946   0.669 -16.275  1.00  0.00     0.155 HD
HETATM   29  C3  UNL     1     -16.754   4.439 -14.814  1.00  0.00     0.006 C 
HETATM   30  C4  UNL     1     -15.562   3.574 -15.113  1.00  0.00     0.001 C 
HETATM   31  C5  UNL     1     -15.400   3.223 -16.564  1.00  0.00     0.013 C 
ENDBRANCH  22  23
ENDBRANCH  21  22
ENDBRANCH   1  21
TORSDOF 7
ENDMDL
