MODEL 1
REMARK VINA RESULT: -7.652276724      0.000      0.000
REMARK  9 active torsions:
REMARK  status: ('A' for Active; 'I' for Inactive)
REMARK    1  A    between atoms: C2_2  and  C3_3 
REMARK    2  A    between atoms: C3_3  and  C4_4 
REMARK    3  A    between atoms: C4_4  and  C5_5 
REMARK    4  A    between atoms: C5_5  and  O1_6 
REMARK    5  A    between atoms: C5_5  and  C6_8 
REMARK    6  A    between atoms: C5_5  and  C11_13 
REMARK    7  A    between atoms: C11_13  and  C12_16 
REMARK    8  A    between atoms: C15_19  and  C16_20 
REMARK       I    between atoms: C16_20  and  N1_22 
REMARK    9  A    between atoms: C25_31  and  C26_32 
ROOT
HETATM    1  C12 UNL     1     -17.072   2.475 -15.688  1.00  0.00     0.017 A 
HETATM    2  C13 UNL     1     -17.451   3.591 -14.976  1.00  0.00     0.014 A 
HETATM    3  C14 UNL     1     -18.803   3.907 -14.803  1.00  0.00     0.019 A 
HETATM    4  C15 UNL     1     -19.780   3.108 -15.351  1.00  0.00     0.047 A 
HETATM    5  C25 UNL     1     -19.448   1.988 -16.069  1.00  0.00     0.045 A 
HETATM    6  C27 UNL     1     -18.102   1.701 -16.218  1.00  0.00     0.031 A 
ENDROOT
BRANCH   1   7
HETATM    7  C11 UNL     1     -15.694   2.082 -15.849  1.00  0.00     0.301 C 
HETATM    8  F1  UNL     1     -15.613   0.733 -15.580  1.00  0.00    -0.197 F 
HETATM    9  F2  UNL     1     -14.951   2.643 -14.730  1.00  0.00    -0.197 F 
BRANCH   7  10
HETATM   10  C5  UNL     1     -14.875   2.527 -17.022  1.00  0.00     0.131 C 
BRANCH  10  11
HETATM   11  C4  UNL     1     -15.822   2.852 -18.180  1.00  0.00     0.045 C 
BRANCH  11  12
HETATM   12  C3  UNL     1     -16.064   1.932 -19.261  1.00  0.00     0.003 C 
BRANCH  12  13
HETATM   13  C2  UNL     1     -17.537   1.860 -19.690  1.00  0.00    -0.004 C 
HETATM   14  C1  UNL     1     -17.734   1.057 -20.934  1.00  0.00     0.005 C 
ENDBRANCH  12  13
ENDBRANCH  11  12
ENDBRANCH  10  11
BRANCH  10  15
HETATM   15  O1  UNL     1     -14.104   1.492 -17.407  1.00  0.00    -0.383 OA
ATOM     16  H1  UNL     1     -14.220   0.797 -16.769  1.00  0.00     0.210 HD
ENDBRANCH  10  15
BRANCH  10  17
HETATM   17  C6  UNL     1     -14.015   3.741 -16.767  1.00  0.00     0.026 C 
HETATM   18  C7  UNL     1     -13.944   4.716 -17.903  1.00  0.00     0.008 C 
HETATM   19  C8  UNL     1     -12.953   4.276 -18.919  1.00  0.00     0.001 C 
HETATM   20  C9  UNL     1     -12.030   3.398 -18.137  1.00  0.00     0.001 C 
HETATM   21  C10 UNL     1     -12.533   3.399 -16.674  1.00  0.00     0.008 C 
ENDBRANCH  10  17
ENDBRANCH   7  10
ENDBRANCH   1   7
BRANCH   5  22
HETATM   22  C26 UNL     1     -20.463   1.148 -16.659  1.00  0.00     0.266 C 
HETATM   23  N2  UNL     1     -20.994   1.531 -17.929  1.00  0.00    -0.057 NA
HETATM   24  O3  UNL     1     -20.880   0.138 -16.134  1.00  0.00    -0.271 OA
ENDBRANCH   5  22
BRANCH   4  25
HETATM   25  C16 UNL     1     -21.218   3.427 -15.141  1.00  0.00     0.255 C 
HETATM   26  O2  UNL     1     -21.733   4.303 -15.890  1.00  0.00    -0.267 OA
HETATM   27  N1  UNL     1     -21.993   2.786 -14.155  1.00  0.00    -0.343 N 
HETATM   28  C17 UNL     1     -23.410   2.976 -13.858  1.00  0.00     0.127 C 
HETATM   29  C24 UNL     1     -21.480   1.772 -13.209  1.00  0.00     0.091 C 
HETATM   30  C18 UNL     1     -23.876   1.623 -13.335  1.00  0.00     0.026 C 
HETATM   31  C19 UNL     1     -22.639   0.803 -13.131  1.00  0.00     0.010 C 
HETATM   32  C20 UNL     1     -22.641  -0.086 -11.948  1.00  0.00     0.007 C 
HETATM   33  C21 UNL     1     -22.134   0.530 -10.697  1.00  0.00     0.001 C 
HETATM   34  C22 UNL     1     -22.008   2.029 -10.774  1.00  0.00     0.002 C 
HETATM   35  C23 UNL     1     -21.110   2.402 -11.925  1.00  0.00     0.026 C 
ENDBRANCH   4  25
TORSDOF 9
ENDMDL
MODEL 2
REMARK VINA RESULT: -7.372688622      3.613      5.286
REMARK  9 active torsions:
REMARK  status: ('A' for Active; 'I' for Inactive)
REMARK    1  A    between atoms: C2_2  and  C3_3 
REMARK    2  A    between atoms: C3_3  and  C4_4 
REMARK    3  A    between atoms: C4_4  and  C5_5 
REMARK    4  A    between atoms: C5_5  and  O1_6 
REMARK    5  A    between atoms: C5_5  and  C6_8 
REMARK    6  A    between atoms: C5_5  and  C11_13 
REMARK    7  A    between atoms: C11_13  and  C12_16 
REMARK    8  A    between atoms: C15_19  and  C16_20 
REMARK       I    between atoms: C16_20  and  N1_22 
REMARK    9  A    between atoms: C25_31  and  C26_32 
ROOT
HETATM    1  C12 UNL     1     -16.238   2.717 -17.782  1.00  0.00     0.017 A 
HETATM    2  C13 UNL     1     -17.066   2.466 -16.711  1.00  0.00     0.014 A 
HETATM    3  C14 UNL     1     -18.335   1.908 -16.902  1.00  0.00     0.019 A 
HETATM    4  C15 UNL     1     -18.781   1.610 -18.168  1.00  0.00     0.047 A 
HETATM    5  C25 UNL     1     -17.990   1.846 -19.264  1.00  0.00     0.045 A 
HETATM    6  C27 UNL     1     -16.738   2.393 -19.041  1.00  0.00     0.031 A 
ENDROOT
BRANCH   1   7
HETATM    7  C11 UNL     1     -14.903   3.243 -17.630  1.00  0.00     0.301 C 
HETATM    8  F1  UNL     1     -14.892   4.027 -16.497  1.00  0.00    -0.197 F 
HETATM    9  F2  UNL     1     -14.711   4.241 -18.672  1.00  0.00    -0.197 F 
BRANCH   7  10
HETATM   10  C5  UNL     1     -13.689   2.382 -17.795  1.00  0.00     0.131 C 
BRANCH  10  11
HETATM   11  C4  UNL     1     -12.661   2.784 -16.734  1.00  0.00     0.045 C 
BRANCH  11  12
HETATM   12  C3  UNL     1     -11.549   3.652 -17.025  1.00  0.00     0.003 C 
BRANCH  12  13
HETATM   13  C2  UNL     1     -11.881   5.145 -16.883  1.00  0.00    -0.004 C 
HETATM   14  C1  UNL     1     -11.851   5.866 -18.190  1.00  0.00     0.005 C 
ENDBRANCH  12  13
ENDBRANCH  11  12
ENDBRANCH  10  11
BRANCH  10  15
HETATM   15  O1  UNL     1     -13.151   2.647 -19.001  1.00  0.00    -0.383 OA
ATOM     16  H1  UNL     1     -13.840   2.550 -19.648  1.00  0.00     0.210 HD
ENDBRANCH  10  15
BRANCH  10  17
HETATM   17  C6  UNL     1     -13.943   0.900 -17.661  1.00  0.00     0.026 C 
HETATM   18  C7  UNL     1     -12.887   0.140 -16.918  1.00  0.00     0.008 C 
HETATM   19  C8  UNL     1     -11.738  -0.177 -17.805  1.00  0.00     0.001 C 
HETATM   20  C9  UNL     1     -12.344  -0.147 -19.172  1.00  0.00     0.001 C 
HETATM   21  C10 UNL     1     -13.848   0.167 -18.993  1.00  0.00     0.008 C 
ENDBRANCH  10  17
ENDBRANCH   7  10
ENDBRANCH   1   7
BRANCH   5  22
HETATM   22  C26 UNL     1     -18.450   1.548 -20.599  1.00  0.00     0.266 C 
HETATM   23  N2  UNL     1     -17.984   0.346 -21.216  1.00  0.00    -0.057 NA
HETATM   24  O3  UNL     1     -19.211   2.262 -21.217  1.00  0.00    -0.271 OA
ENDBRANCH   5  22
BRANCH   4  25
HETATM   25  C16 UNL     1     -20.118   0.989 -18.368  1.00  0.00     0.255 C 
HETATM   26  O2  UNL     1     -21.105   1.767 -18.493  1.00  0.00    -0.267 OA
HETATM   27  N1  UNL     1     -20.298  -0.407 -18.424  1.00  0.00    -0.343 N 
HETATM   28  C17 UNL     1     -21.536  -1.149 -18.642  1.00  0.00     0.127 C 
HETATM   29  C24 UNL     1     -19.216  -1.401 -18.259  1.00  0.00     0.091 C 
HETATM   30  C18 UNL     1     -21.099  -2.426 -19.347  1.00  0.00     0.026 C 
HETATM   31  C19 UNL     1     -19.603  -2.454 -19.273  1.00  0.00     0.010 C 
HETATM   32  C20 UNL     1     -18.992  -3.786 -19.066  1.00  0.00     0.007 C 
HETATM   33  C21 UNL     1     -18.818  -4.184 -17.647  1.00  0.00     0.001 C 
HETATM   34  C22 UNL     1     -19.576  -3.312 -16.681  1.00  0.00     0.002 C 
HETATM   35  C23 UNL     1     -19.158  -1.876 -16.861  1.00  0.00     0.026 C 
ENDBRANCH   4  25
TORSDOF 9
ENDMDL
MODEL 3
REMARK VINA RESULT: -7.367244049      3.093      5.719
REMARK  9 active torsions:
REMARK  status: ('A' for Active; 'I' for Inactive)
REMARK    1  A    between atoms: C2_2  and  C3_3 
REMARK    2  A    between atoms: C3_3  and  C4_4 
REMARK    3  A    between atoms: C4_4  and  C5_5 
REMARK    4  A    between atoms: C5_5  and  O1_6 
REMARK    5  A    between atoms: C5_5  and  C6_8 
REMARK    6  A    between atoms: C5_5  and  C11_13 
REMARK    7  A    between atoms: C11_13  and  C12_16 
REMARK    8  A    between atoms: C15_19  and  C16_20 
REMARK       I    between atoms: C16_20  and  N1_22 
REMARK    9  A    between atoms: C25_31  and  C26_32 
ROOT
HETATM    1  C12 UNL     1     -16.425   2.500 -17.176  1.00  0.00     0.017 A 
HETATM    2  C13 UNL     1     -16.282   2.624 -18.540  1.00  0.00     0.014 A 
HETATM    3  C14 UNL     1     -17.372   2.432 -19.395  1.00  0.00     0.019 A 
HETATM    4  C15 UNL     1     -18.608   2.108 -18.886  1.00  0.00     0.047 A 
HETATM    5  C25 UNL     1     -18.796   1.972 -17.535  1.00  0.00     0.045 A 
HETATM    6  C27 UNL     1     -17.698   2.172 -16.714  1.00  0.00     0.031 A 
ENDROOT
BRANCH   1   7
HETATM    7  C11 UNL     1     -15.343   2.737 -16.252  1.00  0.00     0.301 C 
HETATM    8  F1  UNL     1     -15.839   2.560 -14.979  1.00  0.00    -0.197 F 
HETATM    9  F2  UNL     1     -15.076   4.168 -16.259  1.00  0.00    -0.197 F 
BRANCH   7  10
HETATM   10  C5  UNL     1     -13.977   2.163 -16.467  1.00  0.00     0.131 C 
BRANCH  10  11
HETATM   11  C4  UNL     1     -14.129   0.735 -16.998  1.00  0.00     0.045 C 
BRANCH  11  12
HETATM   12  C3  UNL     1     -14.431  -0.380 -16.139  1.00  0.00     0.003 C 
BRANCH  12  13
HETATM   13  C2  UNL     1     -15.752  -1.084 -16.485  1.00  0.00    -0.004 C 
HETATM   14  C1  UNL     1     -16.042  -1.070 -17.950  1.00  0.00     0.005 C 
ENDBRANCH  12  13
ENDBRANCH  11  12
ENDBRANCH  10  11
BRANCH  10  15
HETATM   15  O1  UNL     1     -13.364   2.087 -15.271  1.00  0.00    -0.383 OA
ATOM     16  H1  UNL     1     -13.439   2.939 -14.857  1.00  0.00     0.210 HD
ENDBRANCH  10  15
BRANCH  10  17
HETATM   17  C6  UNL     1     -13.114   2.932 -17.437  1.00  0.00     0.026 C 
HETATM   18  C7  UNL     1     -12.405   2.095 -18.458  1.00  0.00     0.008 C 
HETATM   19  C8  UNL     1     -11.167   1.501 -17.888  1.00  0.00     0.001 C 
HETATM   20  C9  UNL     1     -10.825   2.432 -16.770  1.00  0.00     0.001 C 
HETATM   21  C10 UNL     1     -11.893   3.552 -16.770  1.00  0.00     0.008 C 
ENDBRANCH  10  17
ENDBRANCH   7  10
ENDBRANCH   1   7
BRANCH   5  22
HETATM   22  C26 UNL     1     -20.085   1.619 -16.988  1.00  0.00     0.266 C 
HETATM   23  N2  UNL     1     -20.868   2.658 -16.398  1.00  0.00    -0.057 NA
HETATM   24  O3  UNL     1     -20.532   0.493 -17.010  1.00  0.00    -0.271 OA
ENDBRANCH   5  22
BRANCH   4  25
HETATM   25  C16 UNL     1     -19.774   1.934 -19.794  1.00  0.00     0.255 C 
HETATM   26  O2  UNL     1     -20.684   2.807 -19.743  1.00  0.00    -0.267 OA
HETATM   27  N1  UNL     1     -19.876   0.848 -20.687  1.00  0.00    -0.343 N 
HETATM   28  C17 UNL     1     -20.938   0.568 -21.648  1.00  0.00     0.127 C 
HETATM   29  C24 UNL     1     -18.882  -0.241 -20.803  1.00  0.00     0.091 C 
HETATM   30  C18 UNL     1     -20.242  -0.170 -22.784  1.00  0.00     0.026 C 
HETATM   31  C19 UNL     1     -18.862  -0.487 -22.294  1.00  0.00     0.010 C 
HETATM   32  C20 UNL     1     -18.314  -1.797 -22.712  1.00  0.00     0.007 C 
HETATM   33  C21 UNL     1     -18.623  -2.927 -21.801  1.00  0.00     0.001 C 
HETATM   34  C22 UNL     1     -19.696  -2.609 -20.793  1.00  0.00     0.002 C 
HETATM   35  C23 UNL     1     -19.291  -1.403 -19.987  1.00  0.00     0.026 C 
ENDBRANCH   4  25
TORSDOF 9
ENDMDL
MODEL 4
REMARK VINA RESULT: -7.321662984      6.108      8.264
REMARK  9 active torsions:
REMARK  status: ('A' for Active; 'I' for Inactive)
REMARK    1  A    between atoms: C2_2  and  C3_3 
REMARK    2  A    between atoms: C3_3  and  C4_4 
REMARK    3  A    between atoms: C4_4  and  C5_5 
REMARK    4  A    between atoms: C5_5  and  O1_6 
REMARK    5  A    between atoms: C5_5  and  C6_8 
REMARK    6  A    between atoms: C5_5  and  C11_13 
REMARK    7  A    between atoms: C11_13  and  C12_16 
REMARK    8  A    between atoms: C15_19  and  C16_20 
REMARK       I    between atoms: C16_20  and  N1_22 
REMARK    9  A    between atoms: C25_31  and  C26_32 
ROOT
HETATM    1  C12 UNL     1     -12.122   0.527 -17.292  1.00  0.00     0.017 A 
HETATM    2  C13 UNL     1     -11.451  -0.186 -18.259  1.00  0.00     0.014 A 
HETATM    3  C14 UNL     1     -11.713  -1.545 -18.460  1.00  0.00     0.019 A 
HETATM    4  C15 UNL     1     -12.644  -2.197 -17.685  1.00  0.00     0.047 A 
HETATM    5  C25 UNL     1     -13.334  -1.526 -16.708  1.00  0.00     0.045 A 
HETATM    6  C27 UNL     1     -13.055  -0.181 -16.537  1.00  0.00     0.031 A 
ENDROOT
BRANCH   1   7
HETATM    7  C11 UNL     1     -11.922   1.940 -17.082  1.00  0.00     0.301 C 
HETATM    8  F1  UNL     1     -10.569   2.186 -17.178  1.00  0.00    -0.197 F 
HETATM    9  F2  UNL     1     -12.162   2.206 -15.672  1.00  0.00    -0.197 F 
BRANCH   7  10
HETATM   10  C5  UNL     1     -12.784   2.969 -17.746  1.00  0.00     0.131 C 
BRANCH  10  11
HETATM   11  C4  UNL     1     -14.188   2.385 -17.925  1.00  0.00     0.045 C 
BRANCH  11  12
HETATM   12  C3  UNL     1     -14.771   2.159 -19.222  1.00  0.00     0.003 C 
BRANCH  12  13
HETATM   13  C2  UNL     1     -14.921   0.672 -19.578  1.00  0.00    -0.004 C 
HETATM   14  C1  UNL     1     -16.044   0.017 -18.844  1.00  0.00     0.005 C 
ENDBRANCH  12  13
ENDBRANCH  11  12
ENDBRANCH  10  11
BRANCH  10  15
HETATM   15  O1  UNL     1     -12.282   3.201 -18.974  1.00  0.00    -0.383 OA
ATOM     16  H1  UNL     1     -11.335   3.208 -18.900  1.00  0.00     0.210 HD
ENDBRANCH  10  15
BRANCH  10  17
HETATM   17  C6  UNL     1     -12.911   4.269 -16.990  1.00  0.00     0.026 C 
HETATM   18  C7  UNL     1     -13.964   5.202 -17.506  1.00  0.00     0.008 C 
HETATM   19  C8  UNL     1     -13.463   5.975 -18.673  1.00  0.00     0.001 C 
HETATM   20  C9  UNL     1     -11.980   5.954 -18.483  1.00  0.00     0.001 C 
HETATM   21  C10 UNL     1     -11.701   5.175 -17.176  1.00  0.00     0.008 C 
ENDBRANCH  10  17
ENDBRANCH   7  10
ENDBRANCH   1   7
BRANCH   5  22
HETATM   22  C26 UNL     1     -14.306  -2.200 -15.879  1.00  0.00     0.266 C 
HETATM   23  N2  UNL     1     -13.886  -2.658 -14.592  1.00  0.00    -0.057 NA
HETATM   24  O3  UNL     1     -15.454  -2.392 -16.220  1.00  0.00    -0.271 OA
ENDBRANCH   5  22
BRANCH   4  25
HETATM   25  C16 UNL     1     -12.944  -3.635 -17.918  1.00  0.00     0.255 C 
HETATM   26  O2  UNL     1     -12.356  -4.477 -17.184  1.00  0.00    -0.267 OA
HETATM   27  N1  UNL     1     -13.850  -4.062 -18.910  1.00  0.00    -0.343 N 
HETATM   28  C17 UNL     1     -14.259  -5.426 -19.230  1.00  0.00     0.127 C 
HETATM   29  C24 UNL     1     -14.565  -3.161 -19.840  1.00  0.00     0.091 C 
HETATM   30  C18 UNL     1     -15.685  -5.286 -19.748  1.00  0.00     0.026 C 
HETATM   31  C19 UNL     1     -15.924  -3.818 -19.927  1.00  0.00     0.010 C 
HETATM   32  C20 UNL     1     -16.738  -3.435 -21.101  1.00  0.00     0.007 C 
HETATM   33  C21 UNL     1     -15.970  -3.205 -22.350  1.00  0.00     0.001 C 
HETATM   34  C22 UNL     1     -14.551  -3.706 -22.284  1.00  0.00     0.002 C 
HETATM   35  C23 UNL     1     -13.840  -3.060 -21.123  1.00  0.00     0.026 C 
ENDBRANCH   4  25
TORSDOF 9
ENDMDL
MODEL 5
REMARK VINA RESULT: -7.308405429      1.949      3.530
REMARK  9 active torsions:
REMARK  status: ('A' for Active; 'I' for Inactive)
REMARK    1  A    between atoms: C2_2  and  C3_3 
REMARK    2  A    between atoms: C3_3  and  C4_4 
REMARK    3  A    between atoms: C4_4  and  C5_5 
REMARK    4  A    between atoms: C5_5  and  O1_6 
REMARK    5  A    between atoms: C5_5  and  C6_8 
REMARK    6  A    between atoms: C5_5  and  C11_13 
REMARK    7  A    between atoms: C11_13  and  C12_16 
REMARK    8  A    between atoms: C15_19  and  C16_20 
REMARK       I    between atoms: C16_20  and  N1_22 
REMARK    9  A    between atoms: C25_31  and  C26_32 
ROOT
HETATM    1  C12 UNL     1     -16.192   1.235 -18.240  1.00  0.00     0.017 A 
HETATM    2  C13 UNL     1     -16.476   0.270 -17.300  1.00  0.00     0.014 A 
HETATM    3  C14 UNL     1     -17.794  -0.131 -17.059  1.00  0.00     0.019 A 
HETATM    4  C15 UNL     1     -18.834   0.441 -17.754  1.00  0.00     0.047 A 
HETATM    5  C25 UNL     1     -18.598   1.407 -18.699  1.00  0.00     0.045 A 
HETATM    6  C27 UNL     1     -17.282   1.779 -18.917  1.00  0.00     0.031 A 
ENDROOT
BRANCH   1   7
HETATM    7  C11 UNL     1     -14.846   1.643 -18.559  1.00  0.00     0.301 C 
HETATM    8  F1  UNL     1     -14.640   1.385 -19.897  1.00  0.00    -0.197 F 
HETATM    9  F2  UNL     1     -13.946   0.682 -17.940  1.00  0.00    -0.197 F 
BRANCH   7  10
HETATM   10  C5  UNL     1     -14.282   2.948 -18.089  1.00  0.00     0.131 C 
BRANCH  10  11
HETATM   11  C4  UNL     1     -14.466   3.039 -16.572  1.00  0.00     0.045 C 
BRANCH  11  12
HETATM   12  C3  UNL     1     -15.413   3.935 -15.961  1.00  0.00     0.003 C 
BRANCH  12  13
HETATM   13  C2  UNL     1     -16.581   3.218 -15.269  1.00  0.00    -0.004 C 
HETATM   14  C1  UNL     1     -17.683   4.152 -14.888  1.00  0.00     0.005 C 
ENDBRANCH  12  13
ENDBRANCH  11  12
ENDBRANCH  10  11
BRANCH  10  15
HETATM   15  O1  UNL     1     -15.006   3.938 -18.645  1.00  0.00    -0.383 OA
ATOM     16  H1  UNL     1     -15.583   4.282 -17.974  1.00  0.00     0.210 HD
ENDBRANCH  10  15
BRANCH  10  17
HETATM   17  C6  UNL     1     -12.818   3.150 -18.395  1.00  0.00     0.026 C 
HETATM   18  C7  UNL     1     -11.958   3.454 -17.206  1.00  0.00     0.008 C 
HETATM   19  C8  UNL     1     -12.041   4.894 -16.846  1.00  0.00     0.001 C 
HETATM   20  C9  UNL     1     -12.448   5.543 -18.130  1.00  0.00     0.001 C 
HETATM   21  C10 UNL     1     -12.556   4.422 -19.191  1.00  0.00     0.008 C 
ENDBRANCH  10  17
ENDBRANCH   7  10
ENDBRANCH   1   7
BRANCH   5  22
HETATM   22  C26 UNL     1     -19.681   2.024 -19.427  1.00  0.00     0.266 C 
HETATM   23  N2  UNL     1     -19.790   1.749 -20.825  1.00  0.00    -0.057 NA
HETATM   24  O3  UNL     1     -20.498   2.757 -18.912  1.00  0.00    -0.271 OA
ENDBRANCH   5  22
BRANCH   4  25
HETATM   25  C16 UNL     1     -20.233  -0.006 -17.519  1.00  0.00     0.255 C 
HETATM   26  O2  UNL     1     -20.750  -0.770 -18.381  1.00  0.00    -0.267 OA
HETATM   27  N1  UNL     1     -20.968   0.390 -16.384  1.00  0.00    -0.343 N 
HETATM   28  C17 UNL     1     -22.327   0.009 -16.012  1.00  0.00     0.127 C 
HETATM   29  C24 UNL     1     -20.467   1.303 -15.335  1.00  0.00     0.091 C 
HETATM   30  C18 UNL     1     -22.331   0.042 -14.489  1.00  0.00     0.026 C 
HETATM   31  C19 UNL     1     -21.038   0.681 -14.081  1.00  0.00     0.010 C 
HETATM   32  C20 UNL     1     -21.104   1.576 -12.904  1.00  0.00     0.007 C 
HETATM   33  C21 UNL     1     -21.416   2.994 -13.209  1.00  0.00     0.001 C 
HETATM   34  C22 UNL     1     -21.921   3.210 -14.612  1.00  0.00     0.002 C 
HETATM   35  C23 UNL     1     -20.909   2.688 -15.599  1.00  0.00     0.026 C 
ENDBRANCH   4  25
TORSDOF 9
ENDMDL
