MODEL 1
REMARK VINA RESULT: -6.523281157      0.000      0.000
REMARK  15 active torsions:
REMARK  status: ('A' for Active; 'I' for Inactive)
REMARK    1  A    between atoms: N1_1  and  C1_4 
REMARK    2  A    between atoms: C2_7  and  C3_8 
REMARK    3  A    between atoms: C4_10  and  O2_11 
REMARK    4  A    between atoms: C5_13  and  O3_14 
REMARK    5  A    between atoms: C6_16  and  O4_17 
REMARK    6  A    between atoms: C7_21  and  N4_22 
REMARK    7  A    between atoms: N4_22  and  N5_24 
REMARK    8  A    between atoms: C8_26  and  C9_27 
REMARK    9  A    between atoms: C9_27  and  C10_28 
REMARK   10  A    between atoms: C10_28  and  C11_29 
REMARK   11  A    between atoms: C11_29  and  C12_30 
REMARK   12  A    between atoms: C12_30  and  C13_31 
REMARK   13  A    between atoms: C13_31  and  C14_32 
REMARK   14  A    between atoms: C14_32  and  C15_33 
REMARK   15  A    between atoms: C15_33  and  N6_34 
ROOT
HETATM    1  C1  UNL     1       8.209  20.456  12.312  1.00  0.00     0.691 A 
HETATM    2  N2  UNL     1       8.167  21.792  12.393  1.00  0.00    -0.177 N 
ATOM      3  H2  UNL     1       7.576  22.309  11.742  1.00  0.00     0.185 HD
HETATM    4  C2  UNL     1       8.892  22.484  13.324  1.00  0.00     0.145 A 
HETATM    5  N3  UNL     1       9.634  21.744  14.138  1.00  0.00    -0.175 N 
ATOM      6  H3  UNL     1      10.189  22.223  14.847  1.00  0.00     0.185 HD
HETATM    7  C7  UNL     1       9.701  20.403  14.086  1.00  0.00     0.712 A 
HETATM    8  N7  UNL     1       8.985  19.745  13.169  1.00  0.00    -0.021 N 
ATOM      9  H7  UNL     1       9.022  18.727  13.115  1.00  0.00     0.203 HD
ENDROOT
BRANCH   7  10
HETATM   10  N4  UNL     1      10.434  19.738  14.895  1.00  0.00    -0.132 N 
ATOM     11  H4  UNL     1      11.375  20.093  15.064  1.00  0.00     0.205 HD
BRANCH  10  12
HETATM   12  N5  UNL     1      10.072  18.594  15.556  1.00  0.00    -0.301 N 
HETATM   13  C8  UNL     1      10.550  18.336  16.710  1.00  0.00     0.080 C 
ATOM     14  H5  UNL     1       9.416  17.944  15.122  1.00  0.00     0.186 HD
BRANCH  13  15
HETATM   15  C9  UNL     1      11.497  19.274  17.341  1.00  0.00     0.046 C 
BRANCH  15  16
HETATM   16  C10 UNL     1      10.974  19.521  18.762  1.00  0.00     0.005 C 
BRANCH  16  17
HETATM   17  C11 UNL     1      11.020  20.992  19.091  1.00  0.00     0.000 C 
BRANCH  17  18
HETATM   18  C12 UNL     1      10.532  21.763  17.902  1.00  0.00     0.000 C 
BRANCH  18  19
HETATM   19  C13 UNL     1      10.945  23.206  17.935  1.00  0.00     0.002 C 
BRANCH  19  20
HETATM   20  C14 UNL     1      12.392  23.384  17.526  1.00  0.00     0.027 C 
BRANCH  20  21
HETATM   21  C15 UNL     1      12.565  22.767  16.144  1.00  0.00     0.229 C 
BRANCH  21  22
HETATM   22  N6  UNL     1      13.406  23.652  15.369  1.00  0.00    -0.079 N 
ATOM     23  H63 UNL     1      13.099  24.624  15.406  1.00  0.00     0.274 HD
ATOM     24  H62 UNL     1      14.328  23.786  15.784  1.00  0.00     0.274 HD
ATOM     25  H61 UNL     1      13.449  23.286  14.418  1.00  0.00     0.274 HD
ENDBRANCH  21  22
ENDBRANCH  20  21
ENDBRANCH  19  20
ENDBRANCH  18  19
ENDBRANCH  17  18
ENDBRANCH  16  17
ENDBRANCH  15  16
ENDBRANCH  13  15
ENDBRANCH  10  12
ENDBRANCH   7  10
BRANCH   4  26
HETATM   26  C3  UNL     1       8.773  23.962  13.347  1.00  0.00     0.224 C 
HETATM   27  O1  UNL     1       9.282  24.441  12.135  1.00  0.00    -0.343 OA
HETATM   28  C4  UNL     1       9.712  25.738  12.418  1.00  0.00     0.289 C 
HETATM   29  C5  UNL     1      10.479  25.550  13.702  1.00  0.00     0.204 C 
HETATM   30  C6  UNL     1       9.655  24.511  14.418  1.00  0.00     0.188 C 
BRANCH  28  31
HETATM   31  O2  UNL     1       8.617  26.574  12.665  1.00  0.00    -0.368 OA
ATOM     32  H2  UNL     1       8.284  26.435  13.544  1.00  0.00     0.212 HD
ENDBRANCH  28  31
BRANCH  29  33
HETATM   33  O3  UNL     1      11.733  24.990  13.454  1.00  0.00    -0.388 OA
ATOM     34  H3  UNL     1      12.415  25.475  13.903  1.00  0.00     0.210 HD
ENDBRANCH  29  33
BRANCH  30  35
HETATM   35  O4  UNL     1       8.921  25.105  15.450  1.00  0.00    -0.390 OA
ATOM     36  H4  UNL     1       9.274  24.895  16.306  1.00  0.00     0.210 HD
ENDBRANCH  30  35
ENDBRANCH   4  26
BRANCH   1  37
HETATM   37  N1  UNL     1       7.529  19.802  11.436  1.00  0.00    -0.234 N 
ATOM     38  H12 UNL     1       6.583  20.124  11.232  1.00  0.00     0.174 HD
ATOM     39  H11 UNL     1       7.908  18.988  10.953  1.00  0.00     0.174 HD
ENDBRANCH   1  37
TORSDOF 15
ENDMDL
MODEL 2
REMARK VINA RESULT: -6.307142036      2.656      3.526
REMARK  15 active torsions:
REMARK  status: ('A' for Active; 'I' for Inactive)
REMARK    1  A    between atoms: N1_1  and  C1_4 
REMARK    2  A    between atoms: C2_7  and  C3_8 
REMARK    3  A    between atoms: C4_10  and  O2_11 
REMARK    4  A    between atoms: C5_13  and  O3_14 
REMARK    5  A    between atoms: C6_16  and  O4_17 
REMARK    6  A    between atoms: C7_21  and  N4_22 
REMARK    7  A    between atoms: N4_22  and  N5_24 
REMARK    8  A    between atoms: C8_26  and  C9_27 
REMARK    9  A    between atoms: C9_27  and  C10_28 
REMARK   10  A    between atoms: C10_28  and  C11_29 
REMARK   11  A    between atoms: C11_29  and  C12_30 
REMARK   12  A    between atoms: C12_30  and  C13_31 
REMARK   13  A    between atoms: C13_31  and  C14_32 
REMARK   14  A    between atoms: C14_32  and  C15_33 
REMARK   15  A    between atoms: C15_33  and  N6_34 
ROOT
HETATM    1  C1  UNL     1       9.818  19.056  15.067  1.00  0.00     0.691 A 
HETATM    2  N2  UNL     1       9.757  20.393  15.003  1.00  0.00    -0.177 N 
ATOM      3  H2  UNL     1       9.384  20.831  14.161  1.00  0.00     0.185 HD
HETATM    4  C2  UNL     1      10.180  21.187  16.033  1.00  0.00     0.145 A 
HETATM    5  N3  UNL     1      10.650  20.546  17.095  1.00  0.00    -0.175 N 
ATOM      6  H3  UNL     1      10.975  21.103  17.886  1.00  0.00     0.185 HD
HETATM    7  C7  UNL     1      10.727  19.208  17.195  1.00  0.00     0.712 A 
HETATM    8  N7  UNL     1      10.309  18.449  16.177  1.00  0.00    -0.021 N 
ATOM      9  H7  UNL     1      10.358  17.432  16.235  1.00  0.00     0.203 HD
ENDROOT
BRANCH   7  10
HETATM   10  N4  UNL     1      11.190  18.641  18.243  1.00  0.00    -0.132 N 
ATOM     11  H4  UNL     1      10.570  18.585  19.051  1.00  0.00     0.205 HD
BRANCH  10  12
HETATM   12  N5  UNL     1      12.441  18.101  18.380  1.00  0.00    -0.301 N 
HETATM   13  C8  UNL     1      13.309  18.664  19.126  1.00  0.00     0.080 C 
ATOM     14  H5  UNL     1      12.680  17.242  17.883  1.00  0.00     0.186 HD
BRANCH  13  15
HETATM   15  C9  UNL     1      12.967  19.904  19.846  1.00  0.00     0.046 C 
BRANCH  15  16
HETATM   16  C10 UNL     1      14.213  20.799  19.776  1.00  0.00     0.005 C 
BRANCH  16  17
HETATM   17  C11 UNL     1      14.561  21.324  21.146  1.00  0.00     0.000 C 
BRANCH  17  18
HETATM   18  C12 UNL     1      14.761  22.806  21.053  1.00  0.00     0.000 C 
BRANCH  18  19
HETATM   19  C13 UNL     1      13.874  23.572  21.991  1.00  0.00     0.002 C 
BRANCH  19  20
HETATM   20  C14 UNL     1      12.540  23.904  21.355  1.00  0.00     0.027 C 
BRANCH  20  21
HETATM   21  C15 UNL     1      12.804  24.340  19.919  1.00  0.00     0.229 C 
BRANCH  21  22
HETATM   22  N6  UNL     1      11.889  23.617  19.064  1.00  0.00    -0.079 N 
ATOM     23  H63 UNL     1      12.226  22.685  18.822  1.00  0.00     0.274 HD
ATOM     24  H62 UNL     1      11.037  23.332  19.547  1.00  0.00     0.274 HD
ATOM     25  H61 UNL     1      11.705  24.197  18.245  1.00  0.00     0.274 HD
ENDBRANCH  21  22
ENDBRANCH  20  21
ENDBRANCH  19  20
ENDBRANCH  18  19
ENDBRANCH  17  18
ENDBRANCH  16  17
ENDBRANCH  15  16
ENDBRANCH  13  15
ENDBRANCH  10  12
ENDBRANCH   7  10
BRANCH   4  26
HETATM   26  C3  UNL     1      10.062  22.657  15.878  1.00  0.00     0.224 C 
HETATM   27  O1  UNL     1       9.037  22.899  14.957  1.00  0.00    -0.343 OA
HETATM   28  C4  UNL     1       9.348  24.139  14.397  1.00  0.00     0.289 C 
HETATM   29  C5  UNL     1      10.816  23.993  14.087  1.00  0.00     0.204 C 
HETATM   30  C6  UNL     1      11.313  23.190  15.263  1.00  0.00     0.188 C 
BRANCH  28  31
HETATM   31  O2  UNL     1       9.185  25.158  15.342  1.00  0.00    -0.368 OA
ATOM     32  H2  UNL     1       9.736  25.902  15.128  1.00  0.00     0.212 HD
ENDBRANCH  28  31
BRANCH  29  33
HETATM   33  O3  UNL     1      11.009  23.219  12.942  1.00  0.00    -0.388 OA
ATOM     34  H3  UNL     1      11.864  23.383  12.563  1.00  0.00     0.210 HD
ENDBRANCH  29  33
BRANCH  30  35
HETATM   35  O4  UNL     1      12.022  24.013  16.144  1.00  0.00    -0.390 OA
ATOM     36  H4  UNL     1      11.806  23.835  17.051  1.00  0.00     0.210 HD
ENDBRANCH  30  35
ENDBRANCH   4  26
BRANCH   1  37
HETATM   37  N1  UNL     1       9.423  18.306  14.099  1.00  0.00    -0.234 N 
ATOM     38  H12 UNL     1       8.895  18.744  13.344  1.00  0.00     0.174 HD
ATOM     39  H11 UNL     1       9.621  17.307  14.071  1.00  0.00     0.174 HD
ENDBRANCH   1  37
TORSDOF 15
ENDMDL
MODEL 3
REMARK VINA RESULT: -6.302259416      2.797      4.024
REMARK  15 active torsions:
REMARK  status: ('A' for Active; 'I' for Inactive)
REMARK    1  A    between atoms: N1_1  and  C1_4 
REMARK    2  A    between atoms: C2_7  and  C3_8 
REMARK    3  A    between atoms: C4_10  and  O2_11 
REMARK    4  A    between atoms: C5_13  and  O3_14 
REMARK    5  A    between atoms: C6_16  and  O4_17 
REMARK    6  A    between atoms: C7_21  and  N4_22 
REMARK    7  A    between atoms: N4_22  and  N5_24 
REMARK    8  A    between atoms: C8_26  and  C9_27 
REMARK    9  A    between atoms: C9_27  and  C10_28 
REMARK   10  A    between atoms: C10_28  and  C11_29 
REMARK   11  A    between atoms: C11_29  and  C12_30 
REMARK   12  A    between atoms: C12_30  and  C13_31 
REMARK   13  A    between atoms: C13_31  and  C14_32 
REMARK   14  A    between atoms: C14_32  and  C15_33 
REMARK   15  A    between atoms: C15_33  and  N6_34 
ROOT
HETATM    1  C1  UNL     1      10.449  19.084  16.173  1.00  0.00     0.691 A 
HETATM    2  N2  UNL     1      10.316  20.354  15.770  1.00  0.00    -0.177 N 
ATOM      3  H2  UNL     1      10.041  20.542  14.806  1.00  0.00     0.185 HD
HETATM    4  C2  UNL     1      10.539  21.407  16.613  1.00  0.00     0.145 A 
HETATM    5  N3  UNL     1      10.892  21.086  17.851  1.00  0.00    -0.175 N 
ATOM      6  H3  UNL     1      11.066  21.845  18.512  1.00  0.00     0.185 HD
HETATM    7  C7  UNL     1      11.035  19.825  18.291  1.00  0.00     0.712 A 
HETATM    8  N7  UNL     1      10.813  18.808  17.451  1.00  0.00    -0.021 N 
ATOM      9  H7  UNL     1      10.915  17.844  17.766  1.00  0.00     0.203 HD
ENDROOT
BRANCH   7  10
HETATM   10  N4  UNL     1      11.378  19.570  19.496  1.00  0.00    -0.132 N 
ATOM     11  H4  UNL     1      10.829  20.010  20.235  1.00  0.00     0.205 HD
BRANCH  10  12
HETATM   12  N5  UNL     1      12.413  18.763  19.886  1.00  0.00    -0.301 N 
HETATM   13  C8  UNL     1      13.575  19.252  20.082  1.00  0.00     0.080 C 
ATOM     14  H5  UNL     1      12.254  17.764  20.020  1.00  0.00     0.186 HD
BRANCH  13  15
HETATM   15  C9  UNL     1      13.808  20.695  19.890  1.00  0.00     0.046 C 
BRANCH  15  16
HETATM   16  C10 UNL     1      14.465  21.199  21.183  1.00  0.00     0.005 C 
BRANCH  16  17
HETATM   17  C11 UNL     1      14.999  22.596  20.990  1.00  0.00     0.000 C 
BRANCH  17  18
HETATM   18  C12 UNL     1      14.330  23.504  21.976  1.00  0.00     0.000 C 
BRANCH  18  19
HETATM   19  C13 UNL     1      12.890  23.765  21.642  1.00  0.00     0.002 C 
BRANCH  19  20
HETATM   20  C14 UNL     1      12.750  24.725  20.478  1.00  0.00     0.027 C 
BRANCH  20  21
HETATM   21  C15 UNL     1      12.093  23.970  19.329  1.00  0.00     0.229 C 
BRANCH  21  22
HETATM   22  N6  UNL     1      13.059  23.873  18.257  1.00  0.00    -0.079 N 
ATOM     23  H63 UNL     1      12.729  24.292  17.387  1.00  0.00     0.274 HD
ATOM     24  H62 UNL     1      13.869  24.477  18.398  1.00  0.00     0.274 HD
ATOM     25  H61 UNL     1      13.311  22.890  18.154  1.00  0.00     0.274 HD
ENDBRANCH  21  22
ENDBRANCH  20  21
ENDBRANCH  19  20
ENDBRANCH  18  19
ENDBRANCH  17  18
ENDBRANCH  16  17
ENDBRANCH  15  16
ENDBRANCH  13  15
ENDBRANCH  10  12
ENDBRANCH   7  10
BRANCH   4  26
HETATM   26  C3  UNL     1      10.355  22.780  16.083  1.00  0.00     0.224 C 
HETATM   27  O1  UNL     1       9.052  22.863  15.581  1.00  0.00    -0.343 OA
HETATM   28  C4  UNL     1       9.110  23.857  14.604  1.00  0.00     0.289 C 
HETATM   29  C5  UNL     1      10.347  23.478  13.831  1.00  0.00     0.204 C 
HETATM   30  C6  UNL     1      11.266  22.986  14.919  1.00  0.00     0.188 C 
BRANCH  28  31
HETATM   31  O2  UNL     1       9.312  25.111  15.193  1.00  0.00    -0.368 OA
ATOM     32  H2  UNL     1       8.632  25.292  15.831  1.00  0.00     0.212 HD
ENDBRANCH  28  31
BRANCH  29  33
HETATM   33  O3  UNL     1      10.092  22.400  12.982  1.00  0.00    -0.388 OA
ATOM     34  H3  UNL     1       9.584  22.676  12.228  1.00  0.00     0.210 HD
ENDBRANCH  29  33
BRANCH  30  35
HETATM   35  O4  UNL     1      12.252  23.943  15.187  1.00  0.00    -0.390 OA
ATOM     36  H4  UNL     1      12.759  24.159  14.413  1.00  0.00     0.210 HD
ENDBRANCH  30  35
ENDBRANCH   4  26
BRANCH   1  37
HETATM   37  N1  UNL     1      10.242  18.090  15.381  1.00  0.00    -0.234 N 
ATOM     38  H12 UNL     1      10.934  17.909  14.655  1.00  0.00     0.174 HD
ATOM     39  H11 UNL     1       9.420  17.493  15.464  1.00  0.00     0.174 HD
ENDBRANCH   1  37
TORSDOF 15
ENDMDL
MODEL 4
REMARK VINA RESULT: -6.294288209      1.906      4.422
REMARK  15 active torsions:
REMARK  status: ('A' for Active; 'I' for Inactive)
REMARK    1  A    between atoms: N1_1  and  C1_4 
REMARK    2  A    between atoms: C2_7  and  C3_8 
REMARK    3  A    between atoms: C4_10  and  O2_11 
REMARK    4  A    between atoms: C5_13  and  O3_14 
REMARK    5  A    between atoms: C6_16  and  O4_17 
REMARK    6  A    between atoms: C7_21  and  N4_22 
REMARK    7  A    between atoms: N4_22  and  N5_24 
REMARK    8  A    between atoms: C8_26  and  C9_27 
REMARK    9  A    between atoms: C9_27  and  C10_28 
REMARK   10  A    between atoms: C10_28  and  C11_29 
REMARK   11  A    between atoms: C11_29  and  C12_30 
REMARK   12  A    between atoms: C12_30  and  C13_31 
REMARK   13  A    between atoms: C13_31  and  C14_32 
REMARK   14  A    between atoms: C14_32  and  C15_33 
REMARK   15  A    between atoms: C15_33  and  N6_34 
ROOT
HETATM    1  C1  UNL     1      13.820  23.494  12.897  1.00  0.00     0.691 A 
HETATM    2  N2  UNL     1      12.481  23.498  12.884  1.00  0.00    -0.177 N 
ATOM      3  H2  UNL     1      11.995  23.509  11.987  1.00  0.00     0.185 HD
HETATM    4  C2  UNL     1      11.745  23.488  14.036  1.00  0.00     0.145 A 
HETATM    5  N3  UNL     1      12.446  23.472  15.163  1.00  0.00    -0.175 N 
ATOM      6  H3  UNL     1      11.933  23.464  16.045  1.00  0.00     0.185 HD
HETATM    7  C7  UNL     1      13.788  23.467  15.216  1.00  0.00     0.712 A 
HETATM    8  N7  UNL     1      14.490  23.478  14.079  1.00  0.00    -0.021 N 
ATOM      9  H7  UNL     1      15.509  23.473  14.098  1.00  0.00     0.203 HD
ENDROOT
BRANCH   7  10
HETATM   10  N4  UNL     1      14.414  23.453  16.331  1.00  0.00    -0.132 N 
ATOM     11  H4  UNL     1      15.367  23.089  16.321  1.00  0.00     0.205 HD
BRANCH  10  12
HETATM   12  N5  UNL     1      13.924  23.881  17.536  1.00  0.00    -0.301 N 
HETATM   13  C8  UNL     1      13.790  23.064  18.506  1.00  0.00     0.080 C 
ATOM     14  H5  UNL     1      13.664  24.860  17.659  1.00  0.00     0.186 HD
BRANCH  13  15
HETATM   15  C9  UNL     1      14.165  21.648  18.332  1.00  0.00     0.046 C 
BRANCH  15  16
HETATM   16  C10 UNL     1      12.871  20.838  18.498  1.00  0.00     0.005 C 
BRANCH  16  17
HETATM   17  C11 UNL     1      12.263  20.537  17.151  1.00  0.00     0.000 C 
BRANCH  17  18
HETATM   18  C12 UNL     1      10.822  20.176  17.347  1.00  0.00     0.000 C 
BRANCH  18  19
HETATM   19  C13 UNL     1       9.946  20.654  16.226  1.00  0.00     0.002 C 
BRANCH  19  20
HETATM   20  C14 UNL     1      10.227  19.908  14.938  1.00  0.00     0.027 C 
BRANCH  20  21
HETATM   21  C15 UNL     1       8.915  19.305  14.452  1.00  0.00     0.229 C 
BRANCH  21  22
HETATM   22  N6  UNL     1       8.679  19.789  13.110  1.00  0.00    -0.079 N 
ATOM     23  H63 UNL     1       8.239  20.709  13.093  1.00  0.00     0.274 HD
ATOM     24  H62 UNL     1       9.539  20.042  12.623  1.00  0.00     0.274 HD
ATOM     25  H61 UNL     1       8.137  19.081  12.616  1.00  0.00     0.274 HD
ENDBRANCH  21  22
ENDBRANCH  20  21
ENDBRANCH  19  20
ENDBRANCH  18  19
ENDBRANCH  17  18
ENDBRANCH  16  17
ENDBRANCH  15  16
ENDBRANCH  13  15
ENDBRANCH  10  12
ENDBRANCH   7  10
BRANCH   4  26
HETATM   26  C3  UNL     1      10.266  23.481  13.924  1.00  0.00     0.224 C 
HETATM   27  O1  UNL     1       9.939  22.771  12.763  1.00  0.00    -0.343 OA
HETATM   28  C4  UNL     1       8.701  23.280  12.372  1.00  0.00     0.289 C 
HETATM   29  C5  UNL     1       8.914  24.768  12.483  1.00  0.00     0.204 C 
HETATM   30  C6  UNL     1       9.781  24.876  13.712  1.00  0.00     0.188 C 
BRANCH  28  31
HETATM   31  O2  UNL     1       7.706  22.897  13.280  1.00  0.00    -0.368 OA
ATOM     32  H2  UNL     1       7.018  23.552  13.315  1.00  0.00     0.212 HD
ENDBRANCH  28  31
BRANCH  29  33
HETATM   33  O3  UNL     1       9.658  25.245  11.404  1.00  0.00    -0.388 OA
ATOM     34  H3  UNL     1       9.099  25.685  10.775  1.00  0.00     0.210 HD
ENDBRANCH  29  33
BRANCH  30  35
HETATM   35  O4  UNL     1       9.026  25.340  14.795  1.00  0.00    -0.390 OA
ATOM     36  H4  UNL     1       8.306  25.893  14.518  1.00  0.00     0.210 HD
ENDBRANCH  30  35
ENDBRANCH   4  26
BRANCH   1  37
HETATM   37  N1  UNL     1      14.515  23.504  11.815  1.00  0.00    -0.234 N 
ATOM     38  H12 UNL     1      14.234  22.875  11.063  1.00  0.00     0.174 HD
ATOM     39  H11 UNL     1      15.322  24.116  11.694  1.00  0.00     0.174 HD
ENDBRANCH   1  37
TORSDOF 15
ENDMDL
MODEL 5
REMARK VINA RESULT: -6.248060319      1.964      2.463
REMARK  15 active torsions:
REMARK  status: ('A' for Active; 'I' for Inactive)
REMARK    1  A    between atoms: N1_1  and  C1_4 
REMARK    2  A    between atoms: C2_7  and  C3_8 
REMARK    3  A    between atoms: C4_10  and  O2_11 
REMARK    4  A    between atoms: C5_13  and  O3_14 
REMARK    5  A    between atoms: C6_16  and  O4_17 
REMARK    6  A    between atoms: C7_21  and  N4_22 
REMARK    7  A    between atoms: N4_22  and  N5_24 
REMARK    8  A    between atoms: C8_26  and  C9_27 
REMARK    9  A    between atoms: C9_27  and  C10_28 
REMARK   10  A    between atoms: C10_28  and  C11_29 
REMARK   11  A    between atoms: C11_29  and  C12_30 
REMARK   12  A    between atoms: C12_30  and  C13_31 
REMARK   13  A    between atoms: C13_31  and  C14_32 
REMARK   14  A    between atoms: C14_32  and  C15_33 
REMARK   15  A    between atoms: C15_33  and  N6_34 
ROOT
HETATM    1  C1  UNL     1       8.224  20.423  12.307  1.00  0.00     0.691 A 
HETATM    2  N2  UNL     1       8.175  21.759  12.373  1.00  0.00    -0.177 N 
ATOM      3  H2  UNL     1       7.586  22.266  11.712  1.00  0.00     0.185 HD
HETATM    4  C2  UNL     1       8.890  22.465  13.300  1.00  0.00     0.145 A 
HETATM    5  N3  UNL     1       9.632  21.738  14.127  1.00  0.00    -0.175 N 
ATOM      6  H3  UNL     1      10.180  22.229  14.834  1.00  0.00     0.185 HD
HETATM    7  C7  UNL     1       9.705  20.398  14.091  1.00  0.00     0.712 A 
HETATM    8  N7  UNL     1       8.999  19.725  13.177  1.00  0.00    -0.021 N 
ATOM      9  H7  UNL     1       9.041  18.707  13.135  1.00  0.00     0.203 HD
ENDROOT
BRANCH   7  10
HETATM   10  N4  UNL     1      10.437  19.746  14.912  1.00  0.00    -0.132 N 
ATOM     11  H4  UNL     1      11.402  20.059  15.022  1.00  0.00     0.205 HD
BRANCH  10  12
HETATM   12  N5  UNL     1      10.046  18.665  15.658  1.00  0.00    -0.301 N 
HETATM   13  C8  UNL     1      10.505  18.492  16.834  1.00  0.00     0.080 C 
ATOM     14  H5  UNL     1       9.382  17.995  15.269  1.00  0.00     0.186 HD
BRANCH  13  15
HETATM   15  C9  UNL     1      11.464  19.459  17.400  1.00  0.00     0.046 C 
BRANCH  15  16
HETATM   16  C10 UNL     1      10.850  19.952  18.718  1.00  0.00     0.005 C 
BRANCH  16  17
HETATM   17  C11 UNL     1      11.862  20.745  19.505  1.00  0.00     0.000 C 
BRANCH  17  18
HETATM   18  C12 UNL     1      13.087  20.928  18.662  1.00  0.00     0.000 C 
BRANCH  18  19
HETATM   19  C13 UNL     1      14.340  20.470  19.350  1.00  0.00     0.002 C 
BRANCH  19  20
HETATM   20  C14 UNL     1      14.331  20.823  20.823  1.00  0.00     0.027 C 
BRANCH  20  21
HETATM   21  C15 UNL     1      14.748  19.581  21.602  1.00  0.00     0.229 C 
BRANCH  21  22
HETATM   22  N6  UNL     1      13.784  18.541  21.320  1.00  0.00    -0.079 N 
ATOM     23  H63 UNL     1      12.825  18.826  21.517  1.00  0.00     0.274 HD
ATOM     24  H62 UNL     1      13.671  18.365  20.321  1.00  0.00     0.274 HD
ATOM     25  H61 UNL     1      14.065  17.709  21.839  1.00  0.00     0.274 HD
ENDBRANCH  21  22
ENDBRANCH  20  21
ENDBRANCH  19  20
ENDBRANCH  18  19
ENDBRANCH  17  18
ENDBRANCH  16  17
ENDBRANCH  15  16
ENDBRANCH  13  15
ENDBRANCH  10  12
ENDBRANCH   7  10
BRANCH   4  26
HETATM   26  C3  UNL     1       8.764  23.943  13.306  1.00  0.00     0.224 C 
HETATM   27  O1  UNL     1       9.297  24.412  12.100  1.00  0.00    -0.343 OA
HETATM   28  C4  UNL     1       9.715  25.714  12.379  1.00  0.00     0.289 C 
HETATM   29  C5  UNL     1      10.455  25.543  13.680  1.00  0.00     0.204 C 
HETATM   30  C6  UNL     1       9.621  24.507  14.390  1.00  0.00     0.188 C 
BRANCH  28  31
HETATM   31  O2  UNL     1       8.610  26.547  12.594  1.00  0.00    -0.368 OA
ATOM     32  H2  UNL     1       8.894  27.439  12.756  1.00  0.00     0.212 HD
ENDBRANCH  28  31
BRANCH  29  33
HETATM   33  O3  UNL     1      11.717  24.986  13.465  1.00  0.00    -0.388 OA
ATOM     34  H3  UNL     1      11.750  24.091  13.781  1.00  0.00     0.210 HD
ENDBRANCH  29  33
BRANCH  30  35
HETATM   35  O4  UNL     1       8.862  25.108  15.400  1.00  0.00    -0.390 OA
ATOM     36  H4  UNL     1       9.357  25.764  15.876  1.00  0.00     0.210 HD
ENDBRANCH  30  35
ENDBRANCH   4  26
BRANCH   1  37
HETATM   37  N1  UNL     1       7.552  19.755  11.435  1.00  0.00    -0.234 N 
ATOM     38  H12 UNL     1       7.207  18.834  11.704  1.00  0.00     0.174 HD
ATOM     39  H11 UNL     1       7.362  20.121  10.503  1.00  0.00     0.174 HD
ENDBRANCH   1  37
TORSDOF 15
ENDMDL
