MODEL 1
REMARK VINA RESULT: -6.985136293      0.000      0.000
REMARK  13 active torsions:
REMARK  status: ('A' for Active; 'I' for Inactive)
REMARK    1  A    between atoms: N1_1  and  C1_4 
REMARK    2  A    between atoms: C2_7  and  N3_8 
REMARK    3  A    between atoms: N6_16  and  C4_17 
REMARK    4  A    between atoms: C6_22  and  C7_23 
REMARK    5  A    between atoms: C7_23  and  C8_24 
REMARK    6  A    between atoms: C8_24  and  C9_25 
REMARK    7  A    between atoms: C9_25  and  N8_26 
REMARK    8  A    between atoms: N8_26  and  C10_29 
REMARK    9  A    between atoms: C10_29  and  C11_30 
REMARK   10  A    between atoms: C11_30  and  C12_31 
REMARK   11  A    between atoms: C12_31  and  C13_32 
REMARK   12  A    between atoms: C13_32  and  N9_33 
REMARK   13  A    between atoms: C14_37  and  O1_38 
ROOT
HETATM    1  C4  UNL     1      10.726  20.402  16.958  1.00  0.00     0.168 C 
HETATM    2  C5  UNL     1      12.165  20.799  16.700  1.00  0.00     0.262 C 
HETATM    3  N7  UNL     1      12.791  20.774  17.985  1.00  0.00    -0.066 N 
ATOM      4  H71 UNL     1      13.002  21.709  18.334  1.00  0.00     0.277 HD
ATOM      5  H72 UNL     1      13.747  20.419  17.946  1.00  0.00     0.277 HD
HETATM    6  C6  UNL     1      11.965  20.025  18.887  1.00  0.00     0.216 C 
HETATM    7  C14 UNL     1      10.904  19.347  18.027  1.00  0.00     0.175 C 
ENDROOT
BRANCH   1   8
HETATM    8  N6  UNL     1      10.115  19.889  15.764  1.00  0.00    -0.251 N 
HETATM    9  N5  UNL     1       9.949  18.658  15.342  1.00  0.00    -0.238 N 
HETATM   10  N4  UNL     1       9.328  18.637  14.174  1.00  0.00    -0.279 N 
ATOM     11  H5  UNL     1      10.257  17.827  15.847  1.00  0.00     0.208 HD
HETATM   12  C3  UNL     1       9.065  19.904  13.793  1.00  0.00     0.140 A 
ATOM     13  H4  UNL     1       9.088  17.798  13.647  1.00  0.00     0.189 HD
HETATM   14  C2  UNL     1       8.465  20.506  12.722  1.00  0.00     0.147 A 
HETATM   15  C15 UNL     1       9.578  20.692  14.827  1.00  0.00     0.171 A 
HETATM   16  N2  UNL     1       8.384  21.841  12.688  1.00  0.00    -0.175 N 
HETATM   17  C1  UNL     1       8.866  22.631  13.664  1.00  0.00     0.679 A 
ATOM     18  H2  UNL     1       7.935  22.281  11.884  1.00  0.00     0.186 HD
HETATM   19  N10 UNL     1       9.455  22.036  14.717  1.00  0.00    -0.173 N 
ATOM     20  H10 UNL     1       9.826  22.623  15.465  1.00  0.00     0.186 HD
BRANCH  14  21
HETATM   21  N3  UNL     1       7.993  19.789  11.771  1.00  0.00    -0.383 N 
ATOM     22  H32 UNL     1       6.988  19.628  11.709  1.00  0.00     0.157 HD
ATOM     23  H31 UNL     1       8.606  19.373  11.069  1.00  0.00     0.157 HD
ENDBRANCH  14  21
BRANCH  17  24
HETATM   24  N1  UNL     1       8.760  23.913  13.582  1.00  0.00    -0.234 N 
ATOM     25  H12 UNL     1       9.394  24.467  13.005  1.00  0.00     0.174 HD
ATOM     26  H11 UNL     1       8.032  24.408  14.097  1.00  0.00     0.174 HD
ENDBRANCH  17  24
ENDBRANCH   1   8
BRANCH   7  27
HETATM   27  O1  UNL     1      11.366  18.158  17.501  1.00  0.00    -0.391 OA
ATOM     28  H1  UNL     1      11.800  17.627  18.158  1.00  0.00     0.210 HD
ENDBRANCH   7  27
BRANCH   6  29
HETATM   29  C7  UNL     1      12.837  19.011  19.585  1.00  0.00     0.037 C 
BRANCH  29  30
HETATM   30  C8  UNL     1      14.243  19.574  19.610  1.00  0.00     0.029 C 
BRANCH  30  31
HETATM   31  C9  UNL     1      14.557  19.893  21.063  1.00  0.00     0.232 C 
BRANCH  31  32
HETATM   32  N8  UNL     1      14.666  18.647  21.767  1.00  0.00    -0.075 N 
ATOM     33  H82 UNL     1      13.788  18.378  22.210  1.00  0.00     0.277 HD
ATOM     34  H81 UNL     1      14.758  17.854  21.132  1.00  0.00     0.277 HD
BRANCH  32  35
HETATM   35  C10 UNL     1      15.743  18.714  22.704  1.00  0.00     0.232 C 
BRANCH  35  36
HETATM   36  C11 UNL     1      16.815  17.725  22.259  1.00  0.00     0.029 C 
BRANCH  36  37
HETATM   37  C12 UNL     1      17.926  18.518  21.628  1.00  0.00     0.029 C 
BRANCH  37  38
HETATM   38  C13 UNL     1      18.020  18.222  20.137  1.00  0.00     0.229 C 
BRANCH  38  39
HETATM   39  N9  UNL     1      18.059  19.431  19.358  1.00  0.00    -0.079 N 
ATOM     40  H93 UNL     1      18.298  20.238  19.934  1.00  0.00     0.274 HD
ATOM     41  H92 UNL     1      18.860  19.442  18.728  1.00  0.00     0.274 HD
ATOM     42  H91 UNL     1      17.186  19.580  18.852  1.00  0.00     0.274 HD
ENDBRANCH  38  39
ENDBRANCH  37  38
ENDBRANCH  36  37
ENDBRANCH  35  36
ENDBRANCH  32  35
ENDBRANCH  31  32
ENDBRANCH  30  31
ENDBRANCH  29  30
ENDBRANCH   6  29
TORSDOF 13
ENDMDL
MODEL 2
REMARK VINA RESULT: -6.973373681      1.306      1.517
REMARK  13 active torsions:
REMARK  status: ('A' for Active; 'I' for Inactive)
REMARK    1  A    between atoms: N1_1  and  C1_4 
REMARK    2  A    between atoms: C2_7  and  N3_8 
REMARK    3  A    between atoms: N6_16  and  C4_17 
REMARK    4  A    between atoms: C6_22  and  C7_23 
REMARK    5  A    between atoms: C7_23  and  C8_24 
REMARK    6  A    between atoms: C8_24  and  C9_25 
REMARK    7  A    between atoms: C9_25  and  N8_26 
REMARK    8  A    between atoms: N8_26  and  C10_29 
REMARK    9  A    between atoms: C10_29  and  C11_30 
REMARK   10  A    between atoms: C11_30  and  C12_31 
REMARK   11  A    between atoms: C12_31  and  C13_32 
REMARK   12  A    between atoms: C13_32  and  N9_33 
REMARK   13  A    between atoms: C14_37  and  O1_38 
ROOT
HETATM    1  C4  UNL     1      10.746  20.393  16.994  1.00  0.00     0.168 C 
HETATM    2  C5  UNL     1      12.187  20.790  16.748  1.00  0.00     0.262 C 
HETATM    3  N7  UNL     1      12.803  20.766  18.038  1.00  0.00    -0.066 N 
ATOM      4  H71 UNL     1      13.010  21.700  18.388  1.00  0.00     0.277 HD
ATOM      5  H72 UNL     1      13.759  20.411  18.006  1.00  0.00     0.277 HD
HETATM    6  C6  UNL     1      11.969  20.016  18.933  1.00  0.00     0.216 C 
HETATM    7  C14 UNL     1      10.916  19.337  18.065  1.00  0.00     0.175 C 
ENDROOT
BRANCH   1   8
HETATM    8  N6  UNL     1      10.145  19.879  15.796  1.00  0.00    -0.251 N 
HETATM    9  N5  UNL     1       9.997  18.649  15.364  1.00  0.00    -0.238 N 
HETATM   10  N4  UNL     1       9.379  18.628  14.195  1.00  0.00    -0.279 N 
ATOM     11  H5  UNL     1      10.315  17.819  15.864  1.00  0.00     0.208 HD
HETATM   12  C3  UNL     1       9.098  19.894  13.822  1.00  0.00     0.140 A 
ATOM     13  H4  UNL     1       9.152  17.790  13.661  1.00  0.00     0.189 HD
HETATM   14  C2  UNL     1       8.493  20.495  12.754  1.00  0.00     0.147 A 
HETATM   15  C15 UNL     1       9.598  20.682  14.863  1.00  0.00     0.171 A 
HETATM   16  N2  UNL     1       8.393  21.829  12.729  1.00  0.00    -0.175 N 
HETATM   17  C1  UNL     1       8.862  22.618  13.712  1.00  0.00     0.679 A 
ATOM     18  H2  UNL     1       7.940  22.268  11.927  1.00  0.00     0.186 HD
HETATM   19  N10 UNL     1       9.457  22.025  14.762  1.00  0.00    -0.173 N 
ATOM     20  H10 UNL     1       9.818  22.612  15.514  1.00  0.00     0.186 HD
BRANCH  14  21
HETATM   21  N3  UNL     1       8.033  19.779  11.797  1.00  0.00    -0.383 N 
ATOM     22  H32 UNL     1       7.950  20.176  10.861  1.00  0.00     0.157 HD
ATOM     23  H31 UNL     1       7.745  18.812  11.952  1.00  0.00     0.157 HD
ENDBRANCH  14  21
BRANCH  17  24
HETATM   24  N1  UNL     1       8.739  23.900  13.638  1.00  0.00    -0.234 N 
ATOM     25  H12 UNL     1       9.318  24.459  13.012  1.00  0.00     0.174 HD
ATOM     26  H11 UNL     1       8.050  24.388  14.210  1.00  0.00     0.174 HD
ENDBRANCH  17  24
ENDBRANCH   1   8
BRANCH   7  27
HETATM   27  O1  UNL     1      11.382  18.149  17.542  1.00  0.00    -0.391 OA
ATOM     28  H1  UNL     1      12.320  18.056  17.662  1.00  0.00     0.210 HD
ENDBRANCH   7  27
BRANCH   6  29
HETATM   29  C7  UNL     1      12.836  19.002  19.638  1.00  0.00     0.037 C 
BRANCH  29  30
HETATM   30  C8  UNL     1      14.138  19.693  19.984  1.00  0.00     0.029 C 
BRANCH  30  31
HETATM   31  C9  UNL     1      14.614  19.092  21.297  1.00  0.00     0.232 C 
BRANCH  31  32
HETATM   32  N8  UNL     1      15.036  17.745  21.029  1.00  0.00    -0.075 N 
ATOM     33  H82 UNL     1      14.419  17.057  21.460  1.00  0.00     0.277 HD
ATOM     34  H81 UNL     1      14.889  17.484  20.054  1.00  0.00     0.277 HD
BRANCH  32  35
HETATM   35  C10 UNL     1      16.397  17.576  21.434  1.00  0.00     0.232 C 
BRANCH  35  36
HETATM   36  C11 UNL     1      16.532  18.105  22.857  1.00  0.00     0.029 C 
BRANCH  36  37
HETATM   37  C12 UNL     1      17.672  17.368  23.505  1.00  0.00     0.029 C 
BRANCH  37  38
HETATM   38  C13 UNL     1      18.503  18.309  24.367  1.00  0.00     0.229 C 
BRANCH  38  39
HETATM   39  N9  UNL     1      19.897  17.954  24.348  1.00  0.00    -0.079 N 
ATOM     40  H93 UNL     1      20.060  17.059  24.809  1.00  0.00     0.274 HD
ATOM     41  H92 UNL     1      20.205  17.707  23.408  1.00  0.00     0.274 HD
ATOM     42  H91 UNL     1      20.478  18.690  24.748  1.00  0.00     0.274 HD
ENDBRANCH  38  39
ENDBRANCH  37  38
ENDBRANCH  36  37
ENDBRANCH  35  36
ENDBRANCH  32  35
ENDBRANCH  31  32
ENDBRANCH  30  31
ENDBRANCH  29  30
ENDBRANCH   6  29
TORSDOF 13
ENDMDL
MODEL 3
REMARK VINA RESULT: -6.832369739      2.364      3.309
REMARK  13 active torsions:
REMARK  status: ('A' for Active; 'I' for Inactive)
REMARK    1  A    between atoms: N1_1  and  C1_4 
REMARK    2  A    between atoms: C2_7  and  N3_8 
REMARK    3  A    between atoms: N6_16  and  C4_17 
REMARK    4  A    between atoms: C6_22  and  C7_23 
REMARK    5  A    between atoms: C7_23  and  C8_24 
REMARK    6  A    between atoms: C8_24  and  C9_25 
REMARK    7  A    between atoms: C9_25  and  N8_26 
REMARK    8  A    between atoms: N8_26  and  C10_29 
REMARK    9  A    between atoms: C10_29  and  C11_30 
REMARK   10  A    between atoms: C11_30  and  C12_31 
REMARK   11  A    between atoms: C12_31  and  C13_32 
REMARK   12  A    between atoms: C13_32  and  N9_33 
REMARK   13  A    between atoms: C14_37  and  O1_38 
ROOT
HETATM    1  C4  UNL     1      11.240  20.444  17.569  1.00  0.00     0.168 C 
HETATM    2  C5  UNL     1      10.723  20.427  18.993  1.00  0.00     0.262 C 
HETATM    3  N7  UNL     1      11.658  19.625  19.717  1.00  0.00    -0.066 N 
ATOM      4  H71 UNL     1      11.273  18.717  19.977  1.00  0.00     0.277 HD
ATOM      5  H72 UNL     1      11.830  19.980  20.658  1.00  0.00     0.277 HD
HETATM    6  C6  UNL     1      12.862  19.511  18.945  1.00  0.00     0.216 C 
HETATM    7  C14 UNL     1      12.733  20.514  17.805  1.00  0.00     0.175 C 
ENDROOT
BRANCH   1   8
HETATM    8  N6  UNL     1      10.735  21.583  16.855  1.00  0.00    -0.251 N 
HETATM    9  N5  UNL     1      10.784  22.865  17.130  1.00  0.00    -0.238 N 
HETATM   10  N4  UNL     1      10.186  23.575  16.188  1.00  0.00    -0.279 N 
ATOM     11  H5  UNL     1      11.225  23.261  17.960  1.00  0.00     0.208 HD
HETATM   12  C3  UNL     1       9.715  22.740  15.239  1.00  0.00     0.140 A 
ATOM     13  H4  UNL     1      10.095  24.591  16.181  1.00  0.00     0.189 HD
HETATM   14  C2  UNL     1       9.032  22.872  14.062  1.00  0.00     0.147 A 
HETATM   15  C15 UNL     1      10.078  21.466  15.686  1.00  0.00     0.171 A 
HETATM   16  N2  UNL     1       8.725  21.774  13.363  1.00  0.00    -0.175 N 
HETATM   17  C1  UNL     1       9.057  20.533  13.761  1.00  0.00     0.679 A 
ATOM     18  H2  UNL     1       8.215  21.882  12.486  1.00  0.00     0.186 HD
HETATM   19  N10 UNL     1       9.729  20.406  14.920  1.00  0.00    -0.173 N 
ATOM     20  H10 UNL     1       9.988  19.470  15.233  1.00  0.00     0.186 HD
BRANCH  14  21
HETATM   21  N3  UNL     1       8.696  24.036  13.648  1.00  0.00    -0.383 N 
ATOM     22  H32 UNL     1       8.455  24.175  12.667  1.00  0.00     0.157 HD
ATOM     23  H31 UNL     1       8.666  24.834  14.283  1.00  0.00     0.157 HD
ENDBRANCH  14  21
BRANCH  17  24
HETATM   24  N1  UNL     1       8.737  19.508  13.047  1.00  0.00    -0.234 N 
ATOM     25  H12 UNL     1       8.152  19.594  12.216  1.00  0.00     0.174 HD
ATOM     26  H11 UNL     1       9.065  18.576  13.301  1.00  0.00     0.174 HD
ENDBRANCH  17  24
ENDBRANCH   1   8
BRANCH   7  27
HETATM   27  O1  UNL     1      13.131  21.776  18.196  1.00  0.00    -0.391 OA
ATOM     28  H1  UNL     1      14.075  21.872  18.167  1.00  0.00     0.210 HD
ENDBRANCH   7  27
BRANCH   6  29
HETATM   29  C7  UNL     1      14.025  19.849  19.846  1.00  0.00     0.037 C 
BRANCH  29  30
HETATM   30  C8  UNL     1      14.200  18.689  20.803  1.00  0.00     0.029 C 
BRANCH  30  31
HETATM   31  C9  UNL     1      15.243  19.120  21.822  1.00  0.00     0.232 C 
BRANCH  31  32
HETATM   32  N8  UNL     1      15.651  17.949  22.547  1.00  0.00    -0.075 N 
ATOM     33  H82 UNL     1      14.977  17.689  23.267  1.00  0.00     0.277 HD
ATOM     34  H81 UNL     1      15.590  17.105  21.977  1.00  0.00     0.277 HD
BRANCH  32  35
HETATM   35  C10 UNL     1      16.962  18.145  23.083  1.00  0.00     0.232 C 
BRANCH  35  36
HETATM   36  C11 UNL     1      17.444  16.810  23.641  1.00  0.00     0.029 C 
BRANCH  36  37
HETATM   37  C12 UNL     1      18.591  17.099  24.570  1.00  0.00     0.029 C 
BRANCH  37  38
HETATM   38  C13 UNL     1      18.618  16.101  25.720  1.00  0.00     0.229 C 
BRANCH  38  39
HETATM   39  N9  UNL     1      19.924  16.016  26.318  1.00  0.00    -0.079 N 
ATOM     40  H93 UNL     1      20.657  16.249  25.647  1.00  0.00     0.274 HD
ATOM     41  H92 UNL     1      20.076  16.769  26.988  1.00  0.00     0.274 HD
ATOM     42  H91 UNL     1      20.085  15.103  26.742  1.00  0.00     0.274 HD
ENDBRANCH  38  39
ENDBRANCH  37  38
ENDBRANCH  36  37
ENDBRANCH  35  36
ENDBRANCH  32  35
ENDBRANCH  31  32
ENDBRANCH  30  31
ENDBRANCH  29  30
ENDBRANCH   6  29
TORSDOF 13
ENDMDL
MODEL 4
REMARK VINA RESULT: -6.817296426      1.994      2.292
REMARK  13 active torsions:
REMARK  status: ('A' for Active; 'I' for Inactive)
REMARK    1  A    between atoms: N1_1  and  C1_4 
REMARK    2  A    between atoms: C2_7  and  N3_8 
REMARK    3  A    between atoms: N6_16  and  C4_17 
REMARK    4  A    between atoms: C6_22  and  C7_23 
REMARK    5  A    between atoms: C7_23  and  C8_24 
REMARK    6  A    between atoms: C8_24  and  C9_25 
REMARK    7  A    between atoms: C9_25  and  N8_26 
REMARK    8  A    between atoms: N8_26  and  C10_29 
REMARK    9  A    between atoms: C10_29  and  C11_30 
REMARK   10  A    between atoms: C11_30  and  C12_31 
REMARK   11  A    between atoms: C12_31  and  C13_32 
REMARK   12  A    between atoms: C13_32  and  N9_33 
REMARK   13  A    between atoms: C14_37  and  O1_38 
ROOT
HETATM    1  C4  UNL     1      11.238  19.927  17.800  1.00  0.00     0.168 C 
HETATM    2  C5  UNL     1      12.613  20.511  17.547  1.00  0.00     0.262 C 
HETATM    3  N7  UNL     1      13.302  20.388  18.793  1.00  0.00    -0.066 N 
ATOM      4  H71 UNL     1      13.430  21.287  19.258  1.00  0.00     0.277 HD
ATOM      5  H72 UNL     1      14.286  20.150  18.672  1.00  0.00     0.277 HD
HETATM    6  C6  UNL     1      12.604  19.441  19.614  1.00  0.00     0.216 C 
HETATM    7  C14 UNL     1      11.579  18.767  18.709  1.00  0.00     0.175 C 
ENDROOT
BRANCH   1   8
HETATM    8  N6  UNL     1      10.625  19.510  16.570  1.00  0.00    -0.251 N 
HETATM    9  N5  UNL     1      10.416  18.314  16.074  1.00  0.00    -0.238 N 
HETATM   10  N4  UNL     1       9.813  18.387  14.899  1.00  0.00    -0.279 N 
ATOM     11  H5  UNL     1      10.682  17.443  16.532  1.00  0.00     0.208 HD
HETATM   12  C3  UNL     1       9.607  19.684  14.590  1.00  0.00     0.140 A 
ATOM     13  H4  UNL     1       9.547  17.591  14.319  1.00  0.00     0.189 HD
HETATM   14  C2  UNL     1       9.048  20.372  13.548  1.00  0.00     0.147 A 
HETATM   15  C15 UNL     1      10.135  20.389  15.675  1.00  0.00     0.171 A 
HETATM   16  N2  UNL     1       9.022  21.708  13.592  1.00  0.00    -0.175 N 
HETATM   17  C1  UNL     1       9.520  22.419  14.619  1.00  0.00     0.679 A 
ATOM     18  H2  UNL     1       8.603  22.213  12.810  1.00  0.00     0.186 HD
HETATM   19  N10 UNL     1      10.069  21.740  15.643  1.00  0.00    -0.173 N 
ATOM     20  H10 UNL     1      10.451  22.267  16.428  1.00  0.00     0.186 HD
BRANCH  14  21
HETATM   21  N3  UNL     1       8.563  19.732  12.550  1.00  0.00    -0.383 N 
ATOM     22  H32 UNL     1       8.236  20.243  11.731  1.00  0.00     0.157 HD
ATOM     23  H31 UNL     1       8.495  18.714  12.559  1.00  0.00     0.157 HD
ENDBRANCH  14  21
BRANCH  17  24
HETATM   24  N1  UNL     1       9.468  23.707  14.611  1.00  0.00    -0.234 N 
ATOM     25  H12 UNL     1      10.079  24.265  14.014  1.00  0.00     0.174 HD
ATOM     26  H11 UNL     1       8.806  24.203  15.208  1.00  0.00     0.174 HD
ENDBRANCH  17  24
ENDBRANCH   1   8
BRANCH   7  27
HETATM   27  O1  UNL     1      12.136  17.717  18.010  1.00  0.00    -0.391 OA
ATOM     28  H1  UNL     1      12.796  17.263  18.522  1.00  0.00     0.210 HD
ENDBRANCH   7  27
BRANCH   6  29
HETATM   29  C7  UNL     1      13.613  18.447  20.136  1.00  0.00     0.037 C 
BRANCH  29  30
HETATM   30  C8  UNL     1      14.869  19.222  20.474  1.00  0.00     0.029 C 
BRANCH  30  31
HETATM   31  C9  UNL     1      14.998  19.200  21.989  1.00  0.00     0.232 C 
BRANCH  31  32
HETATM   32  N8  UNL     1      15.604  17.951  22.354  1.00  0.00    -0.075 N 
ATOM     33  H82 UNL     1      14.961  17.346  22.864  1.00  0.00     0.277 HD
ATOM     34  H81 UNL     1      15.762  17.350  21.545  1.00  0.00     0.277 HD
BRANCH  32  35
HETATM   35  C10 UNL     1      16.808  18.194  23.088  1.00  0.00     0.232 C 
BRANCH  35  36
HETATM   36  C11 UNL     1      17.334  16.851  23.584  1.00  0.00     0.029 C 
BRANCH  36  37
HETATM   37  C12 UNL     1      18.516  17.131  24.472  1.00  0.00     0.029 C 
BRANCH  37  38
HETATM   38  C13 UNL     1      18.562  16.148  25.634  1.00  0.00     0.229 C 
BRANCH  38  39
HETATM   39  N9  UNL     1      19.821  16.207  26.328  1.00  0.00    -0.079 N 
ATOM     40  H93 UNL     1      20.462  15.484  25.998  1.00  0.00     0.274 HD
ATOM     41  H92 UNL     1      20.357  17.031  26.057  1.00  0.00     0.274 HD
ATOM     42  H91 UNL     1      19.695  16.160  27.339  1.00  0.00     0.274 HD
ENDBRANCH  38  39
ENDBRANCH  37  38
ENDBRANCH  36  37
ENDBRANCH  35  36
ENDBRANCH  32  35
ENDBRANCH  31  32
ENDBRANCH  30  31
ENDBRANCH  29  30
ENDBRANCH   6  29
TORSDOF 13
ENDMDL
MODEL 5
REMARK VINA RESULT: -6.810336595      9.853     12.301
REMARK  13 active torsions:
REMARK  status: ('A' for Active; 'I' for Inactive)
REMARK    1  A    between atoms: N1_1  and  C1_4 
REMARK    2  A    between atoms: C2_7  and  N3_8 
REMARK    3  A    between atoms: N6_16  and  C4_17 
REMARK    4  A    between atoms: C6_22  and  C7_23 
REMARK    5  A    between atoms: C7_23  and  C8_24 
REMARK    6  A    between atoms: C8_24  and  C9_25 
REMARK    7  A    between atoms: C9_25  and  N8_26 
REMARK    8  A    between atoms: N8_26  and  C10_29 
REMARK    9  A    between atoms: C10_29  and  C11_30 
REMARK   10  A    between atoms: C11_30  and  C12_31 
REMARK   11  A    between atoms: C12_31  and  C13_32 
REMARK   12  A    between atoms: C13_32  and  N9_33 
REMARK   13  A    between atoms: C14_37  and  O1_38 
ROOT
HETATM    1  C4  UNL     1      21.161  20.240  22.714  1.00  0.00     0.168 C 
HETATM    2  C5  UNL     1      20.849  21.652  22.259  1.00  0.00     0.262 C 
HETATM    3  N7  UNL     1      22.114  22.211  21.898  1.00  0.00    -0.066 N 
ATOM      4  H71 UNL     1      22.435  22.912  22.566  1.00  0.00     0.277 HD
ATOM      5  H72 UNL     1      22.053  22.816  21.079  1.00  0.00     0.277 HD
HETATM    6  C6  UNL     1      23.058  21.145  21.724  1.00  0.00     0.216 C 
HETATM    7  C14 UNL     1      22.247  19.854  21.734  1.00  0.00     0.175 C 
ENDROOT
BRANCH   1   8
HETATM    8  N6  UNL     1      19.999  19.403  22.616  1.00  0.00    -0.251 N 
HETATM    9  N5  UNL     1      19.095  19.290  21.672  1.00  0.00    -0.238 N 
HETATM   10  N4  UNL     1      18.184  18.386  21.994  1.00  0.00    -0.279 N 
ATOM     11  H5  UNL     1      19.093  19.827  20.805  1.00  0.00     0.208 HD
HETATM   12  C3  UNL     1      18.486  17.867  23.202  1.00  0.00     0.140 A 
ATOM     13  H4  UNL     1      17.383  18.123  21.420  1.00  0.00     0.189 HD
HETATM   14  C2  UNL     1      17.942  16.929  24.035  1.00  0.00     0.147 A 
HETATM   15  C15 UNL     1      19.654  18.533  23.585  1.00  0.00     0.171 A 
HETATM   16  N2  UNL     1      18.543  16.669  25.201  1.00  0.00    -0.175 N 
HETATM   17  C1  UNL     1      19.667  17.290  25.602  1.00  0.00     0.679 A 
ATOM     18  H2  UNL     1      18.130  15.967  25.816  1.00  0.00     0.186 HD
HETATM   19  N10 UNL     1      20.200  18.213  24.781  1.00  0.00    -0.173 N 
ATOM     20  H10 UNL     1      21.053  18.691  25.072  1.00  0.00     0.186 HD
BRANCH  14  21
HETATM   21  N3  UNL     1      16.872  16.315  23.690  1.00  0.00    -0.383 N 
ATOM     22  H32 UNL     1      16.046  16.364  24.286  1.00  0.00     0.157 HD
ATOM     23  H31 UNL     1      16.829  15.775  22.826  1.00  0.00     0.157 HD
ENDBRANCH  14  21
BRANCH  17  24
HETATM   24  N1  UNL     1      20.207  17.001  26.737  1.00  0.00    -0.234 N 
ATOM     25  H12 UNL     1      20.309  17.697  27.475  1.00  0.00     0.174 HD
ATOM     26  H11 UNL     1      20.547  16.058  26.924  1.00  0.00     0.174 HD
ENDBRANCH  17  24
ENDBRANCH   1   8
BRANCH   7  27
HETATM   27  O1  UNL     1      21.733  19.572  20.486  1.00  0.00    -0.391 OA
ATOM     28  H1  UNL     1      21.991  18.708  20.186  1.00  0.00     0.210 HD
ENDBRANCH   7  27
BRANCH   6  29
HETATM   29  C7  UNL     1      23.750  21.349  20.399  1.00  0.00     0.037 C 
BRANCH  29  30
HETATM   30  C8  UNL     1      25.066  20.601  20.465  1.00  0.00     0.029 C 
BRANCH  30  31
HETATM   31  C9  UNL     1      25.299  20.010  19.083  1.00  0.00     0.232 C 
BRANCH  31  32
HETATM   32  N8  UNL     1      24.039  19.514  18.606  1.00  0.00    -0.075 N 
ATOM     33  H82 UNL     1      23.471  19.123  19.357  1.00  0.00     0.277 HD
ATOM     34  H81 UNL     1      23.412  20.267  18.324  1.00  0.00     0.277 HD
BRANCH  32  35
HETATM   35  C10 UNL     1      24.258  18.573  17.552  1.00  0.00     0.232 C 
BRANCH  35  36
HETATM   36  C11 UNL     1      23.868  17.191  18.068  1.00  0.00     0.029 C 
BRANCH  36  37
HETATM   37  C12 UNL     1      24.133  16.207  16.961  1.00  0.00     0.029 C 
BRANCH  37  38
HETATM   38  C13 UNL     1      23.775  14.793  17.401  1.00  0.00     0.229 C 
BRANCH  38  39
HETATM   39  N9  UNL     1      22.998  14.795  18.611  1.00  0.00    -0.079 N 
ATOM     40  H93 UNL     1      23.476  14.296  19.362  1.00  0.00     0.274 HD
ATOM     41  H92 UNL     1      22.966  15.723  19.032  1.00  0.00     0.274 HD
ATOM     42  H91 UNL     1      22.060  14.425  18.456  1.00  0.00     0.274 HD
ENDBRANCH  38  39
ENDBRANCH  37  38
ENDBRANCH  36  37
ENDBRANCH  35  36
ENDBRANCH  32  35
ENDBRANCH  31  32
ENDBRANCH  30  31
ENDBRANCH  29  30
ENDBRANCH   6  29
TORSDOF 13
ENDMDL
