MODEL 1
REMARK VINA RESULT: -6.904208697      0.000      0.000
REMARK  12 active torsions:
REMARK  status: ('A' for Active; 'I' for Inactive)
REMARK    1  A    between atoms: C2_2  and  N1_3 
REMARK    2  A    between atoms: N1_3  and  C3_6 
REMARK    3  A    between atoms: C3_6  and  C4_7 
REMARK    4  A    between atoms: C4_7  and  N2_8 
REMARK    5  A    between atoms: N2_8  and  C5_10 
REMARK    6  A    between atoms: C5_10  and  C6_11 
REMARK    7  A    between atoms: C6_11  and  C7_12 
REMARK    8  A    between atoms: C8_14  and  N3_15 
REMARK    9  A    between atoms: C11_20  and  N5_21 
REMARK   10  A    between atoms: C12_26  and  N7_27 
REMARK   11  A    between atoms: C14_33  and  O2_34 
REMARK   12  A    between atoms: C15_36  and  O3_37 
ROOT
HETATM    1  C7  UNL     1      11.263  22.281  17.862  1.00  0.00     0.157 C 
HETATM    2  O1  UNL     1      10.226  21.766  17.077  1.00  0.00    -0.355 OA
HETATM    3  C8  UNL     1      10.814  20.790  16.341  1.00  0.00     0.262 C 
HETATM    4  C14 UNL     1      12.186  21.232  15.991  1.00  0.00     0.198 C 
HETATM    5  C15 UNL     1      12.428  22.417  16.898  1.00  0.00     0.180 C 
ENDROOT
BRANCH   3   6
HETATM    6  N3  UNL     1      10.053  20.319  15.203  1.00  0.00    -0.297 N 
HETATM    7  C9  UNL     1       9.838  19.033  14.862  1.00  0.00     0.188 A 
HETATM    8  N4  UNL     1       9.108  18.951  13.759  1.00  0.00    -0.346 N 
HETATM    9  C10 UNL     1       8.831  20.207  13.356  1.00  0.00     0.123 A 
ATOM     10  H4  UNL     1       8.809  18.092  13.297  1.00  0.00     0.167 HD
HETATM   11  C11 UNL     1       8.117  20.702  12.284  1.00  0.00     0.145 A 
HETATM   12  C13 UNL     1       9.431  21.057  14.274  1.00  0.00     0.157 A 
HETATM   13  N6  UNL     1       8.023  22.036  12.159  1.00  0.00    -0.175 N 
HETATM   14  C12 UNL     1       8.618  22.834  13.067  1.00  0.00     0.679 A 
ATOM     15  H6  UNL     1       7.505  22.443  11.381  1.00  0.00     0.186 HD
HETATM   16  N8  UNL     1       9.318  22.403  14.121  1.00  0.00    -0.174 N 
ATOM     17  H8  UNL     1       9.747  23.053  14.779  1.00  0.00     0.186 HD
BRANCH  11  18
HETATM   18  N5  UNL     1       7.565  19.888  11.433  1.00  0.00    -0.383 N 
ATOM     19  H52 UNL     1       8.117  19.319  10.791  1.00  0.00     0.157 HD
ATOM     20  H51 UNL     1       6.549  19.799  11.392  1.00  0.00     0.157 HD
ENDBRANCH  11  18
BRANCH  14  21
HETATM   21  N7  UNL     1       8.486  24.105  12.886  1.00  0.00    -0.234 N 
ATOM     22  H72 UNL     1       7.900  24.635  13.531  1.00  0.00     0.174 HD
ATOM     23  H71 UNL     1       8.987  24.504  12.092  1.00  0.00     0.174 HD
ENDBRANCH  14  21
ENDBRANCH   3   6
BRANCH   4  24
HETATM   24  O2  UNL     1      12.335  21.670  14.680  1.00  0.00    -0.388 OA
ATOM     25  H2  UNL     1      13.176  22.067  14.490  1.00  0.00     0.210 HD
ENDBRANCH   4  24
BRANCH   1  26
HETATM   26  C6  UNL     1      11.555  21.392  19.022  1.00  0.00     0.054 C 
BRANCH  26  27
HETATM   27  C5  UNL     1      12.352  22.024  20.111  1.00  0.00     0.116 C 
BRANCH  27  28
HETATM   28  N2  UNL     1      13.711  21.524  20.103  1.00  0.00    -0.419 N 
ATOM     29  H2  UNL     1      14.504  22.108  20.371  1.00  0.00     0.153 HD
BRANCH  28  30
HETATM   30  C4  UNL     1      13.875  20.174  19.700  1.00  0.00     0.141 C 
BRANCH  30  31
HETATM   31  C3  UNL     1      13.918  19.184  20.813  1.00  0.00     0.251 C 
BRANCH  31  32
HETATM   32  N1  UNL     1      13.052  18.074  20.492  1.00  0.00    -0.074 N 
ATOM     33  H12 UNL     1      12.143  18.192  20.939  1.00  0.00     0.277 HD
ATOM     34  H11 UNL     1      13.370  17.227  20.964  1.00  0.00     0.277 HD
BRANCH  32  35
HETATM   35  C2  UNL     1      12.892  17.834  19.090  1.00  0.00     0.228 C 
HETATM   36  C1  UNL     1      13.572  16.581  18.595  1.00  0.00     0.034 C 
ENDBRANCH  32  35
ENDBRANCH  31  32
ENDBRANCH  30  31
ENDBRANCH  28  30
ENDBRANCH  27  28
ENDBRANCH  26  27
ENDBRANCH   1  26
BRANCH   5  37
HETATM   37  O3  UNL     1      12.269  23.626  16.219  1.00  0.00    -0.390 OA
ATOM     38  H3  UNL     1      12.181  23.423  15.295  1.00  0.00     0.210 HD
ENDBRANCH   5  37
TORSDOF 12
ENDMDL
MODEL 2
REMARK VINA RESULT: -6.865020887      0.904      1.447
REMARK  12 active torsions:
REMARK  status: ('A' for Active; 'I' for Inactive)
REMARK    1  A    between atoms: C2_2  and  N1_3 
REMARK    2  A    between atoms: N1_3  and  C3_6 
REMARK    3  A    between atoms: C3_6  and  C4_7 
REMARK    4  A    between atoms: C4_7  and  N2_8 
REMARK    5  A    between atoms: N2_8  and  C5_10 
REMARK    6  A    between atoms: C5_10  and  C6_11 
REMARK    7  A    between atoms: C6_11  and  C7_12 
REMARK    8  A    between atoms: C8_14  and  N3_15 
REMARK    9  A    between atoms: C11_20  and  N5_21 
REMARK   10  A    between atoms: C12_26  and  N7_27 
REMARK   11  A    between atoms: C14_33  and  O2_34 
REMARK   12  A    between atoms: C15_36  and  O3_37 
ROOT
HETATM    1  C7  UNL     1      11.089  21.995  18.173  1.00  0.00     0.157 C 
HETATM    2  O1  UNL     1      10.071  21.596  17.302  1.00  0.00    -0.355 OA
HETATM    3  C8  UNL     1      10.627  20.598  16.569  1.00  0.00     0.262 C 
HETATM    4  C14 UNL     1      12.052  20.934  16.330  1.00  0.00     0.198 C 
HETATM    5  C15 UNL     1      12.326  22.065  17.296  1.00  0.00     0.180 C 
ENDROOT
BRANCH   3   6
HETATM    6  N3  UNL     1       9.912  20.230  15.366  1.00  0.00    -0.297 N 
HETATM    7  C9  UNL     1       9.667  18.978  14.933  1.00  0.00     0.188 A 
HETATM    8  N4  UNL     1       8.995  18.995  13.790  1.00  0.00    -0.346 N 
HETATM    9  C10 UNL     1       8.789  20.283  13.454  1.00  0.00     0.123 A 
ATOM     10  H4  UNL     1       8.690  18.179  13.259  1.00  0.00     0.167 HD
HETATM   11  C11 UNL     1       8.155  20.872  12.380  1.00  0.00     0.145 A 
HETATM   12  C13 UNL     1       9.370  21.050  14.454  1.00  0.00     0.157 A 
HETATM   13  N6  UNL     1       8.119  22.214  12.336  1.00  0.00    -0.175 N 
HETATM   14  C12 UNL     1       8.693  22.929  13.322  1.00  0.00     0.679 A 
ATOM     15  H6  UNL     1       7.660  22.689  11.559  1.00  0.00     0.186 HD
HETATM   16  N8  UNL     1       9.317  22.405  14.382  1.00  0.00    -0.174 N 
ATOM     17  H8  UNL     1       9.734  22.995  15.102  1.00  0.00     0.186 HD
BRANCH  11  18
HETATM   18  N5  UNL     1       7.619  20.136  11.451  1.00  0.00    -0.383 N 
ATOM     19  H52 UNL     1       8.180  19.675  10.735  1.00  0.00     0.157 HD
ATOM     20  H51 UNL     1       6.609  20.000  11.422  1.00  0.00     0.157 HD
ENDBRANCH  11  18
BRANCH  14  21
HETATM   21  N7  UNL     1       8.621  24.214  13.216  1.00  0.00    -0.234 N 
ATOM     22  H72 UNL     1       9.369  24.710  12.734  1.00  0.00     0.174 HD
ATOM     23  H71 UNL     1       7.802  24.657  13.633  1.00  0.00     0.174 HD
ENDBRANCH  14  21
ENDBRANCH   3   6
BRANCH   4  24
HETATM   24  O2  UNL     1      12.328  21.401  15.050  1.00  0.00    -0.388 OA
ATOM     25  H2  UNL     1      12.258  20.744  14.367  1.00  0.00     0.210 HD
ENDBRANCH   4  24
BRANCH   1  26
HETATM   26  C6  UNL     1      11.224  21.048  19.315  1.00  0.00     0.054 C 
BRANCH  26  27
HETATM   27  C5  UNL     1      12.628  20.727  19.701  1.00  0.00     0.116 C 
BRANCH  27  28
HETATM   28  N2  UNL     1      12.746  19.333  20.076  1.00  0.00    -0.419 N 
ATOM     29  H2  UNL     1      12.741  19.033  21.051  1.00  0.00     0.153 HD
BRANCH  28  30
HETATM   30  C4  UNL     1      12.867  18.409  19.007  1.00  0.00     0.141 C 
BRANCH  30  31
HETATM   31  C3  UNL     1      14.066  17.526  19.069  1.00  0.00     0.251 C 
BRANCH  31  32
HETATM   32  N1  UNL     1      14.386  17.259  20.451  1.00  0.00    -0.074 N 
ATOM     33  H12 UNL     1      14.191  16.283  20.678  1.00  0.00     0.277 HD
ATOM     34  H11 UNL     1      13.715  17.718  21.067  1.00  0.00     0.277 HD
BRANCH  32  35
HETATM   35  C2  UNL     1      15.724  17.602  20.826  1.00  0.00     0.228 C 
HETATM   36  C1  UNL     1      15.814  18.603  21.953  1.00  0.00     0.034 C 
ENDBRANCH  32  35
ENDBRANCH  31  32
ENDBRANCH  30  31
ENDBRANCH  28  30
ENDBRANCH  27  28
ENDBRANCH  26  27
ENDBRANCH   1  26
BRANCH   5  37
HETATM   37  O3  UNL     1      12.314  23.304  16.654  1.00  0.00    -0.390 OA
ATOM     38  H3  UNL     1      12.298  23.140  15.719  1.00  0.00     0.210 HD
ENDBRANCH   5  37
TORSDOF 12
ENDMDL
MODEL 3
REMARK VINA RESULT: -6.824566179      1.384      1.855
REMARK  12 active torsions:
REMARK  status: ('A' for Active; 'I' for Inactive)
REMARK    1  A    between atoms: C2_2  and  N1_3 
REMARK    2  A    between atoms: N1_3  and  C3_6 
REMARK    3  A    between atoms: C3_6  and  C4_7 
REMARK    4  A    between atoms: C4_7  and  N2_8 
REMARK    5  A    between atoms: N2_8  and  C5_10 
REMARK    6  A    between atoms: C5_10  and  C6_11 
REMARK    7  A    between atoms: C6_11  and  C7_12 
REMARK    8  A    between atoms: C8_14  and  N3_15 
REMARK    9  A    between atoms: C11_20  and  N5_21 
REMARK   10  A    between atoms: C12_26  and  N7_27 
REMARK   11  A    between atoms: C14_33  and  O2_34 
REMARK   12  A    between atoms: C15_36  and  O3_37 
ROOT
HETATM    1  C7  UNL     1      11.122  21.848  18.275  1.00  0.00     0.157 C 
HETATM    2  O1  UNL     1      10.121  21.427  17.394  1.00  0.00    -0.355 OA
HETATM    3  C8  UNL     1      10.702  20.435  16.674  1.00  0.00     0.262 C 
HETATM    4  C14 UNL     1      12.124  20.793  16.450  1.00  0.00     0.198 C 
HETATM    5  C15 UNL     1      12.368  21.933  17.413  1.00  0.00     0.180 C 
ENDROOT
BRANCH   3   6
HETATM    6  N3  UNL     1      10.008  20.049  15.464  1.00  0.00    -0.297 N 
HETATM    7  C9  UNL     1       9.797  18.792  15.029  1.00  0.00     0.188 A 
HETATM    8  N4  UNL     1       9.136  18.792  13.880  1.00  0.00    -0.346 N 
HETATM    9  C10 UNL     1       8.901  20.075  13.542  1.00  0.00     0.123 A 
ATOM     10  H4  UNL     1       8.856  17.969  13.346  1.00  0.00     0.167 HD
HETATM   11  C11 UNL     1       8.261  20.648  12.462  1.00  0.00     0.145 A 
HETATM   12  C13 UNL     1       9.453  20.855  14.548  1.00  0.00     0.157 A 
HETATM   13  N6  UNL     1       8.192  21.989  12.418  1.00  0.00    -0.175 N 
HETATM   14  C12 UNL     1       8.739  22.718  13.409  1.00  0.00     0.679 A 
ATOM     15  H6  UNL     1       7.728  22.452  11.637  1.00  0.00     0.186 HD
HETATM   16  N8  UNL     1       9.367  22.209  14.474  1.00  0.00    -0.174 N 
ATOM     17  H8  UNL     1       9.762  22.809  15.198  1.00  0.00     0.186 HD
BRANCH  11  18
HETATM   18  N5  UNL     1       7.753  19.899  11.529  1.00  0.00    -0.383 N 
ATOM     19  H52 UNL     1       7.999  18.914  11.431  1.00  0.00     0.157 HD
ATOM     20  H51 UNL     1       7.082  20.289  10.866  1.00  0.00     0.157 HD
ENDBRANCH  11  18
BRANCH  14  21
HETATM   21  N7  UNL     1       8.635  24.000  13.303  1.00  0.00    -0.234 N 
ATOM     22  H72 UNL     1       9.348  24.509  12.781  1.00  0.00     0.174 HD
ATOM     23  H71 UNL     1       7.830  24.429  13.760  1.00  0.00     0.174 HD
ENDBRANCH  14  21
ENDBRANCH   3   6
BRANCH   4  24
HETATM   24  O2  UNL     1      12.407  21.257  15.170  1.00  0.00    -0.388 OA
ATOM     25  H2  UNL     1      11.647  21.358  14.610  1.00  0.00     0.210 HD
ENDBRANCH   4  24
BRANCH   1  26
HETATM   26  C6  UNL     1      11.259  20.908  19.424  1.00  0.00     0.054 C 
BRANCH  26  27
HETATM   27  C5  UNL     1      12.663  20.628  19.841  1.00  0.00     0.116 C 
BRANCH  27  28
HETATM   28  N2  UNL     1      12.809  19.241  20.233  1.00  0.00    -0.419 N 
ATOM     29  H2  UNL     1      12.015  18.601  20.260  1.00  0.00     0.153 HD
BRANCH  28  30
HETATM   30  C4  UNL     1      14.121  18.826  20.575  1.00  0.00     0.141 C 
BRANCH  30  31
HETATM   31  C3  UNL     1      14.767  19.612  21.664  1.00  0.00     0.251 C 
BRANCH  31  32
HETATM   32  N1  UNL     1      15.203  18.711  22.704  1.00  0.00    -0.074 N 
ATOM     33  H12 UNL     1      14.434  18.108  22.996  1.00  0.00     0.277 HD
ATOM     34  H11 UNL     1      15.364  19.221  23.573  1.00  0.00     0.277 HD
BRANCH  32  35
HETATM   35  C2  UNL     1      16.352  17.927  22.365  1.00  0.00     0.228 C 
HETATM   36  C1  UNL     1      17.471  18.000  23.376  1.00  0.00     0.034 C 
ENDBRANCH  32  35
ENDBRANCH  31  32
ENDBRANCH  30  31
ENDBRANCH  28  30
ENDBRANCH  27  28
ENDBRANCH  26  27
ENDBRANCH   1  26
BRANCH   5  37
HETATM   37  O3  UNL     1      12.344  23.168  16.764  1.00  0.00    -0.390 OA
ATOM     38  H3  UNL     1      12.203  23.002  15.840  1.00  0.00     0.210 HD
ENDBRANCH   5  37
TORSDOF 12
ENDMDL
MODEL 4
REMARK VINA RESULT: -6.688163398      3.288      5.469
REMARK  12 active torsions:
REMARK  status: ('A' for Active; 'I' for Inactive)
REMARK    1  A    between atoms: C2_2  and  N1_3 
REMARK    2  A    between atoms: N1_3  and  C3_6 
REMARK    3  A    between atoms: C3_6  and  C4_7 
REMARK    4  A    between atoms: C4_7  and  N2_8 
REMARK    5  A    between atoms: N2_8  and  C5_10 
REMARK    6  A    between atoms: C5_10  and  C6_11 
REMARK    7  A    between atoms: C6_11  and  C7_12 
REMARK    8  A    between atoms: C8_14  and  N3_15 
REMARK    9  A    between atoms: C11_20  and  N5_21 
REMARK   10  A    between atoms: C12_26  and  N7_27 
REMARK   11  A    between atoms: C14_33  and  O2_34 
REMARK   12  A    between atoms: C15_36  and  O3_37 
ROOT
HETATM    1  C7  UNL     1       9.837  20.350  14.113  1.00  0.00     0.157 C 
HETATM    2  O1  UNL     1      10.614  21.511  14.051  1.00  0.00    -0.355 OA
HETATM    3  C8  UNL     1       9.721  22.522  14.192  1.00  0.00     0.262 C 
HETATM    4  C14 UNL     1       8.469  22.139  13.496  1.00  0.00     0.198 C 
HETATM    5  C15 UNL     1       8.635  20.659  13.237  1.00  0.00     0.180 C 
ENDROOT
BRANCH   3   6
HETATM    6  N3  UNL     1      10.202  23.838  13.829  1.00  0.00    -0.297 N 
HETATM    7  C9  UNL     1       9.640  25.016  14.166  1.00  0.00     0.188 A 
HETATM    8  N4  UNL     1      10.328  26.031  13.663  1.00  0.00    -0.346 N 
HETATM    9  C10 UNL     1      11.370  25.520  12.977  1.00  0.00     0.123 A 
ATOM     10  H4  UNL     1      10.109  27.021  13.774  1.00  0.00     0.167 HD
HETATM   11  C11 UNL     1      12.391  26.113  12.263  1.00  0.00     0.145 A 
HETATM   12  C13 UNL     1      11.278  24.140  13.091  1.00  0.00     0.157 A 
HETATM   13  N6  UNL     1      13.295  25.307  11.681  1.00  0.00    -0.175 N 
HETATM   14  C12 UNL     1      13.178  23.971  11.811  1.00  0.00     0.679 A 
ATOM     15  H6  UNL     1      14.066  25.704  11.145  1.00  0.00     0.186 HD
HETATM   16  N8  UNL     1      12.208  23.352  12.491  1.00  0.00    -0.174 N 
ATOM     17  H8  UNL     1      12.169  22.334  12.558  1.00  0.00     0.186 HD
BRANCH  11  18
HETATM   18  N5  UNL     1      12.457  27.408  12.166  1.00  0.00    -0.383 N 
ATOM     19  H52 UNL     1      11.758  27.949  11.656  1.00  0.00     0.157 HD
ATOM     20  H51 UNL     1      13.221  27.918  12.609  1.00  0.00     0.157 HD
ENDBRANCH  11  18
BRANCH  14  21
HETATM   21  N7  UNL     1      14.081  23.257  11.227  1.00  0.00    -0.234 N 
ATOM     22  H72 UNL     1      14.814  23.729  10.699  1.00  0.00     0.174 HD
ATOM     23  H71 UNL     1      13.999  22.246  11.334  1.00  0.00     0.174 HD
ENDBRANCH  14  21
ENDBRANCH   3   6
BRANCH   4  24
HETATM   24  O2  UNL     1       8.278  22.760  12.267  1.00  0.00    -0.388 OA
ATOM     25  H2  UNL     1       7.641  22.336  11.705  1.00  0.00     0.210 HD
ENDBRANCH   4  24
BRANCH   1  26
HETATM   26  C6  UNL     1       9.475  20.017  15.519  1.00  0.00     0.054 C 
BRANCH  26  27
HETATM   27  C5  UNL     1      10.632  19.881  16.449  1.00  0.00     0.116 C 
BRANCH  27  28
HETATM   28  N2  UNL     1      10.735  21.045  17.306  1.00  0.00    -0.419 N 
ATOM     29  H2  UNL     1       9.947  21.378  17.861  1.00  0.00     0.153 HD
BRANCH  28  30
HETATM   30  C4  UNL     1      11.996  21.693  17.326  1.00  0.00     0.141 C 
BRANCH  30  31
HETATM   31  C3  UNL     1      11.963  23.149  17.009  1.00  0.00     0.251 C 
BRANCH  31  32
HETATM   32  N1  UNL     1      13.031  23.456  16.087  1.00  0.00    -0.074 N 
ATOM     33  H12 UNL     1      13.681  24.120  16.506  1.00  0.00     0.277 HD
ATOM     34  H11 UNL     1      12.681  24.020  15.313  1.00  0.00     0.277 HD
BRANCH  32  35
HETATM   35  C2  UNL     1      13.734  22.311  15.593  1.00  0.00     0.228 C 
HETATM   36  C1  UNL     1      15.022  22.638  14.877  1.00  0.00     0.034 C 
ENDBRANCH  32  35
ENDBRANCH  31  32
ENDBRANCH  30  31
ENDBRANCH  28  30
ENDBRANCH  27  28
ENDBRANCH  26  27
ENDBRANCH   1  26
BRANCH   5  37
HETATM   37  O3  UNL     1       9.006  20.406  11.916  1.00  0.00    -0.390 OA
ATOM     38  H3  UNL     1       8.406  19.754  11.572  1.00  0.00     0.210 HD
ENDBRANCH   5  37
TORSDOF 12
ENDMDL
MODEL 5
REMARK VINA RESULT: -6.661269468      3.090      4.960
REMARK  12 active torsions:
REMARK  status: ('A' for Active; 'I' for Inactive)
REMARK    1  A    between atoms: C2_2  and  N1_3 
REMARK    2  A    between atoms: N1_3  and  C3_6 
REMARK    3  A    between atoms: C3_6  and  C4_7 
REMARK    4  A    between atoms: C4_7  and  N2_8 
REMARK    5  A    between atoms: N2_8  and  C5_10 
REMARK    6  A    between atoms: C5_10  and  C6_11 
REMARK    7  A    between atoms: C6_11  and  C7_12 
REMARK    8  A    between atoms: C8_14  and  N3_15 
REMARK    9  A    between atoms: C11_20  and  N5_21 
REMARK   10  A    between atoms: C12_26  and  N7_27 
REMARK   11  A    between atoms: C14_33  and  O2_34 
REMARK   12  A    between atoms: C15_36  and  O3_37 
ROOT
HETATM    1  C7  UNL     1       9.762  20.225  13.870  1.00  0.00     0.157 C 
HETATM    2  O1  UNL     1      10.416  21.418  13.547  1.00  0.00    -0.355 OA
HETATM    3  C8  UNL     1       9.418  22.331  13.444  1.00  0.00     0.262 C 
HETATM    4  C14 UNL     1       8.236  21.664  12.847  1.00  0.00     0.198 C 
HETATM    5  C15 UNL     1       8.564  20.191  12.938  1.00  0.00     0.180 C 
ENDROOT
BRANCH   3   6
HETATM    6  N3  UNL     1       9.770  23.574  12.790  1.00  0.00    -0.297 N 
HETATM    7  C9  UNL     1       8.918  24.543  12.404  1.00  0.00     0.188 A 
HETATM    8  N4  UNL     1       9.569  25.544  11.826  1.00  0.00    -0.346 N 
HETATM    9  C10 UNL     1      10.880  25.235  11.827  1.00  0.00     0.123 A 
ATOM     10  H4  UNL     1       9.152  26.394  11.448  1.00  0.00     0.167 HD
HETATM   11  C11 UNL     1      11.992  25.905  11.360  1.00  0.00     0.145 A 
HETATM   12  C13 UNL     1      10.993  23.993  12.437  1.00  0.00     0.157 A 
HETATM   13  N6  UNL     1      13.188  25.314  11.516  1.00  0.00    -0.175 N 
HETATM   14  C12 UNL     1      13.263  24.109  12.112  1.00  0.00     0.679 A 
ATOM     15  H6  UNL     1      14.035  25.776  11.185  1.00  0.00     0.186 HD
HETATM   16  N8  UNL     1      12.217  23.422  12.581  1.00  0.00    -0.174 N 
ATOM     17  H8  UNL     1      12.332  22.511  13.026  1.00  0.00     0.186 HD
BRANCH  11  18
HETATM   18  N5  UNL     1      11.865  27.066  10.788  1.00  0.00    -0.383 N 
ATOM     19  H52 UNL     1      11.300  27.811  11.195  1.00  0.00     0.157 HD
ATOM     20  H51 UNL     1      12.340  27.258   9.906  1.00  0.00     0.157 HD
ENDBRANCH  11  18
BRANCH  14  21
HETATM   21  N7  UNL     1      14.444  23.600  12.230  1.00  0.00    -0.234 N 
ATOM     22  H72 UNL     1      15.174  24.153  12.677  1.00  0.00     0.174 HD
ATOM     23  H71 UNL     1      14.571  22.658  11.859  1.00  0.00     0.174 HD
ENDBRANCH  14  21
ENDBRANCH   3   6
BRANCH   4  24
HETATM   24  O2  UNL     1       8.020  21.963  11.506  1.00  0.00    -0.388 OA
ATOM     25  H2  UNL     1       8.689  21.637  10.917  1.00  0.00     0.210 HD
ENDBRANCH   4  24
BRANCH   1  26
HETATM   26  C6  UNL     1       9.393  20.185  15.313  1.00  0.00     0.054 C 
BRANCH  26  27
HETATM   27  C5  UNL     1      10.403  19.544  16.202  1.00  0.00     0.116 C 
BRANCH  27  28
HETATM   28  N2  UNL     1      11.473  20.471  16.507  1.00  0.00    -0.419 N 
ATOM     29  H2  UNL     1      11.691  21.263  15.901  1.00  0.00     0.153 HD
BRANCH  28  30
HETATM   30  C4  UNL     1      12.197  20.215  17.699  1.00  0.00     0.141 C 
BRANCH  30  31
HETATM   31  C3  UNL     1      11.377  19.729  18.844  1.00  0.00     0.251 C 
BRANCH  31  32
HETATM   32  N1  UNL     1      12.083  18.663  19.513  1.00  0.00    -0.074 N 
ATOM     33  H12 UNL     1      11.452  17.884  19.705  1.00  0.00     0.277 HD
ATOM     34  H11 UNL     1      12.319  18.935  20.468  1.00  0.00     0.277 HD
BRANCH  32  35
HETATM   35  C2  UNL     1      13.250  18.202  18.824  1.00  0.00     0.228 C 
HETATM   36  C1  UNL     1      13.626  16.772  19.129  1.00  0.00     0.034 C 
ENDBRANCH  32  35
ENDBRANCH  31  32
ENDBRANCH  30  31
ENDBRANCH  28  30
ENDBRANCH  27  28
ENDBRANCH  26  27
ENDBRANCH   1  26
BRANCH   5  37
HETATM   37  O3  UNL     1       9.000  19.684  11.714  1.00  0.00    -0.390 OA
ATOM     38  H3  UNL     1       8.229  19.497  11.192  1.00  0.00     0.210 HD
ENDBRANCH   5  37
TORSDOF 12
ENDMDL
