MODEL 1
REMARK VINA RESULT: -6.127238640      0.000      0.000
REMARK  4 active torsions:
REMARK  status: ('A' for Active; 'I' for Inactive)
REMARK    1  A    between atoms: O1_1  and  C1_3 
REMARK    2  A    between atoms: C7_9  and  N1_10 
REMARK    3  A    between atoms: N1_10  and  C8_12 
REMARK    4  A    between atoms: C8_12  and  C9_13 
ROOT
HETATM    1  C1  UNL     1     -41.057   3.713  -5.184  1.00  0.00     0.066 A 
HETATM    2  C2  UNL     1     -40.251   2.627  -4.878  1.00  0.00     0.037 A 
HETATM    3  C3  UNL     1     -39.967   2.409  -3.548  1.00  0.00     0.015 A 
HETATM    4  C4  UNL     1     -40.464   3.237  -2.567  1.00  0.00    -0.021 A 
HETATM    5  C5  UNL     1     -41.271   4.325  -2.860  1.00  0.00     0.003 A 
HETATM    6  C6  UNL     1     -41.555   4.542  -4.202  1.00  0.00     0.051 A 
HETATM    7  C7  UNL     1     -41.413   4.695  -1.596  1.00  0.00     0.040 A 
HETATM    8  C13 UNL     1     -40.577   3.567  -1.290  1.00  0.00     0.042 A 
ENDROOT
BRANCH   7   9
HETATM    9  N1  UNL     1     -42.111   5.760  -0.919  1.00  0.00    -0.385 N 
ATOM     10  H1  UNL     1     -42.719   5.552  -0.128  1.00  0.00     0.160 HD
BRANCH   9  11
HETATM   11  C8  UNL     1     -41.947   7.102  -1.361  1.00  0.00     0.160 C 
BRANCH  11  12
HETATM   12  C9  UNL     1     -43.144   7.586  -2.043  1.00  0.00    -0.017 A 
HETATM   13  C10 UNL     1     -44.232   8.201  -1.412  1.00  0.00     0.035 A 
HETATM   14  C11 UNL     1     -45.136   8.500  -2.388  1.00  0.00     0.142 A 
HETATM   15  O2  UNL     1     -44.684   8.116  -3.552  1.00  0.00    -0.334 OA
HETATM   16  C12 UNL     1     -43.486   7.562  -3.370  1.00  0.00     0.150 A 
ENDBRANCH  11  12
ENDBRANCH   9  11
ENDBRANCH   7   9
BRANCH   1  17
HETATM   17  O1  UNL     1     -41.369   3.968  -6.520  1.00  0.00    -0.361 OA
ATOM     18  H1  UNL     1     -41.901   4.725  -6.732  1.00  0.00     0.217 HD
ENDBRANCH   1  17
TORSDOF 4
ENDMDL
MODEL 2
REMARK VINA RESULT: -6.110055573      1.059      1.317
REMARK  4 active torsions:
REMARK  status: ('A' for Active; 'I' for Inactive)
REMARK    1  A    between atoms: O1_1  and  C1_3 
REMARK    2  A    between atoms: C7_9  and  N1_10 
REMARK    3  A    between atoms: N1_10  and  C8_12 
REMARK    4  A    between atoms: C8_12  and  C9_13 
ROOT
HETATM    1  C1  UNL     1     -41.334   4.075  -5.009  1.00  0.00     0.066 A 
HETATM    2  C2  UNL     1     -41.047   2.946  -4.256  1.00  0.00     0.037 A 
HETATM    3  C3  UNL     1     -41.015   3.094  -2.887  1.00  0.00     0.015 A 
HETATM    4  C4  UNL     1     -41.257   4.313  -2.295  1.00  0.00    -0.021 A 
HETATM    5  C5  UNL     1     -41.545   5.448  -3.037  1.00  0.00     0.003 A 
HETATM    6  C6  UNL     1     -41.577   5.295  -4.416  1.00  0.00     0.051 A 
HETATM    7  C7  UNL     1     -41.669   6.236  -1.979  1.00  0.00     0.040 A 
HETATM    8  C13 UNL     1     -41.371   5.061  -1.209  1.00  0.00     0.042 A 
ENDROOT
BRANCH   7   9
HETATM    9  N1  UNL     1     -41.971   7.632  -1.780  1.00  0.00    -0.385 N 
ATOM     10  H1  UNL     1     -41.415   8.348  -2.248  1.00  0.00     0.160 HD
BRANCH   9  11
HETATM   11  C8  UNL     1     -43.047   8.007  -0.928  1.00  0.00     0.160 C 
BRANCH  11  12
HETATM   12  C9  UNL     1     -44.248   8.320  -1.699  1.00  0.00    -0.017 A 
HETATM   13  C10 UNL     1     -45.312   9.105  -1.240  1.00  0.00     0.035 A 
HETATM   14  C11 UNL     1     -46.228   9.155  -2.248  1.00  0.00     0.142 A 
HETATM   15  O2  UNL     1     -45.805   8.466  -3.274  1.00  0.00    -0.334 OA
HETATM   16  C12 UNL     1     -44.614   7.953  -2.968  1.00  0.00     0.150 A 
ENDBRANCH  11  12
ENDBRANCH   9  11
ENDBRANCH   7   9
BRANCH   1  17
HETATM   17  O1  UNL     1     -41.377   3.967  -6.400  1.00  0.00    -0.361 OA
ATOM     18  H1  UNL     1     -42.202   3.759  -6.820  1.00  0.00     0.217 HD
ENDBRANCH   1  17
TORSDOF 4
ENDMDL
MODEL 3
REMARK VINA RESULT: -5.987146296      1.703      5.609
REMARK  4 active torsions:
REMARK  status: ('A' for Active; 'I' for Inactive)
REMARK    1  A    between atoms: O1_1  and  C1_3 
REMARK    2  A    between atoms: C7_9  and  N1_10 
REMARK    3  A    between atoms: N1_10  and  C8_12 
REMARK    4  A    between atoms: C8_12  and  C9_13 
ROOT
HETATM    1  C1  UNL     1     -42.296   7.747  -2.235  1.00  0.00     0.066 A 
HETATM    2  C2  UNL     1     -43.281   8.198  -1.368  1.00  0.00     0.037 A 
HETATM    3  C3  UNL     1     -43.823   7.279  -0.498  1.00  0.00     0.015 A 
HETATM    4  C4  UNL     1     -43.402   5.968  -0.492  1.00  0.00    -0.021 A 
HETATM    5  C5  UNL     1     -42.419   5.505  -1.352  1.00  0.00     0.003 A 
HETATM    6  C6  UNL     1     -41.874   6.435  -2.228  1.00  0.00     0.051 A 
HETATM    7  C7  UNL     1     -42.456   4.262  -0.895  1.00  0.00     0.040 A 
HETATM    8  C13 UNL     1     -43.475   4.740  -0.003  1.00  0.00     0.042 A 
ENDROOT
BRANCH   7   9
HETATM    9  N1  UNL     1     -41.755   3.041  -1.208  1.00  0.00    -0.385 N 
ATOM     10  H1  UNL     1     -42.257   2.154  -1.231  1.00  0.00     0.160 HD
BRANCH   9  11
HETATM   11  C8  UNL     1     -40.360   3.080  -1.485  1.00  0.00     0.160 C 
BRANCH  11  12
HETATM   12  C9  UNL     1     -40.087   2.744  -2.880  1.00  0.00    -0.017 A 
HETATM   13  C10 UNL     1     -39.260   1.698  -3.304  1.00  0.00     0.035 A 
HETATM   14  C11 UNL     1     -39.267   1.718  -4.667  1.00  0.00     0.142 A 
HETATM   15  O2  UNL     1     -40.030   2.688  -5.098  1.00  0.00    -0.334 OA
HETATM   16  C12 UNL     1     -40.535   3.320  -4.040  1.00  0.00     0.150 A 
ENDBRANCH  11  12
ENDBRANCH   9  11
ENDBRANCH   7   9
BRANCH   1  17
HETATM   17  O1  UNL     1     -41.721   8.647  -3.132  1.00  0.00    -0.361 OA
ATOM     18  H1  UNL     1     -42.101   8.742  -3.997  1.00  0.00     0.217 HD
ENDBRANCH   1  17
TORSDOF 4
ENDMDL
MODEL 4
REMARK VINA RESULT: -5.976303401      1.258      1.541
REMARK  4 active torsions:
REMARK  status: ('A' for Active; 'I' for Inactive)
REMARK    1  A    between atoms: O1_1  and  C1_3 
REMARK    2  A    between atoms: C7_9  and  N1_10 
REMARK    3  A    between atoms: N1_10  and  C8_12 
REMARK    4  A    between atoms: C8_12  and  C9_13 
ROOT
HETATM    1  C1  UNL     1     -41.229   3.939  -5.219  1.00  0.00     0.066 A 
HETATM    2  C2  UNL     1     -40.371   2.966  -4.727  1.00  0.00     0.037 A 
HETATM    3  C3  UNL     1     -40.223   2.889  -3.361  1.00  0.00     0.015 A 
HETATM    4  C4  UNL     1     -40.900   3.744  -2.520  1.00  0.00    -0.021 A 
HETATM    5  C5  UNL     1     -41.760   4.720  -2.998  1.00  0.00     0.003 A 
HETATM    6  C6  UNL     1     -41.907   4.794  -4.377  1.00  0.00     0.051 A 
HETATM    7  C7  UNL     1     -42.078   5.178  -1.796  1.00  0.00     0.040 A 
HETATM    8  C13 UNL     1     -41.187   4.167  -1.299  1.00  0.00     0.042 A 
ENDROOT
BRANCH   7   9
HETATM    9  N1  UNL     1     -42.939   6.224  -1.301  1.00  0.00    -0.385 N 
ATOM     10  H1  UNL     1     -43.855   5.993  -0.917  1.00  0.00     0.160 HD
BRANCH   9  11
HETATM   11  C8  UNL     1     -42.506   7.577  -1.350  1.00  0.00     0.160 C 
BRANCH  11  12
HETATM   12  C9  UNL     1     -43.616   8.498  -1.120  1.00  0.00    -0.017 A 
HETATM   13  C10 UNL     1     -44.763   8.583  -1.918  1.00  0.00     0.035 A 
HETATM   14  C11 UNL     1     -45.550   9.555  -1.374  1.00  0.00     0.142 A 
HETATM   15  O2  UNL     1     -44.972  10.061  -0.316  1.00  0.00    -0.334 OA
HETATM   16  C12 UNL     1     -43.807   9.440  -0.143  1.00  0.00     0.150 A 
ENDBRANCH  11  12
ENDBRANCH   9  11
ENDBRANCH   7   9
BRANCH   1  17
HETATM   17  O1  UNL     1     -41.407   4.050  -6.598  1.00  0.00    -0.361 OA
ATOM     18  H1  UNL     1     -42.285   4.170  -6.940  1.00  0.00     0.217 HD
ENDBRANCH   1  17
TORSDOF 4
ENDMDL
MODEL 5
REMARK VINA RESULT: -5.965681028      1.280      1.650
REMARK  4 active torsions:
REMARK  status: ('A' for Active; 'I' for Inactive)
REMARK    1  A    between atoms: O1_1  and  C1_3 
REMARK    2  A    between atoms: C7_9  and  N1_10 
REMARK    3  A    between atoms: N1_10  and  C8_12 
REMARK    4  A    between atoms: C8_12  and  C9_13 
ROOT
HETATM    1  C1  UNL     1     -41.347   4.054  -5.045  1.00  0.00     0.066 A 
HETATM    2  C2  UNL     1     -41.095   2.882  -4.347  1.00  0.00     0.037 A 
HETATM    3  C3  UNL     1     -41.064   2.962  -2.973  1.00  0.00     0.015 A 
HETATM    4  C4  UNL     1     -41.273   4.157  -2.322  1.00  0.00    -0.021 A 
HETATM    5  C5  UNL     1     -41.527   5.334  -3.007  1.00  0.00     0.003 A 
HETATM    6  C6  UNL     1     -41.558   5.251  -4.393  1.00  0.00     0.051 A 
HETATM    7  C7  UNL     1     -41.632   6.073  -1.912  1.00  0.00     0.040 A 
HETATM    8  C13 UNL     1     -41.370   4.853  -1.201  1.00  0.00     0.042 A 
ENDROOT
BRANCH   7   9
HETATM    9  N1  UNL     1     -41.895   7.465  -1.645  1.00  0.00    -0.385 N 
ATOM     10  H1  UNL     1     -41.429   7.934  -0.868  1.00  0.00     0.160 HD
BRANCH   9  11
HETATM   11  C8  UNL     1     -42.807   8.182  -2.469  1.00  0.00     0.160 C 
BRANCH  11  12
HETATM   12  C9  UNL     1     -43.955   8.656  -1.700  1.00  0.00    -0.017 A 
HETATM   13  C10 UNL     1     -43.882   9.238  -0.429  1.00  0.00     0.035 A 
HETATM   14  C11 UNL     1     -45.159   9.539  -0.061  1.00  0.00     0.142 A 
HETATM   15  O2  UNL     1     -45.994   9.189  -1.003  1.00  0.00    -0.334 OA
HETATM   16  C12 UNL     1     -45.292   8.654  -2.001  1.00  0.00     0.150 A 
ENDBRANCH  11  12
ENDBRANCH   9  11
ENDBRANCH   7   9
BRANCH   1  17
HETATM   17  O1  UNL     1     -41.388   4.017  -6.439  1.00  0.00    -0.361 OA
ATOM     18  H1  UNL     1     -41.488   4.830  -6.918  1.00  0.00     0.217 HD
ENDBRANCH   1  17
TORSDOF 4
ENDMDL
