MODEL 1
REMARK VINA RESULT: -7.278067635      0.000      0.000
REMARK  7 active torsions:
REMARK  status: ('A' for Active; 'I' for Inactive)
REMARK    1  A    between atoms: C2_2  and  N1_3 
REMARK    2  A    between atoms: N1_3  and  C3_5 
REMARK    3  A    between atoms: C4_8  and  N3_9 
REMARK    4  A    between atoms: C6_14  and  N5_15 
REMARK    5  A    between atoms: N5_15  and  C7_17 
REMARK    6  A    between atoms: C7_17  and  C8_18 
REMARK    7  A    between atoms: C8_18  and  C9_19 
ROOT
HETATM    1  C3  UNL     1       3.710   9.380  -4.740  1.00  0.00     0.707 A 
HETATM    2  N2  UNL     1       4.604  10.388  -4.735  1.00  0.00    -0.022 N 
ATOM      3  H2  UNL     1       4.898  10.808  -5.618  1.00  0.00     0.203 HD
HETATM    4  C4  UNL     1       5.112  10.845  -3.577  1.00  0.00     0.706 A 
HETATM    5  N4  UNL     1       4.740  10.307  -2.407  1.00  0.00    -0.022 N 
ATOM      6  H4  UNL     1       5.134  10.664  -1.536  1.00  0.00     0.203 HD
HETATM    7  C6  UNL     1       3.854   9.304  -2.373  1.00  0.00     0.707 A 
HETATM    8  N6  UNL     1       3.366   8.871  -3.548  1.00  0.00    -0.022 N 
ATOM      9  H6  UNL     1       2.691   8.107  -3.532  1.00  0.00     0.203 HD
ENDROOT
BRANCH   7  10
HETATM   10  N5  UNL     1       3.450   8.743  -1.313  1.00  0.00    -0.225 N 
ATOM     11  H5  UNL     1       4.100   8.114  -0.841  1.00  0.00     0.177 HD
BRANCH  10  12
HETATM   12  C7  UNL     1       2.142   8.917  -0.714  1.00  0.00     0.138 C 
BRANCH  12  13
HETATM   13  C8  UNL     1       2.329   9.692   0.544  1.00  0.00     0.024 C 
BRANCH  13  14
HETATM   14  C9  UNL     1       1.116   9.788   1.409  1.00  0.00    -0.021 C 
HETATM   15  C10 UNL     1       1.319   8.915   2.630  1.00  0.00     0.009 C 
HETATM   16  C11 UNL     1      -0.157   9.405   0.749  1.00  0.00     0.009 C 
ENDBRANCH  13  14
ENDBRANCH  12  13
ENDBRANCH  10  12
ENDBRANCH   7  10
BRANCH   4  17
HETATM   17  N3  UNL     1       5.982  11.830  -3.617  1.00  0.00    -0.229 N 
HETATM   18  C5  UNL     1       7.094  11.780  -4.529  1.00  0.00     0.165 C 
ATOM     19  H3  UNL     1       5.868  12.633  -2.998  1.00  0.00     0.177 HD
ENDBRANCH   4  17
BRANCH   1  20
HETATM   20  N1  UNL     1       3.208   8.925  -5.852  1.00  0.00    -0.225 N 
ATOM     21  H1  UNL     1       2.962   7.938  -5.919  1.00  0.00     0.177 HD
BRANCH  20  22
HETATM   22  C2  UNL     1       2.994   9.775  -6.982  1.00  0.00     0.133 C 
HETATM   23  C1  UNL     1       3.988   9.415  -8.055  1.00  0.00     0.027 C 
ENDBRANCH  20  22
ENDBRANCH   1  20
TORSDOF 7
ENDMDL
MODEL 2
REMARK VINA RESULT: -7.202813543      0.387      3.029
REMARK  7 active torsions:
REMARK  status: ('A' for Active; 'I' for Inactive)
REMARK    1  A    between atoms: C2_2  and  N1_3 
REMARK    2  A    between atoms: N1_3  and  C3_5 
REMARK    3  A    between atoms: C4_8  and  N3_9 
REMARK    4  A    between atoms: C6_14  and  N5_15 
REMARK    5  A    between atoms: N5_15  and  C7_17 
REMARK    6  A    between atoms: C7_17  and  C8_18 
REMARK    7  A    between atoms: C8_18  and  C9_19 
ROOT
HETATM    1  C3  UNL     1       5.102  10.865  -3.592  1.00  0.00     0.707 A 
HETATM    2  N2  UNL     1       4.555  10.342  -4.706  1.00  0.00    -0.022 N 
ATOM      3  H2  UNL     1       4.806  10.721  -5.620  1.00  0.00     0.203 HD
HETATM    4  C4  UNL     1       3.679   9.324  -4.624  1.00  0.00     0.706 A 
HETATM    5  N4  UNL     1       3.335   8.812  -3.434  1.00  0.00    -0.022 N 
ATOM      6  H4  UNL     1       2.669   8.040  -3.387  1.00  0.00     0.203 HD
HETATM    7  C6  UNL     1       3.859   9.307  -2.306  1.00  0.00     0.707 A 
HETATM    8  N6  UNL     1       4.729  10.323  -2.423  1.00  0.00    -0.022 N 
ATOM      9  H6  UNL     1       5.132  10.708  -1.568  1.00  0.00     0.203 HD
ENDROOT
BRANCH   7  10
HETATM   10  N5  UNL     1       3.587   8.882  -1.145  1.00  0.00    -0.225 N 
ATOM     11  H5  UNL     1       4.358   8.509  -0.592  1.00  0.00     0.177 HD
BRANCH  10  12
HETATM   12  C7  UNL     1       2.272   8.880  -0.537  1.00  0.00     0.138 C 
BRANCH  12  13
HETATM   13  C8  UNL     1       2.323   9.797   0.636  1.00  0.00     0.024 C 
BRANCH  13  14
HETATM   14  C9  UNL     1       1.090   9.809   1.479  1.00  0.00    -0.021 C 
HETATM   15  C10 UNL     1       1.303   8.888   2.662  1.00  0.00     0.009 C 
HETATM   16  C11 UNL     1      -0.154   9.411   0.776  1.00  0.00     0.009 C 
ENDBRANCH  13  14
ENDBRANCH  12  13
ENDBRANCH  10  12
ENDBRANCH   7  10
BRANCH   4  17
HETATM   17  N3  UNL     1       3.169   8.843  -5.736  1.00  0.00    -0.229 N 
HETATM   18  C5  UNL     1       3.156   9.639  -6.934  1.00  0.00     0.165 C 
ATOM     19  H3  UNL     1       2.779   7.900  -5.748  1.00  0.00     0.177 HD
ENDBRANCH   4  17
BRANCH   1  20
HETATM   20  N1  UNL     1       5.950  11.851  -3.653  1.00  0.00    -0.225 N 
ATOM     21  H1  UNL     1       5.772  12.695  -3.110  1.00  0.00     0.177 HD
BRANCH  20  22
HETATM   22  C2  UNL     1       7.127  11.779  -4.462  1.00  0.00     0.133 C 
HETATM   23  C1  UNL     1       7.644  13.175  -4.693  1.00  0.00     0.027 C 
ENDBRANCH  20  22
ENDBRANCH   1  20
TORSDOF 7
ENDMDL
MODEL 3
REMARK VINA RESULT: -7.127739088      0.793      1.083
REMARK  7 active torsions:
REMARK  status: ('A' for Active; 'I' for Inactive)
REMARK    1  A    between atoms: C2_2  and  N1_3 
REMARK    2  A    between atoms: N1_3  and  C3_5 
REMARK    3  A    between atoms: C4_8  and  N3_9 
REMARK    4  A    between atoms: C6_14  and  N5_15 
REMARK    5  A    between atoms: N5_15  and  C7_17 
REMARK    6  A    between atoms: C7_17  and  C8_18 
REMARK    7  A    between atoms: C8_18  and  C9_19 
ROOT
HETATM    1  C3  UNL     1       3.317   9.814  -4.930  1.00  0.00     0.707 A 
HETATM    2  N2  UNL     1       4.466  10.517  -4.895  1.00  0.00    -0.022 N 
ATOM      3  H2  UNL     1       4.812  10.965  -5.745  1.00  0.00     0.203 HD
HETATM    4  C4  UNL     1       5.160  10.635  -3.749  1.00  0.00     0.706 A 
HETATM    5  N4  UNL     1       4.725  10.056  -2.622  1.00  0.00    -0.022 N 
ATOM      6  H4  UNL     1       5.262  10.154  -1.760  1.00  0.00     0.203 HD
HETATM    7  C6  UNL     1       3.588   9.349  -2.619  1.00  0.00     0.707 A 
HETATM    8  N6  UNL     1       2.918   9.250  -3.779  1.00  0.00    -0.022 N 
ATOM      9  H6  UNL     1       2.052   8.713  -3.787  1.00  0.00     0.203 HD
ENDROOT
BRANCH   7  10
HETATM   10  N5  UNL     1       3.108   8.772  -1.600  1.00  0.00    -0.225 N 
ATOM     11  H5  UNL     1       2.806   7.804  -1.710  1.00  0.00     0.177 HD
BRANCH  10  12
HETATM   12  C7  UNL     1       2.951   9.370  -0.290  1.00  0.00     0.138 C 
BRANCH  12  13
HETATM   13  C8  UNL     1       1.540   9.155   0.132  1.00  0.00     0.024 C 
BRANCH  13  14
HETATM   14  C9  UNL     1       1.208   9.656   1.500  1.00  0.00    -0.021 C 
HETATM   15  C10 UNL     1       2.272  10.645   1.926  1.00  0.00     0.009 C 
HETATM   16  C11 UNL     1       1.085   8.604   2.539  1.00  0.00     0.009 C 
ENDBRANCH  13  14
ENDBRANCH  12  13
ENDBRANCH  10  12
ENDBRANCH   7  10
BRANCH   4  17
HETATM   17  N3  UNL     1       6.276  11.330  -3.759  1.00  0.00    -0.229 N 
HETATM   18  C5  UNL     1       6.971  11.572  -4.996  1.00  0.00     0.165 C 
ATOM     19  H3  UNL     1       6.651  11.700  -2.885  1.00  0.00     0.177 HD
ENDBRANCH   4  17
BRANCH   1  20
HETATM   20  N1  UNL     1       2.633   9.690  -6.029  1.00  0.00    -0.225 N 
ATOM     21  H1  UNL     1       1.648   9.430  -5.976  1.00  0.00     0.177 HD
BRANCH  20  22
HETATM   22  C2  UNL     1       3.226   9.908  -7.312  1.00  0.00     0.133 C 
HETATM   23  C1  UNL     1       2.644  11.162  -7.910  1.00  0.00     0.027 C 
ENDBRANCH  20  22
ENDBRANCH   1  20
TORSDOF 7
ENDMDL
MODEL 4
REMARK VINA RESULT: -7.040236408      0.927      3.115
REMARK  7 active torsions:
REMARK  status: ('A' for Active; 'I' for Inactive)
REMARK    1  A    between atoms: C2_2  and  N1_3 
REMARK    2  A    between atoms: N1_3  and  C3_5 
REMARK    3  A    between atoms: C4_8  and  N3_9 
REMARK    4  A    between atoms: C6_14  and  N5_15 
REMARK    5  A    between atoms: N5_15  and  C7_17 
REMARK    6  A    between atoms: C7_17  and  C8_18 
REMARK    7  A    between atoms: C8_18  and  C9_19 
ROOT
HETATM    1  C3  UNL     1       5.147  10.906  -3.707  1.00  0.00     0.707 A 
HETATM    2  N2  UNL     1       4.603  10.396  -4.829  1.00  0.00    -0.022 N 
ATOM      3  H2  UNL     1       4.862  10.783  -5.738  1.00  0.00     0.203 HD
HETATM    4  C4  UNL     1       3.723   9.381  -4.762  1.00  0.00     0.706 A 
HETATM    5  N4  UNL     1       3.370   8.859  -3.579  1.00  0.00    -0.022 N 
ATOM      6  H4  UNL     1       2.701   8.089  -3.543  1.00  0.00     0.203 HD
HETATM    7  C6  UNL     1       3.890   9.341  -2.443  1.00  0.00     0.707 A 
HETATM    8  N6  UNL     1       4.765  10.354  -2.545  1.00  0.00    -0.022 N 
ATOM      9  H6  UNL     1       5.166  10.728  -1.685  1.00  0.00     0.203 HD
ENDROOT
BRANCH   7  10
HETATM   10  N5  UNL     1       3.610   8.905  -1.288  1.00  0.00    -0.225 N 
ATOM     11  H5  UNL     1       4.391   8.683  -0.671  1.00  0.00     0.177 HD
BRANCH  10  12
HETATM   12  C7  UNL     1       2.274   8.695  -0.770  1.00  0.00     0.138 C 
BRANCH  12  13
HETATM   13  C8  UNL     1       2.130   9.543   0.447  1.00  0.00     0.024 C 
BRANCH  13  14
HETATM   14  C9  UNL     1       1.200   9.003   1.483  1.00  0.00    -0.021 C 
HETATM   15  C10 UNL     1      -0.211   9.434   1.141  1.00  0.00     0.009 C 
HETATM   16  C11 UNL     1       1.505   9.417   2.875  1.00  0.00     0.009 C 
ENDBRANCH  13  14
ENDBRANCH  12  13
ENDBRANCH  10  12
ENDBRANCH   7  10
BRANCH   4  17
HETATM   17  N3  UNL     1       3.216   8.913  -5.881  1.00  0.00    -0.229 N 
HETATM   18  C5  UNL     1       3.245   9.708  -7.080  1.00  0.00     0.165 C 
ATOM     19  H3  UNL     1       2.800   7.982  -5.899  1.00  0.00     0.177 HD
ENDBRANCH   4  17
BRANCH   1  20
HETATM   20  N1  UNL     1       6.000  11.888  -3.754  1.00  0.00    -0.225 N 
ATOM     21  H1  UNL     1       6.847  11.839  -3.187  1.00  0.00     0.177 HD
BRANCH  20  22
HETATM   22  C2  UNL     1       5.780  13.034  -4.580  1.00  0.00     0.133 C 
HETATM   23  C1  UNL     1       4.798  13.947  -3.894  1.00  0.00     0.027 C 
ENDBRANCH  20  22
ENDBRANCH   1  20
TORSDOF 7
ENDMDL
MODEL 5
REMARK VINA RESULT: -6.952815042      1.074      1.399
REMARK  7 active torsions:
REMARK  status: ('A' for Active; 'I' for Inactive)
REMARK    1  A    between atoms: C2_2  and  N1_3 
REMARK    2  A    between atoms: N1_3  and  C3_5 
REMARK    3  A    between atoms: C4_8  and  N3_9 
REMARK    4  A    between atoms: C6_14  and  N5_15 
REMARK    5  A    between atoms: N5_15  and  C7_17 
REMARK    6  A    between atoms: C7_17  and  C8_18 
REMARK    7  A    between atoms: C8_18  and  C9_19 
ROOT
HETATM    1  C3  UNL     1       3.275  10.607  -5.505  1.00  0.00     0.707 A 
HETATM    2  N2  UNL     1       4.496  11.124  -5.264  1.00  0.00    -0.022 N 
ATOM      3  H2  UNL     1       4.936  11.728  -5.959  1.00  0.00     0.203 HD
HETATM    4  C4  UNL     1       5.140  10.850  -4.115  1.00  0.00     0.706 A 
HETATM    5  N4  UNL     1       4.580  10.059  -3.189  1.00  0.00    -0.022 N 
ATOM      6  H4  UNL     1       5.080   9.860  -2.322  1.00  0.00     0.203 HD
HETATM    7  C6  UNL     1       3.368   9.528  -3.394  1.00  0.00     0.707 A 
HETATM    8  N6  UNL     1       2.753   9.821  -4.552  1.00  0.00    -0.022 N 
ATOM      9  H6  UNL     1       1.831   9.419  -4.717  1.00  0.00     0.203 HD
ENDROOT
BRANCH   7  10
HETATM   10  N5  UNL     1       2.771   8.772  -2.573  1.00  0.00    -0.225 N 
ATOM     11  H5  UNL     1       2.188   8.031  -2.959  1.00  0.00     0.177 HD
BRANCH  10  12
HETATM   12  C7  UNL     1       2.846   8.874  -1.129  1.00  0.00     0.138 C 
BRANCH  12  13
HETATM   13  C8  UNL     1       1.487   8.590  -0.592  1.00  0.00     0.024 C 
BRANCH  13  14
HETATM   14  C9  UNL     1       1.255   9.051   0.810  1.00  0.00    -0.021 C 
HETATM   15  C10 UNL     1      -0.206   9.416   0.966  1.00  0.00     0.009 C 
HETATM   16  C11 UNL     1       2.088  10.202   1.237  1.00  0.00     0.009 C 
ENDBRANCH  13  14
ENDBRANCH  12  13
ENDBRANCH  10  12
ENDBRANCH   7  10
BRANCH   4  17
HETATM   17  N3  UNL     1       6.329  11.375  -3.920  1.00  0.00    -0.229 N 
HETATM   18  C5  UNL     1       7.179  11.685  -5.039  1.00  0.00     0.165 C 
ATOM     19  H3  UNL     1       6.651  11.563  -2.970  1.00  0.00     0.177 HD
ENDBRANCH   4  17
BRANCH   1  20
HETATM   20  N1  UNL     1       2.639  10.861  -6.611  1.00  0.00    -0.225 N 
ATOM     21  H1  UNL     1       1.641  11.069  -6.575  1.00  0.00     0.177 HD
BRANCH  20  22
HETATM   22  C2  UNL     1       3.304  10.857  -7.877  1.00  0.00     0.133 C 
HETATM   23  C1  UNL     1       3.949   9.512  -8.083  1.00  0.00     0.027 C 
ENDBRANCH  20  22
ENDBRANCH   1  20
TORSDOF 7
ENDMDL
