MODEL 1
REMARK VINA RESULT: -6.014522220      0.000      0.000
REMARK  5 active torsions:
REMARK  status: ('A' for Active; 'I' for Inactive)
REMARK    1  A    between atoms: O1_1  and  C1_3 
REMARK    2  A    between atoms: C3_6  and  O3_7 
REMARK    3  A    between atoms: O3_7  and  C4_8 
REMARK    4  A    between atoms: C4_8  and  C5_9 
REMARK    5  A    between atoms: C7_12  and  O5_13 
ROOT
HETATM    1  C1  UNL     1      -1.673  -3.834 -16.193  1.00  0.00     0.175 C 
HETATM    2  C2  UNL     1      -1.386  -5.178 -15.581  1.00  0.00     0.205 C 
HETATM    3  O2  UNL     1      -0.028  -5.202 -15.269  1.00  0.00    -0.356 OA
HETATM    4  C3  UNL     1       0.529  -4.542 -16.360  1.00  0.00     0.290 C 
HETATM    5  C7  UNL     1      -0.275  -3.240 -16.329  1.00  0.00     0.204 C 
ENDROOT
BRANCH   4   6
HETATM    6  O3  UNL     1       1.877  -4.326 -16.254  1.00  0.00    -0.356 OA
BRANCH   6   7
HETATM    7  C4  UNL     1       2.419  -4.810 -15.099  1.00  0.00     0.205 C 
BRANCH   7   8
HETATM    8  C5  UNL     1       3.924  -4.664 -15.149  1.00  0.00     0.169 A 
HETATM    9  C6  UNL     1       4.520  -3.785 -14.070  1.00  0.00     0.202 A 
HETATM   10  O4  UNL     1       4.671  -5.173 -14.087  1.00  0.00    -0.379 OA
ENDBRANCH   7   8
ENDBRANCH   6   7
ENDBRANCH   4   6
BRANCH   5  11
HETATM   11  O5  UNL     1      -0.117  -2.493 -17.464  1.00  0.00    -0.388 OA
ATOM     12  H5  UNL     1       0.586  -1.856 -17.397  1.00  0.00     0.210 HD
ENDBRANCH   5  11
BRANCH   1  13
HETATM   13  O1  UNL     1      -2.466  -3.025 -15.403  1.00  0.00    -0.391 OA
ATOM     14  H1  UNL     1      -3.358  -2.941 -15.719  1.00  0.00     0.210 HD
ENDBRANCH   1  13
TORSDOF 5
ENDMDL
MODEL 2
REMARK VINA RESULT: -5.621536743      1.645      2.282
REMARK  5 active torsions:
REMARK  status: ('A' for Active; 'I' for Inactive)
REMARK    1  A    between atoms: O1_1  and  C1_3 
REMARK    2  A    between atoms: C3_6  and  O3_7 
REMARK    3  A    between atoms: O3_7  and  C4_8 
REMARK    4  A    between atoms: C4_8  and  C5_9 
REMARK    5  A    between atoms: C7_12  and  O5_13 
ROOT
HETATM    1  C1  UNL     1      -2.426  -4.385 -17.000  1.00  0.00     0.175 C 
HETATM    2  C2  UNL     1      -1.516  -3.330 -16.434  1.00  0.00     0.205 C 
HETATM    3  O2  UNL     1      -0.247  -3.897 -16.329  1.00  0.00    -0.356 OA
HETATM    4  C3  UNL     1      -0.546  -5.189 -15.905  1.00  0.00     0.290 C 
HETATM    5  C7  UNL     1      -1.525  -5.615 -17.001  1.00  0.00     0.204 C 
ENDROOT
BRANCH   4   6
HETATM    6  O3  UNL     1       0.543  -6.016 -15.824  1.00  0.00    -0.356 OA
BRANCH   6   7
HETATM    7  C4  UNL     1       1.422  -5.668 -14.841  1.00  0.00     0.205 C 
BRANCH   7   8
HETATM    8  C5  UNL     1       2.609  -4.958 -15.455  1.00  0.00     0.169 A 
HETATM    9  C6  UNL     1       3.242  -3.895 -14.582  1.00  0.00     0.202 A 
HETATM   10  O4  UNL     1       3.856  -5.119 -14.854  1.00  0.00    -0.379 OA
ENDBRANCH   7   8
ENDBRANCH   6   7
ENDBRANCH   4   6
BRANCH   5  11
HETATM   11  O5  UNL     1      -2.191  -6.770 -16.696  1.00  0.00    -0.388 OA
ATOM     12  H5  UNL     1      -2.945  -6.629 -16.134  1.00  0.00     0.210 HD
ENDBRANCH   5  11
BRANCH   1  13
HETATM   13  O1  UNL     1      -2.865  -4.108 -18.279  1.00  0.00    -0.391 OA
ATOM     14  H1  UNL     1      -3.739  -4.434 -18.460  1.00  0.00     0.210 HD
ENDBRANCH   1  13
TORSDOF 5
ENDMDL
MODEL 3
REMARK VINA RESULT: -5.552408017      1.344      2.195
REMARK  5 active torsions:
REMARK  status: ('A' for Active; 'I' for Inactive)
REMARK    1  A    between atoms: O1_1  and  C1_3 
REMARK    2  A    between atoms: C3_6  and  O3_7 
REMARK    3  A    between atoms: O3_7  and  C4_8 
REMARK    4  A    between atoms: C4_8  and  C5_9 
REMARK    5  A    between atoms: C7_12  and  O5_13 
ROOT
HETATM    1  C1  UNL     1      -1.742  -5.484 -16.069  1.00  0.00     0.175 C 
HETATM    2  C2  UNL     1      -2.179  -4.142 -16.590  1.00  0.00     0.205 C 
HETATM    3  O2  UNL     1      -1.039  -3.497 -17.066  1.00  0.00    -0.356 OA
HETATM    4  C3  UNL     1      -0.087  -3.859 -16.117  1.00  0.00     0.290 C 
HETATM    5  C7  UNL     1      -0.223  -5.383 -16.163  1.00  0.00     0.204 C 
ENDROOT
BRANCH   4   6
HETATM    6  O3  UNL     1       1.182  -3.437 -16.410  1.00  0.00    -0.356 OA
BRANCH   6   7
HETATM    7  C4  UNL     1       1.986  -3.319 -15.313  1.00  0.00     0.205 C 
BRANCH   7   8
HETATM    8  C5  UNL     1       3.187  -4.225 -15.469  1.00  0.00     0.169 A 
HETATM    9  C6  UNL     1       4.143  -4.230 -14.295  1.00  0.00     0.202 A 
HETATM   10  O4  UNL     1       3.311  -5.309 -14.601  1.00  0.00    -0.379 OA
ENDBRANCH   7   8
ENDBRANCH   6   7
ENDBRANCH   4   6
BRANCH   5  11
HETATM   11  O5  UNL     1       0.422  -6.003 -15.128  1.00  0.00    -0.388 OA
ATOM     12  H5  UNL     1       0.238  -5.609 -14.283  1.00  0.00     0.210 HD
ENDBRANCH   5  11
BRANCH   1  13
HETATM   13  O1  UNL     1      -2.201  -6.546 -16.823  1.00  0.00    -0.391 OA
ATOM     14  H1  UNL     1      -3.020  -6.909 -16.508  1.00  0.00     0.210 HD
ENDBRANCH   1  13
TORSDOF 5
ENDMDL
MODEL 4
REMARK VINA RESULT: -5.484029695      1.198      1.256
REMARK  5 active torsions:
REMARK  status: ('A' for Active; 'I' for Inactive)
REMARK    1  A    between atoms: O1_1  and  C1_3 
REMARK    2  A    between atoms: C3_6  and  O3_7 
REMARK    3  A    between atoms: O3_7  and  C4_8 
REMARK    4  A    between atoms: C4_8  and  C5_9 
REMARK    5  A    between atoms: C7_12  and  O5_13 
ROOT
HETATM    1  C1  UNL     1      -1.943  -4.281 -17.600  1.00  0.00     0.175 C 
HETATM    2  C2  UNL     1      -1.996  -5.641 -16.961  1.00  0.00     0.205 C 
HETATM    3  O2  UNL     1      -1.229  -5.576 -15.799  1.00  0.00    -0.356 OA
HETATM    4  C3  UNL     1      -0.159  -4.784 -16.206  1.00  0.00     0.290 C 
HETATM    5  C7  UNL     1      -0.913  -3.562 -16.736  1.00  0.00     0.204 C 
ENDROOT
BRANCH   4   6
HETATM    6  O3  UNL     1       0.714  -4.465 -15.201  1.00  0.00    -0.356 OA
BRANCH   6   7
HETATM    7  C4  UNL     1       1.748  -5.347 -15.074  1.00  0.00     0.205 C 
BRANCH   7   8
HETATM    8  C5  UNL     1       3.047  -4.655 -15.422  1.00  0.00     0.169 A 
HETATM    9  C6  UNL     1       3.701  -3.906 -14.280  1.00  0.00     0.202 A 
HETATM   10  O4  UNL     1       4.215  -5.095 -14.802  1.00  0.00    -0.379 OA
ENDBRANCH   7   8
ENDBRANCH   6   7
ENDBRANCH   4   6
BRANCH   5  11
HETATM   11  O5  UNL     1      -0.111  -2.713 -17.449  1.00  0.00    -0.388 OA
ATOM     12  H5  UNL     1      -0.336  -1.798 -17.329  1.00  0.00     0.210 HD
ENDBRANCH   5  11
BRANCH   1  13
HETATM   13  O1  UNL     1      -3.149  -3.609 -17.572  1.00  0.00    -0.391 OA
ATOM     14  H1  UNL     1      -3.060  -2.664 -17.621  1.00  0.00     0.210 HD
ENDBRANCH   1  13
TORSDOF 5
ENDMDL
MODEL 5
REMARK VINA RESULT: -5.384381286      1.639      5.200
REMARK  5 active torsions:
REMARK  status: ('A' for Active; 'I' for Inactive)
REMARK    1  A    between atoms: O1_1  and  C1_3 
REMARK    2  A    between atoms: C3_6  and  O3_7 
REMARK    3  A    between atoms: O3_7  and  C4_8 
REMARK    4  A    between atoms: C4_8  and  C5_9 
REMARK    5  A    between atoms: C7_12  and  O5_13 
ROOT
HETATM    1  C1  UNL     1       2.643  -4.973 -15.586  1.00  0.00     0.175 C 
HETATM    2  C2  UNL     1       2.106  -3.581 -15.767  1.00  0.00     0.205 C 
HETATM    3  O2  UNL     1       0.812  -3.571 -15.250  1.00  0.00    -0.356 OA
HETATM    4  C3  UNL     1       0.330  -4.811 -15.659  1.00  0.00     0.290 C 
HETATM    5  C7  UNL     1       1.414  -5.726 -15.085  1.00  0.00     0.204 C 
ENDROOT
BRANCH   4   6
HETATM    6  O3  UNL     1      -0.917  -5.112 -15.180  1.00  0.00    -0.356 OA
BRANCH   6   7
HETATM    7  C4  UNL     1      -1.830  -5.378 -16.159  1.00  0.00     0.205 C 
BRANCH   7   8
HETATM    8  C5  UNL     1      -1.706  -4.345 -17.257  1.00  0.00     0.169 A 
HETATM    9  C6  UNL     1      -2.565  -4.599 -18.478  1.00  0.00     0.202 A 
HETATM   10  O4  UNL     1      -2.826  -3.574 -17.566  1.00  0.00    -0.379 OA
ENDBRANCH   7   8
ENDBRANCH   6   7
ENDBRANCH   4   6
BRANCH   5  11
HETATM   11  O5  UNL     1       1.335  -7.005 -15.563  1.00  0.00    -0.388 OA
ATOM     12  H5  UNL     1       0.449  -7.268 -15.782  1.00  0.00     0.210 HD
ENDBRANCH   5  11
BRANCH   1  13
HETATM   13  O1  UNL     1       3.667  -5.056 -14.663  1.00  0.00    -0.391 OA
ATOM     14  H1  UNL     1       4.533  -5.018 -15.052  1.00  0.00     0.210 HD
ENDBRANCH   1  13
TORSDOF 5
ENDMDL
