MODEL 1
REMARK VINA RESULT: -6.189224185      0.000      0.000
REMARK  5 active torsions:
REMARK  status: ('A' for Active; 'I' for Inactive)
REMARK    1  A    between atoms: C4_4  and  C5_5 
REMARK    2  A    between atoms: C5_5  and  C6_6 
REMARK    3  A    between atoms: C5_5  and  C10_11 
REMARK    4  A    between atoms: C6_6  and  N1_7 
REMARK    5  A    between atoms: C11_18  and  N5_19 
ROOT
HETATM    1  C1  UNL     1       4.955  21.904  21.205  1.00  0.00     0.102 C 
HETATM    2  C2  UNL     1       4.057  22.230  20.419  1.00  0.00    -0.161 C 
HETATM    3  C3  UNL     1       3.046  22.660  19.485  1.00  0.00     0.047 C 
HETATM    4  C4  UNL     1       3.314  22.978  18.250  1.00  0.00    -0.006 C 
ENDROOT
BRANCH   4   5
HETATM    5  C5  UNL     1       2.351  23.431  17.233  1.00  0.00     0.090 C 
BRANCH   5   6
HETATM    6  C6  UNL     1       1.792  24.764  17.599  1.00  0.00     0.251 C 
BRANCH   6   7
HETATM    7  N1  UNL     1       0.743  25.444  17.006  1.00  0.00    -0.078 N 
HETATM    8  C7  UNL     1       0.115  26.354  18.055  1.00  0.00     0.271 C 
HETATM    9  C8  UNL     1      -0.279  24.756  16.318  1.00  0.00     0.271 C 
HETATM   10  C9  UNL     1       1.299  26.456  16.083  1.00  0.00     0.271 C 
ENDBRANCH   6   7
ENDBRANCH   5   6
BRANCH   5  11
HETATM   11  C10 UNL     1       3.241  23.799  16.017  1.00  0.00     0.081 A 
HETATM   12  N2  UNL     1       4.404  24.465  16.207  1.00  0.00    -0.286 N 
HETATM   13  N3  UNL     1       5.048  24.532  15.071  1.00  0.00    -0.241 N 
ATOM     14  H2  UNL     1       4.727  24.851  17.093  1.00  0.00     0.188 HD
HETATM   15  N4  UNL     1       4.313  23.887  14.111  1.00  0.00    -0.270 N 
ATOM     16  H3  UNL     1       5.948  24.990  14.924  1.00  0.00     0.208 HD
HETATM   17  C11 UNL     1       3.225  23.465  14.740  1.00  0.00     0.140 A 
ATOM     18  H4  UNL     1       4.551  23.759  13.127  1.00  0.00     0.190 HD
BRANCH  17  19
HETATM   19  N5  UNL     1       2.247  22.859  14.130  1.00  0.00    -0.383 N 
ATOM     20  H52 UNL     1       1.831  21.994  14.475  1.00  0.00     0.157 HD
ATOM     21  H51 UNL     1       1.839  23.143  13.239  1.00  0.00     0.157 HD
ENDBRANCH  17  19
ENDBRANCH   5  11
ENDBRANCH   4   5
TORSDOF 5
ENDMDL
MODEL 2
REMARK VINA RESULT: -6.004904601      0.623      1.462
REMARK  5 active torsions:
REMARK  status: ('A' for Active; 'I' for Inactive)
REMARK    1  A    between atoms: C4_4  and  C5_5 
REMARK    2  A    between atoms: C5_5  and  C6_6 
REMARK    3  A    between atoms: C5_5  and  C10_11 
REMARK    4  A    between atoms: C6_6  and  N1_7 
REMARK    5  A    between atoms: C11_18  and  N5_19 
ROOT
HETATM    1  C1  UNL     1       4.318  21.368  20.861  1.00  0.00     0.102 C 
HETATM    2  C2  UNL     1       3.568  22.012  20.119  1.00  0.00    -0.161 C 
HETATM    3  C3  UNL     1       2.742  22.775  19.215  1.00  0.00     0.047 C 
HETATM    4  C4  UNL     1       2.728  22.570  17.928  1.00  0.00    -0.006 C 
ENDROOT
BRANCH   4   5
HETATM    5  C5  UNL     1       1.926  23.300  16.933  1.00  0.00     0.090 C 
BRANCH   5   6
HETATM    6  C6  UNL     1       1.591  24.665  17.431  1.00  0.00     0.251 C 
BRANCH   6   7
HETATM    7  N1  UNL     1       0.607  25.524  16.976  1.00  0.00    -0.078 N 
HETATM    8  C7  UNL     1       0.209  26.441  18.127  1.00  0.00     0.271 C 
HETATM    9  C8  UNL     1      -0.559  25.034  16.351  1.00  0.00     0.271 C 
HETATM   10  C9  UNL     1       1.224  26.507  16.062  1.00  0.00     0.271 C 
ENDBRANCH   6   7
ENDBRANCH   5   6
BRANCH   5  11
HETATM   11  C10 UNL     1       2.939  23.629  15.806  1.00  0.00     0.081 A 
HETATM   12  N2  UNL     1       2.614  23.390  14.513  1.00  0.00    -0.286 N 
HETATM   13  N3  UNL     1       3.549  23.878  13.740  1.00  0.00    -0.241 N 
ATOM     14  H2  UNL     1       1.775  22.908  14.194  1.00  0.00     0.188 HD
HETATM   15  N4  UNL     1       4.505  24.467  14.527  1.00  0.00    -0.270 N 
ATOM     16  H3  UNL     1       3.564  23.828  12.722  1.00  0.00     0.208 HD
HETATM   17  C11 UNL     1       4.086  24.283  15.770  1.00  0.00     0.140 A 
ATOM     18  H4  UNL     1       5.354  24.944  14.221  1.00  0.00     0.190 HD
BRANCH  17  19
HETATM   19  N5  UNL     1       4.776  24.652  16.810  1.00  0.00    -0.383 N 
ATOM     20  H52 UNL     1       5.722  24.319  16.993  1.00  0.00     0.157 HD
ATOM     21  H51 UNL     1       4.437  25.253  17.562  1.00  0.00     0.157 HD
ENDBRANCH  17  19
ENDBRANCH   5  11
ENDBRANCH   4   5
TORSDOF 5
ENDMDL
MODEL 3
REMARK VINA RESULT: -5.846097363      2.730      3.968
REMARK  5 active torsions:
REMARK  status: ('A' for Active; 'I' for Inactive)
REMARK    1  A    between atoms: C4_4  and  C5_5 
REMARK    2  A    between atoms: C5_5  and  C6_6 
REMARK    3  A    between atoms: C5_5  and  C10_11 
REMARK    4  A    between atoms: C6_6  and  N1_7 
REMARK    5  A    between atoms: C11_18  and  N5_19 
ROOT
HETATM    1  C1  UNL     1       6.851  23.457  21.045  1.00  0.00     0.102 C 
HETATM    2  C2  UNL     1       5.989  23.692  20.191  1.00  0.00    -0.161 C 
HETATM    3  C3  UNL     1       4.977  23.903  19.184  1.00  0.00     0.047 C 
HETATM    4  C4  UNL     1       3.842  23.262  19.176  1.00  0.00    -0.006 C 
ENDROOT
BRANCH   4   5
HETATM    5  C5  UNL     1       2.760  23.409  18.190  1.00  0.00     0.090 C 
BRANCH   5   6
HETATM    6  C6  UNL     1       3.317  23.476  16.809  1.00  0.00     0.251 C 
BRANCH   6   7
HETATM    7  N1  UNL     1       3.165  24.484  15.873  1.00  0.00    -0.078 N 
HETATM    8  C7  UNL     1       4.509  25.183  15.708  1.00  0.00     0.271 C 
HETATM    9  C8  UNL     1       2.150  25.456  16.004  1.00  0.00     0.271 C 
HETATM   10  C9  UNL     1       3.026  23.870  14.536  1.00  0.00     0.271 C 
ENDBRANCH   6   7
ENDBRANCH   5   6
BRANCH   5  11
HETATM   11  C10 UNL     1       2.079  22.015  18.176  1.00  0.00     0.081 A 
HETATM   12  N2  UNL     1       1.696  21.462  17.000  1.00  0.00    -0.286 N 
HETATM   13  N3  UNL     1       1.289  20.239  17.216  1.00  0.00    -0.241 N 
ATOM     14  H2  UNL     1       1.722  21.925  16.092  1.00  0.00     0.188 HD
HETATM   15  N4  UNL     1       1.417  19.963  18.553  1.00  0.00    -0.270 N 
ATOM     16  H3  UNL     1       0.933  19.596  16.508  1.00  0.00     0.208 HD
HETATM   17  C11 UNL     1       1.898  21.077  19.087  1.00  0.00     0.140 A 
ATOM     18  H4  UNL     1       1.192  19.091  19.033  1.00  0.00     0.190 HD
BRANCH  17  19
HETATM   19  N5  UNL     1       2.091  21.221  20.366  1.00  0.00    -0.383 N 
ATOM     20  H52 UNL     1       2.121  22.133  20.823  1.00  0.00     0.157 HD
ATOM     21  H51 UNL     1       2.284  20.465  21.024  1.00  0.00     0.157 HD
ENDBRANCH  17  19
ENDBRANCH   5  11
ENDBRANCH   4   5
TORSDOF 5
ENDMDL
MODEL 4
REMARK VINA RESULT: -5.817057221      3.480      4.971
REMARK  5 active torsions:
REMARK  status: ('A' for Active; 'I' for Inactive)
REMARK    1  A    between atoms: C4_4  and  C5_5 
REMARK    2  A    between atoms: C5_5  and  C6_6 
REMARK    3  A    between atoms: C5_5  and  C10_11 
REMARK    4  A    between atoms: C6_6  and  N1_7 
REMARK    5  A    between atoms: C11_18  and  N5_19 
ROOT
HETATM    1  C1  UNL     1       7.798  24.183  20.643  1.00  0.00     0.102 C 
HETATM    2  C2  UNL     1       6.686  24.216  20.103  1.00  0.00    -0.161 C 
HETATM    3  C3  UNL     1       5.389  24.190  19.472  1.00  0.00     0.047 C 
HETATM    4  C4  UNL     1       4.407  23.450  19.904  1.00  0.00    -0.006 C 
ENDROOT
BRANCH   4   5
HETATM    5  C5  UNL     1       3.059  23.356  19.323  1.00  0.00     0.090 C 
BRANCH   5   6
HETATM    6  C6  UNL     1       3.121  22.778  17.950  1.00  0.00     0.251 C 
BRANCH   6   7
HETATM    7  N1  UNL     1       2.827  23.396  16.747  1.00  0.00    -0.078 N 
HETATM    8  C7  UNL     1       2.009  22.426  15.903  1.00  0.00     0.271 C 
HETATM    9  C8  UNL     1       3.845  23.960  15.948  1.00  0.00     0.271 C 
HETATM   10  C9  UNL     1       1.816  24.446  16.990  1.00  0.00     0.271 C 
ENDBRANCH   6   7
ENDBRANCH   5   6
BRANCH   5  11
HETATM   11  C10 UNL     1       2.394  22.197  20.110  1.00  0.00     0.081 A 
HETATM   12  N2  UNL     1       2.261  20.978  19.536  1.00  0.00    -0.286 N 
HETATM   13  N3  UNL     1       1.816  20.131  20.427  1.00  0.00    -0.241 N 
ATOM     14  H2  UNL     1       2.474  20.756  18.564  1.00  0.00     0.188 HD
HETATM   15  N4  UNL     1       1.666  20.789  21.621  1.00  0.00    -0.270 N 
ATOM     16  H3  UNL     1       1.614  19.145  20.262  1.00  0.00     0.208 HD
HETATM   17  C11 UNL     1       2.027  22.040  21.369  1.00  0.00     0.140 A 
ATOM     18  H4  UNL     1       1.346  20.401  22.508  1.00  0.00     0.190 HD
BRANCH  17  19
HETATM   19  N5  UNL     1       1.953  22.988  22.257  1.00  0.00    -0.383 N 
ATOM     20  H52 UNL     1       2.683  23.691  22.379  1.00  0.00     0.157 HD
ATOM     21  H51 UNL     1       1.207  23.098  22.945  1.00  0.00     0.157 HD
ENDBRANCH  17  19
ENDBRANCH   5  11
ENDBRANCH   4   5
TORSDOF 5
ENDMDL
MODEL 5
REMARK VINA RESULT: -5.797479029      3.477      4.864
REMARK  5 active torsions:
REMARK  status: ('A' for Active; 'I' for Inactive)
REMARK    1  A    between atoms: C4_4  and  C5_5 
REMARK    2  A    between atoms: C5_5  and  C6_6 
REMARK    3  A    between atoms: C5_5  and  C10_11 
REMARK    4  A    between atoms: C6_6  and  N1_7 
REMARK    5  A    between atoms: C11_18  and  N5_19 
ROOT
HETATM    1  C1  UNL     1       7.799  24.166  20.685  1.00  0.00     0.102 C 
HETATM    2  C2  UNL     1       6.691  24.206  20.139  1.00  0.00    -0.161 C 
HETATM    3  C3  UNL     1       5.397  24.189  19.501  1.00  0.00     0.047 C 
HETATM    4  C4  UNL     1       4.413  23.443  19.918  1.00  0.00    -0.006 C 
ENDROOT
BRANCH   4   5
HETATM    5  C5  UNL     1       3.067  23.358  19.328  1.00  0.00     0.090 C 
BRANCH   5   6
HETATM    6  C6  UNL     1       3.134  22.778  17.956  1.00  0.00     0.251 C 
BRANCH   6   7
HETATM    7  N1  UNL     1       2.684  23.331  16.770  1.00  0.00    -0.078 N 
HETATM    8  C7  UNL     1       1.866  24.572  17.106  1.00  0.00     0.271 C 
HETATM    9  C8  UNL     1       1.983  22.556  15.822  1.00  0.00     0.271 C 
HETATM   10  C9  UNL     1       3.830  23.956  16.076  1.00  0.00     0.271 C 
ENDBRANCH   6   7
ENDBRANCH   5   6
BRANCH   5  11
HETATM   11  C10 UNL     1       2.390  22.203  20.113  1.00  0.00     0.081 A 
HETATM   12  N2  UNL     1       2.248  20.986  19.537  1.00  0.00    -0.286 N 
HETATM   13  N3  UNL     1       1.793  20.143  20.426  1.00  0.00    -0.241 N 
ATOM     14  H2  UNL     1       2.462  20.763  18.565  1.00  0.00     0.188 HD
HETATM   15  N4  UNL     1       1.645  20.801  21.619  1.00  0.00    -0.270 N 
ATOM     16  H3  UNL     1       1.583  19.159  20.260  1.00  0.00     0.208 HD
HETATM   17  C11 UNL     1       2.018  22.048  21.370  1.00  0.00     0.140 A 
ATOM     18  H4  UNL     1       1.319  20.415  22.506  1.00  0.00     0.190 HD
BRANCH  17  19
HETATM   19  N5  UNL     1       1.949  22.997  22.259  1.00  0.00    -0.383 N 
ATOM     20  H52 UNL     1       2.762  23.535  22.558  1.00  0.00     0.157 HD
ATOM     21  H51 UNL     1       1.111  23.262  22.778  1.00  0.00     0.157 HD
ENDBRANCH  17  19
ENDBRANCH   5  11
ENDBRANCH   4   5
TORSDOF 5
ENDMDL
