MODEL 1
REMARK VINA RESULT: -5.835066299      0.000      0.000
REMARK  11 active torsions:
REMARK  status: ('A' for Active; 'I' for Inactive)
REMARK    1  A    between atoms: C2_2  and  N1_3 
REMARK    2  A    between atoms: C2_2  and  C13_20 
REMARK    3  A    between atoms: N1_3  and  C3_4 
REMARK    4  A    between atoms: C3_4  and  O1_5 
REMARK    5  A    between atoms: C3_4  and  C4_7 
REMARK    6  A    between atoms: C4_7  and  N2_8 
REMARK    7  A    between atoms: C4_7  and  C10_17 
REMARK       I    between atoms: N2_8  and  C5_10 
REMARK    8  A    between atoms: C5_10  and  O3_12 
REMARK    9  A    between atoms: O3_12  and  C6_13 
REMARK       I    between atoms: C13_20  and  N3_22 
REMARK   10  A    between atoms: N3_22  and  C14_24 
REMARK   11  A    between atoms: C14_24  and  C15_25 
ROOT
HETATM    1  C3  UNL     1     -34.862   1.745   3.001  1.00  0.00     0.233 C 
ENDROOT
BRANCH   1   2
HETATM    2  N1  UNL     1     -34.672   0.517   3.601  1.00  0.00    -0.408 NA
BRANCH   2   3
HETATM    3  C2  UNL     1     -34.491  -0.683   4.191  1.00  0.00     0.254 C 
HETATM    4  C1  UNL     1     -33.023  -1.072   4.467  1.00  0.00     0.058 C 
BRANCH   3   5
HETATM    5  C13 UNL     1     -35.131  -0.664   5.656  1.00  0.00     0.257 C 
HETATM    6  O4  UNL     1     -34.902   0.441   6.192  1.00  0.00    -0.270 OA
HETATM    7  N3  UNL     1     -35.784  -1.730   6.071  1.00  0.00    -0.328 N 
ATOM      8  H3  UNL     1     -35.803  -2.465   5.364  1.00  0.00     0.168 HD
BRANCH   7   9
HETATM    9  C14 UNL     1     -36.483  -2.123   7.278  1.00  0.00     0.175 C 
BRANCH   9  10
HETATM   10  C15 UNL     1     -37.220  -3.365   7.197  1.00  0.00     0.214 C 
HETATM   11  O5  UNL     1     -36.773  -4.476   7.062  1.00  0.00    -0.643 OA
HETATM   12  O6  UNL     1     -38.652  -3.215   7.292  1.00  0.00    -0.643 OA
ENDBRANCH   9  10
ENDBRANCH   7   9
ENDBRANCH   3   5
ENDBRANCH   2   3
ENDBRANCH   1   2
BRANCH   1  13
HETATM   13  O1  UNL     1     -34.885   2.814   3.814  1.00  0.00    -0.334 OA
ATOM     14  H1  UNL     1     -35.210   3.626   3.441  1.00  0.00     0.220 HD
ENDBRANCH   1  13
BRANCH   1  15
HETATM   15  C4  UNL     1     -35.049   2.208   1.630  1.00  0.00     0.082 C 
BRANCH  15  16
HETATM   16  N2  UNL     1     -36.390   2.717   1.447  1.00  0.00    -0.301 N 
HETATM   17  C5  UNL     1     -37.145   3.040   0.354  1.00  0.00     0.365 C 
HETATM   18  O2  UNL     1     -36.816   2.981  -0.820  1.00  0.00    -0.238 OA
ATOM     19  H2  UNL     1     -36.881   2.868   2.329  1.00  0.00     0.171 HD
BRANCH  17  20
HETATM   20  O3  UNL     1     -38.489   3.532   0.533  1.00  0.00    -0.294 OA
BRANCH  20  21
HETATM   21  C6  UNL     1     -38.668   4.935   0.712  1.00  0.00     0.061 C 
HETATM   22  C7  UNL     1     -39.004   5.554  -0.625  1.00  0.00     0.046 C 
HETATM   23  C8  UNL     1     -37.453   5.596   1.267  1.00  0.00     0.046 C 
HETATM   24  C9  UNL     1     -39.876   5.200   1.614  1.00  0.00     0.046 C 
ENDBRANCH  20  21
ENDBRANCH  17  20
ENDBRANCH  15  16
BRANCH  15  25
HETATM   25  C10 UNL     1     -33.974   2.842   0.863  1.00  0.00     0.033 C 
HETATM   26  C11 UNL     1     -33.874   4.309   0.744  1.00  0.00     0.016 C 
HETATM   27  C12 UNL     1     -32.621   2.266   1.283  1.00  0.00     0.016 C 
ENDBRANCH  15  25
ENDBRANCH   1  15
TORSDOF 11
ENDMDL
MODEL 2
REMARK VINA RESULT: -5.799202096      1.021      1.298
REMARK  11 active torsions:
REMARK  status: ('A' for Active; 'I' for Inactive)
REMARK    1  A    between atoms: C2_2  and  N1_3 
REMARK    2  A    between atoms: C2_2  and  C13_20 
REMARK    3  A    between atoms: N1_3  and  C3_4 
REMARK    4  A    between atoms: C3_4  and  O1_5 
REMARK    5  A    between atoms: C3_4  and  C4_7 
REMARK    6  A    between atoms: C4_7  and  N2_8 
REMARK    7  A    between atoms: C4_7  and  C10_17 
REMARK       I    between atoms: N2_8  and  C5_10 
REMARK    8  A    between atoms: C5_10  and  O3_12 
REMARK    9  A    between atoms: O3_12  and  C6_13 
REMARK       I    between atoms: C13_20  and  N3_22 
REMARK   10  A    between atoms: N3_22  and  C14_24 
REMARK   11  A    between atoms: C14_24  and  C15_25 
ROOT
HETATM    1  C3  UNL     1     -34.859   1.744   2.897  1.00  0.00     0.233 C 
ENDROOT
BRANCH   1   2
HETATM    2  N1  UNL     1     -34.586   0.559   3.548  1.00  0.00    -0.408 NA
BRANCH   2   3
HETATM    3  C2  UNL     1     -34.319  -0.597   4.191  1.00  0.00     0.254 C 
HETATM    4  C1  UNL     1     -32.832  -0.842   4.524  1.00  0.00     0.058 C 
BRANCH   3   5
HETATM    5  C13 UNL     1     -35.005  -0.581   5.635  1.00  0.00     0.257 C 
HETATM    6  O4  UNL     1     -34.710   0.482   6.220  1.00  0.00    -0.270 OA
HETATM    7  N3  UNL     1     -35.752  -1.607   5.987  1.00  0.00    -0.328 N 
ATOM      8  H3  UNL     1     -35.802  -2.312   5.252  1.00  0.00     0.168 HD
BRANCH   7   9
HETATM    9  C14 UNL     1     -36.519  -1.988   7.156  1.00  0.00     0.175 C 
BRANCH   9  10
HETATM   10  C15 UNL     1     -37.168  -3.279   7.084  1.00  0.00     0.214 C 
HETATM   11  O5  UNL     1     -36.654  -4.349   6.879  1.00  0.00    -0.643 OA
HETATM   12  O6  UNL     1     -38.597  -3.239   7.284  1.00  0.00    -0.643 OA
ENDBRANCH   9  10
ENDBRANCH   7   9
ENDBRANCH   3   5
ENDBRANCH   2   3
ENDBRANCH   1   2
BRANCH   1  13
HETATM   13  O1  UNL     1     -35.222   2.784   3.667  1.00  0.00    -0.334 OA
ATOM     14  H1  UNL     1     -35.965   3.296   3.368  1.00  0.00     0.220 HD
ENDBRANCH   1  13
BRANCH   1  15
HETATM   15  C4  UNL     1     -34.848   2.187   1.506  1.00  0.00     0.082 C 
BRANCH  15  16
HETATM   16  N2  UNL     1     -36.164   2.636   1.109  1.00  0.00    -0.301 N 
HETATM   17  C5  UNL     1     -36.844   3.816   1.234  1.00  0.00     0.365 C 
HETATM   18  O2  UNL     1     -36.461   4.841   1.773  1.00  0.00    -0.238 OA
ATOM     19  H2  UNL     1     -36.704   1.914   0.632  1.00  0.00     0.171 HD
BRANCH  17  20
HETATM   20  O3  UNL     1     -38.183   3.929   0.707  1.00  0.00    -0.294 OA
BRANCH  20  21
HETATM   21  C6  UNL     1     -38.350   4.566  -0.558  1.00  0.00     0.061 C 
HETATM   22  C7  UNL     1     -39.793   4.423  -0.983  1.00  0.00     0.046 C 
HETATM   23  C8  UNL     1     -37.468   3.983  -1.609  1.00  0.00     0.046 C 
HETATM   24  C9  UNL     1     -38.097   6.070  -0.426  1.00  0.00     0.046 C 
ENDBRANCH  20  21
ENDBRANCH  17  20
ENDBRANCH  15  16
BRANCH  15  25
HETATM   25  C10 UNL     1     -33.693   2.858   0.906  1.00  0.00     0.033 C 
HETATM   26  C11 UNL     1     -33.795   3.552  -0.392  1.00  0.00     0.016 C 
HETATM   27  C12 UNL     1     -33.031   3.778   1.932  1.00  0.00     0.016 C 
ENDBRANCH  15  25
ENDBRANCH   1  15
TORSDOF 11
ENDMDL
MODEL 3
REMARK VINA RESULT: -5.737917753      2.821      4.050
REMARK  11 active torsions:
REMARK  status: ('A' for Active; 'I' for Inactive)
REMARK    1  A    between atoms: C2_2  and  N1_3 
REMARK    2  A    between atoms: C2_2  and  C13_20 
REMARK    3  A    between atoms: N1_3  and  C3_4 
REMARK    4  A    between atoms: C3_4  and  O1_5 
REMARK    5  A    between atoms: C3_4  and  C4_7 
REMARK    6  A    between atoms: C4_7  and  N2_8 
REMARK    7  A    between atoms: C4_7  and  C10_17 
REMARK       I    between atoms: N2_8  and  C5_10 
REMARK    8  A    between atoms: C5_10  and  O3_12 
REMARK    9  A    between atoms: O3_12  and  C6_13 
REMARK       I    between atoms: C13_20  and  N3_22 
REMARK   10  A    between atoms: N3_22  and  C14_24 
REMARK   11  A    between atoms: C14_24  and  C15_25 
ROOT
HETATM    1  C3  UNL     1     -33.952   2.131   2.378  1.00  0.00     0.233 C 
ENDROOT
BRANCH   1   2
HETATM    2  N1  UNL     1     -33.824   0.980   3.127  1.00  0.00    -0.408 NA
BRANCH   2   3
HETATM    3  C2  UNL     1     -33.702  -0.149   3.857  1.00  0.00     0.254 C 
HETATM    4  C1  UNL     1     -32.349  -0.330   4.576  1.00  0.00     0.058 C 
BRANCH   3   5
HETATM    5  C13 UNL     1     -34.744  -0.121   5.069  1.00  0.00     0.257 C 
HETATM    6  O4  UNL     1     -35.077   1.060   5.300  1.00  0.00    -0.270 OA
HETATM    7  N3  UNL     1     -35.104  -1.265   5.615  1.00  0.00    -0.328 N 
ATOM      8  H3  UNL     1     -34.651  -2.061   5.165  1.00  0.00     0.168 HD
BRANCH   7   9
HETATM    9  C14 UNL     1     -35.979  -1.678   6.693  1.00  0.00     0.175 C 
BRANCH   9  10
HETATM   10  C15 UNL     1     -35.517  -1.366   8.028  1.00  0.00     0.214 C 
HETATM   11  O5  UNL     1     -34.378  -1.249   8.401  1.00  0.00    -0.643 OA
HETATM   12  O6  UNL     1     -36.572  -1.183   8.995  1.00  0.00    -0.643 OA
ENDBRANCH   9  10
ENDBRANCH   7   9
ENDBRANCH   3   5
ENDBRANCH   2   3
ENDBRANCH   1   2
BRANCH   1  13
HETATM   13  O1  UNL     1     -33.103   2.276   1.347  1.00  0.00    -0.334 OA
ATOM     14  H1  UNL     1     -32.659   3.114   1.275  1.00  0.00     0.220 HD
ENDBRANCH   1  13
BRANCH   1  15
HETATM   15  C4  UNL     1     -34.830   3.297   2.415  1.00  0.00     0.082 C 
BRANCH  15  16
HETATM   16  N2  UNL     1     -34.217   4.367   3.170  1.00  0.00    -0.301 N 
HETATM   17  C5  UNL     1     -33.280   5.320   2.880  1.00  0.00     0.365 C 
HETATM   18  O2  UNL     1     -32.686   5.483   1.827  1.00  0.00    -0.238 OA
ATOM     19  H2  UNL     1     -34.557   4.422   4.129  1.00  0.00     0.171 HD
BRANCH  17  20
HETATM   20  O3  UNL     1     -32.883   6.265   3.896  1.00  0.00    -0.294 OA
BRANCH  20  21
HETATM   21  C6  UNL     1     -33.734   7.384   4.134  1.00  0.00     0.061 C 
HETATM   22  C7  UNL     1     -34.551   7.114   5.376  1.00  0.00     0.046 C 
HETATM   23  C8  UNL     1     -34.652   7.654   2.991  1.00  0.00     0.046 C 
HETATM   24  C9  UNL     1     -32.893   8.625   4.446  1.00  0.00     0.046 C 
ENDBRANCH  20  21
ENDBRANCH  17  20
ENDBRANCH  15  16
BRANCH  15  25
HETATM   25  C10 UNL     1     -35.688   3.669   1.287  1.00  0.00     0.033 C 
HETATM   26  C11 UNL     1     -36.493   2.664   0.568  1.00  0.00     0.016 C 
HETATM   27  C12 UNL     1     -36.569   4.858   1.669  1.00  0.00     0.016 C 
ENDBRANCH  15  25
ENDBRANCH   1  15
TORSDOF 11
ENDMDL
MODEL 4
REMARK VINA RESULT: -5.727189542      2.878      3.921
REMARK  11 active torsions:
REMARK  status: ('A' for Active; 'I' for Inactive)
REMARK    1  A    between atoms: C2_2  and  N1_3 
REMARK    2  A    between atoms: C2_2  and  C13_20 
REMARK    3  A    between atoms: N1_3  and  C3_4 
REMARK    4  A    between atoms: C3_4  and  O1_5 
REMARK    5  A    between atoms: C3_4  and  C4_7 
REMARK    6  A    between atoms: C4_7  and  N2_8 
REMARK    7  A    between atoms: C4_7  and  C10_17 
REMARK       I    between atoms: N2_8  and  C5_10 
REMARK    8  A    between atoms: C5_10  and  O3_12 
REMARK    9  A    between atoms: O3_12  and  C6_13 
REMARK       I    between atoms: C13_20  and  N3_22 
REMARK   10  A    between atoms: N3_22  and  C14_24 
REMARK   11  A    between atoms: C14_24  and  C15_25 
ROOT
HETATM    1  C3  UNL     1     -33.748   1.953   2.426  1.00  0.00     0.233 C 
ENDROOT
BRANCH   1   2
HETATM    2  N1  UNL     1     -33.754   0.860   3.268  1.00  0.00    -0.408 NA
BRANCH   2   3
HETATM    3  C2  UNL     1     -33.760  -0.214   4.086  1.00  0.00     0.254 C 
HETATM    4  C1  UNL     1     -32.368  -0.754   4.478  1.00  0.00     0.058 C 
BRANCH   3   5
HETATM    5  C13 UNL     1     -34.392   0.189   5.498  1.00  0.00     0.257 C 
HETATM    6  O4  UNL     1     -35.277   1.052   5.323  1.00  0.00    -0.270 OA
HETATM    7  N3  UNL     1     -33.943  -0.411   6.581  1.00  0.00    -0.328 N 
ATOM      8  H3  UNL     1     -33.216  -1.094   6.365  1.00  0.00     0.168 HD
BRANCH   7   9
HETATM    9  C14 UNL     1     -34.219  -0.346   8.002  1.00  0.00     0.175 C 
BRANCH   9  10
HETATM   10  C15 UNL     1     -35.011  -1.433   8.535  1.00  0.00     0.214 C 
HETATM   11  O5  UNL     1     -34.619  -2.401   9.135  1.00  0.00    -0.643 OA
HETATM   12  O6  UNL     1     -36.429  -1.307   8.299  1.00  0.00    -0.643 OA
ENDBRANCH   9  10
ENDBRANCH   7   9
ENDBRANCH   3   5
ENDBRANCH   2   3
ENDBRANCH   1   2
BRANCH   1  13
HETATM   13  O1  UNL     1     -32.741   2.024   1.539  1.00  0.00    -0.334 OA
ATOM     14  H1  UNL     1     -32.379   2.887   1.374  1.00  0.00     0.220 HD
ENDBRANCH   1  13
BRANCH   1  15
HETATM   15  C4  UNL     1     -34.608   3.118   2.237  1.00  0.00     0.082 C 
BRANCH  15  16
HETATM   16  N2  UNL     1     -34.154   4.218   3.058  1.00  0.00    -0.301 N 
HETATM   17  C5  UNL     1     -33.335   5.292   2.842  1.00  0.00     0.365 C 
HETATM   18  O2  UNL     1     -32.736   5.576   1.818  1.00  0.00    -0.238 OA
ATOM     19  H2  UNL     1     -34.527   4.187   4.006  1.00  0.00     0.171 HD
BRANCH  17  20
HETATM   20  O3  UNL     1     -33.090   6.231   3.911  1.00  0.00    -0.294 OA
BRANCH  20  21
HETATM   21  C6  UNL     1     -34.069   7.238   4.152  1.00  0.00     0.061 C 
HETATM   22  C7  UNL     1     -34.512   7.146   5.593  1.00  0.00     0.046 C 
HETATM   23  C8  UNL     1     -35.257   7.100   3.263  1.00  0.00     0.046 C 
HETATM   24  C9  UNL     1     -33.444   8.626   3.991  1.00  0.00     0.046 C 
ENDBRANCH  20  21
ENDBRANCH  17  20
ENDBRANCH  15  16
BRANCH  15  25
HETATM   25  C10 UNL     1     -35.215   3.442   0.944  1.00  0.00     0.033 C 
HETATM   26  C11 UNL     1     -34.436   3.388  -0.308  1.00  0.00     0.016 C 
HETATM   27  C12 UNL     1     -36.523   2.669   0.772  1.00  0.00     0.016 C 
ENDBRANCH  15  25
ENDBRANCH   1  15
TORSDOF 11
ENDMDL
MODEL 5
REMARK VINA RESULT: -5.704961678      2.604      3.525
REMARK  11 active torsions:
REMARK  status: ('A' for Active; 'I' for Inactive)
REMARK    1  A    between atoms: C2_2  and  N1_3 
REMARK    2  A    between atoms: C2_2  and  C13_20 
REMARK    3  A    between atoms: N1_3  and  C3_4 
REMARK    4  A    between atoms: C3_4  and  O1_5 
REMARK    5  A    between atoms: C3_4  and  C4_7 
REMARK    6  A    between atoms: C4_7  and  N2_8 
REMARK    7  A    between atoms: C4_7  and  C10_17 
REMARK       I    between atoms: N2_8  and  C5_10 
REMARK    8  A    between atoms: C5_10  and  O3_12 
REMARK    9  A    between atoms: O3_12  and  C6_13 
REMARK       I    between atoms: C13_20  and  N3_22 
REMARK   10  A    between atoms: N3_22  and  C14_24 
REMARK   11  A    between atoms: C14_24  and  C15_25 
ROOT
HETATM    1  C3  UNL     1     -33.921   1.765   2.361  1.00  0.00     0.233 C 
ENDROOT
BRANCH   1   2
HETATM    2  N1  UNL     1     -33.763   0.749   3.281  1.00  0.00    -0.408 NA
BRANCH   2   3
HETATM    3  C2  UNL     1     -33.601  -0.245   4.180  1.00  0.00     0.254 C 
HETATM    4  C1  UNL     1     -32.148  -0.497   4.634  1.00  0.00     0.058 C 
BRANCH   3   5
HETATM    5  C13 UNL     1     -34.335   0.142   5.547  1.00  0.00     0.257 C 
HETATM    6  O4  UNL     1     -35.267   0.936   5.305  1.00  0.00    -0.270 OA
HETATM    7  N3  UNL     1     -33.903  -0.402   6.667  1.00  0.00    -0.328 N 
ATOM      8  H3  UNL     1     -33.120  -1.036   6.506  1.00  0.00     0.168 HD
BRANCH   7   9
HETATM    9  C14 UNL     1     -34.258  -0.326   8.069  1.00  0.00     0.175 C 
BRANCH   9  10
HETATM   10  C15 UNL     1     -35.034  -1.436   8.578  1.00  0.00     0.214 C 
HETATM   11  O5  UNL     1     -34.630  -2.405   9.168  1.00  0.00    -0.643 OA
HETATM   12  O6  UNL     1     -36.452  -1.334   8.329  1.00  0.00    -0.643 OA
ENDBRANCH   9  10
ENDBRANCH   7   9
ENDBRANCH   3   5
ENDBRANCH   2   3
ENDBRANCH   1   2
BRANCH   1  13
HETATM   13  O1  UNL     1     -32.873   2.019   1.559  1.00  0.00    -0.334 OA
ATOM     14  H1  UNL     1     -33.063   2.453   0.736  1.00  0.00     0.220 HD
ENDBRANCH   1  13
BRANCH   1  15
HETATM   15  C4  UNL     1     -34.999   2.685   2.011  1.00  0.00     0.082 C 
BRANCH  15  16
HETATM   16  N2  UNL     1     -34.815   3.955   2.676  1.00  0.00    -0.301 N 
HETATM   17  C5  UNL     1     -33.822   4.896   2.672  1.00  0.00     0.365 C 
HETATM   18  O2  UNL     1     -32.766   4.860   2.061  1.00  0.00    -0.238 OA
ATOM     19  H2  UNL     1     -35.596   4.204   3.281  1.00  0.00     0.171 HD
BRANCH  17  20
HETATM   20  O3  UNL     1     -33.963   6.088   3.473  1.00  0.00    -0.294 OA
BRANCH  20  21
HETATM   21  C6  UNL     1     -34.601   7.218   2.882  1.00  0.00     0.061 C 
HETATM   22  C7  UNL     1     -35.464   7.887   3.927  1.00  0.00     0.046 C 
HETATM   23  C8  UNL     1     -35.446   6.846   1.712  1.00  0.00     0.046 C 
HETATM   24  C9  UNL     1     -33.554   8.257   2.472  1.00  0.00     0.046 C 
ENDBRANCH  20  21
ENDBRANCH  17  20
ENDBRANCH  15  16
BRANCH  15  25
HETATM   25  C10 UNL     1     -35.617   2.698   0.683  1.00  0.00     0.033 C 
HETATM   26  C11 UNL     1     -37.048   3.012   0.503  1.00  0.00     0.016 C 
HETATM   27  C12 UNL     1     -34.779   3.543  -0.276  1.00  0.00     0.016 C 
ENDBRANCH  15  25
ENDBRANCH   1  15
TORSDOF 11
ENDMDL
