MODEL 1
REMARK VINA RESULT: -10.801367558      0.000      0.000
REMARK  8 active torsions:
REMARK  status: ('A' for Active; 'I' for Inactive)
REMARK    1  A    between atoms: N1_4  and  C4_5 
REMARK    2  A    between atoms: C4_5  and  C6_7 
REMARK    3  A    between atoms: C6_7  and  O1_8 
REMARK    4  A    between atoms: C21_24  and  N2_25 
REMARK    5  A    between atoms: N2_25  and  O2_26 
REMARK       I    between atoms: N2_25  and  C22_28 
REMARK       I    between atoms: C22_28  and  N3_30 
REMARK    6  A    between atoms: N3_30  and  C23_31 
REMARK    7  A    between atoms: C26_34  and  C27_35 
REMARK       I    between atoms: C27_35  and  N4_37 
REMARK    8  A    between atoms: C35_45  and  C36_46 
ROOT
HETATM    1  C1  UNL     1      39.404  51.445 134.933  1.00  0.00     0.016 C 
HETATM    2  C2  UNL     1      38.259  52.377 134.393  1.00  0.00     0.030 C 
HETATM    3  C3  UNL     1      37.321  52.510 135.501  1.00  0.00     0.131 C 
HETATM    4  N1  UNL     1      36.296  51.502 135.669  1.00  0.00    -0.386 N 
HETATM    5  C7  UNL     1      36.514  50.185 135.366  1.00  0.00     0.058 C 
HETATM    6  C8  UNL     1      36.926  49.216 136.422  1.00  0.00     0.044 C 
HETATM    7  C9  UNL     1      36.347  47.870 136.390  1.00  0.00     0.005 C 
HETATM    8  C10 UNL     1      35.901  47.278 135.118  1.00  0.00     0.000 C 
HETATM    9  C11 UNL     1      36.913  47.025 134.066  1.00  0.00     0.000 C 
HETATM   10  C12 UNL     1      36.379  46.780 132.694  1.00  0.00     0.000 C 
HETATM   11  C13 UNL     1      35.345  47.708 132.188  1.00  0.00     0.000 C 
HETATM   12  C14 UNL     1      35.858  48.552 131.002  1.00  0.00     0.000 C 
HETATM   13  C15 UNL     1      36.325  49.887 131.512  1.00  0.00     0.000 C 
HETATM   14  C16 UNL     1      36.225  51.010 130.507  1.00  0.00     0.000 C 
HETATM   15  C17 UNL     1      37.536  51.763 130.439  1.00  0.00     0.000 C 
HETATM   16  C18 UNL     1      37.655  52.859 131.477  1.00  0.00     0.004 C 
HETATM   17  C19 UNL     1      39.014  52.883 132.123  1.00  0.00     0.036 C 
HETATM   18  C20 UNL     1      38.885  53.397 133.625  1.00  0.00    -0.056 C 
HETATM   19  C21 UNL     1      38.722  54.826 133.483  1.00  0.00     0.132 C 
ENDROOT
BRANCH  19  20
HETATM   20  N2  UNL     1      38.889  55.742 134.557  1.00  0.00    -0.172 N 
HETATM   21  C22 UNL     1      37.831  56.298 135.316  1.00  0.00     0.419 C 
HETATM   22  O3  UNL     1      36.664  56.083 134.997  1.00  0.00    -0.228 OA
HETATM   23  N3  UNL     1      38.176  57.143 136.482  1.00  0.00    -0.388 NA
BRANCH  20  24
HETATM   24  O2  UNL     1      40.192  56.104 134.832  1.00  0.00    -0.278 OA
ATOM     25  H2  UNL     1      40.403  57.018 134.681  1.00  0.00     0.245 HD
ENDBRANCH  20  24
BRANCH  23  26
HETATM   26  C23 UNL     1      38.458  57.862 137.474  1.00  0.00     0.183 C 
HETATM   27  C24 UNL     1      37.945  57.332 138.818  1.00  0.00     0.041 C 
HETATM   28  C25 UNL     1      37.668  58.472 139.726  1.00  0.00     0.017 C 
HETATM   29  C26 UNL     1      38.815  59.438 139.648  1.00  0.00     0.079 C 
HETATM   30  C34 UNL     1      40.073  58.798 139.167  1.00  0.00     0.032 C 
HETATM   31  C35 UNL     1      39.960  58.235 137.805  1.00  0.00     0.123 C 
BRANCH  29  32
HETATM   32  C27 UNL     1      38.934  60.133 140.941  1.00  0.00     0.224 C 
HETATM   33  O4  UNL     1      38.312  61.242 141.071  1.00  0.00    -0.273 OA
HETATM   34  N4  UNL     1      39.662  59.695 142.045  1.00  0.00    -0.342 N 
HETATM   35  C28 UNL     1      39.817  60.406 143.335  1.00  0.00     0.087 C 
HETATM   36  C31 UNL     1      40.445  58.527 142.319  1.00  0.00     0.087 C 
HETATM   37  C29 UNL     1      41.329  60.487 143.340  1.00  0.00     0.027 C 
HETATM   38  C33 UNL     1      39.418  59.339 144.293  1.00  0.00     0.027 C 
HETATM   39  C30 UNL     1      41.762  59.180 142.705  1.00  0.00     0.027 C 
HETATM   40  C32 UNL     1      39.812  58.048 143.618  1.00  0.00     0.027 C 
ENDBRANCH  29  32
BRANCH  31  41
HETATM   41  C36 UNL     1      40.414  59.242 136.814  1.00  0.00     0.180 C 
HETATM   42  O5  UNL     1      40.829  60.352 137.209  1.00  0.00    -0.648 OA
HETATM   43  O6  UNL     1      40.403  59.016 135.433  1.00  0.00    -0.648 OA
ENDBRANCH  31  41
ENDBRANCH  23  26
ENDBRANCH  19  20
BRANCH   4  44
HETATM   44  C4  UNL     1      34.987  52.053 135.731  1.00  0.00     0.102 C 
HETATM   45  C5  UNL     1      33.981  51.209 136.471  1.00  0.00     0.034 C 
BRANCH  44  46
HETATM   46  C6  UNL     1      34.862  53.456 136.228  1.00  0.00     0.189 C 
BRANCH  46  47
HETATM   47  O1  UNL     1      34.226  54.293 135.352  1.00  0.00    -0.399 OA
ATOM     48  H1  UNL     1      33.565  54.840 135.759  1.00  0.00     0.209 HD
ENDBRANCH  46  47
ENDBRANCH  44  46
ENDBRANCH   4  44
TORSDOF 8
ENDMDL
MODEL 2
REMARK VINA RESULT: -10.557814127      1.142      1.429
REMARK  8 active torsions:
REMARK  status: ('A' for Active; 'I' for Inactive)
REMARK    1  A    between atoms: N1_4  and  C4_5 
REMARK    2  A    between atoms: C4_5  and  C6_7 
REMARK    3  A    between atoms: C6_7  and  O1_8 
REMARK    4  A    between atoms: C21_24  and  N2_25 
REMARK    5  A    between atoms: N2_25  and  O2_26 
REMARK       I    between atoms: N2_25  and  C22_28 
REMARK       I    between atoms: C22_28  and  N3_30 
REMARK    6  A    between atoms: N3_30  and  C23_31 
REMARK    7  A    between atoms: C26_34  and  C27_35 
REMARK       I    between atoms: C27_35  and  N4_37 
REMARK    8  A    between atoms: C35_45  and  C36_46 
ROOT
HETATM    1  C1  UNL     1      39.622  50.963 134.700  1.00  0.00     0.016 C 
HETATM    2  C2  UNL     1      38.435  51.918 134.312  1.00  0.00     0.030 C 
HETATM    3  C3  UNL     1      37.640  52.048 135.527  1.00  0.00     0.131 C 
HETATM    4  N1  UNL     1      36.627  51.053 135.805  1.00  0.00    -0.386 N 
HETATM    5  C7  UNL     1      36.787  49.737 135.462  1.00  0.00     0.058 C 
HETATM    6  C8  UNL     1      37.308  48.747 136.449  1.00  0.00     0.044 C 
HETATM    7  C9  UNL     1      36.708  47.411 136.471  1.00  0.00     0.005 C 
HETATM    8  C10 UNL     1      36.104  46.842 135.254  1.00  0.00     0.000 C 
HETATM    9  C11 UNL     1      36.978  46.589 134.085  1.00  0.00     0.000 C 
HETATM   10  C12 UNL     1      36.279  46.371 132.785  1.00  0.00     0.000 C 
HETATM   11  C13 UNL     1      35.206  47.320 132.418  1.00  0.00     0.000 C 
HETATM   12  C14 UNL     1      35.586  48.173 131.190  1.00  0.00     0.000 C 
HETATM   13  C15 UNL     1      36.131  49.495 131.656  1.00  0.00     0.000 C 
HETATM   14  C16 UNL     1      35.929  50.632 130.684  1.00  0.00     0.000 C 
HETATM   15  C17 UNL     1      37.233  51.368 130.467  1.00  0.00     0.000 C 
HETATM   16  C18 UNL     1      37.493  52.448 131.497  1.00  0.00     0.004 C 
HETATM   17  C19 UNL     1      38.920  52.445 131.975  1.00  0.00     0.036 C 
HETATM   18  C20 UNL     1      38.980  52.939 133.487  1.00  0.00    -0.056 C 
HETATM   19  C21 UNL     1      38.824  54.372 133.382  1.00  0.00     0.132 C 
ENDROOT
BRANCH  19  20
HETATM   20  N2  UNL     1      39.133  55.270 134.440  1.00  0.00    -0.172 N 
HETATM   21  C22 UNL     1      38.211  55.711 135.421  1.00  0.00     0.419 C 
HETATM   22  O3  UNL     1      37.025  55.403 135.336  1.00  0.00    -0.228 OA
HETATM   23  N3  UNL     1      38.718  56.552 136.529  1.00  0.00    -0.388 NA
BRANCH  20  24
HETATM   24  O2  UNL     1      40.430  55.739 134.462  1.00  0.00    -0.278 OA
ATOM     25  H2  UNL     1      41.102  55.092 134.284  1.00  0.00     0.245 HD
ENDBRANCH  20  24
BRANCH  23  26
HETATM   26  C23 UNL     1      39.139  57.268 137.473  1.00  0.00     0.183 C 
HETATM   27  C24 UNL     1      38.109  57.546 138.575  1.00  0.00     0.041 C 
HETATM   28  C25 UNL     1      38.386  58.867 139.190  1.00  0.00     0.017 C 
HETATM   29  C26 UNL     1      39.862  58.976 139.447  1.00  0.00     0.079 C 
HETATM   30  C34 UNL     1      40.529  57.646 139.541  1.00  0.00     0.032 C 
HETATM   31  C35 UNL     1      40.419  56.847 138.302  1.00  0.00     0.123 C 
BRANCH  29  32
HETATM   32  C27 UNL     1      40.072  59.854 140.611  1.00  0.00     0.224 C 
HETATM   33  O4  UNL     1      40.569  61.011 140.392  1.00  0.00    -0.273 OA
HETATM   34  N4  UNL     1      39.780  59.544 141.937  1.00  0.00    -0.342 N 
HETATM   35  C28 UNL     1      40.024  60.405 143.117  1.00  0.00     0.087 C 
HETATM   36  C31 UNL     1      39.200  58.406 142.586  1.00  0.00     0.087 C 
HETATM   37  C29 UNL     1      40.898  59.443 143.892  1.00  0.00     0.027 C 
HETATM   38  C33 UNL     1      38.676  60.403 143.749  1.00  0.00     0.027 C 
HETATM   39  C30 UNL     1      40.300  58.084 143.583  1.00  0.00     0.027 C 
HETATM   40  C32 UNL     1      38.082  59.064 143.386  1.00  0.00     0.027 C 
ENDBRANCH  29  32
BRANCH  31  41
HETATM   41  C36 UNL     1      41.614  57.083 137.454  1.00  0.00     0.180 C 
HETATM   42  O5  UNL     1      42.068  56.151 136.756  1.00  0.00    -0.648 OA
HETATM   43  O6  UNL     1      42.277  58.314 137.390  1.00  0.00    -0.648 OA
ENDBRANCH  31  41
ENDBRANCH  23  26
ENDBRANCH  19  20
BRANCH   4  44
HETATM   44  C4  UNL     1      35.343  51.620 136.031  1.00  0.00     0.102 C 
HETATM   45  C5  UNL     1      34.743  52.319 134.839  1.00  0.00     0.034 C 
BRANCH  44  46
HETATM   46  C6  UNL     1      34.298  50.727 136.614  1.00  0.00     0.189 C 
BRANCH  46  47
HETATM   47  O1  UNL     1      33.060  51.306 136.686  1.00  0.00    -0.399 OA
ATOM     48  H1  UNL     1      32.346  50.680 136.676  1.00  0.00     0.209 HD
ENDBRANCH  46  47
ENDBRANCH  44  46
ENDBRANCH   4  44
TORSDOF 8
ENDMDL
MODEL 3
REMARK VINA RESULT: -10.407092643      2.015      2.950
REMARK  8 active torsions:
REMARK  status: ('A' for Active; 'I' for Inactive)
REMARK    1  A    between atoms: N1_4  and  C4_5 
REMARK    2  A    between atoms: C4_5  and  C6_7 
REMARK    3  A    between atoms: C6_7  and  O1_8 
REMARK    4  A    between atoms: C21_24  and  N2_25 
REMARK    5  A    between atoms: N2_25  and  O2_26 
REMARK       I    between atoms: N2_25  and  C22_28 
REMARK       I    between atoms: C22_28  and  N3_30 
REMARK    6  A    between atoms: N3_30  and  C23_31 
REMARK    7  A    between atoms: C26_34  and  C27_35 
REMARK       I    between atoms: C27_35  and  N4_37 
REMARK    8  A    between atoms: C35_45  and  C36_46 
ROOT
HETATM    1  C1  UNL     1      39.147  52.453 132.274  1.00  0.00     0.016 C 
HETATM    2  C2  UNL     1      38.041  53.569 132.336  1.00  0.00     0.030 C 
HETATM    3  C3  UNL     1      37.184  53.193 133.453  1.00  0.00     0.131 C 
HETATM    4  N1  UNL     1      36.101  52.262 133.217  1.00  0.00    -0.386 N 
HETATM    5  C7  UNL     1      36.206  51.239 132.314  1.00  0.00     0.058 C 
HETATM    6  C8  UNL     1      36.610  49.872 132.752  1.00  0.00     0.044 C 
HETATM    7  C9  UNL     1      35.935  48.722 132.143  1.00  0.00     0.005 C 
HETATM    8  C10 UNL     1      35.373  48.818 130.785  1.00  0.00     0.000 C 
HETATM    9  C11 UNL     1      36.299  49.058 129.654  1.00  0.00     0.000 C 
HETATM   10  C12 UNL     1      35.667  49.511 128.380  1.00  0.00     0.000 C 
HETATM   11  C13 UNL     1      34.674  50.603 128.460  1.00  0.00     0.000 C 
HETATM   12  C14 UNL     1      35.174  51.889 127.769  1.00  0.00     0.000 C 
HETATM   13  C15 UNL     1      35.765  52.807 128.804  1.00  0.00     0.000 C 
HETATM   14  C16 UNL     1      35.685  54.274 128.456  1.00  0.00     0.000 C 
HETATM   15  C17 UNL     1      37.040  54.924 128.635  1.00  0.00     0.000 C 
HETATM   16  C18 UNL     1      37.299  55.393 130.051  1.00  0.00     0.004 C 
HETATM   17  C19 UNL     1      38.693  55.062 130.513  1.00  0.00     0.036 C 
HETATM   18  C20 UNL     1      38.691  54.808 132.085  1.00  0.00    -0.056 C 
HETATM   19  C21 UNL     1      38.623  56.139 132.644  1.00  0.00     0.132 C 
ENDROOT
BRANCH  19  20
HETATM   20  N2  UNL     1      38.919  56.431 134.003  1.00  0.00    -0.172 N 
HETATM   21  C22 UNL     1      37.961  56.482 135.046  1.00  0.00     0.419 C 
HETATM   22  O3  UNL     1      36.764  56.373 134.790  1.00  0.00    -0.228 OA
HETATM   23  N3  UNL     1      38.446  56.679 136.431  1.00  0.00    -0.388 NA
BRANCH  20  24
HETATM   24  O2  UNL     1      40.244  56.698 134.279  1.00  0.00    -0.278 OA
ATOM     25  H2  UNL     1      40.408  57.498 134.765  1.00  0.00     0.245 HD
ENDBRANCH  20  24
BRANCH  23  26
HETATM   26  C23 UNL     1      38.847  56.847 137.611  1.00  0.00     0.183 C 
HETATM   27  C24 UNL     1      37.793  56.576 138.691  1.00  0.00     0.041 C 
HETATM   28  C25 UNL     1      38.061  57.435 139.871  1.00  0.00     0.017 C 
HETATM   29  C26 UNL     1      39.530  57.387 140.176  1.00  0.00     0.079 C 
HETATM   30  C34 UNL     1      40.191  56.167 139.631  1.00  0.00     0.032 C 
HETATM   31  C35 UNL     1      40.107  56.063 138.159  1.00  0.00     0.123 C 
BRANCH  29  32
HETATM   32  C27 UNL     1      39.717  57.595 141.622  1.00  0.00     0.224 C 
HETATM   33  O4  UNL     1      39.730  56.556 142.368  1.00  0.00    -0.273 OA
HETATM   34  N4  UNL     1      39.883  58.821 142.261  1.00  0.00    -0.342 N 
HETATM   35  C28 UNL     1      40.033  59.042 143.717  1.00  0.00     0.087 C 
HETATM   36  C31 UNL     1      39.963  60.176 141.803  1.00  0.00     0.087 C 
HETATM   37  C29 UNL     1      38.858  59.977 143.902  1.00  0.00     0.027 C 
HETATM   38  C33 UNL     1      41.275  59.862 143.751  1.00  0.00     0.027 C 
HETATM   39  C30 UNL     1      38.845  60.796 142.626  1.00  0.00     0.027 C 
HETATM   40  C32 UNL     1      41.265  60.628 142.450  1.00  0.00     0.027 C 
ENDBRANCH  29  32
BRANCH  31  41
HETATM   41  C36 UNL     1      41.322  56.662 137.551  1.00  0.00     0.180 C 
HETATM   42  O5  UNL     1      41.904  56.063 136.621  1.00  0.00    -0.648 OA
HETATM   43  O6  UNL     1      41.864  57.883 137.967  1.00  0.00    -0.648 OA
ENDBRANCH  31  41
ENDBRANCH  23  26
ENDBRANCH  19  20
BRANCH   4  44
HETATM   44  C4  UNL     1      34.841  52.763 133.644  1.00  0.00     0.102 C 
HETATM   45  C5  UNL     1      33.687  51.813 133.454  1.00  0.00     0.034 C 
BRANCH  44  46
HETATM   46  C6  UNL     1      34.760  53.310 135.031  1.00  0.00     0.189 C 
BRANCH  46  47
HETATM   47  O1  UNL     1      34.392  54.628 135.080  1.00  0.00    -0.399 OA
ATOM     48  H1  UNL     1      34.885  55.182 134.487  1.00  0.00     0.209 HD
ENDBRANCH  46  47
ENDBRANCH  44  46
ENDBRANCH   4  44
TORSDOF 8
ENDMDL
MODEL 4
REMARK VINA RESULT: -10.148324807      1.787      2.352
REMARK  8 active torsions:
REMARK  status: ('A' for Active; 'I' for Inactive)
REMARK    1  A    between atoms: N1_4  and  C4_5 
REMARK    2  A    between atoms: C4_5  and  C6_7 
REMARK    3  A    between atoms: C6_7  and  O1_8 
REMARK    4  A    between atoms: C21_24  and  N2_25 
REMARK    5  A    between atoms: N2_25  and  O2_26 
REMARK       I    between atoms: N2_25  and  C22_28 
REMARK       I    between atoms: C22_28  and  N3_30 
REMARK    6  A    between atoms: N3_30  and  C23_31 
REMARK    7  A    between atoms: C26_34  and  C27_35 
REMARK       I    between atoms: C27_35  and  N4_37 
REMARK    8  A    between atoms: C35_45  and  C36_46 
ROOT
HETATM    1  C1  UNL     1      38.455  50.783 133.452  1.00  0.00     0.016 C 
HETATM    2  C2  UNL     1      37.678  52.098 133.079  1.00  0.00     0.030 C 
HETATM    3  C3  UNL     1      36.682  52.262 134.131  1.00  0.00     0.131 C 
HETATM    4  N1  UNL     1      35.411  51.583 133.998  1.00  0.00    -0.386 N 
HETATM    5  C7  UNL     1      35.303  50.352 133.407  1.00  0.00     0.058 C 
HETATM    6  C8  UNL     1      35.306  49.107 134.229  1.00  0.00     0.044 C 
HETATM    7  C9  UNL     1      34.396  48.025 133.848  1.00  0.00     0.005 C 
HETATM    8  C10 UNL     1      33.967  47.865 132.448  1.00  0.00     0.000 C 
HETATM    9  C11 UNL     1      34.995  47.555 131.427  1.00  0.00     0.000 C 
HETATM   10  C12 UNL     1      34.587  47.767 130.007  1.00  0.00     0.000 C 
HETATM   11  C13 UNL     1      33.911  49.039 129.673  1.00  0.00     0.000 C 
HETATM   12  C14 UNL     1      34.773  49.926 128.751  1.00  0.00     0.000 C 
HETATM   13  C15 UNL     1      35.515  50.932 129.587  1.00  0.00     0.000 C 
HETATM   14  C16 UNL     1      35.845  52.219 128.869  1.00  0.00     0.000 C 
HETATM   15  C17 UNL     1      37.308  52.558 129.057  1.00  0.00     0.000 C 
HETATM   16  C18 UNL     1      37.588  53.330 130.328  1.00  0.00     0.004 C 
HETATM   17  C19 UNL     1      38.815  52.825 131.040  1.00  0.00     0.036 C 
HETATM   18  C20 UNL     1      38.645  53.030 132.610  1.00  0.00    -0.056 C 
HETATM   19  C21 UNL     1      38.891  54.441 132.798  1.00  0.00     0.132 C 
ENDROOT
BRANCH  19  20
HETATM   20  N2  UNL     1      39.164  55.024 134.065  1.00  0.00    -0.172 N 
HETATM   21  C22 UNL     1      38.191  55.607 134.913  1.00  0.00     0.419 C 
HETATM   22  O3  UNL     1      37.032  55.733 134.527  1.00  0.00    -0.228 OA
HETATM   23  N3  UNL     1      38.617  56.063 136.256  1.00  0.00    -0.388 NA
BRANCH  20  24
HETATM   24  O2  UNL     1      40.490  55.020 134.448  1.00  0.00    -0.278 OA
ATOM     25  H2  UNL     1      41.097  55.399 133.824  1.00  0.00     0.245 HD
ENDBRANCH  20  24
BRANCH  23  26
HETATM   26  C23 UNL     1      38.969  56.455 137.398  1.00  0.00     0.183 C 
HETATM   27  C24 UNL     1      37.919  56.251 138.497  1.00  0.00     0.041 C 
HETATM   28  C25 UNL     1      38.070  57.308 139.527  1.00  0.00     0.017 C 
HETATM   29  C26 UNL     1      39.529  57.458 139.851  1.00  0.00     0.079 C 
HETATM   30  C34 UNL     1      40.321  56.241 139.514  1.00  0.00     0.032 C 
HETATM   31  C35 UNL     1      40.286  55.899 138.077  1.00  0.00     0.123 C 
BRANCH  29  32
HETATM   32  C27 UNL     1      39.656  57.908 141.248  1.00  0.00     0.224 C 
HETATM   33  O4  UNL     1      39.504  57.030 142.165  1.00  0.00    -0.273 OA
HETATM   34  N4  UNL     1      39.930  59.207 141.670  1.00  0.00    -0.342 N 
HETATM   35  C28 UNL     1      40.021  59.676 143.072  1.00  0.00     0.087 C 
HETATM   36  C31 UNL     1      40.194  60.438 140.987  1.00  0.00     0.087 C 
HETATM   37  C29 UNL     1      38.957  60.748 142.996  1.00  0.00     0.027 C 
HETATM   38  C33 UNL     1      41.348  60.352 143.055  1.00  0.00     0.027 C 
HETATM   39  C30 UNL     1      39.113  61.314 141.598  1.00  0.00     0.027 C 
HETATM   40  C32 UNL     1      41.503  60.861 141.643  1.00  0.00     0.027 C 
ENDBRANCH  29  32
BRANCH  31  41
HETATM   41  C36 UNL     1      41.451  56.514 137.393  1.00  0.00     0.180 C 
HETATM   42  O5  UNL     1      42.146  55.823 136.618  1.00  0.00    -0.648 OA
HETATM   43  O6  UNL     1      41.824  57.851 137.570  1.00  0.00    -0.648 OA
ENDBRANCH  31  41
ENDBRANCH  23  26
ENDBRANCH  19  20
BRANCH   4  44
HETATM   44  C4  UNL     1      34.301  52.463 134.110  1.00  0.00     0.102 C 
HETATM   45  C5  UNL     1      32.958  51.818 133.885  1.00  0.00     0.034 C 
BRANCH  44  46
HETATM   46  C6  UNL     1      34.211  53.288 135.352  1.00  0.00     0.189 C 
BRANCH  46  47
HETATM   47  O1  UNL     1      34.308  54.634 135.124  1.00  0.00    -0.399 OA
ATOM     48  H1  UNL     1      33.584  55.134 135.482  1.00  0.00     0.209 HD
ENDBRANCH  46  47
ENDBRANCH  44  46
ENDBRANCH   4  44
TORSDOF 8
ENDMDL
MODEL 5
REMARK VINA RESULT: -10.000321234      1.722      2.665
REMARK  8 active torsions:
REMARK  status: ('A' for Active; 'I' for Inactive)
REMARK    1  A    between atoms: N1_4  and  C4_5 
REMARK    2  A    between atoms: C4_5  and  C6_7 
REMARK    3  A    between atoms: C6_7  and  O1_8 
REMARK    4  A    between atoms: C21_24  and  N2_25 
REMARK    5  A    between atoms: N2_25  and  O2_26 
REMARK       I    between atoms: N2_25  and  C22_28 
REMARK       I    between atoms: C22_28  and  N3_30 
REMARK    6  A    between atoms: N3_30  and  C23_31 
REMARK    7  A    between atoms: C26_34  and  C27_35 
REMARK       I    between atoms: C27_35  and  N4_37 
REMARK    8  A    between atoms: C35_45  and  C36_46 
ROOT
HETATM    1  C1  UNL     1      39.239  50.165 134.959  1.00  0.00     0.016 C 
HETATM    2  C2  UNL     1      37.964  51.036 134.666  1.00  0.00     0.030 C 
HETATM    3  C3  UNL     1      37.270  51.136 135.943  1.00  0.00     0.131 C 
HETATM    4  N1  UNL     1      36.351  50.084 136.320  1.00  0.00    -0.386 N 
HETATM    5  C7  UNL     1      36.565  48.775 135.980  1.00  0.00     0.058 C 
HETATM    6  C8  UNL     1      37.232  47.838 136.929  1.00  0.00     0.044 C 
HETATM    7  C9  UNL     1      36.724  46.466 137.018  1.00  0.00     0.005 C 
HETATM    8  C10 UNL     1      36.056  45.840 135.865  1.00  0.00     0.000 C 
HETATM    9  C11 UNL     1      36.840  45.623 134.627  1.00  0.00     0.000 C 
HETATM   10  C12 UNL     1      36.047  45.339 133.395  1.00  0.00     0.000 C 
HETATM   11  C13 UNL     1      34.888  46.212 133.112  1.00  0.00     0.000 C 
HETATM   12  C14 UNL     1      35.105  47.066 131.846  1.00  0.00     0.000 C 
HETATM   13  C15 UNL     1      35.601  48.427 132.248  1.00  0.00     0.000 C 
HETATM   14  C16 UNL     1      35.243  49.533 131.284  1.00  0.00     0.000 C 
HETATM   15  C17 UNL     1      36.474  50.347 130.946  1.00  0.00     0.000 C 
HETATM   16  C18 UNL     1      36.750  51.458 131.937  1.00  0.00     0.004 C 
HETATM   17  C19 UNL     1      38.211  51.553 132.289  1.00  0.00     0.036 C 
HETATM   18  C20 UNL     1      38.369  52.076 133.784  1.00  0.00    -0.056 C 
HETATM   19  C21 UNL     1      38.112  53.494 133.678  1.00  0.00     0.132 C 
ENDROOT
BRANCH  19  20
HETATM   20  N2  UNL     1      38.452  54.428 134.694  1.00  0.00    -0.172 N 
HETATM   21  C22 UNL     1      39.775  54.773 135.064  1.00  0.00     0.419 C 
HETATM   22  O3  UNL     1      40.729  54.176 134.572  1.00  0.00    -0.228 OA
HETATM   23  N3  UNL     1      39.963  55.854 136.058  1.00  0.00    -0.388 NA
BRANCH  20  24
HETATM   24  O2  UNL     1      37.386  55.001 135.356  1.00  0.00    -0.278 OA
ATOM     25  H2  UNL     1      37.441  55.940 135.485  1.00  0.00     0.245 HD
ENDBRANCH  20  24
BRANCH  23  26
HETATM   26  C23 UNL     1      40.134  56.771 136.902  1.00  0.00     0.183 C 
HETATM   27  C24 UNL     1      41.048  57.911 136.435  1.00  0.00     0.041 C 
HETATM   28  C25 UNL     1      41.747  58.495 137.605  1.00  0.00     0.017 C 
HETATM   29  C26 UNL     1      40.751  58.689 138.712  1.00  0.00     0.079 C 
HETATM   30  C34 UNL     1      39.348  58.773 138.215  1.00  0.00     0.032 C 
HETATM   31  C35 UNL     1      38.901  57.551 137.514  1.00  0.00     0.123 C 
BRANCH  29  32
HETATM   32  C27 UNL     1      41.181  59.831 139.537  1.00  0.00     0.224 C 
HETATM   33  O4  UNL     1      42.172  60.520 139.115  1.00  0.00    -0.273 OA
HETATM   34  N4  UNL     1      40.608  60.237 140.739  1.00  0.00    -0.342 N 
HETATM   35  C28 UNL     1      41.058  61.360 141.594  1.00  0.00     0.087 C 
HETATM   36  C31 UNL     1      39.496  59.775 141.516  1.00  0.00     0.087 C 
HETATM   37  C29 UNL     1      41.291  60.567 142.862  1.00  0.00     0.027 C 
HETATM   38  C33 UNL     1      39.786  62.114 141.759  1.00  0.00     0.027 C 
HETATM   39  C30 UNL     1      40.189  59.526 142.845  1.00  0.00     0.027 C 
HETATM   40  C32 UNL     1      38.703  61.065 141.687  1.00  0.00     0.027 C 
ENDBRANCH  29  32
BRANCH  31  41
HETATM   41  C36 UNL     1      38.218  56.650 138.476  1.00  0.00     0.180 C 
HETATM   42  O5  UNL     1      37.451  55.761 138.050  1.00  0.00    -0.648 OA
HETATM   43  O6  UNL     1      38.387  56.741 139.862  1.00  0.00    -0.648 OA
ENDBRANCH  31  41
ENDBRANCH  23  26
ENDBRANCH  19  20
BRANCH   4  44
HETATM   44  C4  UNL     1      35.057  50.573 136.650  1.00  0.00     0.102 C 
HETATM   45  C5  UNL     1      34.720  51.917 136.059  1.00  0.00     0.034 C 
BRANCH  44  46
HETATM   46  C6  UNL     1      33.901  49.660 136.402  1.00  0.00     0.189 C 
BRANCH  46  47
HETATM   47  O1  UNL     1      32.685  50.281 136.486  1.00  0.00    -0.399 OA
ATOM     48  H1  UNL     1      31.949  49.682 136.443  1.00  0.00     0.209 HD
ENDBRANCH  46  47
ENDBRANCH  44  46
ENDBRANCH   4  44
TORSDOF 8
ENDMDL
