MODEL 1
REMARK VINA RESULT: -8.355261349      0.000      0.000
REMARK  9 active torsions:
REMARK  status: ('A' for Active; 'I' for Inactive)
REMARK    1  A    between atoms: C3_3  and  C4_4 
REMARK    2  A    between atoms: C4_4  and  C5_5 
REMARK    3  A    between atoms: C5_5  and  C6_10 
REMARK    4  A    between atoms: N1_6  and  O1_8 
REMARK       I    between atoms: C6_10  and  N2_12 
REMARK    5  A    between atoms: C15_21  and  C16_22 
REMARK       I    between atoms: C16_22  and  N3_24 
REMARK    6  A    between atoms: N3_24  and  C17_26 
REMARK    7  A    between atoms: C17_26  and  C18_27 
REMARK    8  A    between atoms: C17_26  and  C20_31 
REMARK    9  A    between atoms: C18_27  and  C19_28 
ROOT
HETATM    1  C1  UNL     1      38.131  48.346 135.999  1.00  0.00     0.015 C 
HETATM    2  C2  UNL     1      37.407  49.290 135.487  1.00  0.00    -0.076 C 
HETATM    3  C3  UNL     1      36.078  49.920 135.489  1.00  0.00     0.025 C 
HETATM    4  C9  UNL     1      36.841  51.211 135.260  1.00  0.00     0.007 C 
HETATM    5  C10 UNL     1      36.282  52.260 134.395  1.00  0.00     0.016 C 
HETATM    6  C11 UNL     1      37.127  53.520 134.584  1.00  0.00     0.020 C 
HETATM    7  C12 UNL     1      38.446  53.236 135.149  1.00  0.00    -0.072 C 
HETATM    8  C13 UNL     1      39.291  54.040 135.807  1.00  0.00    -0.058 A 
HETATM    9  C14 UNL     1      40.503  54.584 136.565  1.00  0.00     0.059 A 
HETATM   10  C15 UNL     1      39.312  55.455 136.266  1.00  0.00     0.068 A 
HETATM   11  C21 UNL     1      39.416  56.322 135.031  1.00  0.00     0.025 C 
HETATM   12  C22 UNL     1      38.065  56.351 134.392  1.00  0.00     0.011 C 
HETATM   13  C23 UNL     1      37.882  55.517 133.173  1.00  0.00    -0.035 C 
HETATM   14  C24 UNL     1      39.166  55.288 132.407  1.00  0.00     0.010 C 
HETATM   15  C25 UNL     1      38.916  54.830 130.979  1.00  0.00     0.006 C 
HETATM   16  C26 UNL     1      37.470  54.457 130.893  1.00  0.00    -0.006 C 
HETATM   17  C27 UNL     1      37.129  53.528 132.041  1.00  0.00     0.011 C 
HETATM   18  C28 UNL     1      37.029  54.298 133.342  1.00  0.00     0.002 C 
HETATM   19  C29 UNL     1      36.677  55.740 130.960  1.00  0.00    -0.043 C 
HETATM   20  C30 UNL     1      37.154  56.589 129.778  1.00  0.00     0.015 C 
HETATM   21  C31 UNL     1      35.208  55.537 130.787  1.00  0.00     0.015 C 
HETATM   22  C32 UNL     1      37.075  56.436 132.212  1.00  0.00     0.019 C 
HETATM   23  C33 UNL     1      39.363  52.078 135.263  1.00  0.00     0.036 C 
HETATM   24  C34 UNL     1      39.082  50.903 134.422  1.00  0.00     0.018 C 
HETATM   25  C35 UNL     1      37.741  50.320 134.438  1.00  0.00    -0.016 C 
HETATM   26  C36 UNL     1      37.276  49.841 133.126  1.00  0.00     0.020 C 
ENDROOT
BRANCH  10  27
HETATM   27  C16 UNL     1      38.562  55.920 137.431  1.00  0.00     0.231 C 
HETATM   28  O3  UNL     1      37.381  55.463 137.679  1.00  0.00    -0.272 OA
HETATM   29  N3  UNL     1      39.013  56.867 138.363  1.00  0.00    -0.345 N 
ATOM     30  H3  UNL     1      39.939  57.278 138.240  1.00  0.00     0.163 HD
BRANCH  29  31
HETATM   31  C17 UNL     1      38.187  57.293 139.527  1.00  0.00     0.195 C 
BRANCH  31  32
HETATM   32  C18 UNL     1      38.773  56.702 140.770  1.00  0.00     0.149 C 
BRANCH  32  33
HETATM   33  C19 UNL     1      40.103  56.156 140.581  1.00  0.00     0.175 C 
HETATM   34  O4  UNL     1      41.131  56.874 140.559  1.00  0.00    -0.648 OA
HETATM   35  O5  UNL     1      40.325  54.764 140.406  1.00  0.00    -0.648 OA
ENDBRANCH  32  33
ENDBRANCH  31  32
BRANCH  31  36
HETATM   36  C20 UNL     1      38.270  58.773 139.603  1.00  0.00     0.197 C 
HETATM   37  O6  UNL     1      39.285  59.335 139.059  1.00  0.00    -0.646 OA
HETATM   38  O7  UNL     1      37.382  59.625 140.189  1.00  0.00    -0.646 OA
ENDBRANCH  31  36
ENDBRANCH  29  31
ENDBRANCH  10  27
BRANCH   3  39
HETATM   39  C4  UNL     1      35.244  49.892 136.725  1.00  0.00     0.074 C 
BRANCH  39  40
HETATM   40  C5  UNL     1      33.803  49.898 136.377  1.00  0.00     0.100 C 
HETATM   41  N1  UNL     1      33.028  48.930 136.806  1.00  0.00    -0.268 N 
ATOM     42  H1  UNL     1      32.034  48.910 136.577  1.00  0.00     0.194 HD
BRANCH  41  43
HETATM   43  O1  UNL     1      33.594  47.952 137.567  1.00  0.00    -0.290 OA
ATOM     44  H1  UNL     1      33.033  47.251 137.877  1.00  0.00     0.244 HD
ENDBRANCH  41  43
BRANCH  40  45
HETATM   45  C6  UNL     1      33.171  50.938 135.607  1.00  0.00     0.267 C 
HETATM   46  O2  UNL     1      32.805  50.640 134.416  1.00  0.00    -0.266 OA
HETATM   47  N2  UNL     1      32.903  52.258 136.002  1.00  0.00    -0.356 N 
HETATM   48  C7  UNL     1      32.249  53.213 135.088  1.00  0.00     0.152 C 
HETATM   49  C8  UNL     1      33.253  52.743 137.306  1.00  0.00     0.152 C 
ENDBRANCH  40  45
ENDBRANCH  39  40
ENDBRANCH   3  39
TORSDOF 9
ENDMDL
MODEL 2
REMARK VINA RESULT: -8.255459417      1.123      1.467
REMARK  9 active torsions:
REMARK  status: ('A' for Active; 'I' for Inactive)
REMARK    1  A    between atoms: C3_3  and  C4_4 
REMARK    2  A    between atoms: C4_4  and  C5_5 
REMARK    3  A    between atoms: C5_5  and  C6_10 
REMARK    4  A    between atoms: N1_6  and  O1_8 
REMARK       I    between atoms: C6_10  and  N2_12 
REMARK    5  A    between atoms: C15_21  and  C16_22 
REMARK       I    between atoms: C16_22  and  N3_24 
REMARK    6  A    between atoms: N3_24  and  C17_26 
REMARK    7  A    between atoms: C17_26  and  C18_27 
REMARK    8  A    between atoms: C17_26  and  C20_31 
REMARK    9  A    between atoms: C18_27  and  C19_28 
ROOT
HETATM    1  C1  UNL     1      38.130  48.083 135.668  1.00  0.00     0.015 C 
HETATM    2  C2  UNL     1      37.450  49.140 135.356  1.00  0.00    -0.076 C 
HETATM    3  C3  UNL     1      36.215  49.895 135.618  1.00  0.00     0.025 C 
HETATM    4  C9  UNL     1      37.077  51.121 135.384  1.00  0.00     0.007 C 
HETATM    5  C10 UNL     1      36.520  52.302 134.707  1.00  0.00     0.016 C 
HETATM    6  C11 UNL     1      37.521  53.447 134.869  1.00  0.00     0.020 C 
HETATM    7  C12 UNL     1      38.867  52.978 135.196  1.00  0.00    -0.072 C 
HETATM    8  C13 UNL     1      39.884  53.626 135.779  1.00  0.00    -0.058 A 
HETATM    9  C14 UNL     1      41.248  53.968 136.384  1.00  0.00     0.059 A 
HETATM   10  C15 UNL     1      40.131  54.978 136.348  1.00  0.00     0.068 A 
HETATM   11  C21 UNL     1      40.152  55.950 135.189  1.00  0.00     0.025 C 
HETATM   12  C22 UNL     1      38.734  56.177 134.772  1.00  0.00     0.011 C 
HETATM   13  C23 UNL     1      38.283  55.491 133.531  1.00  0.00    -0.035 C 
HETATM   14  C24 UNL     1      39.407  55.215 132.558  1.00  0.00     0.010 C 
HETATM   15  C25 UNL     1      38.902  54.929 131.153  1.00  0.00     0.006 C 
HETATM   16  C26 UNL     1      37.426  54.712 131.261  1.00  0.00    -0.006 C 
HETATM   17  C27 UNL     1      37.153  53.710 132.366  1.00  0.00     0.011 C 
HETATM   18  C28 UNL     1      37.332  54.351 133.727  1.00  0.00     0.002 C 
HETATM   19  C29 UNL     1      36.801  56.053 131.559  1.00  0.00    -0.043 C 
HETATM   20  C30 UNL     1      37.194  56.965 130.393  1.00  0.00     0.015 C 
HETATM   21  C31 UNL     1      35.310  56.015 131.599  1.00  0.00     0.015 C 
HETATM   22  C32 UNL     1      37.453  56.577 132.788  1.00  0.00     0.019 C 
HETATM   23  C33 UNL     1      39.655  51.730 135.067  1.00  0.00     0.036 C 
HETATM   24  C34 UNL     1      39.123  50.680 134.184  1.00  0.00     0.018 C 
HETATM   25  C35 UNL     1      37.742  50.233 134.359  1.00  0.00    -0.016 C 
HETATM   26  C36 UNL     1      37.040  49.936 133.100  1.00  0.00     0.020 C 
ENDROOT
BRANCH  10  27
HETATM   27  C16 UNL     1      39.616  55.395 137.650  1.00  0.00     0.231 C 
HETATM   28  O3  UNL     1      38.889  54.598 138.357  1.00  0.00    -0.272 OA
HETATM   29  N3  UNL     1      39.837  56.645 138.249  1.00  0.00    -0.345 N 
ATOM     30  H3  UNL     1      40.404  57.335 137.755  1.00  0.00     0.163 HD
BRANCH  29  31
HETATM   31  C17 UNL     1      39.274  56.998 139.582  1.00  0.00     0.195 C 
BRANCH  31  32
HETATM   32  C18 UNL     1      40.321  57.729 140.364  1.00  0.00     0.149 C 
BRANCH  32  33
HETATM   33  C19 UNL     1      40.941  58.814 139.628  1.00  0.00     0.175 C 
HETATM   34  O4  UNL     1      41.784  58.620 138.720  1.00  0.00    -0.648 OA
HETATM   35  O5  UNL     1      40.630  60.174 139.894  1.00  0.00    -0.648 OA
ENDBRANCH  32  33
ENDBRANCH  31  32
BRANCH  31  36
HETATM   36  C20 UNL     1      38.122  57.903 139.343  1.00  0.00     0.197 C 
HETATM   37  O6  UNL     1      37.760  58.088 138.128  1.00  0.00    -0.646 OA
HETATM   38  O7  UNL     1      37.387  58.574 140.275  1.00  0.00    -0.646 OA
ENDBRANCH  31  36
ENDBRANCH  29  31
ENDBRANCH  10  27
BRANCH   3  39
HETATM   39  C4  UNL     1      35.572  49.826 136.962  1.00  0.00     0.074 C 
BRANCH  39  40
HETATM   40  C5  UNL     1      34.107  50.022 136.846  1.00  0.00     0.100 C 
HETATM   41  N1  UNL     1      33.300  49.002 137.023  1.00  0.00    -0.268 N 
ATOM     42  H1  UNL     1      32.288  49.111 136.944  1.00  0.00     0.194 HD
BRANCH  41  43
HETATM   43  O1  UNL     1      33.857  47.794 137.316  1.00  0.00    -0.290 OA
ATOM     44  H1  UNL     1      34.661  47.557 136.869  1.00  0.00     0.244 HD
ENDBRANCH  41  43
BRANCH  40  45
HETATM   45  C6  UNL     1      33.490  51.294 136.575  1.00  0.00     0.267 C 
HETATM   46  O2  UNL     1      33.374  52.107 137.559  1.00  0.00    -0.266 OA
HETATM   47  N2  UNL     1      32.990  51.764 135.351  1.00  0.00    -0.356 N 
HETATM   48  C7  UNL     1      32.376  53.100 135.236  1.00  0.00     0.152 C 
HETATM   49  C8  UNL     1      33.046  50.971 134.157  1.00  0.00     0.152 C 
ENDBRANCH  40  45
ENDBRANCH  39  40
ENDBRANCH   3  39
TORSDOF 9
ENDMDL
MODEL 3
REMARK VINA RESULT: -8.189641498      4.266      7.725
REMARK  9 active torsions:
REMARK  status: ('A' for Active; 'I' for Inactive)
REMARK    1  A    between atoms: C3_3  and  C4_4 
REMARK    2  A    between atoms: C4_4  and  C5_5 
REMARK    3  A    between atoms: C5_5  and  C6_10 
REMARK    4  A    between atoms: N1_6  and  O1_8 
REMARK       I    between atoms: C6_10  and  N2_12 
REMARK    5  A    between atoms: C15_21  and  C16_22 
REMARK       I    between atoms: C16_22  and  N3_24 
REMARK    6  A    between atoms: N3_24  and  C17_26 
REMARK    7  A    between atoms: C17_26  and  C18_27 
REMARK    8  A    between atoms: C17_26  and  C20_31 
REMARK    9  A    between atoms: C18_27  and  C19_28 
ROOT
HETATM    1  C1  UNL     1      40.754  52.370 135.278  1.00  0.00     0.015 C 
HETATM    2  C2  UNL     1      39.752  53.110 134.923  1.00  0.00    -0.076 C 
HETATM    3  C3  UNL     1      39.214  54.479 134.908  1.00  0.00     0.025 C 
HETATM    4  C9  UNL     1      38.614  54.083 133.572  1.00  0.00     0.007 C 
HETATM    5  C10 UNL     1      37.290  54.583 133.177  1.00  0.00     0.016 C 
HETATM    6  C11 UNL     1      37.088  54.248 131.698  1.00  0.00     0.020 C 
HETATM    7  C12 UNL     1      37.974  53.181 131.235  1.00  0.00    -0.072 C 
HETATM    8  C13 UNL     1      38.379  52.877 129.995  1.00  0.00    -0.058 A 
HETATM    9  C14 UNL     1      39.059  52.206 128.800  1.00  0.00     0.059 A 
HETATM   10  C15 UNL     1      38.182  53.417 128.623  1.00  0.00     0.068 A 
HETATM   11  C21 UNL     1      36.743  53.144 128.241  1.00  0.00     0.025 C 
HETATM   12  C22 UNL     1      35.895  54.144 128.960  1.00  0.00     0.011 C 
HETATM   13  C23 UNL     1      35.142  53.652 130.146  1.00  0.00    -0.035 C 
HETATM   14  C24 UNL     1      34.825  52.175 130.083  1.00  0.00     0.010 C 
HETATM   15  C25 UNL     1      33.713  51.778 131.042  1.00  0.00     0.006 C 
HETATM   16  C26 UNL     1      33.504  52.938 131.963  1.00  0.00    -0.006 C 
HETATM   17  C27 UNL     1      34.845  53.376 132.521  1.00  0.00     0.011 C 
HETATM   18  C28 UNL     1      35.641  54.129 131.475  1.00  0.00     0.002 C 
HETATM   19  C29 UNL     1      32.854  54.035 131.155  1.00  0.00    -0.043 C 
HETATM   20  C30 UNL     1      31.546  53.442 130.623  1.00  0.00     0.015 C 
HETATM   21  C31 UNL     1      32.491  55.233 131.968  1.00  0.00     0.015 C 
HETATM   22  C32 UNL     1      33.739  54.305 129.991  1.00  0.00     0.019 C 
HETATM   23  C33 UNL     1      38.755  52.070 131.828  1.00  0.00     0.036 C 
HETATM   24  C34 UNL     1      38.461  51.701 133.222  1.00  0.00     0.018 C 
HETATM   25  C35 UNL     1      38.454  52.742 134.249  1.00  0.00    -0.016 C 
HETATM   26  C36 UNL     1      37.410  52.572 135.272  1.00  0.00     0.020 C 
ENDROOT
BRANCH  10  27
HETATM   27  C16 UNL     1      38.857  54.620 128.141  1.00  0.00     0.231 C 
HETATM   28  O3  UNL     1      38.469  55.204 127.059  1.00  0.00    -0.272 OA
HETATM   29  N3  UNL     1      39.947  55.246 128.766  1.00  0.00    -0.345 N 
ATOM     30  H3  UNL     1      40.315  54.847 129.630  1.00  0.00     0.163 HD
BRANCH  29  31
HETATM   31  C17 UNL     1      40.584  56.472 128.212  1.00  0.00     0.195 C 
BRANCH  31  32
HETATM   32  C18 UNL     1      40.596  57.526 129.274  1.00  0.00     0.149 C 
BRANCH  32  33
HETATM   33  C19 UNL     1      40.756  56.996 130.614  1.00  0.00     0.175 C 
HETATM   34  O4  UNL     1      41.869  56.941 131.190  1.00  0.00    -0.648 OA
HETATM   35  O5  UNL     1      39.655  56.501 131.362  1.00  0.00    -0.648 OA
ENDBRANCH  32  33
ENDBRANCH  31  32
BRANCH  31  36
HETATM   36  C20 UNL     1      41.982  56.117 127.860  1.00  0.00     0.197 C 
HETATM   37  O6  UNL     1      42.213  54.904 127.517  1.00  0.00    -0.646 OA
HETATM   38  O7  UNL     1      43.071  56.937 127.856  1.00  0.00    -0.646 OA
ENDBRANCH  31  36
ENDBRANCH  29  31
ENDBRANCH  10  27
BRANCH   3  39
HETATM   39  C4  UNL     1      40.146  55.642 134.859  1.00  0.00     0.074 C 
BRANCH  39  40
HETATM   40  C5  UNL     1      39.505  56.844 135.444  1.00  0.00     0.100 C 
HETATM   41  N1  UNL     1      39.678  58.014 134.874  1.00  0.00    -0.268 N 
ATOM     42  H1  UNL     1      39.251  58.857 135.259  1.00  0.00     0.194 HD
BRANCH  41  43
HETATM   43  O1  UNL     1      40.448  58.066 133.751  1.00  0.00    -0.290 OA
ATOM     44  H1  UNL     1      40.020  58.282 132.931  1.00  0.00     0.244 HD
ENDBRANCH  41  43
BRANCH  40  45
HETATM   45  C6  UNL     1      38.657  56.812 136.607  1.00  0.00     0.267 C 
HETATM   46  O2  UNL     1      37.393  56.882 136.409  1.00  0.00    -0.266 OA
HETATM   47  N2  UNL     1      39.046  56.714 137.952  1.00  0.00    -0.356 N 
HETATM   48  C7  UNL     1      38.049  56.699 139.039  1.00  0.00     0.152 C 
HETATM   49  C8  UNL     1      40.425  56.628 138.335  1.00  0.00     0.152 C 
ENDBRANCH  40  45
ENDBRANCH  39  40
ENDBRANCH   3  39
TORSDOF 9
ENDMDL
MODEL 4
REMARK VINA RESULT: -8.145333942      1.087      1.816
REMARK  9 active torsions:
REMARK  status: ('A' for Active; 'I' for Inactive)
REMARK    1  A    between atoms: C3_3  and  C4_4 
REMARK    2  A    between atoms: C4_4  and  C5_5 
REMARK    3  A    between atoms: C5_5  and  C6_10 
REMARK    4  A    between atoms: N1_6  and  O1_8 
REMARK       I    between atoms: C6_10  and  N2_12 
REMARK    5  A    between atoms: C15_21  and  C16_22 
REMARK       I    between atoms: C16_22  and  N3_24 
REMARK    6  A    between atoms: N3_24  and  C17_26 
REMARK    7  A    between atoms: C17_26  and  C18_27 
REMARK    8  A    between atoms: C17_26  and  C20_31 
REMARK    9  A    between atoms: C18_27  and  C19_28 
ROOT
HETATM    1  C1  UNL     1      38.244  48.360 136.053  1.00  0.00     0.015 C 
HETATM    2  C2  UNL     1      37.511  49.295 135.538  1.00  0.00    -0.076 C 
HETATM    3  C3  UNL     1      36.175  49.911 135.535  1.00  0.00     0.025 C 
HETATM    4  C9  UNL     1      36.925  51.210 135.308  1.00  0.00     0.007 C 
HETATM    5  C10 UNL     1      36.358  52.252 134.440  1.00  0.00     0.016 C 
HETATM    6  C11 UNL     1      37.189  53.522 134.631  1.00  0.00     0.020 C 
HETATM    7  C12 UNL     1      38.509  53.252 135.200  1.00  0.00    -0.072 C 
HETATM    8  C13 UNL     1      39.343  54.066 135.859  1.00  0.00    -0.058 A 
HETATM    9  C14 UNL     1      40.547  54.624 136.622  1.00  0.00     0.059 A 
HETATM   10  C15 UNL     1      39.347  55.481 136.318  1.00  0.00     0.068 A 
HETATM   11  C21 UNL     1      39.446  56.348 135.082  1.00  0.00     0.025 C 
HETATM   12  C22 UNL     1      38.096  56.363 134.439  1.00  0.00     0.011 C 
HETATM   13  C23 UNL     1      37.927  55.525 133.220  1.00  0.00    -0.035 C 
HETATM   14  C24 UNL     1      39.215  55.310 132.458  1.00  0.00     0.010 C 
HETATM   15  C25 UNL     1      38.975  54.848 131.030  1.00  0.00     0.006 C 
HETATM   16  C26 UNL     1      37.533  54.459 130.939  1.00  0.00    -0.006 C 
HETATM   17  C27 UNL     1      37.198  53.528 132.088  1.00  0.00     0.011 C 
HETATM   18  C28 UNL     1      37.087  54.297 133.388  1.00  0.00     0.002 C 
HETATM   19  C29 UNL     1      36.726  55.734 131.003  1.00  0.00    -0.043 C 
HETATM   20  C30 UNL     1      37.198  56.586 129.822  1.00  0.00     0.015 C 
HETATM   21  C31 UNL     1      35.260  55.515 130.825  1.00  0.00     0.015 C 
HETATM   22  C32 UNL     1      37.112  56.434 132.256  1.00  0.00     0.019 C 
HETATM   23  C33 UNL     1      39.438  52.104 135.317  1.00  0.00     0.036 C 
HETATM   24  C34 UNL     1      39.172  50.926 134.477  1.00  0.00     0.018 C 
HETATM   25  C35 UNL     1      37.837  50.328 134.489  1.00  0.00    -0.016 C 
HETATM   26  C36 UNL     1      37.382  49.843 133.176  1.00  0.00     0.020 C 
ENDROOT
BRANCH  10  27
HETATM   27  C16 UNL     1      38.588  55.939 137.480  1.00  0.00     0.231 C 
HETATM   28  O3  UNL     1      37.418  55.460 137.732  1.00  0.00    -0.272 OA
HETATM   29  N3  UNL     1      39.021  56.902 138.405  1.00  0.00    -0.345 N 
ATOM     30  H3  UNL     1      39.938  57.330 138.278  1.00  0.00     0.163 HD
BRANCH  29  31
HETATM   31  C17 UNL     1      38.187  57.319 139.566  1.00  0.00     0.195 C 
BRANCH  31  32
HETATM   32  C18 UNL     1      38.766  56.721 140.810  1.00  0.00     0.149 C 
BRANCH  32  33
HETATM   33  C19 UNL     1      40.115  56.218 140.636  1.00  0.00     0.175 C 
HETATM   34  O4  UNL     1      41.121  56.967 140.640  1.00  0.00    -0.648 OA
HETATM   35  O5  UNL     1      40.382  54.836 140.449  1.00  0.00    -0.648 OA
ENDBRANCH  32  33
ENDBRANCH  31  32
BRANCH  31  36
HETATM   36  C20 UNL     1      38.267  58.799 139.652  1.00  0.00     0.197 C 
HETATM   37  O6  UNL     1      39.274  59.367 139.100  1.00  0.00    -0.646 OA
HETATM   38  O7  UNL     1      37.385  59.644 140.256  1.00  0.00    -0.646 OA
ENDBRANCH  31  36
ENDBRANCH  29  31
ENDBRANCH  10  27
BRANCH   3  39
HETATM   39  C4  UNL     1      35.338  49.875 136.768  1.00  0.00     0.074 C 
BRANCH  39  40
HETATM   40  C5  UNL     1      33.943  49.499 136.436  1.00  0.00     0.100 C 
HETATM   41  N1  UNL     1      33.003  50.415 136.450  1.00  0.00    -0.268 N 
ATOM     42  H1  UNL     1      32.035  50.181 136.229  1.00  0.00     0.194 HD
BRANCH  41  43
HETATM   43  O1  UNL     1      33.364  51.691 136.768  1.00  0.00    -0.290 OA
ATOM     44  H1  UNL     1      34.281  51.859 136.947  1.00  0.00     0.244 HD
ENDBRANCH  41  43
BRANCH  40  45
HETATM   45  C6  UNL     1      33.541  48.168 136.059  1.00  0.00     0.267 C 
HETATM   46  O2  UNL     1      33.298  47.963 134.818  1.00  0.00    -0.266 OA
HETATM   47  N2  UNL     1      33.378  47.051 136.893  1.00  0.00    -0.356 N 
HETATM   48  C7  UNL     1      32.952  45.747 136.351  1.00  0.00     0.152 C 
HETATM   49  C8  UNL     1      33.613  47.122 138.306  1.00  0.00     0.152 C 
ENDBRANCH  40  45
ENDBRANCH  39  40
ENDBRANCH   3  39
TORSDOF 9
ENDMDL
MODEL 5
REMARK VINA RESULT: -8.140780173      1.461      2.427
REMARK  9 active torsions:
REMARK  status: ('A' for Active; 'I' for Inactive)
REMARK    1  A    between atoms: C3_3  and  C4_4 
REMARK    2  A    between atoms: C4_4  and  C5_5 
REMARK    3  A    between atoms: C5_5  and  C6_10 
REMARK    4  A    between atoms: N1_6  and  O1_8 
REMARK       I    between atoms: C6_10  and  N2_12 
REMARK    5  A    between atoms: C15_21  and  C16_22 
REMARK       I    between atoms: C16_22  and  N3_24 
REMARK    6  A    between atoms: N3_24  and  C17_26 
REMARK    7  A    between atoms: C17_26  and  C18_27 
REMARK    8  A    between atoms: C17_26  and  C20_31 
REMARK    9  A    between atoms: C18_27  and  C19_28 
ROOT
HETATM    1  C1  UNL     1      37.990  47.997 135.689  1.00  0.00     0.015 C 
HETATM    2  C2  UNL     1      37.321  49.072 135.420  1.00  0.00    -0.076 C 
HETATM    3  C3  UNL     1      36.120  49.854 135.752  1.00  0.00     0.025 C 
HETATM    4  C9  UNL     1      36.998  51.061 135.481  1.00  0.00     0.007 C 
HETATM    5  C10 UNL     1      36.435  52.260 134.843  1.00  0.00     0.016 C 
HETATM    6  C11 UNL     1      37.470  53.380 134.959  1.00  0.00     0.020 C 
HETATM    7  C12 UNL     1      38.820  52.877 135.211  1.00  0.00    -0.072 C 
HETATM    8  C13 UNL     1      39.882  53.495 135.744  1.00  0.00    -0.058 A 
HETATM    9  C14 UNL     1      41.284  53.799 136.278  1.00  0.00     0.059 A 
HETATM   10  C15 UNL     1      40.192  54.836 136.308  1.00  0.00     0.068 A 
HETATM   11  C21 UNL     1      40.175  55.816 135.156  1.00  0.00     0.025 C 
HETATM   12  C22 UNL     1      38.742  56.081 134.817  1.00  0.00     0.011 C 
HETATM   13  C23 UNL     1      38.210  55.416 133.596  1.00  0.00    -0.035 C 
HETATM   14  C24 UNL     1      39.274  55.121 132.563  1.00  0.00     0.010 C 
HETATM   15  C25 UNL     1      38.689  54.859 131.185  1.00  0.00     0.006 C 
HETATM   16  C26 UNL     1      37.216  54.676 131.370  1.00  0.00    -0.006 C 
HETATM   17  C27 UNL     1      36.977  53.672 132.481  1.00  0.00     0.011 C 
HETATM   18  C28 UNL     1      37.243  54.298 133.835  1.00  0.00     0.002 C 
HETATM   19  C29 UNL     1      36.641  56.030 131.710  1.00  0.00    -0.043 C 
HETATM   20  C30 UNL     1      36.993  56.941 130.531  1.00  0.00     0.015 C 
HETATM   21  C31 UNL     1      35.153  56.027 131.829  1.00  0.00     0.015 C 
HETATM   22  C32 UNL     1      37.369  56.527 132.907  1.00  0.00     0.019 C 
HETATM   23  C33 UNL     1      39.569  51.611 135.032  1.00  0.00     0.036 C 
HETATM   24  C34 UNL     1      38.967  50.581 134.171  1.00  0.00     0.018 C 
HETATM   25  C35 UNL     1      37.586  50.165 134.416  1.00  0.00    -0.016 C 
HETATM   26  C36 UNL     1      36.811  49.896 133.194  1.00  0.00     0.020 C 
ENDROOT
BRANCH  10  27
HETATM   27  C16 UNL     1      39.756  55.254 137.639  1.00  0.00     0.231 C 
HETATM   28  O3  UNL     1      39.252  54.402 138.465  1.00  0.00    -0.272 OA
HETATM   29  N3  UNL     1      39.830  56.562 138.143  1.00  0.00    -0.345 N 
ATOM     30  H3  UNL     1      40.217  57.298 137.552  1.00  0.00     0.163 HD
BRANCH  29  31
HETATM   31  C17 UNL     1      39.361  56.913 139.513  1.00  0.00     0.195 C 
BRANCH  31  32
HETATM   32  C18 UNL     1      40.440  57.687 140.203  1.00  0.00     0.149 C 
BRANCH  32  33
HETATM   33  C19 UNL     1      41.060  58.693 139.362  1.00  0.00     0.175 C 
HETATM   34  O4  UNL     1      41.919  58.410 138.493  1.00  0.00    -0.648 OA
HETATM   35  O5  UNL     1      40.730  60.070 139.470  1.00  0.00    -0.648 OA
ENDBRANCH  32  33
ENDBRANCH  31  32
BRANCH  31  36
HETATM   36  C20 UNL     1      38.163  57.776 139.357  1.00  0.00     0.197 C 
HETATM   37  O6  UNL     1      37.792  58.058 138.164  1.00  0.00    -0.646 OA
HETATM   38  O7  UNL     1      37.395  58.314 140.346  1.00  0.00    -0.646 OA
ENDBRANCH  31  36
ENDBRANCH  29  31
ENDBRANCH  10  27
BRANCH   3  39
HETATM   39  C4  UNL     1      35.548  49.789 137.128  1.00  0.00     0.074 C 
BRANCH  39  40
HETATM   40  C5  UNL     1      34.206  49.158 137.101  1.00  0.00     0.100 C 
HETATM   41  N1  UNL     1      33.150  49.892 136.838  1.00  0.00    -0.268 N 
ATOM     42  H1  UNL     1      32.215  49.482 136.818  1.00  0.00     0.194 HD
BRANCH  41  43
HETATM   43  O1  UNL     1      33.342  51.219 136.593  1.00  0.00    -0.290 OA
ATOM     44  H1  UNL     1      33.392  51.499 135.687  1.00  0.00     0.244 HD
ENDBRANCH  41  43
BRANCH  40  45
HETATM   45  C6  UNL     1      33.979  47.753 137.318  1.00  0.00     0.267 C 
HETATM   46  O2  UNL     1      33.884  47.359 138.534  1.00  0.00    -0.266 OA
HETATM   47  N2  UNL     1      33.846  46.745 136.351  1.00  0.00    -0.356 N 
HETATM   48  C7  UNL     1      33.620  45.339 136.737  1.00  0.00     0.152 C 
HETATM   49  C8  UNL     1      33.927  47.027 134.948  1.00  0.00     0.152 C 
ENDBRANCH  40  45
ENDBRANCH  39  40
ENDBRANCH   3  39
TORSDOF 9
ENDMDL
