MODEL 1
REMARK VINA RESULT: -8.753414628      0.000      0.000
REMARK  10 active torsions:
REMARK  status: ('A' for Active; 'I' for Inactive)
REMARK    1  A    between atoms: O1_2  and  C2_3 
REMARK    2  A    between atoms: C2_3  and  C3_5 
REMARK    3  A    between atoms: C3_5  and  N1_6 
REMARK    4  A    between atoms: C3_5  and  C32_41 
REMARK    5  A    between atoms: N1_6  and  C4_8 
REMARK    6  A    between atoms: C4_8  and  O3_9 
REMARK    7  A    between atoms: C4_8  and  C5_11 
REMARK    8  A    between atoms: C17_24  and  C19_26 
REMARK       I    between atoms: C32_41  and  N2_43 
REMARK    9  A    between atoms: N2_43  and  C33_45 
REMARK   10  A    between atoms: C33_45  and  C35_47 
ROOT
HETATM    1  C5  UNL     1      38.533  57.084 137.174  1.00  0.00     0.037 C 
HETATM    2  C6  UNL     1      37.576  55.959 137.489  1.00  0.00     0.023 C 
HETATM    3  C7  UNL     1      38.186  54.610 137.366  1.00  0.00     0.035 C 
HETATM    4  C8  UNL     1      39.633  54.479 137.517  1.00  0.00    -0.081 C 
HETATM    5  C9  UNL     1      39.974  53.560 138.676  1.00  0.00     0.043 C 
HETATM    6  C10 UNL     1      40.508  55.702 137.416  1.00  0.00    -0.071 C 
HETATM    7  C11 UNL     1      41.438  55.569 136.299  1.00  0.00     0.044 C 
HETATM    8  C12 UNL     1      39.870  56.980 137.852  1.00  0.00     0.010 C 
HETATM    9  C13 UNL     1      39.842  56.983 139.368  1.00  0.00     0.003 C 
HETATM   10  C14 UNL     1      38.740  56.685 140.231  1.00  0.00     0.011 C 
HETATM   11  C15 UNL     1      40.767  58.052 139.915  1.00  0.00     0.029 C 
HETATM   12  C16 UNL     1      40.224  58.963 140.991  1.00  0.00     0.136 C 
HETATM   13  O4  UNL     1      40.223  58.353 142.241  1.00  0.00    -0.363 OA
HETATM   14  C17 UNL     1      39.907  59.066 143.328  1.00  0.00     0.145 C 
HETATM   15  C18 UNL     1      40.093  58.067 144.513  1.00  0.00     0.058 C 
HETATM   16  C20 UNL     1      40.904  60.185 143.675  1.00  0.00     0.050 C 
HETATM   17  C21 UNL     1      41.791  60.287 142.493  1.00  0.00     0.015 C 
HETATM   18  C22 UNL     1      41.032  60.223 141.155  1.00  0.00    -0.017 C 
HETATM   19  C23 UNL     1      40.159  61.480 141.128  1.00  0.00     0.018 C 
HETATM   20  C24 UNL     1      42.134  60.449 140.180  1.00  0.00     0.012 C 
HETATM   21  C25 UNL     1      41.566  60.180 138.816  1.00  0.00     0.011 C 
HETATM   22  C26 UNL     1      41.387  58.705 138.749  1.00  0.00    -0.029 C 
HETATM   23  C27 UNL     1      42.824  58.217 138.607  1.00  0.00     0.016 C 
HETATM   24  C28 UNL     1      40.472  58.272 137.593  1.00  0.00    -0.023 C 
HETATM   25  C29 UNL     1      41.261  58.641 136.426  1.00  0.00     0.017 C 
HETATM   26  C30 UNL     1      39.277  59.207 137.726  1.00  0.00     0.012 C 
HETATM   27  C31 UNL     1      38.007  58.411 137.741  1.00  0.00     0.020 C 
ENDROOT
BRANCH   1  28
HETATM   28  C4  UNL     1      38.400  57.295 135.734  1.00  0.00     0.122 C 
BRANCH  28  29
HETATM   29  N1  UNL     1      39.238  56.983 134.658  1.00  0.00    -0.352 N 
ATOM     30  H1  UNL     1      40.207  57.288 134.750  1.00  0.00     0.162 HD
BRANCH  29  31
HETATM   31  C3  UNL     1      38.913  56.278 133.422  1.00  0.00     0.276 C 
BRANCH  31  32
HETATM   32  C2  UNL     1      39.870  56.423 132.326  1.00  0.00     0.290 C 
HETATM   33  O2  UNL     1      40.829  57.220 132.263  1.00  0.00    -0.262 OA
BRANCH  32  34
HETATM   34  O1  UNL     1      39.698  55.592 131.232  1.00  0.00    -0.324 OA
HETATM   35  C1  UNL     1      39.434  55.967 129.925  1.00  0.00     0.213 C 
ENDBRANCH  32  34
ENDBRANCH  31  32
BRANCH  31  36
HETATM   36  C32 UNL     1      38.670  54.859 133.693  1.00  0.00     0.251 C 
HETATM   37  O7  UNL     1      37.438  54.551 133.955  1.00  0.00    -0.271 OA
HETATM   38  N2  UNL     1      39.555  53.775 133.718  1.00  0.00    -0.345 N 
ATOM     39  H2  UNL     1      40.544  53.935 133.525  1.00  0.00     0.163 HD
BRANCH  38  40
HETATM   40  C33 UNL     1      39.096  52.423 134.012  1.00  0.00     0.181 C 
HETATM   41  C34 UNL     1      40.090  51.650 134.863  1.00  0.00     0.043 C 
BRANCH  40  42
HETATM   42  C35 UNL     1      38.649  51.658 132.846  1.00  0.00     0.196 C 
HETATM   43  O8  UNL     1      38.133  50.541 132.979  1.00  0.00    -0.646 OA
HETATM   44  O9  UNL     1      38.816  52.206 131.599  1.00  0.00    -0.646 OA
ENDBRANCH  40  42
ENDBRANCH  38  40
ENDBRANCH  31  36
ENDBRANCH  29  31
ENDBRANCH  28  29
BRANCH  28  45
HETATM   45  O3  UNL     1      37.340  57.868 135.222  1.00  0.00    -0.349 OA
ATOM     46  H3  UNL     1      37.569  58.779 135.081  1.00  0.00     0.219 HD
ENDBRANCH  28  45
ENDBRANCH   1  28
BRANCH  14  47
HETATM   47  C19 UNL     1      38.544  59.562 143.510  1.00  0.00     0.208 C 
HETATM   48  O5  UNL     1      38.390  60.706 144.007  1.00  0.00    -0.646 OA
HETATM   49  O6  UNL     1      37.454  58.829 143.159  1.00  0.00    -0.646 OA
ENDBRANCH  14  47
TORSDOF 10
ENDMDL
MODEL 2
REMARK VINA RESULT: -8.745507216      1.123      2.787
REMARK  10 active torsions:
REMARK  status: ('A' for Active; 'I' for Inactive)
REMARK    1  A    between atoms: O1_2  and  C2_3 
REMARK    2  A    between atoms: C2_3  and  C3_5 
REMARK    3  A    between atoms: C3_5  and  N1_6 
REMARK    4  A    between atoms: C3_5  and  C32_41 
REMARK    5  A    between atoms: N1_6  and  C4_8 
REMARK    6  A    between atoms: C4_8  and  O3_9 
REMARK    7  A    between atoms: C4_8  and  C5_11 
REMARK    8  A    between atoms: C17_24  and  C19_26 
REMARK       I    between atoms: C32_41  and  N2_43 
REMARK    9  A    between atoms: N2_43  and  C33_45 
REMARK   10  A    between atoms: C33_45  and  C35_47 
ROOT
HETATM    1  C5  UNL     1      38.569  56.975 137.278  1.00  0.00     0.037 C 
HETATM    2  C6  UNL     1      37.629  55.843 137.614  1.00  0.00     0.023 C 
HETATM    3  C7  UNL     1      38.260  54.501 137.523  1.00  0.00     0.035 C 
HETATM    4  C8  UNL     1      39.709  54.396 137.682  1.00  0.00    -0.081 C 
HETATM    5  C9  UNL     1      40.059  53.508 138.862  1.00  0.00     0.043 C 
HETATM    6  C10 UNL     1      40.565  55.630 137.557  1.00  0.00    -0.071 C 
HETATM    7  C11 UNL     1      41.502  55.486 136.448  1.00  0.00     0.044 C 
HETATM    8  C12 UNL     1      39.906  56.907 137.963  1.00  0.00     0.010 C 
HETATM    9  C13 UNL     1      39.872  56.942 139.478  1.00  0.00     0.003 C 
HETATM   10  C14 UNL     1      38.770  56.647 140.344  1.00  0.00     0.011 C 
HETATM   11  C15 UNL     1      40.777  58.038 140.005  1.00  0.00     0.029 C 
HETATM   12  C16 UNL     1      40.216  58.964 141.059  1.00  0.00     0.136 C 
HETATM   13  O4  UNL     1      40.220  58.381 142.322  1.00  0.00    -0.363 OA
HETATM   14  C17 UNL     1      39.888  59.113 143.392  1.00  0.00     0.145 C 
HETATM   15  C18 UNL     1      40.085  58.143 144.599  1.00  0.00     0.058 C 
HETATM   16  C20 UNL     1      40.866  60.254 143.717  1.00  0.00     0.050 C 
HETATM   17  C21 UNL     1      41.756  60.344 142.538  1.00  0.00     0.015 C 
HETATM   18  C22 UNL     1      41.004  60.239 141.198  1.00  0.00    -0.017 C 
HETATM   19  C23 UNL     1      40.111  61.481 141.140  1.00  0.00     0.018 C 
HETATM   20  C24 UNL     1      42.106  60.461 140.222  1.00  0.00     0.012 C 
HETATM   21  C25 UNL     1      41.548  60.153 138.863  1.00  0.00     0.011 C 
HETATM   22  C26 UNL     1      41.392  58.674 138.827  1.00  0.00    -0.029 C 
HETATM   23  C27 UNL     1      42.837  58.206 138.701  1.00  0.00     0.016 C 
HETATM   24  C28 UNL     1      40.488  58.202 137.678  1.00  0.00    -0.023 C 
HETATM   25  C29 UNL     1      41.276  58.558 136.506  1.00  0.00     0.017 C 
HETATM   26  C30 UNL     1      39.279  59.121 137.786  1.00  0.00     0.012 C 
HETATM   27  C31 UNL     1      38.021  58.306 137.814  1.00  0.00     0.020 C 
ENDROOT
BRANCH   1  28
HETATM   28  C4  UNL     1      38.439  57.153 135.833  1.00  0.00     0.122 C 
BRANCH  28  29
HETATM   29  N1  UNL     1      38.372  56.238 134.777  1.00  0.00    -0.352 N 
ATOM     30  H1  UNL     1      37.433  55.998 134.460  1.00  0.00     0.162 HD
BRANCH  29  31
HETATM   31  C3  UNL     1      39.465  55.580 134.068  1.00  0.00     0.276 C 
BRANCH  31  32
HETATM   32  C2  UNL     1      39.193  54.232 133.570  1.00  0.00     0.290 C 
HETATM   33  O2  UNL     1      38.739  53.920 132.450  1.00  0.00    -0.262 OA
BRANCH  32  34
HETATM   34  O1  UNL     1      39.460  53.182 134.432  1.00  0.00    -0.324 OA
HETATM   35  C1  UNL     1      40.623  52.434 134.510  1.00  0.00     0.213 C 
ENDBRANCH  32  34
ENDBRANCH  31  32
BRANCH  31  36
HETATM   36  C32 UNL     1      39.948  56.430 132.977  1.00  0.00     0.251 C 
HETATM   37  O7  UNL     1      40.630  57.469 133.348  1.00  0.00    -0.271 OA
HETATM   38  N2  UNL     1      39.794  56.305 131.592  1.00  0.00    -0.345 N 
ATOM     39  H2  UNL     1      39.267  55.515 131.218  1.00  0.00     0.163 HD
BRANCH  38  40
HETATM   40  C33 UNL     1      40.368  57.277 130.669  1.00  0.00     0.181 C 
HETATM   41  C34 UNL     1      39.373  57.725 129.611  1.00  0.00     0.043 C 
BRANCH  40  42
HETATM   42  C35 UNL     1      41.658  56.890 130.091  1.00  0.00     0.196 C 
HETATM   43  O8  UNL     1      42.594  56.529 130.815  1.00  0.00    -0.646 OA
HETATM   44  O9  UNL     1      41.806  56.937 128.728  1.00  0.00    -0.646 OA
ENDBRANCH  40  42
ENDBRANCH  38  40
ENDBRANCH  31  36
ENDBRANCH  29  31
ENDBRANCH  28  29
BRANCH  28  45
HETATM   45  O3  UNL     1      38.350  58.343 135.296  1.00  0.00    -0.349 OA
ATOM     46  H3  UNL     1      38.649  58.958 135.955  1.00  0.00     0.219 HD
ENDBRANCH  28  45
ENDBRANCH   1  28
BRANCH  14  47
HETATM   47  C19 UNL     1      38.517  59.591 143.558  1.00  0.00     0.208 C 
HETATM   48  O5  UNL     1      38.343  60.739 144.041  1.00  0.00    -0.646 OA
HETATM   49  O6  UNL     1      37.440  58.839 143.207  1.00  0.00    -0.646 OA
ENDBRANCH  14  47
TORSDOF 10
ENDMDL
MODEL 3
REMARK VINA RESULT: -8.527588697      1.417      2.657
REMARK  10 active torsions:
REMARK  status: ('A' for Active; 'I' for Inactive)
REMARK    1  A    between atoms: O1_2  and  C2_3 
REMARK    2  A    between atoms: C2_3  and  C3_5 
REMARK    3  A    between atoms: C3_5  and  N1_6 
REMARK    4  A    between atoms: C3_5  and  C32_41 
REMARK    5  A    between atoms: N1_6  and  C4_8 
REMARK    6  A    between atoms: C4_8  and  O3_9 
REMARK    7  A    between atoms: C4_8  and  C5_11 
REMARK    8  A    between atoms: C17_24  and  C19_26 
REMARK       I    between atoms: C32_41  and  N2_43 
REMARK    9  A    between atoms: N2_43  and  C33_45 
REMARK   10  A    between atoms: C33_45  and  C35_47 
ROOT
HETATM    1  C5  UNL     1      38.515  57.028 137.274  1.00  0.00     0.037 C 
HETATM    2  C6  UNL     1      37.573  55.897 137.611  1.00  0.00     0.023 C 
HETATM    3  C7  UNL     1      38.195  54.553 137.497  1.00  0.00     0.035 C 
HETATM    4  C8  UNL     1      39.645  54.437 137.634  1.00  0.00    -0.081 C 
HETATM    5  C9  UNL     1      40.006  53.534 138.799  1.00  0.00     0.043 C 
HETATM    6  C10 UNL     1      40.506  55.668 137.510  1.00  0.00    -0.071 C 
HETATM    7  C11 UNL     1      41.427  55.531 136.386  1.00  0.00     0.044 C 
HETATM    8  C12 UNL     1      39.860  56.945 137.940  1.00  0.00     0.010 C 
HETATM    9  C13 UNL     1      39.848  56.963 139.456  1.00  0.00     0.003 C 
HETATM   10  C14 UNL     1      38.757  56.664 140.334  1.00  0.00     0.011 C 
HETATM   11  C15 UNL     1      40.767  58.047 139.982  1.00  0.00     0.029 C 
HETATM   12  C16 UNL     1      40.226  58.964 141.053  1.00  0.00     0.136 C 
HETATM   13  O4  UNL     1      40.244  58.368 142.309  1.00  0.00    -0.363 OA
HETATM   14  C17 UNL     1      39.932  59.089 143.392  1.00  0.00     0.145 C 
HETATM   15  C18 UNL     1      40.140  58.105 144.586  1.00  0.00     0.058 C 
HETATM   16  C20 UNL     1      40.921  60.221 143.716  1.00  0.00     0.050 C 
HETATM   17  C21 UNL     1      41.795  60.320 142.525  1.00  0.00     0.015 C 
HETATM   18  C22 UNL     1      41.023  60.234 141.196  1.00  0.00    -0.017 C 
HETATM   19  C23 UNL     1      40.137  61.482 141.164  1.00  0.00     0.018 C 
HETATM   20  C24 UNL     1      42.113  60.460 140.206  1.00  0.00     0.012 C 
HETATM   21  C25 UNL     1      41.533  60.171 138.852  1.00  0.00     0.011 C 
HETATM   22  C26 UNL     1      41.369  58.693 138.802  1.00  0.00    -0.029 C 
HETATM   23  C27 UNL     1      42.809  58.218 138.651  1.00  0.00     0.016 C 
HETATM   24  C28 UNL     1      40.446  58.239 137.660  1.00  0.00    -0.023 C 
HETATM   25  C29 UNL     1      41.220  58.603 136.482  1.00  0.00     0.017 C 
HETATM   26  C30 UNL     1      39.244  59.164 137.796  1.00  0.00     0.012 C 
HETATM   27  C31 UNL     1      37.982  58.355 137.832  1.00  0.00     0.020 C 
ENDROOT
BRANCH   1  28
HETATM   28  C4  UNL     1      38.365  57.222 135.833  1.00  0.00     0.122 C 
BRANCH  28  29
HETATM   29  N1  UNL     1      39.015  56.646 134.736  1.00  0.00    -0.352 N 
ATOM     30  H1  UNL     1      39.894  57.086 134.463  1.00  0.00     0.162 HD
BRANCH  29  31
HETATM   31  C3  UNL     1      38.604  55.502 133.930  1.00  0.00     0.276 C 
BRANCH  31  32
HETATM   32  C2  UNL     1      37.165  55.258 133.841  1.00  0.00     0.290 C 
HETATM   33  O2  UNL     1      36.534  54.288 134.309  1.00  0.00    -0.262 OA
BRANCH  32  34
HETATM   34  O1  UNL     1      36.412  56.199 133.159  1.00  0.00    -0.324 OA
HETATM   35  C1  UNL     1      35.134  56.044 132.648  1.00  0.00     0.213 C 
ENDBRANCH  32  34
ENDBRANCH  31  32
BRANCH  31  36
HETATM   36  C32 UNL     1      39.182  55.591 132.586  1.00  0.00     0.251 C 
HETATM   37  O7  UNL     1      39.086  54.512 131.873  1.00  0.00    -0.271 OA
HETATM   38  N2  UNL     1      39.825  56.654 131.943  1.00  0.00    -0.345 N 
ATOM     39  H2  UNL     1      39.944  57.537 132.439  1.00  0.00     0.163 HD
BRANCH  38  40
HETATM   40  C33 UNL     1      40.331  56.528 130.581  1.00  0.00     0.181 C 
HETATM   41  C34 UNL     1      41.795  56.918 130.472  1.00  0.00     0.043 C 
BRANCH  40  42
HETATM   42  C35 UNL     1      39.505  57.172 129.557  1.00  0.00     0.196 C 
HETATM   43  O8  UNL     1      38.287  57.313 129.721  1.00  0.00    -0.646 OA
HETATM   44  O9  UNL     1      40.112  57.617 128.409  1.00  0.00    -0.646 OA
ENDBRANCH  40  42
ENDBRANCH  38  40
ENDBRANCH  31  36
ENDBRANCH  29  31
ENDBRANCH  28  29
BRANCH  28  45
HETATM   45  O3  UNL     1      37.487  58.059 135.344  1.00  0.00    -0.349 OA
ATOM     46  H3  UNL     1      36.641  57.633 135.416  1.00  0.00     0.219 HD
ENDBRANCH  28  45
ENDBRANCH   1  28
BRANCH  14  47
HETATM   47  C19 UNL     1      38.566  59.574 143.583  1.00  0.00     0.208 C 
HETATM   48  O5  UNL     1      38.406  60.723 144.067  1.00  0.00    -0.646 OA
HETATM   49  O6  UNL     1      37.480  58.825 143.254  1.00  0.00    -0.646 OA
ENDBRANCH  14  47
TORSDOF 10
ENDMDL
MODEL 4
REMARK VINA RESULT: -8.451753805      2.493      9.374
REMARK  10 active torsions:
REMARK  status: ('A' for Active; 'I' for Inactive)
REMARK    1  A    between atoms: O1_2  and  C2_3 
REMARK    2  A    between atoms: C2_3  and  C3_5 
REMARK    3  A    between atoms: C3_5  and  N1_6 
REMARK    4  A    between atoms: C3_5  and  C32_41 
REMARK    5  A    between atoms: N1_6  and  C4_8 
REMARK    6  A    between atoms: C4_8  and  O3_9 
REMARK    7  A    between atoms: C4_8  and  C5_11 
REMARK    8  A    between atoms: C17_24  and  C19_26 
REMARK       I    between atoms: C32_41  and  N2_43 
REMARK    9  A    between atoms: N2_43  and  C33_45 
REMARK   10  A    between atoms: C33_45  and  C35_47 
ROOT
HETATM    1  C5  UNL     1      39.195  56.109 136.162  1.00  0.00     0.037 C 
HETATM    2  C6  UNL     1      40.695  56.128 136.328  1.00  0.00     0.023 C 
HETATM    3  C7  UNL     1      41.258  54.830 136.781  1.00  0.00     0.035 C 
HETATM    4  C8  UNL     1      40.512  53.606 136.499  1.00  0.00    -0.081 C 
HETATM    5  C9  UNL     1      41.335  52.658 135.644  1.00  0.00     0.043 C 
HETATM    6  C10 UNL     1      39.059  53.690 136.111  1.00  0.00    -0.071 C 
HETATM    7  C11 UNL     1      38.232  52.992 137.090  1.00  0.00     0.044 C 
HETATM    8  C12 UNL     1      38.663  54.936 135.387  1.00  0.00     0.010 C 
HETATM    9  C13 UNL     1      39.157  54.810 133.960  1.00  0.00     0.003 C 
HETATM   10  C14 UNL     1      40.322  55.402 133.373  1.00  0.00     0.011 C 
HETATM   11  C15 UNL     1      37.988  54.698 133.000  1.00  0.00     0.029 C 
HETATM   12  C16 UNL     1      38.002  55.580 131.774  1.00  0.00     0.136 C 
HETATM   13  O4  UNL     1      38.839  55.081 130.781  1.00  0.00    -0.363 OA
HETATM   14  C17 UNL     1      38.860  55.661 129.576  1.00  0.00     0.145 C 
HETATM   15  C18 UNL     1      39.843  54.782 128.740  1.00  0.00     0.058 C 
HETATM   16  C20 UNL     1      37.548  55.542 128.782  1.00  0.00     0.050 C 
HETATM   17  C21 UNL     1      36.557  55.030 129.755  1.00  0.00     0.015 C 
HETATM   18  C22 UNL     1      36.647  55.713 131.133  1.00  0.00    -0.017 C 
HETATM   19  C23 UNL     1      36.265  57.174 130.882  1.00  0.00     0.018 C 
HETATM   20  C24 UNL     1      35.498  55.089 131.847  1.00  0.00     0.012 C 
HETATM   21  C25 UNL     1      35.612  55.499 133.287  1.00  0.00     0.011 C 
HETATM   22  C26 UNL     1      36.767  54.732 133.824  1.00  0.00    -0.029 C 
HETATM   23  C27 UNL     1      36.193  53.324 133.929  1.00  0.00     0.016 C 
HETATM   24  C28 UNL     1      37.277  55.291 135.162  1.00  0.00    -0.023 C 
HETATM   25  C29 UNL     1      36.158  55.018 136.051  1.00  0.00     0.017 C 
HETATM   26  C30 UNL     1      37.376  56.788 134.899  1.00  0.00     0.012 C 
HETATM   27  C31 UNL     1      38.736  57.284 135.286  1.00  0.00     0.020 C 
ENDROOT
BRANCH   1  28
HETATM   28  C4  UNL     1      38.668  56.484 137.474  1.00  0.00     0.122 C 
BRANCH  28  29
HETATM   29  N1  UNL     1      37.928  57.589 137.907  1.00  0.00    -0.352 N 
ATOM     30  H1  UNL     1      37.079  57.787 137.377  1.00  0.00     0.162 HD
BRANCH  29  31
HETATM   31  C3  UNL     1      38.206  58.497 139.015  1.00  0.00     0.276 C 
BRANCH  31  32
HETATM   32  C2  UNL     1      37.606  58.147 140.302  1.00  0.00     0.290 C 
HETATM   33  O2  UNL     1      37.113  57.047 140.630  1.00  0.00    -0.262 OA
BRANCH  32  34
HETATM   34  O1  UNL     1      37.571  59.140 141.266  1.00  0.00    -0.324 OA
HETATM   35  C1  UNL     1      38.096  59.087 142.547  1.00  0.00     0.213 C 
ENDBRANCH  32  34
ENDBRANCH  31  32
BRANCH  31  36
HETATM   36  C32 UNL     1      39.650  58.685 139.169  1.00  0.00     0.251 C 
HETATM   37  O7  UNL     1      40.264  57.738 139.810  1.00  0.00    -0.271 OA
HETATM   38  N2  UNL     1      40.482  59.724 138.739  1.00  0.00    -0.345 N 
ATOM     39  H2  UNL     1      40.076  60.509 138.230  1.00  0.00     0.163 HD
BRANCH  38  40
HETATM   40  C33 UNL     1      41.917  59.712 139.001  1.00  0.00     0.181 C 
HETATM   41  C34 UNL     1      42.265  60.359 140.332  1.00  0.00     0.043 C 
BRANCH  40  42
HETATM   42  C35 UNL     1      42.747  60.215 137.903  1.00  0.00     0.196 C 
HETATM   43  O8  UNL     1      42.557  59.837 136.741  1.00  0.00    -0.646 OA
HETATM   44  O9  UNL     1      43.742  61.114 138.193  1.00  0.00    -0.646 OA
ENDBRANCH  40  42
ENDBRANCH  38  40
ENDBRANCH  31  36
ENDBRANCH  29  31
ENDBRANCH  28  29
BRANCH  28  45
HETATM   45  O3  UNL     1      38.846  55.724 138.524  1.00  0.00    -0.349 OA
ATOM     46  H3  UNL     1      39.733  55.388 138.465  1.00  0.00     0.219 HD
ENDBRANCH  28  45
ENDBRANCH   1  28
BRANCH  14  47
HETATM   47  C19 UNL     1      39.395  57.012 129.423  1.00  0.00     0.208 C 
HETATM   48  O5  UNL     1      39.072  57.666 128.398  1.00  0.00    -0.646 OA
HETATM   49  O6  UNL     1      40.221  57.574 130.345  1.00  0.00    -0.646 OA
ENDBRANCH  14  47
TORSDOF 10
ENDMDL
MODEL 5
REMARK VINA RESULT: -8.425918630      2.633      9.771
REMARK  10 active torsions:
REMARK  status: ('A' for Active; 'I' for Inactive)
REMARK    1  A    between atoms: O1_2  and  C2_3 
REMARK    2  A    between atoms: C2_3  and  C3_5 
REMARK    3  A    between atoms: C3_5  and  N1_6 
REMARK    4  A    between atoms: C3_5  and  C32_41 
REMARK    5  A    between atoms: N1_6  and  C4_8 
REMARK    6  A    between atoms: C4_8  and  O3_9 
REMARK    7  A    between atoms: C4_8  and  C5_11 
REMARK    8  A    between atoms: C17_24  and  C19_26 
REMARK       I    between atoms: C32_41  and  N2_43 
REMARK    9  A    between atoms: N2_43  and  C33_45 
REMARK   10  A    between atoms: C33_45  and  C35_47 
ROOT
HETATM    1  C5  UNL     1      39.421  53.581 134.671  1.00  0.00     0.037 C 
HETATM    2  C6  UNL     1      40.369  52.418 134.494  1.00  0.00     0.023 C 
HETATM    3  C7  UNL     1      39.780  51.110 134.880  1.00  0.00     0.035 C 
HETATM    4  C8  UNL     1      38.328  50.955 134.839  1.00  0.00    -0.081 C 
HETATM    5  C9  UNL     1      37.929  49.853 133.875  1.00  0.00     0.043 C 
HETATM    6  C10 UNL     1      37.449  52.178 134.784  1.00  0.00    -0.071 C 
HETATM    7  C11 UNL     1      36.586  52.236 135.960  1.00  0.00     0.044 C 
HETATM    8  C12 UNL     1      38.047  53.364 134.100  1.00  0.00     0.010 C 
HETATM    9  C13 UNL     1      37.987  53.109 132.607  1.00  0.00     0.003 C 
HETATM   10  C14 UNL     1      39.040  52.669 131.743  1.00  0.00     0.011 C 
HETATM   11  C15 UNL     1      37.021  54.070 131.942  1.00  0.00     0.029 C 
HETATM   12  C16 UNL     1      37.492  54.786 130.698  1.00  0.00     0.136 C 
HETATM   13  O4  UNL     1      37.425  53.972 129.572  1.00  0.00    -0.363 OA
HETATM   14  C17 UNL     1      37.670  54.490 128.362  1.00  0.00     0.145 C 
HETATM   15  C18 UNL     1      37.425  53.305 127.377  1.00  0.00     0.058 C 
HETATM   16  C20 UNL     1      36.644  55.534 127.891  1.00  0.00     0.050 C 
HETATM   17  C21 UNL     1      35.826  55.836 129.088  1.00  0.00     0.015 C 
HETATM   18  C22 UNL     1      36.663  55.999 130.371  1.00  0.00    -0.017 C 
HETATM   19  C23 UNL     1      37.524  57.242 130.133  1.00  0.00     0.018 C 
HETATM   20  C24 UNL     1      35.617  56.388 131.358  1.00  0.00     0.012 C 
HETATM   21  C25 UNL     1      36.267  56.353 132.711  1.00  0.00     0.011 C 
HETATM   22  C26 UNL     1      36.464  54.911 133.016  1.00  0.00    -0.029 C 
HETATM   23  C27 UNL     1      35.042  54.455 133.324  1.00  0.00     0.016 C 
HETATM   24  C28 UNL     1      37.449  54.681 134.172  1.00  0.00    -0.023 C 
HETATM   25  C29 UNL     1      36.726  55.242 135.304  1.00  0.00     0.017 C 
HETATM   26  C30 UNL     1      38.625  55.579 133.813  1.00  0.00     0.012 C 
HETATM   27  C31 UNL     1      39.899  54.792 133.857  1.00  0.00     0.020 C 
ENDROOT
BRANCH   1  28
HETATM   28  C4  UNL     1      39.636  54.033 136.044  1.00  0.00     0.122 C 
BRANCH  28  29
HETATM   29  N1  UNL     1      39.691  55.309 136.614  1.00  0.00    -0.352 N 
ATOM     30  H1  UNL     1      38.917  55.931 136.381  1.00  0.00     0.162 HD
BRANCH  29  31
HETATM   31  C3  UNL     1      40.708  55.872 137.497  1.00  0.00     0.276 C 
BRANCH  31  32
HETATM   32  C2  UNL     1      41.339  57.112 137.047  1.00  0.00     0.290 C 
HETATM   33  O2  UNL     1      42.191  57.789 137.659  1.00  0.00    -0.262 OA
BRANCH  32  34
HETATM   34  O1  UNL     1      40.951  57.598 135.810  1.00  0.00    -0.324 OA
HETATM   35  C1  UNL     1      40.378  58.828 135.532  1.00  0.00     0.213 C 
ENDBRANCH  32  34
ENDBRANCH  31  32
BRANCH  31  36
HETATM   36  C32 UNL     1      40.170  56.044 138.849  1.00  0.00     0.251 C 
HETATM   37  O7  UNL     1      40.030  54.949 139.530  1.00  0.00    -0.271 OA
HETATM   38  N2  UNL     1      39.778  57.202 139.529  1.00  0.00    -0.345 N 
ATOM     39  H2  UNL     1      39.853  58.105 139.061  1.00  0.00     0.163 HD
BRANCH  38  40
HETATM   40  C33 UNL     1      39.264  57.149 140.893  1.00  0.00     0.181 C 
HETATM   41  C34 UNL     1      37.760  57.367 140.950  1.00  0.00     0.043 C 
BRANCH  40  42
HETATM   42  C35 UNL     1      39.985  57.985 141.855  1.00  0.00     0.196 C 
HETATM   43  O8  UNL     1      39.636  58.033 143.041  1.00  0.00    -0.646 OA
HETATM   44  O9  UNL     1      41.058  58.718 141.412  1.00  0.00    -0.646 OA
ENDBRANCH  40  42
ENDBRANCH  38  40
ENDBRANCH  31  36
ENDBRANCH  29  31
ENDBRANCH  28  29
BRANCH  28  45
HETATM   45  O3  UNL     1      39.814  53.183 137.024  1.00  0.00    -0.349 OA
ATOM     46  H3  UNL     1      40.188  53.678 137.743  1.00  0.00     0.219 HD
ENDBRANCH  28  45
ENDBRANCH   1  28
BRANCH  14  47
HETATM   47  C19 UNL     1      39.015  54.948 128.019  1.00  0.00     0.208 C 
HETATM   48  O5  UNL     1      39.128  55.958 127.279  1.00  0.00    -0.646 OA
HETATM   49  O6  UNL     1      40.132  54.319 128.473  1.00  0.00    -0.646 OA
ENDBRANCH  14  47
TORSDOF 10
ENDMDL
