MODEL 1
REMARK VINA RESULT: -8.518882703      0.000      0.000
REMARK  15 active torsions:
REMARK  status: ('A' for Active; 'I' for Inactive)
REMARK    1  A    between atoms: C2_2  and  S1_3 
REMARK    2  A    between atoms: S1_3  and  N1_6 
REMARK    3  A    between atoms: N1_6  and  C3_8 
REMARK    4  A    between atoms: C4_9  and  O3_10 
REMARK    5  A    between atoms: C5_12  and  O4_13 
REMARK    6  A    between atoms: C6_15  and  O5_16 
REMARK    7  A    between atoms: C7_18  and  C8_19 
REMARK    8  A    between atoms: C8_19  and  O6_20 
REMARK    9  A    between atoms: C8_19  and  C9_22 
REMARK   10  A    between atoms: N2_26  and  O8_27 
REMARK   11  A    between atoms: C13_31  and  O10_32 
REMARK   12  A    between atoms: O10_32  and  S2_33 
REMARK   13  A    between atoms: C14_37  and  O14_38 
REMARK   14  A    between atoms: O14_38  and  S3_39 
REMARK   15  A    between atoms: C15_44  and  O19_45 
ROOT
HETATM    1  C8  UNL     1       2.882  24.219  10.601  1.00  0.00     0.182 C 
ENDROOT
BRANCH   1   2
HETATM    2  C7  UNL     1       3.597  24.183   9.288  1.00  0.00     0.081 C 
HETATM    3  C6  UNL     1       3.084  25.220   8.337  1.00  0.00     0.158 C 
HETATM    4  C5  UNL     1       3.544  26.618   8.691  1.00  0.00     0.178 C 
HETATM    5  C4  UNL     1       4.970  26.703   9.100  1.00  0.00     0.175 C 
HETATM    6  C3  UNL     1       5.720  25.460   8.720  1.00  0.00     0.153 C 
HETATM    7  C15 UNL     1       5.085  24.216   9.378  1.00  0.00     0.153 C 
BRANCH   3   8
HETATM    8  O5  UNL     1       3.461  24.908   6.999  1.00  0.00    -0.392 OA
ATOM      9  H5  UNL     1       3.228  24.010   6.797  1.00  0.00     0.210 HD
ENDBRANCH   3   8
BRANCH   4  10
HETATM   10  O4  UNL     1       3.258  27.415   7.558  1.00  0.00    -0.390 OA
ATOM     11  H4  UNL     1       2.462  27.144   7.115  1.00  0.00     0.210 HD
ENDBRANCH   4  10
BRANCH   5  12
HETATM   12  O3  UNL     1       5.177  27.074  10.428  1.00  0.00    -0.391 OA
ATOM     13  H3  UNL     1       5.991  27.547  10.556  1.00  0.00     0.210 HD
ENDBRANCH   5  12
BRANCH   6  14
HETATM   14  N1  UNL     1       7.074  25.585   9.158  1.00  0.00    -0.310 N 
ATOM     15  H1  UNL     1       7.336  26.185   9.940  1.00  0.00     0.172 HD
BRANCH  14  16
HETATM   16  S1  UNL     1       8.221  24.679   8.299  1.00  0.00     0.226 S 
HETATM   17  O1  UNL     1       9.567  24.672   9.037  1.00  0.00    -0.206 OA
HETATM   18  O2  UNL     1       8.549  25.349   6.958  1.00  0.00    -0.206 OA
BRANCH  16  19
HETATM   19  C2  UNL     1       7.842  23.022   7.945  1.00  0.00     0.158 C 
HETATM   20  C1  UNL     1       8.976  22.072   7.767  1.00  0.00     0.023 C 
ENDBRANCH  16  19
ENDBRANCH  14  16
ENDBRANCH   6  14
BRANCH   7  21
HETATM   21  O19 UNL     1       5.588  24.165  10.660  1.00  0.00    -0.393 OA
ATOM     22  H19 UNL     1       6.502  23.924  10.575  1.00  0.00     0.210 HD
ENDBRANCH   7  21
ENDBRANCH   1   2
BRANCH   1  23
HETATM   23  O6  UNL     1       3.348  25.338  11.373  1.00  0.00    -0.390 OA
ATOM     24  H6  UNL     1       3.646  25.037  12.223  1.00  0.00     0.210 HD
ENDBRANCH   1  23
BRANCH   1  25
HETATM   25  C9  UNL     1       3.028  22.966  11.454  1.00  0.00     0.295 C 
HETATM   26  O7  UNL     1       3.718  22.053  10.780  1.00  0.00    -0.324 OA
HETATM   27  C10 UNL     1       3.833  20.769  11.158  1.00  0.00     0.308 C 
HETATM   28  C11 UNL     1       2.495  20.114  11.418  1.00  0.00     0.153 C 
HETATM   29  O18 UNL     1       4.556  20.747  12.345  1.00  0.00    -0.322 OA
HETATM   30  N2  UNL     1       1.608  20.559  12.236  1.00  0.00    -0.238 N 
HETATM   31  C12 UNL     1       1.753  21.761  13.041  1.00  0.00     0.287 C 
HETATM   32  O9  UNL     1       1.934  22.776  12.170  1.00  0.00    -0.329 OA
HETATM   33  C13 UNL     1       2.905  21.494  13.967  1.00  0.00     0.252 C 
HETATM   34  C14 UNL     1       3.849  20.405  13.465  1.00  0.00     0.319 C 
BRANCH  30  35
HETATM   35  O8  UNL     1       0.463  19.858  12.356  1.00  0.00    -0.286 OA
ATOM     36  H8  UNL     1      -0.326  20.339  12.579  1.00  0.00     0.244 HD
ENDBRANCH  30  35
BRANCH  33  37
HETATM   37  O10 UNL     1       2.500  21.220  15.264  1.00  0.00    -0.242 OA
BRANCH  37  38
HETATM   38  S2  UNL     1       2.671  22.494  16.311  1.00  0.00     0.252 S 
HETATM   39  O11 UNL     1       4.065  22.463  16.872  1.00  0.00    -0.572 OA
HETATM   40  O12 UNL     1       2.532  23.830  15.592  1.00  0.00    -0.572 OA
HETATM   41  O13 UNL     1       1.595  22.498  17.561  1.00  0.00    -0.572 OA
ENDBRANCH  37  38
ENDBRANCH  33  37
BRANCH  34  42
HETATM   42  O14 UNL     1       4.807  20.212  14.481  1.00  0.00    -0.221 OA
BRANCH  42  43
HETATM   43  S3  UNL     1       5.471  18.692  14.273  1.00  0.00     0.254 S 
HETATM   44  O15 UNL     1       5.903  18.114  15.589  1.00  0.00    -0.572 OA
HETATM   45  O16 UNL     1       4.472  17.730  13.686  1.00  0.00    -0.572 OA
HETATM   46  O17 UNL     1       6.826  18.736  13.287  1.00  0.00    -0.572 OA
ENDBRANCH  42  43
ENDBRANCH  34  42
ENDBRANCH   1  25
TORSDOF 15
ENDMDL
MODEL 2
REMARK VINA RESULT: -8.355448221      1.901      3.762
REMARK  15 active torsions:
REMARK  status: ('A' for Active; 'I' for Inactive)
REMARK    1  A    between atoms: C2_2  and  S1_3 
REMARK    2  A    between atoms: S1_3  and  N1_6 
REMARK    3  A    between atoms: N1_6  and  C3_8 
REMARK    4  A    between atoms: C4_9  and  O3_10 
REMARK    5  A    between atoms: C5_12  and  O4_13 
REMARK    6  A    between atoms: C6_15  and  O5_16 
REMARK    7  A    between atoms: C7_18  and  C8_19 
REMARK    8  A    between atoms: C8_19  and  O6_20 
REMARK    9  A    between atoms: C8_19  and  C9_22 
REMARK   10  A    between atoms: N2_26  and  O8_27 
REMARK   11  A    between atoms: C13_31  and  O10_32 
REMARK   12  A    between atoms: O10_32  and  S2_33 
REMARK   13  A    between atoms: C14_37  and  O14_38 
REMARK   14  A    between atoms: O14_38  and  S3_39 
REMARK   15  A    between atoms: C15_44  and  O19_45 
ROOT
HETATM    1  C8  UNL     1       3.093  25.164  10.116  1.00  0.00     0.182 C 
ENDROOT
BRANCH   1   2
HETATM    2  C7  UNL     1       3.854  24.642   8.939  1.00  0.00     0.081 C 
HETATM    3  C6  UNL     1       3.898  25.625   7.811  1.00  0.00     0.158 C 
HETATM    4  C5  UNL     1       4.847  26.775   8.073  1.00  0.00     0.178 C 
HETATM    5  C4  UNL     1       6.139  26.368   8.682  1.00  0.00     0.175 C 
HETATM    6  C3  UNL     1       6.356  24.888   8.564  1.00  0.00     0.153 C 
HETATM    7  C15 UNL     1       5.213  24.112   9.252  1.00  0.00     0.153 C 
BRANCH   3   8
HETATM    8  O5  UNL     1       4.242  24.977   6.590  1.00  0.00    -0.392 OA
ATOM      9  H5  UNL     1       4.823  25.530   6.081  1.00  0.00     0.210 HD
ENDBRANCH   3   8
BRANCH   4  10
HETATM   10  O4  UNL     1       5.016  27.423   6.827  1.00  0.00    -0.390 OA
ATOM     11  H4  UNL     1       4.459  27.059   6.150  1.00  0.00     0.210 HD
ENDBRANCH   4  10
BRANCH   5  12
HETATM   12  O3  UNL     1       6.350  26.842   9.977  1.00  0.00    -0.391 OA
ATOM     13  H3  UNL     1       6.619  27.753   9.996  1.00  0.00     0.210 HD
ENDBRANCH   5  12
BRANCH   6  14
HETATM   14  N1  UNL     1       7.596  24.551   9.186  1.00  0.00    -0.310 N 
ATOM     15  H1  UNL     1       7.836  24.874  10.123  1.00  0.00     0.172 HD
BRANCH  14  16
HETATM   16  S1  UNL     1       8.647  23.581   8.275  1.00  0.00     0.226 S 
HETATM   17  O1  UNL     1       9.813  23.087   9.142  1.00  0.00    -0.206 OA
HETATM   18  O2  UNL     1       9.336  24.407   7.181  1.00  0.00    -0.206 OA
BRANCH  16  19
HETATM   19  C2  UNL     1       7.982  22.180   7.494  1.00  0.00     0.158 C 
HETATM   20  C1  UNL     1       8.932  21.206   6.887  1.00  0.00     0.023 C 
ENDBRANCH  16  19
ENDBRANCH  14  16
ENDBRANCH   6  14
BRANCH   7  21
HETATM   21  O19 UNL     1       5.527  24.081  10.593  1.00  0.00    -0.393 OA
ATOM     22  H19 UNL     1       5.683  23.169  10.806  1.00  0.00     0.210 HD
ENDBRANCH   7  21
ENDBRANCH   1   2
BRANCH   1  23
HETATM   23  O6  UNL     1       3.994  25.832  11.014  1.00  0.00    -0.390 OA
ATOM     24  H6  UNL     1       3.516  26.135  11.777  1.00  0.00     0.210 HD
ENDBRANCH   1  23
BRANCH   1  25
HETATM   25  C9  UNL     1       2.326  24.117  10.911  1.00  0.00     0.295 C 
HETATM   26  O7  UNL     1       1.022  24.306  10.744  1.00  0.00    -0.324 OA
HETATM   27  C10 UNL     1       0.075  23.695  11.475  1.00  0.00     0.308 C 
HETATM   28  C11 UNL     1       0.291  23.858  12.963  1.00  0.00     0.153 C 
HETATM   29  O18 UNL     1       0.132  22.338  11.182  1.00  0.00    -0.322 OA
HETATM   30  N2  UNL     1       1.368  23.533  13.587  1.00  0.00    -0.238 N 
HETATM   31  C12 UNL     1       2.546  22.955  12.960  1.00  0.00     0.287 C 
HETATM   32  O9  UNL     1       2.959  23.853  12.040  1.00  0.00    -0.329 OA
HETATM   33  C13 UNL     1       2.106  21.628  12.412  1.00  0.00     0.252 C 
HETATM   34  C14 UNL     1       0.600  21.533  12.184  1.00  0.00     0.319 C 
BRANCH  30  35
HETATM   35  O8  UNL     1       1.404  23.740  14.919  1.00  0.00    -0.286 OA
ATOM     36  H8  UNL     1       1.827  23.080  15.456  1.00  0.00     0.244 HD
ENDBRANCH  30  35
BRANCH  33  37
HETATM   37  O10 UNL     1       2.547  20.559  13.177  1.00  0.00    -0.242 OA
BRANCH  37  38
HETATM   38  S2  UNL     1       4.171  20.256  13.046  1.00  0.00     0.252 S 
HETATM   39  O11 UNL     1       4.803  20.460  14.394  1.00  0.00    -0.572 OA
HETATM   40  O12 UNL     1       4.440  18.805  12.666  1.00  0.00    -0.572 OA
HETATM   41  O13 UNL     1       4.954  21.201  11.943  1.00  0.00    -0.572 OA
ENDBRANCH  37  38
ENDBRANCH  33  37
BRANCH  34  42
HETATM   42  O14 UNL     1       0.346  20.211  11.767  1.00  0.00    -0.221 OA
BRANCH  42  43
HETATM   43  S3  UNL     1      -1.226  19.835  12.194  1.00  0.00     0.254 S 
HETATM   44  O15 UNL     1      -1.391  18.353  12.368  1.00  0.00    -0.572 OA
HETATM   45  O16 UNL     1      -1.607  20.469  13.506  1.00  0.00    -0.572 OA
HETATM   46  O17 UNL     1      -2.320  20.318  11.020  1.00  0.00    -0.572 OA
ENDBRANCH  42  43
ENDBRANCH  34  42
ENDBRANCH   1  25
TORSDOF 15
ENDMDL
MODEL 3
REMARK VINA RESULT: -8.332227202      3.205      5.636
REMARK  15 active torsions:
REMARK  status: ('A' for Active; 'I' for Inactive)
REMARK    1  A    between atoms: C2_2  and  S1_3 
REMARK    2  A    between atoms: S1_3  and  N1_6 
REMARK    3  A    between atoms: N1_6  and  C3_8 
REMARK    4  A    between atoms: C4_9  and  O3_10 
REMARK    5  A    between atoms: C5_12  and  O4_13 
REMARK    6  A    between atoms: C6_15  and  O5_16 
REMARK    7  A    between atoms: C7_18  and  C8_19 
REMARK    8  A    between atoms: C8_19  and  O6_20 
REMARK    9  A    between atoms: C8_19  and  C9_22 
REMARK   10  A    between atoms: N2_26  and  O8_27 
REMARK   11  A    between atoms: C13_31  and  O10_32 
REMARK   12  A    between atoms: O10_32  and  S2_33 
REMARK   13  A    between atoms: C14_37  and  O14_38 
REMARK   14  A    between atoms: O14_38  and  S3_39 
REMARK   15  A    between atoms: C15_44  and  O19_45 
ROOT
HETATM    1  C8  UNL     1       1.614  20.605  12.597  1.00  0.00     0.182 C 
ENDROOT
BRANCH   1   2
HETATM    2  C7  UNL     1       2.924  21.327  12.625  1.00  0.00     0.081 C 
HETATM    3  C6  UNL     1       3.925  20.719  11.692  1.00  0.00     0.158 C 
HETATM    4  C5  UNL     1       3.640  21.034  10.239  1.00  0.00     0.178 C 
HETATM    5  C4  UNL     1       3.235  22.443   9.992  1.00  0.00     0.175 C 
HETATM    6  C3  UNL     1       3.552  23.315  11.171  1.00  0.00     0.153 C 
HETATM    7  C15 UNL     1       2.834  22.804  12.439  1.00  0.00     0.153 C 
BRANCH   3   8
HETATM    8  O5  UNL     1       5.246  21.132  12.030  1.00  0.00    -0.392 OA
ATOM      9  H5  UNL     1       5.337  22.069  11.901  1.00  0.00     0.210 HD
ENDBRANCH   3   8
BRANCH   4  10
HETATM   10  O4  UNL     1       4.811  20.677   9.532  1.00  0.00    -0.390 OA
ATOM     11  H4  UNL     1       4.623  20.187   8.741  1.00  0.00     0.210 HD
ENDBRANCH   4  10
BRANCH   5  12
HETATM   12  O3  UNL     1       1.926  22.604   9.538  1.00  0.00    -0.391 OA
ATOM     13  H3  UNL     1       1.369  21.865   9.752  1.00  0.00     0.210 HD
ENDBRANCH   5  12
BRANCH   6  14
HETATM   14  N1  UNL     1       3.120  24.648  10.890  1.00  0.00    -0.310 N 
ATOM     15  H1  UNL     1       2.158  24.948  11.046  1.00  0.00     0.172 HD
BRANCH  14  16
HETATM   16  S1  UNL     1       4.302  25.700  10.281  1.00  0.00     0.226 S 
HETATM   17  O1  UNL     1       5.695  25.064  10.384  1.00  0.00    -0.206 OA
HETATM   18  O2  UNL     1       4.414  26.955  11.155  1.00  0.00    -0.206 OA
BRANCH  16  19
HETATM   19  C2  UNL     1       4.129  26.251   8.643  1.00  0.00     0.158 C 
HETATM   20  C1  UNL     1       3.025  25.671   7.828  1.00  0.00     0.023 C 
ENDBRANCH  16  19
ENDBRANCH  14  16
ENDBRANCH   6  14
BRANCH   7  21
HETATM   21  O19 UNL     1       1.551  23.302  12.377  1.00  0.00    -0.393 OA
ATOM     22  H19 UNL     1       1.535  24.060  12.947  1.00  0.00     0.210 HD
ENDBRANCH   7  21
ENDBRANCH   1   2
BRANCH   1  23
HETATM   23  O6  UNL     1       0.792  21.058  13.685  1.00  0.00    -0.390 OA
ATOM     24  H6  UNL     1       0.203  21.737  13.377  1.00  0.00     0.210 HD
ENDBRANCH   1  23
BRANCH   1  25
HETATM   25  C9  UNL     1       1.707  19.088  12.676  1.00  0.00     0.295 C 
HETATM   26  O7  UNL     1       0.824  18.548  11.844  1.00  0.00    -0.324 OA
HETATM   27  C10 UNL     1       0.500  17.245  11.834  1.00  0.00     0.308 C 
HETATM   28  C11 UNL     1       0.092  16.734  13.197  1.00  0.00     0.153 C 
HETATM   29  O18 UNL     1       1.628  16.539  11.433  1.00  0.00    -0.322 OA
HETATM   30  N2  UNL     1       0.811  16.826  14.260  1.00  0.00    -0.238 N 
HETATM   31  C12 UNL     1       2.130  17.436  14.316  1.00  0.00     0.287 C 
HETATM   32  O9  UNL     1       1.970  18.715  13.917  1.00  0.00    -0.329 OA
HETATM   33  C13 UNL     1       3.006  16.591  13.435  1.00  0.00     0.252 C 
HETATM   34  C14 UNL     1       2.230  15.782  12.401  1.00  0.00     0.319 C 
BRANCH  30  35
HETATM   35  O8  UNL     1       0.305  16.319  15.401  1.00  0.00    -0.286 OA
ATOM     36  H8  UNL     1       0.832  15.684  15.872  1.00  0.00     0.244 HD
ENDBRANCH  30  35
BRANCH  33  37
HETATM   37  O10 UNL     1       3.855  15.765  14.156  1.00  0.00    -0.242 OA
BRANCH  37  38
HETATM   38  S2  UNL     1       5.411  16.324  14.269  1.00  0.00     0.252 S 
HETATM   39  O11 UNL     1       6.283  15.484  13.379  1.00  0.00    -0.572 OA
HETATM   40  O12 UNL     1       5.529  17.753  13.753  1.00  0.00    -0.572 OA
HETATM   41  O13 UNL     1       6.034  16.305  15.796  1.00  0.00    -0.572 OA
ENDBRANCH  37  38
ENDBRANCH  33  37
BRANCH  34  42
HETATM   42  O14 UNL     1       3.177  14.982  11.731  1.00  0.00    -0.221 OA
BRANCH  42  43
HETATM   43  S3  UNL     1       2.353  13.741  10.974  1.00  0.00     0.254 S 
HETATM   44  O15 UNL     1       3.184  12.492  10.938  1.00  0.00    -0.572 OA
HETATM   45  O16 UNL     1       1.083  13.396  11.706  1.00  0.00    -0.572 OA
HETATM   46  O17 UNL     1       1.975  14.126   9.386  1.00  0.00    -0.572 OA
ENDBRANCH  42  43
ENDBRANCH  34  42
ENDBRANCH   1  25
TORSDOF 15
ENDMDL
MODEL 4
REMARK VINA RESULT: -8.265121923      3.370      6.202
REMARK  15 active torsions:
REMARK  status: ('A' for Active; 'I' for Inactive)
REMARK    1  A    between atoms: C2_2  and  S1_3 
REMARK    2  A    between atoms: S1_3  and  N1_6 
REMARK    3  A    between atoms: N1_6  and  C3_8 
REMARK    4  A    between atoms: C4_9  and  O3_10 
REMARK    5  A    between atoms: C5_12  and  O4_13 
REMARK    6  A    between atoms: C6_15  and  O5_16 
REMARK    7  A    between atoms: C7_18  and  C8_19 
REMARK    8  A    between atoms: C8_19  and  O6_20 
REMARK    9  A    between atoms: C8_19  and  C9_22 
REMARK   10  A    between atoms: N2_26  and  O8_27 
REMARK   11  A    between atoms: C13_31  and  O10_32 
REMARK   12  A    between atoms: O10_32  and  S2_33 
REMARK   13  A    between atoms: C14_37  and  O14_38 
REMARK   14  A    between atoms: O14_38  and  S3_39 
REMARK   15  A    between atoms: C15_44  and  O19_45 
ROOT
HETATM    1  C8  UNL     1       1.300  19.347  12.594  1.00  0.00     0.182 C 
ENDROOT
BRANCH   1   2
HETATM    2  C7  UNL     1       2.205  20.427  13.094  1.00  0.00     0.081 C 
HETATM    3  C6  UNL     1       3.637  19.992  13.140  1.00  0.00     0.158 C 
HETATM    4  C5  UNL     1       4.272  19.922  11.768  1.00  0.00     0.178 C 
HETATM    5  C4  UNL     1       3.928  21.064  10.881  1.00  0.00     0.175 C 
HETATM    6  C3  UNL     1       3.332  22.199  11.661  1.00  0.00     0.153 C 
HETATM    7  C15 UNL     1       2.058  21.742  12.404  1.00  0.00     0.153 C 
BRANCH   3   8
HETATM    8  O5  UNL     1       4.398  20.847  13.987  1.00  0.00    -0.392 OA
ATOM      9  H5  UNL     1       4.451  20.477  14.860  1.00  0.00     0.210 HD
ENDBRANCH   3   8
BRANCH   4  10
HETATM   10  O4  UNL     1       5.664  19.814  11.995  1.00  0.00    -0.390 OA
ATOM     11  H4  UNL     1       5.872  19.673  12.911  1.00  0.00     0.210 HD
ENDBRANCH   4  10
BRANCH   5  12
HETATM   12  O3  UNL     1       3.173  20.725   9.759  1.00  0.00    -0.391 OA
ATOM     13  H3  UNL     1       3.277  19.815   9.506  1.00  0.00     0.210 HD
ENDBRANCH   5  12
BRANCH   6  14
HETATM   14  N1  UNL     1       2.998  23.255  10.759  1.00  0.00    -0.310 N 
ATOM     15  H1  UNL     1       2.040  23.419  10.450  1.00  0.00     0.172 HD
BRANCH  14  16
HETATM   16  S1  UNL     1       4.289  24.218  10.231  1.00  0.00     0.226 S 
HETATM   17  O1  UNL     1       4.568  23.978   8.741  1.00  0.00    -0.206 OA
HETATM   18  O2  UNL     1       5.597  23.796  10.914  1.00  0.00    -0.206 OA
BRANCH  16  19
HETATM   19  C2  UNL     1       4.154  25.937  10.439  1.00  0.00     0.158 C 
HETATM   20  C1  UNL     1       5.144  26.802   9.738  1.00  0.00     0.023 C 
ENDBRANCH  16  19
ENDBRANCH  14  16
ENDBRANCH   6  14
BRANCH   7  21
HETATM   21  O19 UNL     1       1.037  21.800  11.482  1.00  0.00    -0.393 OA
ATOM     22  H19 UNL     1       0.378  21.186  11.780  1.00  0.00     0.210 HD
ENDBRANCH   7  21
ENDBRANCH   1   2
BRANCH   1  23
HETATM   23  O6  UNL     1       0.074  19.359  13.344  1.00  0.00    -0.390 OA
ATOM     24  H6  UNL     1       0.252  19.131  14.249  1.00  0.00     0.210 HD
ENDBRANCH   1  23
BRANCH   1  25
HETATM   25  C9  UNL     1       1.875  17.939  12.655  1.00  0.00     0.295 C 
HETATM   26  O7  UNL     1       1.421  17.233  11.626  1.00  0.00    -0.324 OA
HETATM   27  C10 UNL     1       1.561  15.902  11.508  1.00  0.00     0.308 C 
HETATM   28  C11 UNL     1       1.068  15.153  12.725  1.00  0.00     0.153 C 
HETATM   29  O18 UNL     1       2.917  15.637  11.364  1.00  0.00    -0.322 OA
HETATM   30  N2  UNL     1       1.471  15.362  13.928  1.00  0.00    -0.238 N 
HETATM   31  C12 UNL     1       2.467  16.351  14.307  1.00  0.00     0.287 C 
HETATM   32  O9  UNL     1       1.977  17.546  13.913  1.00  0.00    -0.329 OA
HETATM   33  C13 UNL     1       3.740  15.924  13.635  1.00  0.00     0.252 C 
HETATM   34  C14 UNL     1       3.517  15.018  12.427  1.00  0.00     0.319 C 
BRANCH  30  35
HETATM   35  O8  UNL     1       0.933  14.607  14.906  1.00  0.00    -0.286 OA
ATOM     36  H8  UNL     1       0.457  15.055  15.597  1.00  0.00     0.244 HD
ENDBRANCH  30  35
BRANCH  33  37
HETATM   37  O10 UNL     1       4.643  15.343  14.513  1.00  0.00    -0.242 OA
BRANCH  37  38
HETATM   38  S2  UNL     1       5.830  16.372  15.043  1.00  0.00     0.252 S 
HETATM   39  O11 UNL     1       7.153  15.668  14.931  1.00  0.00    -0.572 OA
HETATM   40  O12 UNL     1       5.931  17.610  14.160  1.00  0.00    -0.572 OA
HETATM   41  O13 UNL     1       5.636  16.895  16.595  1.00  0.00    -0.572 OA
ENDBRANCH  37  38
ENDBRANCH  33  37
BRANCH  34  42
HETATM   42  O14 UNL     1       4.797  14.635  11.978  1.00  0.00    -0.221 OA
BRANCH  42  43
HETATM   43  S3  UNL     1       4.618  13.262  11.041  1.00  0.00     0.254 S 
HETATM   44  O15 UNL     1       4.413  13.624   9.599  1.00  0.00    -0.572 OA
HETATM   45  O16 UNL     1       5.845  12.392  11.098  1.00  0.00    -0.572 OA
HETATM   46  O17 UNL     1       3.288  12.357  11.515  1.00  0.00    -0.572 OA
ENDBRANCH  42  43
ENDBRANCH  34  42
ENDBRANCH   1  25
TORSDOF 15
ENDMDL
MODEL 5
REMARK VINA RESULT: -8.264255623      1.587      3.108
REMARK  15 active torsions:
REMARK  status: ('A' for Active; 'I' for Inactive)
REMARK    1  A    between atoms: C2_2  and  S1_3 
REMARK    2  A    between atoms: S1_3  and  N1_6 
REMARK    3  A    between atoms: N1_6  and  C3_8 
REMARK    4  A    between atoms: C4_9  and  O3_10 
REMARK    5  A    between atoms: C5_12  and  O4_13 
REMARK    6  A    between atoms: C6_15  and  O5_16 
REMARK    7  A    between atoms: C7_18  and  C8_19 
REMARK    8  A    between atoms: C8_19  and  O6_20 
REMARK    9  A    between atoms: C8_19  and  C9_22 
REMARK   10  A    between atoms: N2_26  and  O8_27 
REMARK   11  A    between atoms: C13_31  and  O10_32 
REMARK   12  A    between atoms: O10_32  and  S2_33 
REMARK   13  A    between atoms: C14_37  and  O14_38 
REMARK   14  A    between atoms: O14_38  and  S3_39 
REMARK   15  A    between atoms: C15_44  and  O19_45 
ROOT
HETATM    1  C8  UNL     1       2.269  24.428  10.753  1.00  0.00     0.182 C 
ENDROOT
BRANCH   1   2
HETATM    2  C7  UNL     1       3.053  24.227   9.496  1.00  0.00     0.081 C 
HETATM    3  C6  UNL     1       2.765  25.283   8.474  1.00  0.00     0.158 C 
HETATM    4  C5  UNL     1       3.405  26.614   8.810  1.00  0.00     0.178 C 
HETATM    5  C4  UNL     1       4.799  26.506   9.314  1.00  0.00     0.175 C 
HETATM    6  C3  UNL     1       5.377  25.150   9.034  1.00  0.00     0.153 C 
HETATM    7  C15 UNL     1       4.521  24.045   9.690  1.00  0.00     0.153 C 
BRANCH   3   8
HETATM    8  O5  UNL     1       3.176  24.858   7.178  1.00  0.00    -0.392 OA
ATOM      9  H5  UNL     1       2.677  25.315   6.512  1.00  0.00     0.210 HD
ENDBRANCH   3   8
BRANCH   4  10
HETATM   10  O4  UNL     1       3.315  27.390   7.631  1.00  0.00    -0.390 OA
ATOM     11  H4  UNL     1       2.495  27.259   7.172  1.00  0.00     0.210 HD
ENDBRANCH   4  10
BRANCH   5  12
HETATM   12  O3  UNL     1       4.972  26.903  10.640  1.00  0.00    -0.391 OA
ATOM     13  H3  UNL     1       4.343  27.560  10.913  1.00  0.00     0.210 HD
ENDBRANCH   5  12
BRANCH   6  14
HETATM   14  N1  UNL     1       6.703  25.095   9.561  1.00  0.00    -0.310 N 
ATOM     15  H1  UNL     1       6.917  25.380  10.517  1.00  0.00     0.172 HD
BRANCH  14  16
HETATM   16  S1  UNL     1       7.901  24.528   8.504  1.00  0.00     0.226 S 
HETATM   17  O1  UNL     1       9.287  24.625   9.157  1.00  0.00    -0.206 OA
HETATM   18  O2  UNL     1       8.017  25.439   7.276  1.00  0.00    -0.206 OA
BRANCH  16  19
HETATM   19  C2  UNL     1       7.749  22.905   7.905  1.00  0.00     0.158 C 
HETATM   20  C1  UNL     1       8.999  22.172   7.560  1.00  0.00     0.023 C 
ENDBRANCH  16  19
ENDBRANCH  14  16
ENDBRANCH   6  14
BRANCH   7  21
HETATM   21  O19 UNL     1       4.927  23.979  11.005  1.00  0.00    -0.393 OA
ATOM     22  H19 UNL     1       4.963  23.056  11.223  1.00  0.00     0.210 HD
ENDBRANCH   7  21
ENDBRANCH   1   2
BRANCH   1  23
HETATM   23  O6  UNL     1       2.987  25.310  11.633  1.00  0.00    -0.390 OA
ATOM     24  H6  UNL     1       2.949  26.196  11.294  1.00  0.00     0.210 HD
ENDBRANCH   1  23
BRANCH   1  25
HETATM   25  C9  UNL     1       1.942  23.157  11.525  1.00  0.00     0.295 C 
HETATM   26  O7  UNL     1       0.693  22.791  11.261  1.00  0.00    -0.324 OA
HETATM   27  C10 UNL     1       0.028  21.844  11.942  1.00  0.00     0.308 C 
HETATM   28  C11 UNL     1       0.043  22.081  13.436  1.00  0.00     0.153 C 
HETATM   29  O18 UNL     1       0.661  20.631  11.696  1.00  0.00    -0.322 OA
HETATM   30  N2  UNL     1       1.106  22.228  14.144  1.00  0.00    -0.238 N 
HETATM   31  C12 UNL     1       2.462  22.189  13.620  1.00  0.00     0.287 C 
HETATM   32  O9  UNL     1       2.539  23.178  12.704  1.00  0.00    -0.329 OA
HETATM   33  C13 UNL     1       2.650  20.798  13.084  1.00  0.00     0.252 C 
HETATM   34  C14 UNL     1       1.340  20.090  12.754  1.00  0.00     0.319 C 
BRANCH  30  35
HETATM   35  O8  UNL     1       0.951  22.431  15.467  1.00  0.00    -0.286 OA
ATOM     36  H8  UNL     1       0.995  21.672  16.037  1.00  0.00     0.244 HD
ENDBRANCH  30  35
BRANCH  33  37
HETATM   37  O10 UNL     1       3.431  20.006  13.911  1.00  0.00    -0.242 OA
BRANCH  37  38
HETATM   38  S2  UNL     1       4.964  19.734  13.340  1.00  0.00     0.252 S 
HETATM   39  O11 UNL     1       5.234  18.257  13.387  1.00  0.00    -0.572 OA
HETATM   40  O12 UNL     1       5.096  20.145  11.878  1.00  0.00    -0.572 OA
HETATM   41  O13 UNL     1       6.151  20.519  14.175  1.00  0.00    -0.572 OA
ENDBRANCH  37  38
ENDBRANCH  33  37
BRANCH  34  42
HETATM   42  O14 UNL     1       1.685  18.781  12.361  1.00  0.00    -0.221 OA
BRANCH  42  43
HETATM   43  S3  UNL     1       0.442  17.766  12.827  1.00  0.00     0.254 S 
HETATM   44  O15 UNL     1      -0.388  18.398  13.906  1.00  0.00    -0.572 OA
HETATM   45  O16 UNL     1      -0.490  17.473  11.680  1.00  0.00    -0.572 OA
HETATM   46  O17 UNL     1       1.022  16.316  13.438  1.00  0.00    -0.572 OA
ENDBRANCH  42  43
ENDBRANCH  34  42
ENDBRANCH   1  25
TORSDOF 15
ENDMDL
