MODEL 1
REMARK VINA RESULT: -7.585309349      0.000      0.000
REMARK  11 active torsions:
REMARK  status: ('A' for Active; 'I' for Inactive)
REMARK    1  A    between atoms: O1_2  and  C2_3 
REMARK    2  A    between atoms: C2_3  and  C3_7 
REMARK    3  A    between atoms: C4_8  and  C5_9 
REMARK    4  A    between atoms: C5_9  and  C7_11 
REMARK    5  A    between atoms: C7_11  and  C8_12 
REMARK    6  A    between atoms: C8_12  and  O2_13 
REMARK    7  A    between atoms: C8_12  and  C9_15 
REMARK    8  A    between atoms: C9_15  and  O3_16 
REMARK    9  A    between atoms: C9_15  and  C10_18 
REMARK   10  A    between atoms: C10_18  and  C11_20 
REMARK   11  A    between atoms: C12_21  and  C13_22 
ROOT
HETATM    1  C8  UNL     1     -52.100  24.610 -33.071  1.00  0.00     0.080 C 
ENDROOT
BRANCH   1   2
HETATM    2  C7  UNL     1     -51.373  24.397 -31.882  1.00  0.00     0.042 C 
BRANCH   2   3
HETATM    3  C5  UNL     1     -51.566  24.100 -30.633  1.00  0.00    -0.059 C 
HETATM    4  C6  UNL     1     -53.017  24.122 -30.202  1.00  0.00     0.048 C 
BRANCH   3   5
HETATM    5  C4  UNL     1     -50.565  23.768 -29.687  1.00  0.00     0.011 C 
HETATM    6  C3  UNL     1     -49.507  23.043 -29.610  1.00  0.00     0.056 C 
BRANCH   6   7
HETATM    7  C2  UNL     1     -48.716  22.164 -30.390  1.00  0.00     0.135 C 
HETATM    8  N1  UNL     1     -47.534  21.871 -30.344  1.00  0.00    -0.380 N 
ATOM      9  H12 UNL     1     -46.965  21.238 -30.906  1.00  0.00     0.158 HD
ATOM     10  H11 UNL     1     -47.041  22.361 -29.598  1.00  0.00     0.158 HD
BRANCH   7  11
HETATM   11  O1  UNL     1     -49.425  21.459 -31.463  1.00  0.00    -0.341 OA
HETATM   12  C1  UNL     1     -49.006  21.733 -32.792  1.00  0.00     0.211 C 
ENDBRANCH   7  11
ENDBRANCH   6   7
ENDBRANCH   3   5
ENDBRANCH   2   3
ENDBRANCH   1   2
BRANCH   1  13
HETATM   13  O2  UNL     1     -52.214  25.895 -33.431  1.00  0.00    -0.362 OA
ATOM     14  H2  UNL     1     -51.387  26.347 -33.555  1.00  0.00     0.217 HD
ENDBRANCH   1  13
BRANCH   1  15
HETATM   15  C9  UNL     1     -52.746  23.675 -33.975  1.00  0.00     0.248 C 
BRANCH  15  16
HETATM   16  O3  UNL     1     -52.577  24.021 -35.290  1.00  0.00    -0.381 OA
ATOM     17  H3  UNL     1     -52.893  23.350 -35.883  1.00  0.00     0.211 HD
ENDBRANCH  15  16
BRANCH  15  18
HETATM   18  C10 UNL     1     -54.264  23.583 -33.664  1.00  0.00     0.184 C 
HETATM   19  O4  UNL     1     -54.914  24.602 -33.882  1.00  0.00    -0.290 OA
BRANCH  18  20
HETATM   20  C11 UNL     1     -54.769  22.357 -33.164  1.00  0.00     0.054 C 
HETATM   21  C12 UNL     1     -55.105  21.254 -33.677  1.00  0.00     0.010 C 
BRANCH  21  22
HETATM   22  C13 UNL     1     -55.193  20.586 -34.930  1.00  0.00    -0.062 C 
HETATM   23  C14 UNL     1     -54.559  21.131 -36.031  1.00  0.00    -0.020 C 
HETATM   24  C15 UNL     1     -54.645  20.444 -37.336  1.00  0.00     0.027 C 
HETATM   25  C16 UNL     1     -54.334  18.967 -37.219  1.00  0.00     0.004 C 
HETATM   26  C17 UNL     1     -54.822  18.409 -35.906  1.00  0.00     0.005 C 
HETATM   27  C18 UNL     1     -55.873  19.346 -35.282  1.00  0.00     0.038 C 
ENDBRANCH  21  22
ENDBRANCH  18  20
ENDBRANCH  15  18
ENDBRANCH   1  15
TORSDOF 11
ENDMDL
MODEL 2
REMARK VINA RESULT: -7.553219971      1.645      2.226
REMARK  11 active torsions:
REMARK  status: ('A' for Active; 'I' for Inactive)
REMARK    1  A    between atoms: O1_2  and  C2_3 
REMARK    2  A    between atoms: C2_3  and  C3_7 
REMARK    3  A    between atoms: C4_8  and  C5_9 
REMARK    4  A    between atoms: C5_9  and  C7_11 
REMARK    5  A    between atoms: C7_11  and  C8_12 
REMARK    6  A    between atoms: C8_12  and  O2_13 
REMARK    7  A    between atoms: C8_12  and  C9_15 
REMARK    8  A    between atoms: C9_15  and  O3_16 
REMARK    9  A    between atoms: C9_15  and  C10_18 
REMARK   10  A    between atoms: C10_18  and  C11_20 
REMARK   11  A    between atoms: C12_21  and  C13_22 
ROOT
HETATM    1  C8  UNL     1     -52.350  24.307 -33.440  1.00  0.00     0.080 C 
ENDROOT
BRANCH   1   2
HETATM    2  C7  UNL     1     -52.700  24.845 -32.185  1.00  0.00     0.042 C 
BRANCH   2   3
HETATM    3  C5  UNL     1     -53.191  24.476 -31.041  1.00  0.00    -0.059 C 
HETATM    4  C6  UNL     1     -54.703  24.393 -31.007  1.00  0.00     0.048 C 
BRANCH   3   5
HETATM    5  C4  UNL     1     -52.451  24.157 -29.876  1.00  0.00     0.011 C 
HETATM    6  C3  UNL     1     -51.270  23.768 -29.555  1.00  0.00     0.056 C 
BRANCH   6   7
HETATM    7  C2  UNL     1     -50.025  23.431 -30.141  1.00  0.00     0.135 C 
HETATM    8  N1  UNL     1     -49.376  23.950 -31.033  1.00  0.00    -0.380 N 
ATOM      9  H12 UNL     1     -48.480  23.708 -31.455  1.00  0.00     0.158 HD
ATOM     10  H11 UNL     1     -49.831  24.780 -31.413  1.00  0.00     0.158 HD
BRANCH   7  11
HETATM   11  O1  UNL     1     -49.370  22.239 -29.594  1.00  0.00    -0.341 OA
HETATM   12  C1  UNL     1     -48.248  21.743 -30.310  1.00  0.00     0.211 C 
ENDBRANCH   7  11
ENDBRANCH   6   7
ENDBRANCH   3   5
ENDBRANCH   2   3
ENDBRANCH   1   2
BRANCH   1  13
HETATM   13  O2  UNL     1     -51.239  23.559 -33.435  1.00  0.00    -0.362 OA
ATOM     14  H2  UNL     1     -51.369  22.658 -33.162  1.00  0.00     0.217 HD
ENDBRANCH   1  13
BRANCH   1  15
HETATM   15  C9  UNL     1     -52.989  24.420 -34.739  1.00  0.00     0.248 C 
BRANCH  15  16
HETATM   16  O3  UNL     1     -54.030  25.311 -34.731  1.00  0.00    -0.381 OA
ATOM     17  H3  UNL     1     -54.721  25.063 -35.335  1.00  0.00     0.211 HD
ENDBRANCH  15  16
BRANCH  15  18
HETATM   18  C10 UNL     1     -53.507  23.035 -35.210  1.00  0.00     0.184 C 
HETATM   19  O4  UNL     1     -54.017  22.334 -34.341  1.00  0.00    -0.290 OA
BRANCH  18  20
HETATM   20  C11 UNL     1     -53.354  22.696 -36.577  1.00  0.00     0.054 C 
HETATM   21  C12 UNL     1     -53.642  21.692 -37.287  1.00  0.00     0.010 C 
BRANCH  21  22
HETATM   22  C13 UNL     1     -54.233  20.401 -37.205  1.00  0.00    -0.062 C 
HETATM   23  C14 UNL     1     -53.601  19.329 -37.809  1.00  0.00    -0.020 C 
HETATM   24  C15 UNL     1     -54.209  17.985 -37.728  1.00  0.00     0.027 C 
HETATM   25  C16 UNL     1     -54.619  17.634 -36.313  1.00  0.00     0.004 C 
HETATM   26  C17 UNL     1     -55.096  18.853 -35.564  1.00  0.00     0.005 C 
HETATM   27  C18 UNL     1     -55.464  19.977 -36.550  1.00  0.00     0.038 C 
ENDBRANCH  21  22
ENDBRANCH  18  20
ENDBRANCH  15  18
ENDBRANCH   1  15
TORSDOF 11
ENDMDL
MODEL 3
REMARK VINA RESULT: -7.516625340      1.014      1.627
REMARK  11 active torsions:
REMARK  status: ('A' for Active; 'I' for Inactive)
REMARK    1  A    between atoms: O1_2  and  C2_3 
REMARK    2  A    between atoms: C2_3  and  C3_7 
REMARK    3  A    between atoms: C4_8  and  C5_9 
REMARK    4  A    between atoms: C5_9  and  C7_11 
REMARK    5  A    between atoms: C7_11  and  C8_12 
REMARK    6  A    between atoms: C8_12  and  O2_13 
REMARK    7  A    between atoms: C8_12  and  C9_15 
REMARK    8  A    between atoms: C9_15  and  O3_16 
REMARK    9  A    between atoms: C9_15  and  C10_18 
REMARK   10  A    between atoms: C10_18  and  C11_20 
REMARK   11  A    between atoms: C12_21  and  C13_22 
ROOT
HETATM    1  C8  UNL     1     -52.248  24.525 -32.886  1.00  0.00     0.080 C 
ENDROOT
BRANCH   1   2
HETATM    2  C7  UNL     1     -51.451  24.373 -31.734  1.00  0.00     0.042 C 
BRANCH   2   3
HETATM    3  C5  UNL     1     -51.563  24.086 -30.472  1.00  0.00    -0.059 C 
HETATM    4  C6  UNL     1     -52.986  24.089 -29.954  1.00  0.00     0.048 C 
BRANCH   3   5
HETATM    5  C4  UNL     1     -50.502  23.780 -29.586  1.00  0.00     0.011 C 
HETATM    6  C3  UNL     1     -49.436  23.062 -29.561  1.00  0.00     0.056 C 
BRANCH   6   7
HETATM    7  C2  UNL     1     -48.691  22.170 -30.371  1.00  0.00     0.135 C 
HETATM    8  N1  UNL     1     -47.516  21.847 -30.362  1.00  0.00    -0.380 N 
ATOM      9  H12 UNL     1     -46.980  21.205 -30.945  1.00  0.00     0.158 HD
ATOM     10  H11 UNL     1     -46.989  22.318 -29.627  1.00  0.00     0.158 HD
BRANCH   7  11
HETATM   11  O1  UNL     1     -49.449  21.493 -31.428  1.00  0.00    -0.341 OA
HETATM   12  C1  UNL     1     -49.053  21.758 -32.766  1.00  0.00     0.211 C 
ENDBRANCH   7  11
ENDBRANCH   6   7
ENDBRANCH   3   5
ENDBRANCH   2   3
ENDBRANCH   1   2
BRANCH   1  13
HETATM   13  O2  UNL     1     -53.082  25.573 -32.853  1.00  0.00    -0.362 OA
ATOM     14  H2  UNL     1     -52.816  26.307 -33.396  1.00  0.00     0.217 HD
ENDBRANCH   1  13
BRANCH   1  15
HETATM   15  C9  UNL     1     -52.321  23.741 -34.106  1.00  0.00     0.248 C 
BRANCH  15  16
HETATM   16  O3  UNL     1     -52.282  24.523 -35.231  1.00  0.00    -0.381 OA
ATOM     17  H3  UNL     1     -52.191  24.009 -36.024  1.00  0.00     0.211 HD
ENDBRANCH  15  16
BRANCH  15  18
HETATM   18  C10 UNL     1     -53.617  22.888 -34.125  1.00  0.00     0.184 C 
HETATM   19  O4  UNL     1     -54.131  22.677 -33.030  1.00  0.00    -0.290 OA
BRANCH  18  20
HETATM   20  C11 UNL     1     -54.096  22.430 -35.377  1.00  0.00     0.054 C 
HETATM   21  C12 UNL     1     -54.747  21.423 -35.771  1.00  0.00     0.010 C 
BRANCH  21  22
HETATM   22  C13 UNL     1     -55.358  20.231 -35.290  1.00  0.00    -0.062 C 
HETATM   23  C14 UNL     1     -54.939  19.010 -35.785  1.00  0.00    -0.020 C 
HETATM   24  C15 UNL     1     -55.568  17.768 -35.290  1.00  0.00     0.027 C 
HETATM   25  C16 UNL     1     -55.639  17.734 -33.778  1.00  0.00     0.004 C 
HETATM   26  C17 UNL     1     -55.867  19.113 -33.211  1.00  0.00     0.005 C 
HETATM   27  C18 UNL     1     -56.412  20.056 -34.299  1.00  0.00     0.038 C 
ENDBRANCH  21  22
ENDBRANCH  18  20
ENDBRANCH  15  18
ENDBRANCH   1  15
TORSDOF 11
ENDMDL
MODEL 4
REMARK VINA RESULT: -7.469168126      1.089      1.724
REMARK  11 active torsions:
REMARK  status: ('A' for Active; 'I' for Inactive)
REMARK    1  A    between atoms: O1_2  and  C2_3 
REMARK    2  A    between atoms: C2_3  and  C3_7 
REMARK    3  A    between atoms: C4_8  and  C5_9 
REMARK    4  A    between atoms: C5_9  and  C7_11 
REMARK    5  A    between atoms: C7_11  and  C8_12 
REMARK    6  A    between atoms: C8_12  and  O2_13 
REMARK    7  A    between atoms: C8_12  and  C9_15 
REMARK    8  A    between atoms: C9_15  and  O3_16 
REMARK    9  A    between atoms: C9_15  and  C10_18 
REMARK   10  A    between atoms: C10_18  and  C11_20 
REMARK   11  A    between atoms: C12_21  and  C13_22 
ROOT
HETATM    1  C8  UNL     1     -51.956  24.074 -33.055  1.00  0.00     0.080 C 
ENDROOT
BRANCH   1   2
HETATM    2  C7  UNL     1     -51.440  24.431 -31.793  1.00  0.00     0.042 C 
BRANCH   2   3
HETATM    3  C5  UNL     1     -51.586  24.142 -30.536  1.00  0.00    -0.059 C 
HETATM    4  C6  UNL     1     -53.018  24.195 -30.045  1.00  0.00     0.048 C 
BRANCH   3   5
HETATM    5  C4  UNL     1     -50.555  23.794 -29.630  1.00  0.00     0.011 C 
HETATM    6  C3  UNL     1     -49.492  23.072 -29.603  1.00  0.00     0.056 C 
BRANCH   6   7
HETATM    7  C2  UNL     1     -48.724  22.214 -30.427  1.00  0.00     0.135 C 
HETATM    8  N1  UNL     1     -47.569  21.831 -30.355  1.00  0.00    -0.380 N 
ATOM      9  H12 UNL     1     -47.016  21.213 -30.949  1.00  0.00     0.158 HD
ATOM     10  H11 UNL     1     -47.083  22.211 -29.543  1.00  0.00     0.158 HD
BRANCH   7  11
HETATM   11  O1  UNL     1     -49.422  21.667 -31.595  1.00  0.00    -0.341 OA
HETATM   12  C1  UNL     1     -48.705  21.660 -32.821  1.00  0.00     0.211 C 
ENDBRANCH   7  11
ENDBRANCH   6   7
ENDBRANCH   3   5
ENDBRANCH   2   3
ENDBRANCH   1   2
BRANCH   1  13
HETATM   13  O2  UNL     1     -51.775  22.790 -33.389  1.00  0.00    -0.362 OA
ATOM     14  H2  UNL     1     -50.906  22.584 -33.714  1.00  0.00     0.217 HD
ENDBRANCH   1  13
BRANCH   1  15
HETATM   15  C9  UNL     1     -52.654  24.860 -34.057  1.00  0.00     0.248 C 
BRANCH  15  16
HETATM   16  O3  UNL     1     -53.310  25.933 -33.514  1.00  0.00    -0.381 OA
ATOM     17  H3  UNL     1     -53.998  26.260 -34.081  1.00  0.00     0.211 HD
ENDBRANCH  15  16
BRANCH  15  18
HETATM   18  C10 UNL     1     -53.673  23.976 -34.825  1.00  0.00     0.184 C 
HETATM   19  O4  UNL     1     -54.664  23.631 -34.187  1.00  0.00    -0.290 OA
BRANCH  18  20
HETATM   20  C11 UNL     1     -53.386  23.644 -36.172  1.00  0.00     0.054 C 
HETATM   21  C12 UNL     1     -53.624  22.655 -36.919  1.00  0.00     0.010 C 
BRANCH  21  22
HETATM   22  C13 UNL     1     -54.256  21.380 -36.914  1.00  0.00    -0.062 C 
HETATM   23  C14 UNL     1     -53.654  20.325 -37.575  1.00  0.00    -0.020 C 
HETATM   24  C15 UNL     1     -54.304  18.998 -37.575  1.00  0.00     0.027 C 
HETATM   25  C16 UNL     1     -54.734  18.581 -36.185  1.00  0.00     0.004 C 
HETATM   26  C17 UNL     1     -55.178  19.769 -35.370  1.00  0.00     0.005 C 
HETATM   27  C18 UNL     1     -55.505  20.959 -36.292  1.00  0.00     0.038 C 
ENDBRANCH  21  22
ENDBRANCH  18  20
ENDBRANCH  15  18
ENDBRANCH   1  15
TORSDOF 11
ENDMDL
MODEL 5
REMARK VINA RESULT: -7.149765708      2.270      4.182
REMARK  11 active torsions:
REMARK  status: ('A' for Active; 'I' for Inactive)
REMARK    1  A    between atoms: O1_2  and  C2_3 
REMARK    2  A    between atoms: C2_3  and  C3_7 
REMARK    3  A    between atoms: C4_8  and  C5_9 
REMARK    4  A    between atoms: C5_9  and  C7_11 
REMARK    5  A    between atoms: C7_11  and  C8_12 
REMARK    6  A    between atoms: C8_12  and  O2_13 
REMARK    7  A    between atoms: C8_12  and  C9_15 
REMARK    8  A    between atoms: C9_15  and  O3_16 
REMARK    9  A    between atoms: C9_15  and  C10_18 
REMARK   10  A    between atoms: C10_18  and  C11_20 
REMARK   11  A    between atoms: C12_21  and  C13_22 
ROOT
HETATM    1  C8  UNL     1     -52.113  24.547 -33.120  1.00  0.00     0.080 C 
ENDROOT
BRANCH   1   2
HETATM    2  C7  UNL     1     -51.398  24.266 -31.939  1.00  0.00     0.042 C 
BRANCH   2   3
HETATM    3  C5  UNL     1     -51.600  24.073 -30.670  1.00  0.00    -0.059 C 
HETATM    4  C6  UNL     1     -53.041  24.235 -30.235  1.00  0.00     0.048 C 
BRANCH   3   5
HETATM    5  C4  UNL     1     -50.618  23.735 -29.708  1.00  0.00     0.011 C 
HETATM    6  C3  UNL     1     -49.551  23.023 -29.620  1.00  0.00     0.056 C 
BRANCH   6   7
HETATM    7  C2  UNL     1     -48.731  22.171 -30.398  1.00  0.00     0.135 C 
HETATM    8  N1  UNL     1     -47.548  21.884 -30.323  1.00  0.00    -0.380 N 
ATOM      9  H12 UNL     1     -46.958  21.271 -30.883  1.00  0.00     0.158 HD
ATOM     10  H11 UNL     1     -47.082  22.356 -29.548  1.00  0.00     0.158 HD
BRANCH   7  11
HETATM   11  O1  UNL     1     -49.400  21.492 -31.512  1.00  0.00    -0.341 OA
HETATM   12  C1  UNL     1     -48.903  21.762 -32.815  1.00  0.00     0.211 C 
ENDBRANCH   7  11
ENDBRANCH   6   7
ENDBRANCH   3   5
ENDBRANCH   2   3
ENDBRANCH   1   2
BRANCH   1  13
HETATM   13  O2  UNL     1     -52.178  25.847 -33.436  1.00  0.00    -0.362 OA
ATOM     14  H2  UNL     1     -53.018  26.130 -33.779  1.00  0.00     0.217 HD
ENDBRANCH   1  13
BRANCH   1  15
HETATM   15  C9  UNL     1     -52.792  23.669 -34.057  1.00  0.00     0.248 C 
BRANCH  15  16
HETATM   16  O3  UNL     1     -52.487  23.964 -35.360  1.00  0.00    -0.381 OA
ATOM     17  H3  UNL     1     -51.695  23.528 -35.653  1.00  0.00     0.211 HD
ENDBRANCH  15  16
BRANCH  15  18
HETATM   18  C10 UNL     1     -54.329  23.754 -33.862  1.00  0.00     0.184 C 
HETATM   19  O4  UNL     1     -54.874  24.737 -34.356  1.00  0.00    -0.290 OA
BRANCH  18  20
HETATM   20  C11 UNL     1     -54.969  22.713 -33.145  1.00  0.00     0.054 C 
HETATM   21  C12 UNL     1     -55.832  22.660 -32.225  1.00  0.00     0.010 C 
BRANCH  21  22
HETATM   22  C13 UNL     1     -56.634  23.496 -31.400  1.00  0.00    -0.062 C 
HETATM   23  C14 UNL     1     -56.695  23.246 -30.041  1.00  0.00    -0.020 C 
HETATM   24  C15 UNL     1     -57.527  24.110 -29.178  1.00  0.00     0.027 C 
HETATM   25  C16 UNL     1     -57.276  25.580 -29.439  1.00  0.00     0.004 C 
HETATM   26  C17 UNL     1     -56.977  25.833 -30.895  1.00  0.00     0.005 C 
HETATM   27  C18 UNL     1     -57.455  24.647 -31.754  1.00  0.00     0.038 C 
ENDBRANCH  21  22
ENDBRANCH  18  20
ENDBRANCH  15  18
ENDBRANCH   1  15
TORSDOF 11
ENDMDL
