MODEL 1
REMARK VINA RESULT: -5.970964534      0.000      0.000
REMARK  8 active torsions:
REMARK  status: ('A' for Active; 'I' for Inactive)
REMARK    1  A    between atoms: C2_2  and  C3_3 
REMARK    2  A    between atoms: C3_3  and  C4_4 
REMARK    3  A    between atoms: C8_13  and  O1_14 
REMARK    4  A    between atoms: O1_14  and  C9_15 
REMARK    5  A    between atoms: C9_15  and  C10_16 
REMARK    6  A    between atoms: C10_16  and  O2_17 
REMARK    7  A    between atoms: C10_16  and  C11_19 
REMARK    8  A    between atoms: C11_19  and  N3_20 
ROOT
HETATM    1  C4  UNL     1     -51.752  23.786 -30.773  1.00  0.00     0.020 A 
HETATM    2  S1  UNL     1     -50.364  23.547 -29.821  1.00  0.00    -0.072 SA
HETATM    3  C5  UNL     1     -49.353  22.797 -30.969  1.00  0.00     0.105 A 
HETATM    4  N1  UNL     1     -48.133  22.248 -31.210  1.00  0.00    -0.345 N 
ATOM      5  H1  UNL     1     -47.365  22.160 -30.544  1.00  0.00     0.167 HD
HETATM    6  C6  UNL     1     -48.129  21.847 -32.486  1.00  0.00     0.182 A 
HETATM    7  N2  UNL     1     -49.319  22.144 -33.009  1.00  0.00    -0.348 N 
ATOM      8  H2  UNL     1     -49.590  21.946 -33.973  1.00  0.00     0.167 HD
HETATM    9  C7  UNL     1     -50.133  22.750 -32.079  1.00  0.00     0.102 A 
HETATM   10  C8  UNL     1     -51.390  23.264 -31.994  1.00  0.00     0.111 A 
ENDROOT
BRANCH  10  11
HETATM   11  O1  UNL     1     -52.290  23.276 -33.052  1.00  0.00    -0.345 OA
BRANCH  11  12
HETATM   12  C9  UNL     1     -52.301  23.829 -34.279  1.00  0.00     0.209 C 
BRANCH  12  13
HETATM   13  C10 UNL     1     -53.485  24.555 -34.799  1.00  0.00     0.160 C 
BRANCH  13  14
HETATM   14  O2  UNL     1     -53.374  25.040 -36.094  1.00  0.00    -0.392 OA
ATOM     15  H2  UNL     1     -52.538  25.431 -36.318  1.00  0.00     0.210 HD
ENDBRANCH  13  14
BRANCH  13  16
HETATM   16  C11 UNL     1     -54.131  25.509 -33.827  1.00  0.00     0.155 C 
BRANCH  16  17
HETATM   17  N3  UNL     1     -55.320  25.007 -33.244  1.00  0.00    -0.391 N 
HETATM   18  C12 UNL     1     -55.787  23.736 -33.620  1.00  0.00     0.122 C 
HETATM   19  C13 UNL     1     -55.859  22.897 -32.333  1.00  0.00     0.020 C 
HETATM   20  C14 UNL     1     -56.998  23.508 -31.547  1.00  0.00     0.007 C 
HETATM   21  C15 UNL     1     -56.913  24.983 -31.377  1.00  0.00     0.044 C 
HETATM   22  C16 UNL     1     -55.944  25.714 -32.228  1.00  0.00     0.058 C 
ENDBRANCH  16  17
ENDBRANCH  13  16
ENDBRANCH  12  13
ENDBRANCH  11  12
ENDBRANCH  10  11
BRANCH   1  23
HETATM   23  C3  UNL     1     -53.073  24.421 -30.407  1.00  0.00     0.049 C 
BRANCH  23  24
HETATM   24  C2  UNL     1     -53.307  24.204 -28.925  1.00  0.00     0.001 C 
HETATM   25  C1  UNL     1     -54.764  24.028 -28.579  1.00  0.00     0.005 C 
ENDBRANCH  23  24
ENDBRANCH   1  23
TORSDOF 8
ENDMDL
MODEL 2
REMARK VINA RESULT: -5.925838766      2.496      6.409
REMARK  8 active torsions:
REMARK  status: ('A' for Active; 'I' for Inactive)
REMARK    1  A    between atoms: C2_2  and  C3_3 
REMARK    2  A    between atoms: C3_3  and  C4_4 
REMARK    3  A    between atoms: C8_13  and  O1_14 
REMARK    4  A    between atoms: O1_14  and  C9_15 
REMARK    5  A    between atoms: C9_15  and  C10_16 
REMARK    6  A    between atoms: C10_16  and  O2_17 
REMARK    7  A    between atoms: C10_16  and  C11_19 
REMARK    8  A    between atoms: C11_19  and  N3_20 
ROOT
HETATM    1  C4  UNL     1     -56.262  24.449 -29.394  1.00  0.00     0.020 A 
HETATM    2  S1  UNL     1     -57.530  25.578 -29.323  1.00  0.00    -0.072 SA
HETATM    3  C5  UNL     1     -57.304  26.361 -30.818  1.00  0.00     0.105 A 
HETATM    4  N1  UNL     1     -57.745  27.332 -31.662  1.00  0.00    -0.345 N 
ATOM      5  H1  UNL     1     -58.534  27.959 -31.504  1.00  0.00     0.167 HD
HETATM    6  C6  UNL     1     -56.950  27.307 -32.736  1.00  0.00     0.182 A 
HETATM    7  N2  UNL     1     -56.045  26.346 -32.552  1.00  0.00    -0.348 N 
ATOM      8  H2  UNL     1     -55.311  26.109 -33.220  1.00  0.00     0.167 HD
HETATM    9  C7  UNL     1     -56.231  25.715 -31.342  1.00  0.00     0.102 A 
HETATM   10  C8  UNL     1     -55.674  24.712 -30.611  1.00  0.00     0.111 A 
ENDROOT
BRANCH  10  11
HETATM   11  O1  UNL     1     -54.574  23.974 -31.028  1.00  0.00    -0.345 OA
BRANCH  11  12
HETATM   12  C9  UNL     1     -53.240  24.124 -30.926  1.00  0.00     0.209 C 
BRANCH  12  13
HETATM   13  C10 UNL     1     -52.422  24.631 -32.053  1.00  0.00     0.160 C 
BRANCH  13  14
HETATM   14  O2  UNL     1     -53.038  25.562 -32.876  1.00  0.00    -0.392 OA
ATOM     15  H2  UNL     1     -53.988  25.554 -32.869  1.00  0.00     0.210 HD
ENDBRANCH  13  14
BRANCH  13  16
HETATM   16  C11 UNL     1     -51.619  23.584 -32.784  1.00  0.00     0.155 C 
BRANCH  16  17
HETATM   17  N3  UNL     1     -50.402  23.251 -32.142  1.00  0.00    -0.391 N 
HETATM   18  C12 UNL     1     -49.911  24.085 -31.123  1.00  0.00     0.122 C 
HETATM   19  C13 UNL     1     -49.781  23.212 -29.865  1.00  0.00     0.020 C 
HETATM   20  C14 UNL     1     -48.639  22.270 -30.174  1.00  0.00     0.007 C 
HETATM   21  C15 UNL     1     -48.760  21.554 -31.472  1.00  0.00     0.044 C 
HETATM   22  C16 UNL     1     -49.771  22.052 -32.435  1.00  0.00     0.058 C 
ENDBRANCH  16  17
ENDBRANCH  13  16
ENDBRANCH  12  13
ENDBRANCH  11  12
ENDBRANCH  10  11
BRANCH   1  23
HETATM   23  C3  UNL     1     -55.854  23.393 -28.392  1.00  0.00     0.049 C 
BRANCH  23  24
HETATM   24  C2  UNL     1     -55.369  24.094 -27.139  1.00  0.00     0.001 C 
HETATM   25  C1  UNL     1     -53.954  24.601 -27.258  1.00  0.00     0.005 C 
ENDBRANCH  23  24
ENDBRANCH   1  23
TORSDOF 8
ENDMDL
MODEL 3
REMARK VINA RESULT: -5.887417049      0.893      1.417
REMARK  8 active torsions:
REMARK  status: ('A' for Active; 'I' for Inactive)
REMARK    1  A    between atoms: C2_2  and  C3_3 
REMARK    2  A    between atoms: C3_3  and  C4_4 
REMARK    3  A    between atoms: C8_13  and  O1_14 
REMARK    4  A    between atoms: O1_14  and  C9_15 
REMARK    5  A    between atoms: C9_15  and  C10_16 
REMARK    6  A    between atoms: C10_16  and  O2_17 
REMARK    7  A    between atoms: C10_16  and  C11_19 
REMARK    8  A    between atoms: C11_19  and  N3_20 
ROOT
HETATM    1  C4  UNL     1     -51.787  23.773 -30.786  1.00  0.00     0.020 A 
HETATM    2  S1  UNL     1     -50.371  23.632 -29.857  1.00  0.00    -0.072 SA
HETATM    3  C5  UNL     1     -49.372  22.823 -30.974  1.00  0.00     0.105 A 
HETATM    4  N1  UNL     1     -48.145  22.285 -31.207  1.00  0.00    -0.345 N 
ATOM      5  H1  UNL     1     -47.359  22.260 -30.557  1.00  0.00     0.167 HD
HETATM    6  C6  UNL     1     -48.163  21.793 -32.451  1.00  0.00     0.182 A 
HETATM    7  N2  UNL     1     -49.372  22.026 -32.963  1.00  0.00    -0.348 N 
ATOM      8  H2  UNL     1     -49.662  21.755 -33.903  1.00  0.00     0.167 HD
HETATM    9  C7  UNL     1     -50.177  22.680 -32.058  1.00  0.00     0.102 A 
HETATM   10  C8  UNL     1     -51.443  23.172 -31.977  1.00  0.00     0.111 A 
ENDROOT
BRANCH  10  11
HETATM   11  O1  UNL     1     -52.369  23.090 -33.009  1.00  0.00    -0.345 OA
BRANCH  11  12
HETATM   12  C9  UNL     1     -52.390  23.484 -34.295  1.00  0.00     0.209 C 
BRANCH  12  13
HETATM   13  C10 UNL     1     -53.341  24.511 -34.783  1.00  0.00     0.160 C 
BRANCH  13  14
HETATM   14  O2  UNL     1     -53.221  24.857 -36.121  1.00  0.00    -0.392 OA
ATOM     15  H2  UNL     1     -53.116  25.784 -36.300  1.00  0.00     0.210 HD
ENDBRANCH  13  14
BRANCH  13  16
HETATM   16  C11 UNL     1     -53.559  25.677 -33.852  1.00  0.00     0.155 C 
BRANCH  16  17
HETATM   17  N3  UNL     1     -54.925  25.991 -33.647  1.00  0.00    -0.391 N 
HETATM   18  C12 UNL     1     -55.725  25.119 -32.889  1.00  0.00     0.122 C 
HETATM   19  C13 UNL     1     -56.280  25.941 -31.715  1.00  0.00     0.020 C 
HETATM   20  C14 UNL     1     -57.258  26.902 -32.355  1.00  0.00     0.007 C 
HETATM   21  C15 UNL     1     -56.711  27.668 -33.506  1.00  0.00     0.044 C 
HETATM   22  C16 UNL     1     -55.430  27.204 -34.089  1.00  0.00     0.058 C 
ENDBRANCH  16  17
ENDBRANCH  13  16
ENDBRANCH  12  13
ENDBRANCH  11  12
ENDBRANCH  10  11
BRANCH   1  23
HETATM   23  C3  UNL     1     -53.113  24.404 -30.432  1.00  0.00     0.049 C 
BRANCH  23  24
HETATM   24  C2  UNL     1     -53.330  24.240 -28.941  1.00  0.00     0.001 C 
HETATM   25  C1  UNL     1     -54.771  23.978 -28.583  1.00  0.00     0.005 C 
ENDBRANCH  23  24
ENDBRANCH   1  23
TORSDOF 8
ENDMDL
MODEL 4
REMARK VINA RESULT: -5.877497378      1.709      2.277
REMARK  8 active torsions:
REMARK  status: ('A' for Active; 'I' for Inactive)
REMARK    1  A    between atoms: C2_2  and  C3_3 
REMARK    2  A    between atoms: C3_3  and  C4_4 
REMARK    3  A    between atoms: C8_13  and  O1_14 
REMARK    4  A    between atoms: O1_14  and  C9_15 
REMARK    5  A    between atoms: C9_15  and  C10_16 
REMARK    6  A    between atoms: C10_16  and  O2_17 
REMARK    7  A    between atoms: C10_16  and  C11_19 
REMARK    8  A    between atoms: C11_19  and  N3_20 
ROOT
HETATM    1  C4  UNL     1     -51.753  23.779 -30.877  1.00  0.00     0.020 A 
HETATM    2  S1  UNL     1     -50.407  23.563 -29.862  1.00  0.00    -0.072 SA
HETATM    3  C5  UNL     1     -49.355  22.773 -30.942  1.00  0.00     0.105 A 
HETATM    4  N1  UNL     1     -48.128  22.212 -31.116  1.00  0.00    -0.345 N 
ATOM      5  H1  UNL     1     -47.389  22.140 -30.416  1.00  0.00     0.167 HD
HETATM    6  C6  UNL     1     -48.074  21.771 -32.377  1.00  0.00     0.182 A 
HETATM    7  N2  UNL     1     -49.239  22.057 -32.959  1.00  0.00    -0.348 N 
ATOM      8  H2  UNL     1     -49.472  21.831 -33.926  1.00  0.00     0.167 HD
HETATM    9  C7  UNL     1     -50.088  22.696 -32.083  1.00  0.00     0.102 A 
HETATM   10  C8  UNL     1     -51.344  23.218 -32.065  1.00  0.00     0.111 A 
ENDROOT
BRANCH  10  11
HETATM   11  O1  UNL     1     -52.200  23.202 -33.159  1.00  0.00    -0.345 OA
BRANCH  11  12
HETATM   12  C9  UNL     1     -52.419  24.025 -34.202  1.00  0.00     0.209 C 
BRANCH  12  13
HETATM   13  C10 UNL     1     -53.450  23.732 -35.226  1.00  0.00     0.160 C 
BRANCH  13  14
HETATM   14  O2  UNL     1     -53.280  24.363 -36.450  1.00  0.00    -0.392 OA
ATOM     15  H2  UNL     1     -53.465  23.833 -37.217  1.00  0.00     0.210 HD
ENDBRANCH  13  14
BRANCH  13  16
HETATM   16  C11 UNL     1     -54.871  23.719 -34.720  1.00  0.00     0.155 C 
BRANCH  16  17
HETATM   17  N3  UNL     1     -55.423  22.419 -34.617  1.00  0.00    -0.391 N 
HETATM   18  C12 UNL     1     -55.816  21.742 -35.784  1.00  0.00     0.122 C 
HETATM   19  C13 UNL     1     -55.014  20.432 -35.822  1.00  0.00     0.020 C 
HETATM   20  C14 UNL     1     -55.584  19.606 -34.689  1.00  0.00     0.007 C 
HETATM   21  C15 UNL     1     -55.648  20.311 -33.381  1.00  0.00     0.044 C 
HETATM   22  C16 UNL     1     -55.461  21.781 -33.387  1.00  0.00     0.058 C 
ENDBRANCH  16  17
ENDBRANCH  13  16
ENDBRANCH  12  13
ENDBRANCH  11  12
ENDBRANCH  10  11
BRANCH   1  23
HETATM   23  C3  UNL     1     -53.085  24.431 -30.586  1.00  0.00     0.049 C 
BRANCH  23  24
HETATM   24  C2  UNL     1     -53.389  24.245 -29.112  1.00  0.00     0.001 C 
HETATM   25  C1  UNL     1     -54.852  24.003 -28.840  1.00  0.00     0.005 C 
ENDBRANCH  23  24
ENDBRANCH   1  23
TORSDOF 8
ENDMDL
MODEL 5
REMARK VINA RESULT: -5.849772749      1.750      2.873
REMARK  8 active torsions:
REMARK  status: ('A' for Active; 'I' for Inactive)
REMARK    1  A    between atoms: C2_2  and  C3_3 
REMARK    2  A    between atoms: C3_3  and  C4_4 
REMARK    3  A    between atoms: C8_13  and  O1_14 
REMARK    4  A    between atoms: O1_14  and  C9_15 
REMARK    5  A    between atoms: C9_15  and  C10_16 
REMARK    6  A    between atoms: C10_16  and  O2_17 
REMARK    7  A    between atoms: C10_16  and  C11_19 
REMARK    8  A    between atoms: C11_19  and  N3_20 
ROOT
HETATM    1  C4  UNL     1     -51.801  23.747 -30.777  1.00  0.00     0.020 A 
HETATM    2  S1  UNL     1     -50.391  23.685 -29.829  1.00  0.00    -0.072 SA
HETATM    3  C5  UNL     1     -49.376  22.808 -30.878  1.00  0.00     0.105 A 
HETATM    4  N1  UNL     1     -48.143  22.265 -31.063  1.00  0.00    -0.345 N 
ATOM      5  H1  UNL     1     -47.363  22.294 -30.406  1.00  0.00     0.167 HD
HETATM    6  C6  UNL     1     -48.147  21.687 -32.269  1.00  0.00     0.182 A 
HETATM    7  N2  UNL     1     -49.353  21.873 -32.806  1.00  0.00    -0.348 N 
ATOM      8  H2  UNL     1     -49.633  21.533 -33.726  1.00  0.00     0.167 HD
HETATM    9  C7  UNL     1     -50.171  22.582 -31.955  1.00  0.00     0.102 A 
HETATM   10  C8  UNL     1     -51.441  23.067 -31.919  1.00  0.00     0.111 A 
ENDROOT
BRANCH  10  11
HETATM   11  O1  UNL     1     -52.358  22.904 -32.950  1.00  0.00    -0.345 OA
BRANCH  11  12
HETATM   12  C9  UNL     1     -52.571  23.512 -34.132  1.00  0.00     0.209 C 
BRANCH  12  13
HETATM   13  C10 UNL     1     -52.970  24.936 -34.219  1.00  0.00     0.160 C 
BRANCH  13  14
HETATM   14  O2  UNL     1     -52.160  25.833 -33.538  1.00  0.00    -0.392 OA
ATOM     15  H2  UNL     1     -52.432  26.046 -32.653  1.00  0.00     0.210 HD
ENDBRANCH  13  14
BRANCH  13  16
HETATM   16  C11 UNL     1     -54.449  25.198 -34.077  1.00  0.00     0.155 C 
BRANCH  16  17
HETATM   17  N3  UNL     1     -54.930  26.213 -34.938  1.00  0.00    -0.391 N 
HETATM   18  C12 UNL     1     -55.650  27.292 -34.397  1.00  0.00     0.122 C 
HETATM   19  C13 UNL     1     -54.882  28.568 -34.780  1.00  0.00     0.020 C 
HETATM   20  C14 UNL     1     -55.075  28.689 -36.276  1.00  0.00     0.007 C 
HETATM   21  C15 UNL     1     -54.749  27.459 -37.045  1.00  0.00     0.044 C 
HETATM   22  C16 UNL     1     -54.588  26.199 -36.282  1.00  0.00     0.058 C 
ENDBRANCH  16  17
ENDBRANCH  13  16
ENDBRANCH  12  13
ENDBRANCH  11  12
ENDBRANCH  10  11
BRANCH   1  23
HETATM   23  C3  UNL     1     -53.135  24.390 -30.479  1.00  0.00     0.049 C 
BRANCH  23  24
HETATM   24  C2  UNL     1     -53.443  24.178 -29.010  1.00  0.00     0.001 C 
HETATM   25  C1  UNL     1     -54.921  24.068 -28.730  1.00  0.00     0.005 C 
ENDBRANCH  23  24
ENDBRANCH   1  23
TORSDOF 8
ENDMDL
