MODEL 1
REMARK VINA RESULT: -8.200119160      0.000      0.000
REMARK  4 active torsions:
REMARK  status: ('A' for Active; 'I' for Inactive)
REMARK    1  A    between atoms: C14_14  and  C16_16 
REMARK    2  A    between atoms: C16_16  and  C17_17 
REMARK    3  A    between atoms: C17_17  and  O2_19 
REMARK    4  A    between atoms: O2_19  and  C18_20 
ROOT
HETATM    1  C1  UNL     1      -1.819   1.500  19.301  1.00  0.00     0.015 C 
HETATM    2  C2  UNL     1      -2.346   1.452  20.524  1.00  0.00    -0.080 C 
HETATM    3  C3  UNL     1      -2.184   2.598  21.444  1.00  0.00     0.034 C 
HETATM    4  C4  UNL     1      -2.076   2.156  22.879  1.00  0.00     0.010 C 
HETATM    5  C5  UNL     1      -1.571   0.708  22.819  1.00  0.00     0.003 C 
HETATM    6  C6  UNL     1      -0.895   0.388  24.108  1.00  0.00    -0.043 C 
HETATM    7  C7  UNL     1       0.522   0.955  24.015  1.00  0.00     0.015 C 
HETATM    8  C8  UNL     1      -1.521   1.154  25.286  1.00  0.00     0.015 C 
HETATM    9  C9  UNL     1      -0.774  -1.055  24.446  1.00  0.00     0.009 C 
HETATM   10  C10 UNL     1      -0.879  -1.888  23.239  1.00  0.00     0.002 C 
HETATM   11  C11 UNL     1      -1.952  -1.610  22.257  1.00  0.00     0.011 C 
HETATM   12  C12 UNL     1      -2.605  -0.246  22.351  1.00  0.00    -0.028 C 
HETATM   13  C13 UNL     1      -3.783  -0.389  23.270  1.00  0.00     0.016 C 
HETATM   14  C14 UNL     1      -3.126   0.251  20.993  1.00  0.00    -0.005 C 
HETATM   15  C15 UNL     1      -3.058  -0.886  20.012  1.00  0.00     0.021 C 
ENDROOT
BRANCH  14  16
HETATM   16  C16 UNL     1      -4.545   0.731  21.101  1.00  0.00     0.125 C 
BRANCH  16  17
HETATM   17  C17 UNL     1      -5.287   0.753  19.841  1.00  0.00     0.262 C 
HETATM   18  O1  UNL     1      -6.516   0.349  19.829  1.00  0.00    -0.265 OA
BRANCH  17  19
HETATM   19  O2  UNL     1      -4.865   1.154  18.591  1.00  0.00    -0.289 OA
BRANCH  19  20
HETATM   20  C18 UNL     1      -5.031   0.396  17.432  1.00  0.00     0.288 C 
HETATM   21  C19 UNL     1      -5.477   1.159  16.182  1.00  0.00     0.172 C 
HETATM   22  C20 UNL     1      -4.641   0.155  15.531  1.00  0.00     0.265 C 
HETATM   23  O3  UNL     1      -4.657  -0.324  14.354  1.00  0.00    -0.265 OA
HETATM   24  O4  UNL     1      -3.917   0.014  16.703  1.00  0.00    -0.289 OA
ENDBRANCH  19  20
ENDBRANCH  17  19
ENDBRANCH  16  17
ENDBRANCH  14  16
TORSDOF 4
ENDMDL
MODEL 2
REMARK VINA RESULT: -7.873091271      1.526      3.214
REMARK  4 active torsions:
REMARK  status: ('A' for Active; 'I' for Inactive)
REMARK    1  A    between atoms: C14_14  and  C16_16 
REMARK    2  A    between atoms: C16_16  and  C17_17 
REMARK    3  A    between atoms: C17_17  and  O2_19 
REMARK    4  A    between atoms: O2_19  and  C18_20 
ROOT
HETATM    1  C1  UNL     1      -2.990  -2.298  23.293  1.00  0.00     0.015 C 
HETATM    2  C2  UNL     1      -2.115  -1.319  23.063  1.00  0.00    -0.080 C 
HETATM    3  C3  UNL     1      -0.666  -1.611  23.047  1.00  0.00     0.034 C 
HETATM    4  C4  UNL     1       0.146  -0.457  23.571  1.00  0.00     0.010 C 
HETATM    5  C5  UNL     1      -0.811   0.334  24.472  1.00  0.00     0.003 C 
HETATM    6  C6  UNL     1      -0.003   1.106  25.458  1.00  0.00    -0.043 C 
HETATM    7  C7  UNL     1       0.362   0.139  26.584  1.00  0.00     0.015 C 
HETATM    8  C8  UNL     1       1.358   1.526  24.877  1.00  0.00     0.015 C 
HETATM    9  C9  UNL     1      -0.673   2.280  26.080  1.00  0.00     0.009 C 
HETATM   10  C10 UNL     1      -2.136   2.155  25.996  1.00  0.00     0.002 C 
HETATM   11  C11 UNL     1      -2.756   1.746  24.716  1.00  0.00     0.011 C 
HETATM   12  C12 UNL     1      -1.834   1.088  23.709  1.00  0.00    -0.028 C 
HETATM   13  C13 UNL     1      -1.285   2.182  22.841  1.00  0.00     0.016 C 
HETATM   14  C14 UNL     1      -2.572   0.092  22.799  1.00  0.00    -0.005 C 
HETATM   15  C15 UNL     1      -4.051   0.258  23.013  1.00  0.00     0.021 C 
ENDROOT
BRANCH  14  16
HETATM   16  C16 UNL     1      -2.249   0.339  21.354  1.00  0.00     0.125 C 
BRANCH  16  17
HETATM   17  C17 UNL     1      -3.057  -0.423  20.401  1.00  0.00     0.262 C 
HETATM   18  O1  UNL     1      -2.612  -1.560  19.971  1.00  0.00    -0.265 OA
BRANCH  17  19
HETATM   19  O2  UNL     1      -4.282  -0.110  19.855  1.00  0.00    -0.289 OA
BRANCH  19  20
HETATM   20  C18 UNL     1      -4.456   0.760  18.777  1.00  0.00     0.288 C 
HETATM   21  C19 UNL     1      -3.319   0.805  17.753  1.00  0.00     0.172 C 
HETATM   22  C20 UNL     1      -4.435   1.036  16.842  1.00  0.00     0.265 C 
HETATM   23  O3  UNL     1      -4.497   1.614  15.711  1.00  0.00    -0.265 OA
HETATM   24  O4  UNL     1      -5.279   0.387  17.728  1.00  0.00    -0.289 OA
ENDBRANCH  19  20
ENDBRANCH  17  19
ENDBRANCH  16  17
ENDBRANCH  14  16
TORSDOF 4
ENDMDL
MODEL 3
REMARK VINA RESULT: -7.578582702      1.569      2.424
REMARK  4 active torsions:
REMARK  status: ('A' for Active; 'I' for Inactive)
REMARK    1  A    between atoms: C14_14  and  C16_16 
REMARK    2  A    between atoms: C16_16  and  C17_17 
REMARK    3  A    between atoms: C17_17  and  O2_19 
REMARK    4  A    between atoms: O2_19  and  C18_20 
ROOT
HETATM    1  C1  UNL     1      -2.219   3.506  22.389  1.00  0.00     0.015 C 
HETATM    2  C2  UNL     1      -2.500   2.468  23.177  1.00  0.00    -0.080 C 
HETATM    3  C3  UNL     1      -3.099   2.692  24.510  1.00  0.00     0.034 C 
HETATM    4  C4  UNL     1      -2.633   1.671  25.513  1.00  0.00     0.010 C 
HETATM    5  C5  UNL     1      -1.289   1.162  24.979  1.00  0.00     0.003 C 
HETATM    6  C6  UNL     1      -0.497   0.624  26.122  1.00  0.00    -0.043 C 
HETATM    7  C7  UNL     1       0.155   1.824  26.809  1.00  0.00     0.015 C 
HETATM    8  C8  UNL     1      -1.403   0.024  27.211  1.00  0.00     0.015 C 
HETATM    9  C9  UNL     1       0.586  -0.334  25.777  1.00  0.00     0.009 C 
HETATM   10  C10 UNL     1       0.999  -0.179  24.374  1.00  0.00     0.002 C 
HETATM   11  C11 UNL     1      -0.037  -0.072  23.322  1.00  0.00     0.011 C 
HETATM   12  C12 UNL     1      -1.432   0.283  23.793  1.00  0.00    -0.028 C 
HETATM   13  C13 UNL     1      -2.145  -1.010  24.058  1.00  0.00     0.016 C 
HETATM   14  C14 UNL     1      -2.233   1.053  22.731  1.00  0.00    -0.005 C 
HETATM   15  C15 UNL     1      -1.475   1.002  21.434  1.00  0.00     0.021 C 
ENDROOT
BRANCH  14  16
HETATM   16  C16 UNL     1      -3.594   0.448  22.535  1.00  0.00     0.125 C 
BRANCH  16  17
HETATM   17  C17 UNL     1      -3.875  -0.013  21.176  1.00  0.00     0.262 C 
HETATM   18  O1  UNL     1      -3.664  -1.254  20.878  1.00  0.00    -0.265 OA
BRANCH  17  19
HETATM   19  O2  UNL     1      -4.354   0.701  20.098  1.00  0.00    -0.289 OA
BRANCH  19  20
HETATM   20  C18 UNL     1      -3.992   0.452  18.775  1.00  0.00     0.288 C 
HETATM   21  C19 UNL     1      -5.086   0.655  17.723  1.00  0.00     0.172 C 
HETATM   22  C20 UNL     1      -3.940   1.067  16.919  1.00  0.00     0.265 C 
HETATM   23  O3  UNL     1      -3.748   1.075  15.663  1.00  0.00    -0.265 OA
HETATM   24  O4  UNL     1      -3.260   1.399  18.079  1.00  0.00    -0.289 OA
ENDBRANCH  19  20
ENDBRANCH  17  19
ENDBRANCH  16  17
ENDBRANCH  14  16
TORSDOF 4
ENDMDL
MODEL 4
REMARK VINA RESULT: -7.521211658      2.044      4.013
REMARK  4 active torsions:
REMARK  status: ('A' for Active; 'I' for Inactive)
REMARK    1  A    between atoms: C14_14  and  C16_16 
REMARK    2  A    between atoms: C16_16  and  C17_17 
REMARK    3  A    between atoms: C17_17  and  O2_19 
REMARK    4  A    between atoms: O2_19  and  C18_20 
ROOT
HETATM    1  C1  UNL     1      -1.834  -1.207  25.524  1.00  0.00     0.015 C 
HETATM    2  C2  UNL     1      -1.254  -0.461  24.584  1.00  0.00    -0.080 C 
HETATM    3  C3  UNL     1       0.210  -0.251  24.605  1.00  0.00     0.034 C 
HETATM    4  C4  UNL     1       0.588   1.112  24.092  1.00  0.00     0.010 C 
HETATM    5  C5  UNL     1      -0.655   1.985  24.306  1.00  0.00     0.003 C 
HETATM    6  C6  UNL     1      -0.225   3.410  24.388  1.00  0.00    -0.043 C 
HETATM    7  C7  UNL     1       0.264   3.642  25.818  1.00  0.00     0.015 C 
HETATM    8  C8  UNL     1       1.019   3.682  23.524  1.00  0.00     0.015 C 
HETATM    9  C9  UNL     1      -1.271   4.429  24.106  1.00  0.00     0.009 C 
HETATM   10  C10 UNL     1      -2.617   3.868  24.302  1.00  0.00     0.002 C 
HETATM   11  C11 UNL     1      -2.936   2.537  23.738  1.00  0.00     0.011 C 
HETATM   12  C12 UNL     1      -1.752   1.671  23.360  1.00  0.00    -0.028 C 
HETATM   13  C13 UNL     1      -1.439   1.963  21.922  1.00  0.00     0.016 C 
HETATM   14  C14 UNL     1      -2.061   0.170  23.478  1.00  0.00    -0.005 C 
HETATM   15  C15 UNL     1      -3.539   0.003  23.691  1.00  0.00     0.021 C 
ENDROOT
BRANCH  14  16
HETATM   16  C16 UNL     1      -1.652  -0.566  22.235  1.00  0.00     0.125 C 
BRANCH  16  17
HETATM   17  C17 UNL     1      -2.656  -1.488  21.704  1.00  0.00     0.262 C 
HETATM   18  O1  UNL     1      -2.692  -2.702  22.152  1.00  0.00    -0.265 OA
BRANCH  17  19
HETATM   19  O2  UNL     1      -3.624  -1.263  20.749  1.00  0.00    -0.289 OA
BRANCH  19  20
HETATM   20  C18 UNL     1      -3.639  -0.155  19.901  1.00  0.00     0.288 C 
HETATM   21  C19 UNL     1      -2.728  -0.228  18.673  1.00  0.00     0.172 C 
HETATM   22  C20 UNL     1      -3.814   0.548  18.085  1.00  0.00     0.265 C 
HETATM   23  O3  UNL     1      -3.837   1.366  17.112  1.00  0.00    -0.265 OA
HETATM   24  O4  UNL     1      -4.689   0.007  19.011  1.00  0.00    -0.289 OA
ENDBRANCH  19  20
ENDBRANCH  17  19
ENDBRANCH  16  17
ENDBRANCH  14  16
TORSDOF 4
ENDMDL
MODEL 5
REMARK VINA RESULT: -7.445212416      4.080      5.605
REMARK  4 active torsions:
REMARK  status: ('A' for Active; 'I' for Inactive)
REMARK    1  A    between atoms: C14_14  and  C16_16 
REMARK    2  A    between atoms: C16_16  and  C17_17 
REMARK    3  A    between atoms: C17_17  and  O2_19 
REMARK    4  A    between atoms: O2_19  and  C18_20 
ROOT
HETATM    1  C1  UNL     1      -1.525   3.890  25.343  1.00  0.00     0.015 C 
HETATM    2  C2  UNL     1      -1.947   2.921  24.529  1.00  0.00    -0.080 C 
HETATM    3  C3  UNL     1      -3.290   2.332  24.716  1.00  0.00     0.034 C 
HETATM    4  C4  UNL     1      -3.317   0.871  24.356  1.00  0.00     0.010 C 
HETATM    5  C5  UNL     1      -1.869   0.389  24.511  1.00  0.00     0.003 C 
HETATM    6  C6  UNL     1      -1.882  -1.082  24.750  1.00  0.00    -0.043 C 
HETATM    7  C7  UNL     1      -2.178  -1.284  26.236  1.00  0.00     0.015 C 
HETATM    8  C8  UNL     1      -3.065  -1.764  24.042  1.00  0.00     0.015 C 
HETATM    9  C9  UNL     1      -0.621  -1.808  24.445  1.00  0.00     0.009 C 
HETATM   10  C10 UNL     1       0.529  -0.891  24.457  1.00  0.00     0.002 C 
HETATM   11  C11 UNL     1       0.426   0.409  23.758  1.00  0.00     0.011 C 
HETATM   12  C12 UNL     1      -0.976   0.884  23.436  1.00  0.00    -0.028 C 
HETATM   13  C13 UNL     1      -1.306   0.370  22.066  1.00  0.00     0.016 C 
HETATM   14  C14 UNL     1      -1.084   2.417  23.401  1.00  0.00    -0.005 C 
HETATM   15  C15 UNL     1       0.303   2.993  23.448  1.00  0.00     0.021 C 
ENDROOT
BRANCH  14  16
HETATM   16  C16 UNL     1      -1.774   2.882  22.151  1.00  0.00     0.125 C 
BRANCH  16  17
HETATM   17  C17 UNL     1      -1.181   4.062  21.521  1.00  0.00     0.262 C 
HETATM   18  O1  UNL     1      -0.767   3.978  20.297  1.00  0.00    -0.265 OA
BRANCH  17  19
HETATM   19  O2  UNL     1      -0.977   5.319  22.049  1.00  0.00    -0.289 OA
BRANCH  19  20
HETATM   20  C18 UNL     1      -1.938   6.330  22.047  1.00  0.00     0.288 C 
HETATM   21  C19 UNL     1      -1.538   7.644  21.372  1.00  0.00     0.172 C 
HETATM   22  C20 UNL     1      -2.957   7.656  21.034  1.00  0.00     0.265 C 
HETATM   23  O3  UNL     1      -3.754   8.610  20.768  1.00  0.00    -0.265 OA
HETATM   24  O4  UNL     1      -2.982   6.276  21.140  1.00  0.00    -0.289 OA
ENDBRANCH  19  20
ENDBRANCH  17  19
ENDBRANCH  16  17
ENDBRANCH  14  16
TORSDOF 4
ENDMDL
