MODEL 1
REMARK VINA RESULT: -7.841768439      0.000      0.000
REMARK  3 active torsions:
REMARK  status: ('A' for Active; 'I' for Inactive)
REMARK    1  A    between atoms: C6_6  and  C7_7 
REMARK    2  A    between atoms: C7_7  and  S1_8 
REMARK    3  A    between atoms: S1_8  and  C8_9 
ROOT
HETATM    1  C8  UNL     1      -1.937   2.022  22.534  1.00  0.00     0.025 A 
HETATM    2  C9  UNL     1      -0.794   2.228  23.279  1.00  0.00     0.107 A 
HETATM    3  N1  UNL     1      -0.615   1.167  24.117  1.00  0.00    -0.367 N 
ATOM      4  H1  UNL     1       0.156   1.069  24.778  1.00  0.00     0.165 HD
HETATM    5  C10 UNL     1      -1.594   0.277  23.948  1.00  0.00     0.018 A 
HETATM    6  C11 UNL     1      -2.415   0.798  22.971  1.00  0.00    -0.010 A 
HETATM    7  C12 UNL     1      -3.603  -0.005  22.584  1.00  0.00     0.045 C 
HETATM    8  C13 UNL     1      -3.224  -1.298  21.945  1.00  0.00    -0.021 C 
HETATM    9  C14 UNL     1      -2.976  -2.220  22.868  1.00  0.00    -0.025 C 
HETATM   10  C15 UNL     1      -3.169  -1.617  24.215  1.00  0.00     0.014 C 
HETATM   11  C16 UNL     1      -1.835  -1.024  24.620  1.00  0.00     0.066 C 
HETATM   12  C17 UNL     1      -4.183  -0.530  23.907  1.00  0.00     0.022 C 
ENDROOT
BRANCH   1  13
HETATM   13  S1  UNL     1      -2.624   3.105  21.292  1.00  0.00    -0.122 SA
BRANCH  13  14
HETATM   14  C7  UNL     1      -2.066   2.644  19.631  1.00  0.00     0.151 C 
BRANCH  14  15
HETATM   15  C6  UNL     1      -3.169   1.805  19.007  1.00  0.00     0.209 C 
HETATM   16  C5  UNL     1      -4.446   1.993  19.782  1.00  0.00     0.072 C 
HETATM   17  C4  UNL     1      -5.447   0.971  19.252  1.00  0.00     0.011 C 
HETATM   18  C3  UNL     1      -5.453   1.099  17.748  1.00  0.00     0.071 C 
HETATM   19  C2  UNL     1      -4.049   0.947  17.234  1.00  0.00     0.197 C 
HETATM   20  C1  UNL     1      -3.974   0.788  15.743  1.00  0.00     0.082 C 
HETATM   21  O2  UNL     1      -3.342  -0.055  17.907  1.00  0.00    -0.198 OA
HETATM   22  O3  UNL     1      -3.343   2.096  17.658  1.00  0.00    -0.313 OA
HETATM   23  O1  UNL     1      -2.847   0.468  18.985  1.00  0.00    -0.197 OA
ENDBRANCH  14  15
ENDBRANCH  13  14
ENDBRANCH   1  13
TORSDOF 3
ENDMDL
MODEL 2
REMARK VINA RESULT: -7.406841846      0.938      1.040
REMARK  3 active torsions:
REMARK  status: ('A' for Active; 'I' for Inactive)
REMARK    1  A    between atoms: C6_6  and  C7_7 
REMARK    2  A    between atoms: C7_7  and  S1_8 
REMARK    3  A    between atoms: S1_8  and  C8_9 
ROOT
HETATM    1  C8  UNL     1      -1.451   2.668  22.398  1.00  0.00     0.025 A 
HETATM    2  C9  UNL     1      -0.488   3.275  23.178  1.00  0.00     0.107 A 
HETATM    3  N1  UNL     1      -0.013   2.371  24.080  1.00  0.00    -0.367 N 
ATOM      4  H1  UNL     1       0.706   2.564  24.777  1.00  0.00     0.165 HD
HETATM    5  C10 UNL     1      -0.626   1.196  23.920  1.00  0.00     0.018 A 
HETATM    6  C11 UNL     1      -1.516   1.372  22.883  1.00  0.00    -0.010 A 
HETATM    7  C12 UNL     1      -2.343   0.202  22.491  1.00  0.00     0.045 C 
HETATM    8  C13 UNL     1      -1.516  -0.911  21.942  1.00  0.00    -0.021 C 
HETATM    9  C14 UNL     1      -1.028  -1.660  22.924  1.00  0.00    -0.025 C 
HETATM   10  C15 UNL     1      -1.489  -1.106  24.227  1.00  0.00     0.014 C 
HETATM   11  C16 UNL     1      -0.456  -0.082  24.653  1.00  0.00     0.066 C 
HETATM   12  C17 UNL     1      -2.789  -0.437  23.816  1.00  0.00     0.022 C 
ENDROOT
BRANCH   1  13
HETATM   13  S1  UNL     1      -2.388   3.407  21.070  1.00  0.00    -0.122 SA
BRANCH  13  14
HETATM   14  C7  UNL     1      -1.896   2.737  19.460  1.00  0.00     0.151 C 
BRANCH  14  15
HETATM   15  C6  UNL     1      -3.043   1.869  18.969  1.00  0.00     0.209 C 
HETATM   16  C5  UNL     1      -4.241   2.067  19.858  1.00  0.00     0.072 C 
HETATM   17  C4  UNL     1      -5.277   1.020  19.456  1.00  0.00     0.011 C 
HETATM   18  C3  UNL     1      -5.428   1.105  17.956  1.00  0.00     0.071 C 
HETATM   19  C2  UNL     1      -4.078   0.951  17.314  1.00  0.00     0.197 C 
HETATM   20  C1  UNL     1      -4.144   0.749  15.828  1.00  0.00     0.082 C 
HETATM   21  O2  UNL     1      -3.297  -0.024  17.944  1.00  0.00    -0.198 OA
HETATM   22  O3  UNL     1      -3.349   2.118  17.636  1.00  0.00    -0.313 OA
HETATM   23  O1  UNL     1      -2.708   0.535  18.954  1.00  0.00    -0.197 OA
ENDBRANCH  14  15
ENDBRANCH  13  14
ENDBRANCH   1  13
TORSDOF 3
ENDMDL
MODEL 3
REMARK VINA RESULT: -7.379601693      2.674      5.432
REMARK  3 active torsions:
REMARK  status: ('A' for Active; 'I' for Inactive)
REMARK    1  A    between atoms: C6_6  and  C7_7 
REMARK    2  A    between atoms: C7_7  and  S1_8 
REMARK    3  A    between atoms: S1_8  and  C8_9 
ROOT
HETATM    1  C8  UNL     1      -1.378   3.516  20.412  1.00  0.00     0.025 A 
HETATM    2  C9  UNL     1      -0.489   4.013  19.481  1.00  0.00     0.107 A 
HETATM    3  N1  UNL     1      -0.680   3.367  18.296  1.00  0.00    -0.367 N 
ATOM      4  H1  UNL     1      -0.151   3.544  17.442  1.00  0.00     0.165 HD
HETATM    5  C10 UNL     1      -1.660   2.469  18.415  1.00  0.00     0.018 A 
HETATM    6  C11 UNL     1      -2.096   2.555  19.720  1.00  0.00    -0.010 A 
HETATM    7  C12 UNL     1      -3.199   1.649  20.128  1.00  0.00     0.045 C 
HETATM    8  C13 UNL     1      -4.470   1.950  19.407  1.00  0.00    -0.021 C 
HETATM    9  C14 UNL     1      -4.491   1.346  18.225  1.00  0.00    -0.025 C 
HETATM   10  C15 UNL     1      -3.224   0.583  18.051  1.00  0.00     0.014 C 
HETATM   11  C16 UNL     1      -2.229   1.532  17.416  1.00  0.00     0.066 C 
HETATM   12  C17 UNL     1      -2.859   0.290  19.496  1.00  0.00     0.022 C 
ENDROOT
BRANCH   1  13
HETATM   13  S1  UNL     1      -1.545   4.015  22.118  1.00  0.00    -0.122 SA
BRANCH  13  14
HETATM   14  C7  UNL     1      -0.556   2.966  23.214  1.00  0.00     0.151 C 
BRANCH  14  15
HETATM   15  C6  UNL     1      -1.406   1.753  23.557  1.00  0.00     0.209 C 
HETATM   16  C5  UNL     1      -2.840   2.176  23.729  1.00  0.00     0.072 C 
HETATM   17  C4  UNL     1      -3.599   0.972  24.282  1.00  0.00     0.011 C 
HETATM   18  C3  UNL     1      -3.261  -0.205  23.399  1.00  0.00     0.071 C 
HETATM   19  C2  UNL     1      -1.768  -0.362  23.337  1.00  0.00     0.197 C 
HETATM   20  C1  UNL     1      -1.331  -1.655  22.711  1.00  0.00     0.082 C 
HETATM   21  O2  UNL     1      -1.158  -0.143  24.576  1.00  0.00    -0.198 OA
HETATM   22  O3  UNL     1      -1.281   0.746  22.606  1.00  0.00    -0.313 OA
HETATM   23  O1  UNL     1      -0.977   1.133  24.707  1.00  0.00    -0.197 OA
ENDBRANCH  14  15
ENDBRANCH  13  14
ENDBRANCH   1  13
TORSDOF 3
ENDMDL
MODEL 4
REMARK VINA RESULT: -7.365371921      1.598      2.724
REMARK  3 active torsions:
REMARK  status: ('A' for Active; 'I' for Inactive)
REMARK    1  A    between atoms: C6_6  and  C7_7 
REMARK    2  A    between atoms: C7_7  and  S1_8 
REMARK    3  A    between atoms: S1_8  and  C8_9 
ROOT
HETATM    1  C8  UNL     1      -2.729   0.055  23.004  1.00  0.00     0.025 A 
HETATM    2  C9  UNL     1      -3.115  -1.259  22.834  1.00  0.00     0.107 A 
HETATM    3  N1  UNL     1      -2.277  -2.062  23.548  1.00  0.00    -0.367 N 
ATOM      4  H1  UNL     1      -2.342  -3.080  23.594  1.00  0.00     0.165 HD
HETATM    5  C10 UNL     1      -1.359  -1.326  24.178  1.00  0.00     0.018 A 
HETATM    6  C11 UNL     1      -1.632  -0.017  23.846  1.00  0.00    -0.010 A 
HETATM    7  C12 UNL     1      -0.746   1.028  24.421  1.00  0.00     0.045 C 
HETATM    8  C13 UNL     1      -0.858   1.105  25.906  1.00  0.00    -0.021 C 
HETATM    9  C14 UNL     1      -0.071   0.204  26.482  1.00  0.00    -0.025 C 
HETATM   10  C15 UNL     1       0.642  -0.561  25.421  1.00  0.00     0.014 C 
HETATM   11  C16 UNL     1      -0.244  -1.737  25.065  1.00  0.00     0.066 C 
HETATM   12  C17 UNL     1       0.677   0.460  24.298  1.00  0.00     0.022 C 
ENDROOT
BRANCH   1  13
HETATM   13  S1  UNL     1      -3.487   1.503  22.287  1.00  0.00    -0.122 SA
BRANCH  13  14
HETATM   14  C7  UNL     1      -2.644   2.007  20.764  1.00  0.00     0.151 C 
BRANCH  14  15
HETATM   15  C6  UNL     1      -3.445   1.442  19.603  1.00  0.00     0.209 C 
HETATM   16  C5  UNL     1      -4.901   1.377  19.980  1.00  0.00     0.072 C 
HETATM   17  C4  UNL     1      -5.617   0.607  18.873  1.00  0.00     0.011 C 
HETATM   18  C3  UNL     1      -5.205   1.234  17.563  1.00  0.00     0.071 C 
HETATM   19  C2  UNL     1      -3.705   1.243  17.471  1.00  0.00     0.197 C 
HETATM   20  C1  UNL     1      -3.194   1.594  16.103  1.00  0.00     0.082 C 
HETATM   21  O2  UNL     1      -3.134   0.064  17.959  1.00  0.00    -0.198 OA
HETATM   22  O3  UNL     1      -3.252   2.172  18.435  1.00  0.00    -0.313 OA
HETATM   23  O1  UNL     1      -3.015   0.186  19.244  1.00  0.00    -0.197 OA
ENDBRANCH  14  15
ENDBRANCH  13  14
ENDBRANCH   1  13
TORSDOF 3
ENDMDL
MODEL 5
REMARK VINA RESULT: -7.348366780      4.009      6.138
REMARK  3 active torsions:
REMARK  status: ('A' for Active; 'I' for Inactive)
REMARK    1  A    between atoms: C6_6  and  C7_7 
REMARK    2  A    between atoms: C7_7  and  S1_8 
REMARK    3  A    between atoms: S1_8  and  C8_9 
ROOT
HETATM    1  C8  UNL     1      -1.131   2.944  18.300  1.00  0.00     0.025 A 
HETATM    2  C9  UNL     1      -0.969   2.872  16.932  1.00  0.00     0.107 A 
HETATM    3  N1  UNL     1      -1.902   2.019  16.419  1.00  0.00    -0.367 N 
ATOM      4  H1  UNL     1      -2.000   1.787  15.431  1.00  0.00     0.165 HD
HETATM    5  C10 UNL     1      -2.667   1.533  17.398  1.00  0.00     0.018 A 
HETATM    6  C11 UNL     1      -2.197   2.099  18.563  1.00  0.00    -0.010 A 
HETATM    7  C12 UNL     1      -2.881   1.721  19.826  1.00  0.00     0.045 C 
HETATM    8  C13 UNL     1      -4.297   2.189  19.860  1.00  0.00    -0.021 C 
HETATM    9  C14 UNL     1      -5.091   1.323  19.241  1.00  0.00    -0.025 C 
HETATM   10  C15 UNL     1      -4.266   0.192  18.733  1.00  0.00     0.014 C 
HETATM   11  C16 UNL     1      -3.803   0.580  17.344  1.00  0.00     0.066 C 
HETATM   12  C17 UNL     1      -3.112   0.205  19.721  1.00  0.00     0.022 C 
ENDROOT
BRANCH   1  13
HETATM   13  S1  UNL     1      -0.170   3.913  19.450  1.00  0.00    -0.122 SA
BRANCH  13  14
HETATM   14  C7  UNL     1      -1.235   4.878  20.554  1.00  0.00     0.151 C 
BRANCH  14  15
HETATM   15  C6  UNL     1      -1.355   6.270  19.955  1.00  0.00     0.209 C 
HETATM   16  C5  UNL     1      -0.627   7.258  20.826  1.00  0.00     0.072 C 
HETATM   17  C4  UNL     1      -0.964   8.651  20.302  1.00  0.00     0.011 C 
HETATM   18  C3  UNL     1      -0.715   8.633  18.813  1.00  0.00     0.071 C 
HETATM   19  C2  UNL     1      -1.498   7.509  18.195  1.00  0.00     0.197 C 
HETATM   20  C1  UNL     1      -1.538   7.565  16.695  1.00  0.00     0.082 C 
HETATM   21  O2  UNL     1      -2.774   7.381  18.752  1.00  0.00    -0.198 OA
HETATM   22  O3  UNL     1      -0.896   6.311  18.643  1.00  0.00    -0.313 OA
HETATM   23  O1  UNL     1      -2.667   6.662  19.824  1.00  0.00    -0.197 OA
ENDBRANCH  14  15
ENDBRANCH  13  14
ENDBRANCH   1  13
TORSDOF 3
ENDMDL
