MODEL 1
REMARK VINA RESULT: -6.560738119      0.000      0.000
REMARK  2 active torsions:
REMARK  status: ('A' for Active; 'I' for Inactive)
REMARK    1  A    between atoms: C2_2  and  C4_4 
REMARK    2  A    between atoms: C5_5  and  C6_6 
ROOT
HETATM    1  C6  UNL     1      32.077   9.665  25.583  1.00  0.00    -0.021 C 
HETATM    2  C7  UNL     1      32.992   8.671  25.658  1.00  0.00     0.080 C 
HETATM    3  N1  UNL     1      34.219   8.828  24.875  1.00  0.00    -0.351 N 
ATOM      4  H1  UNL     1      34.881   9.585  25.047  1.00  0.00     0.166 HD
HETATM    5  C8  UNL     1      34.421   7.886  23.893  1.00  0.00     0.180 C 
HETATM    6  N2  UNL     1      33.509   6.809  23.625  1.00  0.00    -0.350 N 
HETATM    7  C9  UNL     1      33.894   5.918  22.577  1.00  0.00     0.153 C 
HETATM    8  C10 UNL     1      32.259   6.632  24.377  1.00  0.00     0.136 C 
HETATM    9  C11 UNL     1      31.735   5.268  23.930  1.00  0.00     0.071 C 
HETATM   10  C12 UNL     1      31.151   7.549  24.244  1.00  0.00     0.062 C 
HETATM   11  C13 UNL     1      30.326   8.065  25.330  1.00  0.00     0.020 C 
HETATM   12  C14 UNL     1      30.796   9.224  26.207  1.00  0.00     0.009 C 
HETATM   13  C15 UNL     1      29.741  10.262  26.332  1.00  0.00     0.022 C 
HETATM   14  C16 UNL     1      31.117   8.759  27.603  1.00  0.00     0.250 C 
HETATM   15  N3  UNL     1      31.811   7.512  27.493  1.00  0.00    -0.036 N 
ATOM     16  H31 UNL     1      31.151   6.744  27.371  1.00  0.00     0.281 HD
ATOM     17  H32 UNL     1      32.217   7.248  28.391  1.00  0.00     0.281 HD
HETATM   18  C17 UNL     1      32.797   7.489  26.474  1.00  0.00     0.268 C 
HETATM   19  C18 UNL     1      34.126   7.249  27.231  1.00  0.00     0.086 C 
HETATM   20  O1  UNL     1      32.621   6.359  25.717  1.00  0.00    -0.319 OA
ENDROOT
BRANCH   1  21
HETATM   21  C5  UNL     1      32.334  10.825  24.785  1.00  0.00     0.006 C 
HETATM   22  C4  UNL     1      32.091  11.144  23.573  1.00  0.00    -0.022 C 
BRANCH  22  23
HETATM   23  C2  UNL     1      32.508  12.495  23.017  1.00  0.00    -0.000 C 
HETATM   24  C1  UNL     1      31.679  12.900  21.841  1.00  0.00     0.013 C 
HETATM   25  C3  UNL     1      32.484  13.552  24.083  1.00  0.00     0.013 C 
ENDBRANCH  22  23
ENDBRANCH   1  21
TORSDOF 2
ENDMDL
MODEL 2
REMARK VINA RESULT: -5.713491269      1.204      3.794
REMARK  2 active torsions:
REMARK  status: ('A' for Active; 'I' for Inactive)
REMARK    1  A    between atoms: C2_2  and  C4_4 
REMARK    2  A    between atoms: C5_5  and  C6_6 
ROOT
HETATM    1  C6  UNL     1      32.779   9.080  23.953  1.00  0.00    -0.021 C 
HETATM    2  C7  UNL     1      31.921   8.190  24.506  1.00  0.00     0.080 C 
HETATM    3  N1  UNL     1      30.591   8.680  24.870  1.00  0.00    -0.351 N 
ATOM      4  H1  UNL     1      29.933   9.035  24.176  1.00  0.00     0.166 HD
HETATM    5  C8  UNL     1      30.286   8.631  26.211  1.00  0.00     0.180 C 
HETATM    6  N2  UNL     1      31.190   8.139  27.213  1.00  0.00    -0.350 N 
HETATM    7  C9  UNL     1      30.692   8.148  28.553  1.00  0.00     0.153 C 
HETATM    8  C10 UNL     1      32.539   7.658  26.888  1.00  0.00     0.136 C 
HETATM    9  C11 UNL     1      33.044   7.031  28.185  1.00  0.00     0.071 C 
HETATM   10  C12 UNL     1      33.583   8.554  26.445  1.00  0.00     0.062 C 
HETATM   11  C13 UNL     1      34.534   8.301  25.369  1.00  0.00     0.020 C 
HETATM   12  C14 UNL     1      34.152   8.497  23.903  1.00  0.00     0.009 C 
HETATM   13  C15 UNL     1      35.175   9.300  23.186  1.00  0.00     0.022 C 
HETATM   14  C16 UNL     1      34.050   7.178  23.183  1.00  0.00     0.250 C 
HETATM   15  N3  UNL     1      33.394   6.257  24.060  1.00  0.00    -0.036 N 
ATOM     16  H31 UNL     1      34.057   5.862  24.727  1.00  0.00     0.281 HD
ATOM     17  H32 UNL     1      33.130   5.409  23.558  1.00  0.00     0.281 HD
HETATM   18  C17 UNL     1      32.274   6.804  24.738  1.00  0.00     0.268 C 
HETATM   19  C18 UNL     1      31.076   5.954  24.248  1.00  0.00     0.086 C 
HETATM   20  O1  UNL     1      32.382   6.513  26.073  1.00  0.00    -0.319 OA
ENDROOT
BRANCH   1  21
HETATM   21  C5  UNL     1      32.368  10.430  23.718  1.00  0.00     0.006 C 
HETATM   22  C4  UNL     1      32.335  11.488  24.432  1.00  0.00    -0.022 C 
BRANCH  22  23
HETATM   23  C2  UNL     1      31.828  12.803  23.867  1.00  0.00    -0.000 C 
HETATM   24  C1  UNL     1      32.736  13.945  24.193  1.00  0.00     0.013 C 
HETATM   25  C3  UNL     1      31.596  12.705  22.387  1.00  0.00     0.013 C 
ENDBRANCH  22  23
ENDBRANCH   1  21
TORSDOF 2
ENDMDL
MODEL 3
REMARK VINA RESULT: -5.186738221      1.783      3.742
REMARK  2 active torsions:
REMARK  status: ('A' for Active; 'I' for Inactive)
REMARK    1  A    between atoms: C2_2  and  C4_4 
REMARK    2  A    between atoms: C5_5  and  C6_6 
ROOT
HETATM    1  C6  UNL     1      32.324  10.226  23.714  1.00  0.00    -0.021 C 
HETATM    2  C7  UNL     1      32.466   8.902  23.959  1.00  0.00     0.080 C 
HETATM    3  N1  UNL     1      31.281   8.058  23.787  1.00  0.00    -0.351 N 
ATOM      4  H1  UNL     1      30.822   7.944  22.883  1.00  0.00     0.166 HD
HETATM    5  C8  UNL     1      30.830   7.430  24.924  1.00  0.00     0.180 C 
HETATM    6  N2  UNL     1      31.453   7.571  26.211  1.00  0.00    -0.350 N 
HETATM    7  C9  UNL     1      30.854   6.827  27.274  1.00  0.00     0.153 C 
HETATM    8  C10 UNL     1      32.630   8.424  26.425  1.00  0.00     0.136 C 
HETATM    9  C11 UNL     1      33.083   8.098  27.847  1.00  0.00     0.071 C 
HETATM   10  C12 UNL     1      32.553   9.864  26.350  1.00  0.00     0.062 C 
HETATM   11  C13 UNL     1      33.523  10.746  25.710  1.00  0.00     0.020 C 
HETATM   12  C14 UNL     1      33.528  10.963  24.198  1.00  0.00     0.009 C 
HETATM   13  C15 UNL     1      33.584  12.409  23.866  1.00  0.00     0.022 C 
HETATM   14  C16 UNL     1      34.731  10.321  23.558  1.00  0.00     0.250 C 
HETATM   15  N3  UNL     1      34.923   9.046  24.179  1.00  0.00    -0.036 N 
ATOM     16  H31 UNL     1      35.425   9.149  25.060  1.00  0.00     0.281 HD
ATOM     17  H32 UNL     1      35.602   8.492  23.657  1.00  0.00     0.281 HD
HETATM   18  C17 UNL     1      33.724   8.313  24.372  1.00  0.00     0.268 C 
HETATM   19  C18 UNL     1      33.915   7.034  23.522  1.00  0.00     0.086 C 
HETATM   20  O1  UNL     1      33.686   7.865  25.667  1.00  0.00    -0.319 OA
ENDROOT
BRANCH   1  21
HETATM   21  C5  UNL     1      31.066  10.750  23.279  1.00  0.00     0.006 C 
HETATM   22  C4  UNL     1      30.708  11.559  22.358  1.00  0.00    -0.022 C 
BRANCH  22  23
HETATM   23  C2  UNL     1      29.248  11.919  22.151  1.00  0.00    -0.000 C 
HETATM   24  C1  UNL     1      28.625  12.477  23.390  1.00  0.00     0.013 C 
HETATM   25  C3  UNL     1      29.078  12.859  20.993  1.00  0.00     0.013 C 
ENDBRANCH  22  23
ENDBRANCH   1  21
TORSDOF 2
ENDMDL
MODEL 4
REMARK VINA RESULT: -5.124164428      1.645      3.725
REMARK  2 active torsions:
REMARK  status: ('A' for Active; 'I' for Inactive)
REMARK    1  A    between atoms: C2_2  and  C4_4 
REMARK    2  A    between atoms: C5_5  and  C6_6 
ROOT
HETATM    1  C6  UNL     1      32.389   9.177  23.985  1.00  0.00    -0.021 C 
HETATM    2  C7  UNL     1      32.211   7.896  24.384  1.00  0.00     0.080 C 
HETATM    3  N1  UNL     1      30.833   7.439  24.577  1.00  0.00    -0.351 N 
ATOM      4  H1  UNL     1      30.161   7.399  23.811  1.00  0.00     0.166 HD
HETATM    5  C8  UNL     1      30.506   7.067  25.860  1.00  0.00     0.180 C 
HETATM    6  N2  UNL     1      31.428   7.113  26.961  1.00  0.00    -0.350 N 
HETATM    7  C9  UNL     1      30.913   6.671  28.219  1.00  0.00     0.153 C 
HETATM    8  C10 UNL     1      32.811   7.584  26.809  1.00  0.00     0.136 C 
HETATM    9  C11 UNL     1      33.477   7.249  28.142  1.00  0.00     0.071 C 
HETATM   10  C12 UNL     1      33.121   8.970  26.545  1.00  0.00     0.062 C 
HETATM   11  C13 UNL     1      34.119   9.464  25.603  1.00  0.00     0.020 C 
HETATM   12  C14 UNL     1      33.828   9.551  24.105  1.00  0.00     0.009 C 
HETATM   13  C15 UNL     1      34.203  10.882  23.565  1.00  0.00     0.022 C 
HETATM   14  C16 UNL     1      34.620   8.528  23.335  1.00  0.00     0.250 C 
HETATM   15  N3  UNL     1      34.591   7.307  24.081  1.00  0.00    -0.036 N 
ATOM     16  H31 UNL     1      35.295   7.322  24.819  1.00  0.00     0.281 HD
ATOM     17  H32 UNL     1      34.948   6.535  23.518  1.00  0.00     0.281 HD
HETATM   18  C17 UNL     1      33.317   6.988  24.615  1.00  0.00     0.268 C 
HETATM   19  C18 UNL     1      32.940   5.649  23.936  1.00  0.00     0.086 C 
HETATM   20  O1  UNL     1      33.462   6.675  25.942  1.00  0.00    -0.319 OA
ENDROOT
BRANCH   1  21
HETATM   21  C5  UNL     1      31.260  10.022  23.742  1.00  0.00     0.006 C 
HETATM   22  C4  UNL     1      31.112  11.272  23.527  1.00  0.00    -0.022 C 
BRANCH  22  23
HETATM   23  C2  UNL     1      29.736  11.873  23.298  1.00  0.00    -0.000 C 
HETATM   24  C1  UNL     1      29.443  12.073  21.846  1.00  0.00     0.013 C 
HETATM   25  C3  UNL     1      28.667  11.050  23.956  1.00  0.00     0.013 C 
ENDBRANCH  22  23
ENDBRANCH   1  21
TORSDOF 2
ENDMDL
MODEL 5
REMARK VINA RESULT: -4.778291121      3.321      6.141
REMARK  2 active torsions:
REMARK  status: ('A' for Active; 'I' for Inactive)
REMARK    1  A    between atoms: C2_2  and  C4_4 
REMARK    2  A    between atoms: C5_5  and  C6_6 
ROOT
HETATM    1  C6  UNL     1      33.897   5.585  22.901  1.00  0.00    -0.021 C 
HETATM    2  C7  UNL     1      34.022   4.244  22.761  1.00  0.00     0.080 C 
HETATM    3  N1  UNL     1      32.994   3.406  23.382  1.00  0.00    -0.351 N 
ATOM      4  H1  UNL     1      32.016   3.445  23.095  1.00  0.00     0.166 HD
HETATM    5  C8  UNL     1      33.435   2.564  24.375  1.00  0.00     0.180 C 
HETATM    6  N2  UNL     1      34.804   2.486  24.802  1.00  0.00    -0.350 N 
HETATM    7  C9  UNL     1      35.077   1.538  25.837  1.00  0.00     0.153 C 
HETATM    8  C10 UNL     1      35.859   3.324  24.217  1.00  0.00     0.136 C 
HETATM    9  C11 UNL     1      37.157   2.758  24.788  1.00  0.00     0.071 C 
HETATM   10  C12 UNL     1      35.913   4.751  24.441  1.00  0.00     0.062 C 
HETATM   11  C13 UNL     1      36.214   5.768  23.440  1.00  0.00     0.020 C 
HETATM   12  C14 UNL     1      35.152   6.260  22.459  1.00  0.00     0.009 C 
HETATM   13  C15 UNL     1      35.112   7.744  22.415  1.00  0.00     0.022 C 
HETATM   14  C16 UNL     1      35.441   5.790  21.058  1.00  0.00     0.250 C 
HETATM   15  N3  UNL     1      35.878   4.430  21.140  1.00  0.00    -0.036 N 
ATOM     16  H31 UNL     1      36.869   4.385  21.379  1.00  0.00     0.281 HD
ATOM     17  H32 UNL     1      35.905   4.005  20.213  1.00  0.00     0.281 HD
HETATM   18  C17 UNL     1      35.115   3.632  22.032  1.00  0.00     0.268 C 
HETATM   19  C18 UNL     1      34.490   2.540  21.131  1.00  0.00     0.086 C 
HETATM   20  O1  UNL     1      35.973   2.952  22.857  1.00  0.00    -0.319 OA
ENDROOT
BRANCH   1  21
HETATM   21  C5  UNL     1      32.781   6.136  23.606  1.00  0.00     0.006 C 
HETATM   22  C4  UNL     1      32.637   6.709  24.738  1.00  0.00    -0.022 C 
BRANCH  22  23
HETATM   23  C2  UNL     1      31.276   7.194  25.207  1.00  0.00    -0.000 C 
HETATM   24  C1  UNL     1      31.141   7.141  26.695  1.00  0.00     0.013 C 
HETATM   25  C3  UNL     1      30.983   8.573  24.688  1.00  0.00     0.013 C 
ENDBRANCH  22  23
ENDBRANCH   1  21
TORSDOF 2
ENDMDL
