MODEL 1
REMARK VINA RESULT: -7.448377726      0.000      0.000
REMARK  2 active torsions:
REMARK  status: ('A' for Active; 'I' for Inactive)
REMARK    1  A    between atoms: C3_4  and  C4_5 
REMARK    2  A    between atoms: N3_15  and  C9_17 
ROOT
HETATM    1  N1  UNL     1     -21.377 -27.242 -19.322  1.00  0.00    -0.191 NA
HETATM    2  C1  UNL     1     -21.318 -27.827 -18.299  1.00  0.00     0.104 C 
HETATM    3  C2  UNL     1     -21.254 -28.590 -17.031  1.00  0.00     0.107 A 
HETATM    4  C3  UNL     1     -21.228 -27.979 -15.833  1.00  0.00     0.079 A 
HETATM    5  N2  UNL     1     -21.173 -28.765 -14.745  1.00  0.00    -0.322 N 
ATOM      6  H2  UNL     1     -21.147 -28.476 -13.766  1.00  0.00     0.174 HD
HETATM    7  S2  UNL     1     -21.157 -30.318 -15.349  1.00  0.00     0.005 SA
HETATM    8  C8  UNL     1     -21.222 -29.958 -17.035  1.00  0.00     0.110 A 
HETATM    9  N3  UNL     1     -21.230 -30.853 -17.944  1.00  0.00    -0.377 N 
ATOM     10  H3  UNL     1     -21.197 -31.802 -17.570  1.00  0.00     0.160 HD
ENDROOT
BRANCH   4  11
HETATM   11  C4  UNL     1     -21.255 -26.493 -15.646  1.00  0.00     0.036 A 
HETATM   12  C5  UNL     1     -22.021 -25.765 -14.779  1.00  0.00     0.025 A 
HETATM   13  C6  UNL     1     -21.861 -24.428 -14.802  1.00  0.00     0.051 A 
HETATM   14  C7  UNL     1     -20.949 -23.918 -15.687  1.00  0.00     0.158 A 
HETATM   15  F1  UNL     1     -20.628 -22.589 -15.876  1.00  0.00    -0.198 F 
HETATM   16  S1  UNL     1     -20.348 -25.314 -16.454  1.00  0.00    -0.058 SA
ENDBRANCH   4  11
BRANCH   9  17
HETATM   17  C9  UNL     1     -21.274 -30.816 -19.340  1.00  0.00     0.082 C 
HETATM   18  C10 UNL     1     -22.651 -30.837 -19.960  1.00  0.00     0.025 C 
HETATM   19  C11 UNL     1     -22.325 -31.246 -21.403  1.00  0.00     0.002 C 
HETATM   20  C12 UNL     1     -21.057 -32.069 -21.312  1.00  0.00     0.002 C 
HETATM   21  C13 UNL     1     -20.773 -32.199 -19.835  1.00  0.00     0.025 C 
ENDBRANCH   9  17
TORSDOF 2
ENDMDL
MODEL 2
REMARK VINA RESULT: -7.441752413      3.251      6.765
REMARK  2 active torsions:
REMARK  status: ('A' for Active; 'I' for Inactive)
REMARK    1  A    between atoms: C3_4  and  C4_5 
REMARK    2  A    between atoms: N3_15  and  C9_17 
ROOT
HETATM    1  N1  UNL     1     -21.322 -27.859 -18.613  1.00  0.00    -0.191 NA
HETATM    2  C1  UNL     1     -21.363 -28.645 -17.734  1.00  0.00     0.104 C 
HETATM    3  C2  UNL     1     -21.406 -29.606 -16.607  1.00  0.00     0.107 A 
HETATM    4  C3  UNL     1     -21.429 -30.936 -16.807  1.00  0.00     0.079 A 
HETATM    5  N2  UNL     1     -21.463 -31.719 -15.716  1.00  0.00    -0.322 N 
ATOM      6  H2  UNL     1     -21.485 -32.739 -15.680  1.00  0.00     0.174 HD
HETATM    7  S2  UNL     1     -21.463 -30.654 -14.434  1.00  0.00     0.005 SA
HETATM    8  C8  UNL     1     -21.419 -29.169 -15.311  1.00  0.00     0.110 A 
HETATM    9  N3  UNL     1     -21.407 -28.023 -14.750  1.00  0.00    -0.377 N 
ATOM     10  H3  UNL     1     -21.424 -28.077 -13.732  1.00  0.00     0.160 HD
ENDROOT
BRANCH   4  11
HETATM   11  C4  UNL     1     -21.421 -31.584 -18.157  1.00  0.00     0.036 A 
HETATM   12  C5  UNL     1     -22.460 -32.181 -18.815  1.00  0.00     0.025 A 
HETATM   13  C6  UNL     1     -22.194 -32.696 -20.030  1.00  0.00     0.051 A 
HETATM   14  C7  UNL     1     -20.914 -32.576 -20.500  1.00  0.00     0.158 A 
HETATM   15  F1  UNL     1     -20.426 -33.028 -21.709  1.00  0.00    -0.198 F 
HETATM   16  S1  UNL     1     -20.126 -31.754 -19.235  1.00  0.00    -0.058 SA
ENDBRANCH   4  11
BRANCH   9  17
HETATM   17  C9  UNL     1     -21.376 -26.711 -15.228  1.00  0.00     0.082 C 
HETATM   18  C10 UNL     1     -20.033 -26.021 -15.185  1.00  0.00     0.025 C 
HETATM   19  C11 UNL     1     -20.446 -24.549 -15.322  1.00  0.00     0.002 C 
HETATM   20  C12 UNL     1     -21.838 -24.464 -14.732  1.00  0.00     0.002 C 
HETATM   21  C13 UNL     1     -22.120 -25.841 -14.180  1.00  0.00     0.025 C 
ENDBRANCH   9  17
TORSDOF 2
ENDMDL
MODEL 3
REMARK VINA RESULT: -7.373270124      3.081      6.693
REMARK  2 active torsions:
REMARK  status: ('A' for Active; 'I' for Inactive)
REMARK    1  A    between atoms: C3_4  and  C4_5 
REMARK    2  A    between atoms: N3_15  and  C9_17 
ROOT
HETATM    1  N1  UNL     1     -21.263 -26.981 -19.407  1.00  0.00    -0.191 NA
HETATM    2  C1  UNL     1     -21.275 -27.700 -18.472  1.00  0.00     0.104 C 
HETATM    3  C2  UNL     1     -21.282 -28.577 -17.278  1.00  0.00     0.107 A 
HETATM    4  C3  UNL     1     -21.298 -29.919 -17.380  1.00  0.00     0.079 A 
HETATM    5  N2  UNL     1     -21.299 -30.620 -16.234  1.00  0.00    -0.322 N 
ATOM      6  H2  UNL     1     -21.310 -31.635 -16.124  1.00  0.00     0.174 HD
HETATM    7  S2  UNL     1     -21.278 -29.465 -15.033  1.00  0.00     0.005 SA
HETATM    8  C8  UNL     1     -21.268 -28.047 -16.016  1.00  0.00     0.110 A 
HETATM    9  N3  UNL     1     -21.253 -26.863 -15.540  1.00  0.00    -0.377 N 
ATOM     10  H3  UNL     1     -21.245 -26.843 -14.521  1.00  0.00     0.160 HD
ENDROOT
BRANCH   4  11
HETATM   11  C4  UNL     1     -21.316 -30.663 -18.679  1.00  0.00     0.036 A 
HETATM   12  C5  UNL     1     -22.139 -30.470 -19.752  1.00  0.00     0.025 A 
HETATM   13  C6  UNL     1     -21.955 -31.277 -20.813  1.00  0.00     0.051 A 
HETATM   14  C7  UNL     1     -20.963 -32.217 -20.726  1.00  0.00     0.158 A 
HETATM   15  F1  UNL     1     -20.605 -33.140 -21.687  1.00  0.00    -0.198 F 
HETATM   16  S1  UNL     1     -20.324 -31.944 -19.172  1.00  0.00    -0.058 SA
ENDBRANCH   4  11
BRANCH   9  17
HETATM   17  C9  UNL     1     -21.245 -25.589 -16.114  1.00  0.00     0.082 C 
HETATM   18  C10 UNL     1     -19.919 -25.116 -16.661  1.00  0.00     0.025 C 
HETATM   19  C11 UNL     1     -20.159 -23.603 -16.764  1.00  0.00     0.002 C 
HETATM   20  C12 UNL     1     -21.175 -23.282 -15.689  1.00  0.00     0.002 C 
HETATM   21  C13 UNL     1     -21.390 -24.578 -14.944  1.00  0.00     0.025 C 
ENDBRANCH   9  17
TORSDOF 2
ENDMDL
MODEL 4
REMARK VINA RESULT: -7.256513841      2.245      3.198
REMARK  2 active torsions:
REMARK  status: ('A' for Active; 'I' for Inactive)
REMARK    1  A    between atoms: C3_4  and  C4_5 
REMARK    2  A    between atoms: N3_15  and  C9_17 
ROOT
HETATM    1  N1  UNL     1     -20.493 -28.322 -15.060  1.00  0.00    -0.191 NA
HETATM    2  C1  UNL     1     -20.787 -27.976 -16.149  1.00  0.00     0.104 C 
HETATM    3  C2  UNL     1     -21.148 -27.572 -17.528  1.00  0.00     0.107 A 
HETATM    4  C3  UNL     1     -21.318 -26.283 -17.871  1.00  0.00     0.079 A 
HETATM    5  N2  UNL     1     -21.641 -26.026 -19.150  1.00  0.00    -0.322 N 
ATOM      6  H2  UNL     1     -21.806 -25.116 -19.581  1.00  0.00     0.174 HD
HETATM    7  S2  UNL     1     -21.711 -27.525 -19.874  1.00  0.00     0.005 SA
HETATM    8  C8  UNL     1     -21.319 -28.508 -18.512  1.00  0.00     0.110 A 
HETATM    9  N3  UNL     1     -21.246 -29.781 -18.562  1.00  0.00    -0.377 N 
ATOM     10  H3  UNL     1     -21.440 -30.155 -19.490  1.00  0.00     0.160 HD
ENDROOT
BRANCH   4  11
HETATM   11  C4  UNL     1     -21.171 -25.134 -16.922  1.00  0.00     0.036 A 
HETATM   12  C5  UNL     1     -20.465 -23.976 -17.099  1.00  0.00     0.025 A 
HETATM   13  C6  UNL     1     -20.489 -23.089 -16.087  1.00  0.00     0.051 A 
HETATM   14  C7  UNL     1     -21.214 -23.421 -14.974  1.00  0.00     0.158 A 
HETATM   15  F1  UNL     1     -21.373 -22.667 -13.830  1.00  0.00    -0.198 F 
HETATM   16  S1  UNL     1     -21.836 -24.954 -15.375  1.00  0.00    -0.058 SA
ENDBRANCH   4  11
BRANCH   9  17
HETATM   17  C9  UNL     1     -20.957 -30.772 -17.621  1.00  0.00     0.082 C 
HETATM   18  C10 UNL     1     -19.727 -31.606 -17.892  1.00  0.00     0.025 C 
HETATM   19  C11 UNL     1     -19.978 -32.817 -16.982  1.00  0.00     0.002 C 
HETATM   20  C12 UNL     1     -21.483 -32.933 -16.871  1.00  0.00     0.002 C 
HETATM   21  C13 UNL     1     -22.034 -31.877 -17.799  1.00  0.00     0.025 C 
ENDBRANCH   9  17
TORSDOF 2
ENDMDL
MODEL 5
REMARK VINA RESULT: -7.221948277      1.228      1.264
REMARK  2 active torsions:
REMARK  status: ('A' for Active; 'I' for Inactive)
REMARK    1  A    between atoms: C3_4  and  C4_5 
REMARK    2  A    between atoms: N3_15  and  C9_17 
ROOT
HETATM    1  N1  UNL     1     -21.415 -27.990 -19.963  1.00  0.00    -0.191 NA
HETATM    2  C1  UNL     1     -21.322 -28.280 -18.823  1.00  0.00     0.104 C 
HETATM    3  C2  UNL     1     -21.220 -28.674 -17.399  1.00  0.00     0.107 A 
HETATM    4  C3  UNL     1     -20.993 -27.773 -16.425  1.00  0.00     0.079 A 
HETATM    5  N2  UNL     1     -20.922 -28.236 -15.166  1.00  0.00    -0.322 N 
ATOM      6  H2  UNL     1     -20.758 -27.701 -14.313  1.00  0.00     0.174 HD
HETATM    7  S2  UNL     1     -21.161 -29.879 -15.309  1.00  0.00     0.005 SA
HETATM    8  C8  UNL     1     -21.357 -29.982 -17.020  1.00  0.00     0.110 A 
HETATM    9  N3  UNL     1     -21.570 -31.077 -17.637  1.00  0.00    -0.377 N 
ATOM     10  H3  UNL     1     -21.615 -31.884 -17.015  1.00  0.00     0.160 HD
ENDROOT
BRANCH   4  11
HETATM   11  C4  UNL     1     -20.818 -26.305 -16.663  1.00  0.00     0.036 A 
HETATM   12  C5  UNL     1     -21.721 -25.419 -17.180  1.00  0.00     0.025 A 
HETATM   13  C6  UNL     1     -21.319 -24.139 -17.295  1.00  0.00     0.051 A 
HETATM   14  C7  UNL     1     -20.048 -23.837 -16.886  1.00  0.00     0.158 A 
HETATM   15  F1  UNL     1     -19.437 -22.601 -16.914  1.00  0.00    -0.198 F 
HETATM   16  S1  UNL     1     -19.458 -25.344 -16.356  1.00  0.00    -0.058 SA
ENDBRANCH   4  11
BRANCH   9  17
HETATM   17  C9  UNL     1     -21.756 -31.411 -18.981  1.00  0.00     0.082 C 
HETATM   18  C10 UNL     1     -22.824 -32.439 -19.268  1.00  0.00     0.025 C 
HETATM   19  C11 UNL     1     -22.442 -32.883 -20.687  1.00  0.00     0.002 C 
HETATM   20  C12 UNL     1     -20.946 -32.675 -20.784  1.00  0.00     0.002 C 
HETATM   21  C13 UNL     1     -20.513 -32.240 -19.406  1.00  0.00     0.025 C 
ENDBRANCH   9  17
TORSDOF 2
ENDMDL
