MODEL 1
REMARK VINA RESULT: -7.345276795      0.000      0.000
REMARK  14 active torsions:
REMARK  status: ('A' for Active; 'I' for Inactive)
REMARK    1  A    between atoms: N1_1  and  C1_5 
REMARK    2  A    between atoms: C1_5  and  O1_6 
REMARK    3  A    between atoms: C1_5  and  N2_8 
REMARK    4  A    between atoms: N2_8  and  C2_11 
REMARK    5  A    between atoms: C2_11  and  C3_12 
REMARK    6  A    between atoms: C2_11  and  C4_17 
REMARK    7  A    between atoms: N3_13  and  O2_15 
REMARK    8  A    between atoms: C4_17  and  N4_18 
REMARK    9  A    between atoms: C6_20  and  C7_21 
REMARK       I    between atoms: C7_21  and  N5_23 
REMARK   10  A    between atoms: C10_29  and  C11_30 
REMARK   11  A    between atoms: C11_30  and  O4_31 
REMARK   12  A    between atoms: C14_38  and  C15_39 
REMARK   13  A    between atoms: C16_42  and  N10_43 
REMARK   14  A    between atoms: N12_49  and  O6_50 
ROOT
HETATM    1  N4  UNL     1       3.407   9.638   7.648  1.00  0.00    -0.339 N 
HETATM    2  C5  UNL     1       3.462   8.315   7.678  1.00  0.00     0.127 A 
HETATM    3  C6  UNL     1       2.433   7.836   8.468  1.00  0.00     0.118 A 
HETATM    4  N7  UNL     1       1.789   8.927   8.888  1.00  0.00    -0.338 N 
ATOM      5  H7  UNL     1       0.970   8.921   9.497  1.00  0.00     0.167 HD
HETATM    6  C14 UNL     1       2.370  10.036   8.398  1.00  0.00     0.123 A 
ENDROOT
BRANCH   1   7
HETATM    7  C4  UNL     1       4.333  10.489   6.913  1.00  0.00     0.168 C 
BRANCH   7   8
HETATM    8  C2  UNL     1       5.677  10.562   7.621  1.00  0.00     0.249 C 
BRANCH   8   9
HETATM    9  N2  UNL     1       6.696  10.636   6.595  1.00  0.00    -0.013 N 
ATOM     10  H22 UNL     1       7.189  11.529   6.622  1.00  0.00     0.283 HD
ATOM     11  H21 UNL     1       6.286  10.710   5.664  1.00  0.00     0.283 HD
BRANCH   9  12
HETATM   12  C1  UNL     1       7.618   9.515   6.685  1.00  0.00     0.520 C 
BRANCH  12  13
HETATM   13  N1  UNL     1       8.906   9.961   7.161  1.00  0.00    -0.027 N 
ATOM     14  H13 UNL     1       9.155   9.554   8.063  1.00  0.00     0.279 HD
ATOM     15  H12 UNL     1       9.681   9.578   6.620  1.00  0.00     0.279 HD
ATOM     16  H11 UNL     1       8.903  10.981   7.176  1.00  0.00     0.279 HD
ENDBRANCH  12  13
BRANCH  12  17
HETATM   17  O1  UNL     1       7.150   8.532   7.555  1.00  0.00    -0.349 OA
ATOM     18  H1  UNL     1       6.375   8.868   7.991  1.00  0.00     0.213 HD
ENDBRANCH  12  17
ENDBRANCH   9  12
ENDBRANCH   8   9
BRANCH   8  19
HETATM   19  C3  UNL     1       5.745  11.687   8.582  1.00  0.00     0.121 C 
HETATM   20  N3  UNL     1       5.441  11.505   9.817  1.00  0.00    -0.282 N 
ATOM     21  H3  UNL     1       5.153  10.570  10.108  1.00  0.00     0.192 HD
BRANCH  20  22
HETATM   22  O2  UNL     1       5.480  12.488  10.760  1.00  0.00    -0.290 OA
ATOM     23  H2  UNL     1       5.437  12.324  11.695  1.00  0.00     0.244 HD
ENDBRANCH  20  22
ENDBRANCH   8  19
ENDBRANCH   7   8
ENDBRANCH   1   7
BRANCH   6  24
HETATM   24  C15 UNL     1       1.996  11.449   8.600  1.00  0.00     0.285 C 
HETATM   25  N8  UNL     1       0.554  11.608   8.769  1.00  0.00    -0.112 NA
HETATM   26  N9  UNL     1       0.299  12.975   8.640  1.00  0.00    -0.091 NA
HETATM   27  C16 UNL     1       1.033  13.766   9.603  1.00  0.00     0.405 C 
HETATM   28  N11 UNL     1       2.376  13.345   9.820  1.00  0.00    -0.286 N 
HETATM   29  N12 UNL     1       2.586  11.983   9.837  1.00  0.00    -0.080 NA
ATOM     30  H11 UNL     1       3.137  14.012   9.954  1.00  0.00     0.180 HD
BRANCH  27  31
HETATM   31  N10 UNL     1       0.252  13.865  10.838  1.00  0.00    -0.042 N 
ATOM     32 3H10 UNL     1      -0.333  13.044  10.994  1.00  0.00     0.278 HD
ATOM     33 2H10 UNL     1       0.834  13.788  11.673  1.00  0.00     0.278 HD
ATOM     34 1H10 UNL     1      -0.290  14.730  10.823  1.00  0.00     0.278 HD
ENDBRANCH  27  31
BRANCH  29  35
HETATM   35  O6  UNL     1       1.873  11.480  10.897  1.00  0.00    -0.292 OA
ATOM     36  H6  UNL     1       1.582  12.212  11.428  1.00  0.00     0.239 HD
ENDBRANCH  29  35
ENDBRANCH   6  24
BRANCH   3  37
HETATM   37  C7  UNL     1       2.118   6.458   8.776  1.00  0.00     0.279 C 
HETATM   38  O3  UNL     1       1.408   5.802   7.950  1.00  0.00    -0.265 OA
HETATM   39  N5  UNL     1       2.581   5.828   9.964  1.00  0.00    -0.274 N 
HETATM   40  C8  UNL     1       3.380   6.461  10.957  1.00  0.00     0.184 A 
HETATM   41  C13 UNL     1       2.340   4.485  10.375  1.00  0.00     0.264 A 
HETATM   42  C9  UNL     1       3.617   5.409  12.008  1.00  0.00     0.035 A 
HETATM   43  S1  UNL     1       4.356   5.054  13.497  1.00  0.00    -0.016 SA
HETATM   44  C12 UNL     1       3.008   4.229  11.684  1.00  0.00     0.073 A 
HETATM   45  N6  UNL     1       3.881   3.452  13.662  1.00  0.00    -0.327 N 
HETATM   46  C10 UNL     1       3.161   3.216  12.568  1.00  0.00     0.056 A 
ATOM     47  H6  UNL     1       4.095   2.808  14.424  1.00  0.00     0.174 HD
HETATM   48  O5  UNL     1       1.655   3.700   9.677  1.00  0.00    -0.267 OA
BRANCH  46  49
HETATM   49  C11 UNL     1       2.560   1.832  12.382  1.00  0.00     0.222 C 
BRANCH  49  50
HETATM   50  O4  UNL     1       1.220   1.878  12.130  1.00  0.00    -0.395 OA
ATOM     51  H4  UNL     1       0.722   1.322  12.717  1.00  0.00     0.209 HD
ENDBRANCH  49  50
ENDBRANCH  46  49
ENDBRANCH   3  37
TORSDOF 14
ENDMDL
MODEL 2
REMARK VINA RESULT: -7.263938210      1.312      4.435
REMARK  14 active torsions:
REMARK  status: ('A' for Active; 'I' for Inactive)
REMARK    1  A    between atoms: N1_1  and  C1_5 
REMARK    2  A    between atoms: C1_5  and  O1_6 
REMARK    3  A    between atoms: C1_5  and  N2_8 
REMARK    4  A    between atoms: N2_8  and  C2_11 
REMARK    5  A    between atoms: C2_11  and  C3_12 
REMARK    6  A    between atoms: C2_11  and  C4_17 
REMARK    7  A    between atoms: N3_13  and  O2_15 
REMARK    8  A    between atoms: C4_17  and  N4_18 
REMARK    9  A    between atoms: C6_20  and  C7_21 
REMARK       I    between atoms: C7_21  and  N5_23 
REMARK   10  A    between atoms: C10_29  and  C11_30 
REMARK   11  A    between atoms: C11_30  and  O4_31 
REMARK   12  A    between atoms: C14_38  and  C15_39 
REMARK   13  A    between atoms: C16_42  and  N10_43 
REMARK   14  A    between atoms: N12_49  and  O6_50 
ROOT
HETATM    1  N4  UNL     1       2.681   9.747   8.020  1.00  0.00    -0.339 N 
HETATM    2  C5  UNL     1       1.907   8.758   8.442  1.00  0.00     0.127 A 
HETATM    3  C6  UNL     1       2.641   7.586   8.464  1.00  0.00     0.118 A 
HETATM    4  N7  UNL     1       3.858   7.937   8.043  1.00  0.00    -0.338 N 
ATOM      5  H7  UNL     1       4.647   7.297   7.945  1.00  0.00     0.167 HD
HETATM    6  C14 UNL     1       3.901   9.252   7.767  1.00  0.00     0.123 A 
ENDROOT
BRANCH   1   7
HETATM    7  C4  UNL     1       2.249  11.129   7.868  1.00  0.00     0.168 C 
BRANCH   7   8
HETATM    8  C2  UNL     1       2.199  11.831   9.216  1.00  0.00     0.249 C 
BRANCH   8   9
HETATM    9  N2  UNL     1       1.821  10.838  10.201  1.00  0.00    -0.013 N 
ATOM     10  H22 UNL     1       2.622  10.542  10.759  1.00  0.00     0.283 HD
ATOM     11  H21 UNL     1       1.594   9.945   9.763  1.00  0.00     0.283 HD
BRANCH   9  12
HETATM   12  C1  UNL     1       0.733  11.314  11.040  1.00  0.00     0.520 C 
BRANCH  12  13
HETATM   13  N1  UNL     1      -0.508  10.681  10.660  1.00  0.00    -0.027 N 
ATOM     14  H13 UNL     1      -0.397   9.688  10.455  1.00  0.00     0.279 HD
ATOM     15  H12 UNL     1      -1.158  10.588  11.441  1.00  0.00     0.279 HD
ATOM     16  H11 UNL     1      -0.904  11.203   9.879  1.00  0.00     0.279 HD
ENDBRANCH  12  13
BRANCH  12  17
HETATM   17  O1  UNL     1       0.965  11.040  12.387  1.00  0.00    -0.349 OA
ATOM     18  H1  UNL     1       1.715  11.551  12.668  1.00  0.00     0.213 HD
ENDBRANCH  12  17
ENDBRANCH   9  12
ENDBRANCH   8   9
BRANCH   8  19
HETATM   19  C3  UNL     1       3.473  12.510   9.545  1.00  0.00     0.121 C 
HETATM   20  N3  UNL     1       4.341  11.931  10.296  1.00  0.00    -0.282 N 
ATOM     21  H3  UNL     1       4.123  11.001  10.653  1.00  0.00     0.192 HD
BRANCH  20  22
HETATM   22  O2  UNL     1       5.535  12.488  10.643  1.00  0.00    -0.290 OA
ATOM     23  H2  UNL     1       5.907  12.440  11.516  1.00  0.00     0.244 HD
ENDBRANCH  20  22
ENDBRANCH   8  19
ENDBRANCH   7   8
ENDBRANCH   1   7
BRANCH   6  24
HETATM   24  C15 UNL     1       5.032  10.064   7.278  1.00  0.00     0.285 C 
HETATM   25  N8  UNL     1       5.949  10.418   8.357  1.00  0.00    -0.112 NA
HETATM   26  N9  UNL     1       6.781  11.417   7.845  1.00  0.00    -0.091 NA
HETATM   27  C16 UNL     1       7.497  10.986   6.665  1.00  0.00     0.405 C 
HETATM   28  N11 UNL     1       6.728  10.210   5.751  1.00  0.00    -0.286 N 
HETATM   29  N12 UNL     1       5.850   9.310   6.315  1.00  0.00    -0.080 NA
ATOM     30  H11 UNL     1       6.822  10.315   4.741  1.00  0.00     0.180 HD
BRANCH  27  31
HETATM   31  N10 UNL     1       8.744  10.333   7.072  1.00  0.00    -0.042 N 
ATOM     32 3H10 UNL     1       9.160  10.771   7.894  1.00  0.00     0.278 HD
ATOM     33 2H10 UNL     1       8.585   9.406   7.468  1.00  0.00     0.278 HD
ATOM     34 1H10 UNL     1       9.384  10.311   6.279  1.00  0.00     0.278 HD
ENDBRANCH  27  31
BRANCH  29  35
HETATM   35  O6  UNL     1       6.602   8.402   7.019  1.00  0.00    -0.292 OA
ATOM     36  H6  UNL     1       7.236   8.884   7.536  1.00  0.00     0.239 HD
ENDBRANCH  29  35
ENDBRANCH   6  24
BRANCH   3  37
HETATM   37  C7  UNL     1       2.195   6.268   8.857  1.00  0.00     0.279 C 
HETATM   38  O3  UNL     1       1.414   5.637   8.078  1.00  0.00    -0.265 OA
HETATM   39  N5  UNL     1       2.607   5.669  10.080  1.00  0.00    -0.274 N 
HETATM   40  C8  UNL     1       3.476   6.278  11.028  1.00  0.00     0.184 A 
HETATM   41  C13 UNL     1       2.239   4.384  10.575  1.00  0.00     0.264 A 
HETATM   42  C9  UNL     1       3.620   5.274  12.141  1.00  0.00     0.035 A 
HETATM   43  S1  UNL     1       4.337   4.938  13.645  1.00  0.00    -0.016 SA
HETATM   44  C12 UNL     1       2.894   4.143  11.893  1.00  0.00     0.073 A 
HETATM   45  N6  UNL     1       3.708   3.405  13.911  1.00  0.00    -0.327 N 
HETATM   46  C10 UNL     1       2.956   3.175  12.837  1.00  0.00     0.056 A 
ATOM     47  H6  UNL     1       3.867   2.791  14.710  1.00  0.00     0.174 HD
HETATM   48  O5  UNL     1       1.472   3.630   9.930  1.00  0.00    -0.267 OA
BRANCH  46  49
HETATM   49  C11 UNL     1       2.219   1.850  12.741  1.00  0.00     0.222 C 
BRANCH  49  50
HETATM   50  O4  UNL     1       0.880   2.013  12.539  1.00  0.00    -0.395 OA
ATOM     51  H4  UNL     1       0.397   1.201  12.638  1.00  0.00     0.209 HD
ENDBRANCH  49  50
ENDBRANCH  46  49
ENDBRANCH   3  37
TORSDOF 14
ENDMDL
MODEL 3
REMARK VINA RESULT: -7.176834472      1.363      4.172
REMARK  14 active torsions:
REMARK  status: ('A' for Active; 'I' for Inactive)
REMARK    1  A    between atoms: N1_1  and  C1_5 
REMARK    2  A    between atoms: C1_5  and  O1_6 
REMARK    3  A    between atoms: C1_5  and  N2_8 
REMARK    4  A    between atoms: N2_8  and  C2_11 
REMARK    5  A    between atoms: C2_11  and  C3_12 
REMARK    6  A    between atoms: C2_11  and  C4_17 
REMARK    7  A    between atoms: N3_13  and  O2_15 
REMARK    8  A    between atoms: C4_17  and  N4_18 
REMARK    9  A    between atoms: C6_20  and  C7_21 
REMARK       I    between atoms: C7_21  and  N5_23 
REMARK   10  A    between atoms: C10_29  and  C11_30 
REMARK   11  A    between atoms: C11_30  and  O4_31 
REMARK   12  A    between atoms: C14_38  and  C15_39 
REMARK   13  A    between atoms: C16_42  and  N10_43 
REMARK   14  A    between atoms: N12_49  and  O6_50 
ROOT
HETATM    1  N4  UNL     1       2.677   9.480   8.238  1.00  0.00    -0.339 N 
HETATM    2  C5  UNL     1       1.908   8.498   8.683  1.00  0.00     0.127 A 
HETATM    3  C6  UNL     1       2.603   7.305   8.599  1.00  0.00     0.118 A 
HETATM    4  N7  UNL     1       3.793   7.638   8.093  1.00  0.00    -0.338 N 
ATOM      5  H7  UNL     1       4.550   6.980   7.905  1.00  0.00     0.167 HD
HETATM    6  C14 UNL     1       3.855   8.961   7.866  1.00  0.00     0.123 A 
ENDROOT
BRANCH   1   7
HETATM    7  C4  UNL     1       2.279  10.880   8.176  1.00  0.00     0.168 C 
BRANCH   7   8
HETATM    8  C2  UNL     1       2.441  11.548   9.532  1.00  0.00     0.249 C 
BRANCH   8   9
HETATM    9  N2  UNL     1       2.741  12.944   9.288  1.00  0.00    -0.013 N 
ATOM     10  H22 UNL     1       2.174  13.557   9.874  1.00  0.00     0.283 HD
ATOM     11  H21 UNL     1       2.403  13.245   8.373  1.00  0.00     0.283 HD
BRANCH   9  12
HETATM   12  C1  UNL     1       4.160  13.216   9.449  1.00  0.00     0.520 C 
BRANCH  12  13
HETATM   13  N1  UNL     1       4.773  12.208  10.281  1.00  0.00    -0.027 N 
ATOM     14  H13 UNL     1       5.764  12.384  10.447  1.00  0.00     0.279 HD
ATOM     15  H12 UNL     1       4.462  12.255  11.251  1.00  0.00     0.279 HD
ATOM     16  H11 UNL     1       4.601  11.298   9.855  1.00  0.00     0.279 HD
ENDBRANCH  12  13
BRANCH  12  17
HETATM   17  O1  UNL     1       4.824  13.229   8.223  1.00  0.00    -0.349 OA
ATOM     18  H1  UNL     1       4.200  13.479   7.552  1.00  0.00     0.213 HD
ENDBRANCH  12  17
ENDBRANCH   9  12
ENDBRANCH   8   9
BRANCH   8  19
HETATM   19  C3  UNL     1       1.254  11.359  10.397  1.00  0.00     0.121 C 
HETATM   20  N3  UNL     1       1.395  10.980  11.618  1.00  0.00    -0.282 N 
ATOM     21  H3  UNL     1       2.341  10.817  11.964  1.00  0.00     0.192 HD
BRANCH  20  22
HETATM   22  O2  UNL     1       0.354  10.785  12.475  1.00  0.00    -0.290 OA
ATOM     23  H2  UNL     1      -0.046   9.939  12.636  1.00  0.00     0.244 HD
ENDBRANCH  20  22
ENDBRANCH   8  19
ENDBRANCH   7   8
ENDBRANCH   1   7
BRANCH   6  24
HETATM   24  C15 UNL     1       4.969   9.760   7.318  1.00  0.00     0.285 C 
HETATM   25  N8  UNL     1       5.882  10.206   8.367  1.00  0.00    -0.112 NA
HETATM   26  N9  UNL     1       6.692  11.183   7.783  1.00  0.00    -0.091 NA
HETATM   27  C16 UNL     1       7.414  10.686   6.633  1.00  0.00     0.405 C 
HETATM   28  N11 UNL     1       6.658   9.833   5.778  1.00  0.00    -0.286 N 
HETATM   29  N12 UNL     1       5.799   8.957   6.406  1.00  0.00    -0.080 NA
ATOM     30  H11 UNL     1       6.747   9.870   4.763  1.00  0.00     0.180 HD
BRANCH  27  31
HETATM   31  N10 UNL     1       8.674  10.087   7.080  1.00  0.00    -0.042 N 
ATOM     32 3H10 UNL     1       9.352  10.789   7.378  1.00  0.00     0.278 HD
ATOM     33 2H10 UNL     1       8.577   9.595   7.968  1.00  0.00     0.278 HD
ATOM     34 1H10 UNL     1       9.038   9.485   6.341  1.00  0.00     0.278 HD
ENDBRANCH  27  31
BRANCH  29  35
HETATM   35  O6  UNL     1       6.571   8.115   7.168  1.00  0.00    -0.292 OA
ATOM     36  H6  UNL     1       7.453   8.128   6.817  1.00  0.00     0.239 HD
ENDBRANCH  29  35
ENDBRANCH   6  24
BRANCH   3  37
HETATM   37  C7  UNL     1       2.148   5.985   8.976  1.00  0.00     0.279 C 
HETATM   38  O3  UNL     1       1.366   5.367   8.186  1.00  0.00    -0.265 OA
HETATM   39  N5  UNL     1       2.552   5.370  10.193  1.00  0.00    -0.274 N 
HETATM   40  C8  UNL     1       3.421   5.964  11.151  1.00  0.00     0.184 A 
HETATM   41  C13 UNL     1       2.175   4.082  10.672  1.00  0.00     0.264 A 
HETATM   42  C9  UNL     1       3.555   4.946  12.253  1.00  0.00     0.035 A 
HETATM   43  S1  UNL     1       4.264   4.590  13.756  1.00  0.00    -0.016 SA
HETATM   44  C12 UNL     1       2.823   3.822  11.990  1.00  0.00     0.073 A 
HETATM   45  N6  UNL     1       3.625   3.057  14.002  1.00  0.00    -0.327 N 
HETATM   46  C10 UNL     1       2.876   2.844  12.923  1.00  0.00     0.056 A 
ATOM     47  H6  UNL     1       3.777   2.433  14.795  1.00  0.00     0.174 HD
HETATM   48  O5  UNL     1       1.406   3.339  10.016  1.00  0.00    -0.267 OA
BRANCH  46  49
HETATM   49  C11 UNL     1       2.132   1.523  12.809  1.00  0.00     0.222 C 
BRANCH  49  50
HETATM   50  O4  UNL     1       0.798   1.697  12.580  1.00  0.00    -0.395 OA
ATOM     51  H4  UNL     1       0.281   0.958  12.878  1.00  0.00     0.209 HD
ENDBRANCH  49  50
ENDBRANCH  46  49
ENDBRANCH   3  37
TORSDOF 14
ENDMDL
MODEL 4
REMARK VINA RESULT: -7.097382074      1.897      2.851
REMARK  14 active torsions:
REMARK  status: ('A' for Active; 'I' for Inactive)
REMARK    1  A    between atoms: N1_1  and  C1_5 
REMARK    2  A    between atoms: C1_5  and  O1_6 
REMARK    3  A    between atoms: C1_5  and  N2_8 
REMARK    4  A    between atoms: N2_8  and  C2_11 
REMARK    5  A    between atoms: C2_11  and  C3_12 
REMARK    6  A    between atoms: C2_11  and  C4_17 
REMARK    7  A    between atoms: N3_13  and  O2_15 
REMARK    8  A    between atoms: C4_17  and  N4_18 
REMARK    9  A    between atoms: C6_20  and  C7_21 
REMARK       I    between atoms: C7_21  and  N5_23 
REMARK   10  A    between atoms: C10_29  and  C11_30 
REMARK   11  A    between atoms: C11_30  and  O4_31 
REMARK   12  A    between atoms: C14_38  and  C15_39 
REMARK   13  A    between atoms: C16_42  and  N10_43 
REMARK   14  A    between atoms: N12_49  and  O6_50 
ROOT
HETATM    1  N4  UNL     1       4.852   9.045   7.977  1.00  0.00    -0.339 N 
HETATM    2  C5  UNL     1       4.488   7.777   8.094  1.00  0.00     0.127 A 
HETATM    3  C6  UNL     1       3.215   7.718   8.632  1.00  0.00     0.118 A 
HETATM    4  N7  UNL     1       2.864   8.993   8.819  1.00  0.00    -0.338 N 
ATOM      5  H7  UNL     1       1.971   9.300   9.206  1.00  0.00     0.167 HD
HETATM    6  C14 UNL     1       3.851   9.816   8.425  1.00  0.00     0.123 A 
ENDROOT
BRANCH   1   7
HETATM    7  C4  UNL     1       6.132   9.493   7.448  1.00  0.00     0.168 C 
BRANCH   7   8
HETATM    8  C2  UNL     1       6.114   9.504   5.927  1.00  0.00     0.249 C 
BRANCH   8   9
HETATM    9  N2  UNL     1       5.996  10.887   5.511  1.00  0.00    -0.013 N 
ATOM     10  H22 UNL     1       6.842  11.210   5.043  1.00  0.00     0.283 HD
ATOM     11  H21 UNL     1       6.006  11.521   6.311  1.00  0.00     0.283 HD
BRANCH   9  12
HETATM   12  C1  UNL     1       4.817  11.090   4.683  1.00  0.00     0.520 C 
BRANCH  12  13
HETATM   13  N1  UNL     1       4.290  12.419   4.878  1.00  0.00    -0.027 N 
ATOM     14  H13 UNL     1       3.306  12.495   4.621  1.00  0.00     0.279 HD
ATOM     15  H12 UNL     1       4.193  12.665   5.863  1.00  0.00     0.279 HD
ATOM     16  H11 UNL     1       4.882  13.074   4.367  1.00  0.00     0.279 HD
ENDBRANCH  12  13
BRANCH  12  17
HETATM   17  O1  UNL     1       5.107  10.933   3.329  1.00  0.00    -0.349 OA
ATOM     18  H1  UNL     1       5.893  11.430   3.134  1.00  0.00     0.213 HD
ENDBRANCH  12  17
ENDBRANCH   9  12
ENDBRANCH   8   9
BRANCH   8  19
HETATM   19  C3  UNL     1       7.297   8.829   5.346  1.00  0.00     0.121 C 
HETATM   20  N3  UNL     1       7.461   8.791   4.072  1.00  0.00    -0.282 N 
ATOM     21  H3  UNL     1       6.756   9.235   3.483  1.00  0.00     0.192 HD
BRANCH  20  22
HETATM   22  O2  UNL     1       8.522   8.191   3.462  1.00  0.00    -0.290 OA
ATOM     23  H2  UNL     1       8.528   7.280   3.190  1.00  0.00     0.244 HD
ENDBRANCH  20  22
ENDBRANCH   8  19
ENDBRANCH   7   8
ENDBRANCH   1   7
BRANCH   6  24
HETATM   24  C15 UNL     1       3.898  11.291   8.449  1.00  0.00     0.285 C 
HETATM   25  N8  UNL     1       2.777  11.879   7.721  1.00  0.00    -0.112 NA
HETATM   26  N9  UNL     1       3.093  13.229   7.552  1.00  0.00    -0.091 NA
HETATM   27  C16 UNL     1       3.316  13.905   8.810  1.00  0.00     0.405 C 
HETATM   28  N11 UNL     1       4.053  13.152   9.769  1.00  0.00    -0.286 N 
HETATM   29  N12 UNL     1       3.771  11.804   9.822  1.00  0.00    -0.080 NA
ATOM     30  H11 UNL     1       4.747  13.585  10.378  1.00  0.00     0.180 HD
BRANCH  27  31
HETATM   31  N10 UNL     1       2.036  14.399   9.323  1.00  0.00    -0.042 N 
ATOM     32 3H10 UNL     1       2.074  15.388   9.573  1.00  0.00     0.278 HD
ATOM     33 2H10 UNL     1       1.324  14.462   8.595  1.00  0.00     0.278 HD
ATOM     34 1H10 UNL     1       1.740  13.813  10.104  1.00  0.00     0.278 HD
ENDBRANCH  27  31
BRANCH  29  35
HETATM   35  O6  UNL     1       2.456  11.683  10.199  1.00  0.00    -0.292 OA
ATOM     36  H6  UNL     1       2.030  12.518  10.048  1.00  0.00     0.239 HD
ENDBRANCH  29  35
ENDBRANCH   6  24
BRANCH   3  37
HETATM   37  C7  UNL     1       2.431   6.540   8.929  1.00  0.00     0.279 C 
HETATM   38  O3  UNL     1       1.611   6.123   8.052  1.00  0.00    -0.265 OA
HETATM   39  N5  UNL     1       2.557   5.844  10.163  1.00  0.00    -0.274 N 
HETATM   40  C8  UNL     1       3.439   6.217  11.216  1.00  0.00     0.184 A 
HETATM   41  C13 UNL     1       1.845   4.678  10.570  1.00  0.00     0.264 A 
HETATM   42  C9  UNL     1       3.222   5.194  12.299  1.00  0.00     0.035 A 
HETATM   43  S1  UNL     1       3.675   4.677  13.855  1.00  0.00    -0.016 SA
HETATM   44  C12 UNL     1       2.280   4.272  11.938  1.00  0.00     0.073 A 
HETATM   45  N6  UNL     1       2.676   3.335  13.998  1.00  0.00    -0.327 N 
HETATM   46  C10 UNL     1       2.010   3.305  12.847  1.00  0.00     0.056 A 
ATOM     47  H6  UNL     1       2.599   2.691  14.785  1.00  0.00     0.174 HD
HETATM   48  O5  UNL     1       0.995   4.137   9.824  1.00  0.00    -0.267 OA
BRANCH  46  49
HETATM   49  C11 UNL     1       0.996   2.196  12.626  1.00  0.00     0.222 C 
BRANCH  49  50
HETATM   50  O4  UNL     1       1.217   1.512  11.467  1.00  0.00    -0.395 OA
ATOM     51  H4  UNL     1       2.135   1.505  11.221  1.00  0.00     0.209 HD
ENDBRANCH  49  50
ENDBRANCH  46  49
ENDBRANCH   3  37
TORSDOF 14
ENDMDL
MODEL 5
REMARK VINA RESULT: -7.080095882      1.773      2.692
REMARK  14 active torsions:
REMARK  status: ('A' for Active; 'I' for Inactive)
REMARK    1  A    between atoms: N1_1  and  C1_5 
REMARK    2  A    between atoms: C1_5  and  O1_6 
REMARK    3  A    between atoms: C1_5  and  N2_8 
REMARK    4  A    between atoms: N2_8  and  C2_11 
REMARK    5  A    between atoms: C2_11  and  C3_12 
REMARK    6  A    between atoms: C2_11  and  C4_17 
REMARK    7  A    between atoms: N3_13  and  O2_15 
REMARK    8  A    between atoms: C4_17  and  N4_18 
REMARK    9  A    between atoms: C6_20  and  C7_21 
REMARK       I    between atoms: C7_21  and  N5_23 
REMARK   10  A    between atoms: C10_29  and  C11_30 
REMARK   11  A    between atoms: C11_30  and  O4_31 
REMARK   12  A    between atoms: C14_38  and  C15_39 
REMARK   13  A    between atoms: C16_42  and  N10_43 
REMARK   14  A    between atoms: N12_49  and  O6_50 
ROOT
HETATM    1  N4  UNL     1       4.981   9.090   8.259  1.00  0.00    -0.339 N 
HETATM    2  C5  UNL     1       4.600   7.823   8.330  1.00  0.00     0.127 A 
HETATM    3  C6  UNL     1       3.285   7.768   8.752  1.00  0.00     0.118 A 
HETATM    4  N7  UNL     1       2.927   9.044   8.920  1.00  0.00    -0.338 N 
ATOM      5  H7  UNL     1       2.005   9.353   9.229  1.00  0.00     0.167 HD
HETATM    6  C14 UNL     1       3.950   9.864   8.624  1.00  0.00     0.123 A 
ENDROOT
BRANCH   1   7
HETATM    7  C4  UNL     1       6.307   9.534   7.850  1.00  0.00     0.168 C 
BRANCH   7   8
HETATM    8  C2  UNL     1       6.357   9.775   6.350  1.00  0.00     0.249 C 
BRANCH   8   9
HETATM    9  N2  UNL     1       6.580  11.193   6.152  1.00  0.00    -0.013 N 
ATOM     10  H22 UNL     1       5.700  11.700   6.055  1.00  0.00     0.283 HD
ATOM     11  H21 UNL     1       6.975  11.384   5.230  1.00  0.00     0.283 HD
BRANCH   9  12
HETATM   12  C1  UNL     1       7.404  11.751   7.212  1.00  0.00     0.520 C 
BRANCH  12  13
HETATM   13  N1  UNL     1       8.756  11.947   6.747  1.00  0.00    -0.027 N 
ATOM     14  H13 UNL     1       9.358  12.369   7.453  1.00  0.00     0.279 HD
ATOM     15  H12 UNL     1       9.266  11.071   6.638  1.00  0.00     0.279 HD
ATOM     16  H11 UNL     1       8.720  12.490   5.885  1.00  0.00     0.279 HD
ENDBRANCH  12  13
BRANCH  12  17
HETATM   17  O1  UNL     1       6.914  12.981   7.650  1.00  0.00    -0.349 OA
ATOM     18  H1  UNL     1       6.045  12.842   8.009  1.00  0.00     0.213 HD
ENDBRANCH  12  17
ENDBRANCH   9  12
ENDBRANCH   8   9
BRANCH   8  19
HETATM   19  C3  UNL     1       7.376   8.935   5.679  1.00  0.00     0.121 C 
HETATM   20  N3  UNL     1       7.545   9.012   4.407  1.00  0.00    -0.282 N 
ATOM     21  H3  UNL     1       6.961   9.664   3.884  1.00  0.00     0.192 HD
BRANCH  20  22
HETATM   22  O2  UNL     1       8.460   8.274   3.719  1.00  0.00    -0.290 OA
ATOM     23  H2  UNL     1       8.662   8.407   2.800  1.00  0.00     0.244 HD
ENDBRANCH  20  22
ENDBRANCH   8  19
ENDBRANCH   7   8
ENDBRANCH   1   7
BRANCH   6  24
HETATM   24  C15 UNL     1       4.003  11.338   8.667  1.00  0.00     0.285 C 
HETATM   25  N8  UNL     1       3.754  11.927   7.355  1.00  0.00    -0.112 NA
HETATM   26  N9  UNL     1       4.131  13.268   7.456  1.00  0.00    -0.091 NA
HETATM   27  C16 UNL     1       3.405  13.968   8.493  1.00  0.00     0.405 C 
HETATM   28  N11 UNL     1       3.217  13.225   9.693  1.00  0.00    -0.286 N 
HETATM   29  N12 UNL     1       2.947  11.882   9.535  1.00  0.00    -0.080 NA
ATOM     30  H11 UNL     1       3.279  13.660  10.613  1.00  0.00     0.180 HD
BRANCH  27  31
HETATM   31  N10 UNL     1       2.156  14.491   7.935  1.00  0.00    -0.042 N 
ATOM     32 3H10 UNL     1       2.309  15.038   7.087  1.00  0.00     0.278 HD
ATOM     33 2H10 UNL     1       1.574  13.757   7.530  1.00  0.00     0.278 HD
ATOM     34 1H10 UNL     1       1.665  15.022   8.654  1.00  0.00     0.278 HD
ENDBRANCH  27  31
BRANCH  29  35
HETATM   35  O6  UNL     1       1.755  11.789   8.860  1.00  0.00    -0.292 OA
ATOM     36  H6  UNL     1       1.167  12.447   9.211  1.00  0.00     0.239 HD
ENDBRANCH  29  35
ENDBRANCH   6  24
BRANCH   3  37
HETATM   37  C7  UNL     1       2.470   6.593   8.966  1.00  0.00     0.279 C 
HETATM   38  O3  UNL     1       1.712   6.204   8.022  1.00  0.00    -0.265 OA
HETATM   39  N5  UNL     1       2.499   5.871  10.190  1.00  0.00    -0.274 N 
HETATM   40  C8  UNL     1       3.306   6.211  11.313  1.00  0.00     0.184 A 
HETATM   41  C13 UNL     1       1.748   4.704  10.519  1.00  0.00     0.264 A 
HETATM   42  C9  UNL     1       3.000   5.168  12.355  1.00  0.00     0.035 A 
HETATM   43  S1  UNL     1       3.334   4.615  13.927  1.00  0.00    -0.016 SA
HETATM   44  C12 UNL     1       2.078   4.265  11.906  1.00  0.00     0.073 A 
HETATM   45  N6  UNL     1       2.315   3.281  13.968  1.00  0.00    -0.327 N 
HETATM   46  C10 UNL     1       1.734   3.283  12.771  1.00  0.00     0.056 A 
ATOM     47  H6  UNL     1       2.174   2.622  14.734  1.00  0.00     0.174 HD
HETATM   48  O5  UNL     1       0.950   4.189   9.701  1.00  0.00    -0.267 OA
BRANCH  46  49
HETATM   49  C11 UNL     1       0.728   2.189  12.454  1.00  0.00     0.222 C 
BRANCH  49  50
HETATM   50  O4  UNL     1       1.063   1.482  11.337  1.00  0.00    -0.395 OA
ATOM     51  H4  UNL     1       0.392   0.859  11.087  1.00  0.00     0.209 HD
ENDBRANCH  49  50
ENDBRANCH  46  49
ENDBRANCH   3  37
TORSDOF 14
ENDMDL
