MODEL 1
REMARK VINA RESULT: -8.580064944      0.000      0.000
REMARK  18 active torsions:
REMARK  status: ('A' for Active; 'I' for Inactive)
REMARK       I    between atoms: C2_2  and  N1_4 
REMARK    1  A    between atoms: N2_6  and  C4_7 
REMARK    2  A    between atoms: C4_7  and  N3_8 
REMARK    3  A    between atoms: N3_8  and  N4_10 
REMARK    4  A    between atoms: N5_12  and  C5_14 
REMARK    5  A    between atoms: C5_14  and  O2_15 
REMARK    6  A    between atoms: C5_14  and  N6_17 
REMARK    7  A    between atoms: C5_14  and  C7_25 
REMARK    8  A    between atoms: N6_17  and  O3_18 
REMARK    9  A    between atoms: O3_18  and  C6_19 
REMARK   10  A    between atoms: N8_21  and  O4_23 
REMARK   11  A    between atoms: N10_28  and  C8_29 
REMARK   12  A    between atoms: C8_29  and  O5_30 
REMARK   13  A    between atoms: C8_29  and  C9_32 
REMARK   14  A    between atoms: C9_32  and  O6_33 
REMARK   15  A    between atoms: C9_32  and  O7_35 
REMARK   16  A    between atoms: C10_37  and  O8_38 
REMARK   17  A    between atoms: C11_40  and  O9_41 
REMARK   18  A    between atoms: C13_44  and  C14_45 
ROOT
HETATM    1  C5  UNL     1     -30.583 -12.572  -4.789  1.00  0.00     0.298 C 
ENDROOT
BRANCH   1   2
HETATM    2  N5  UNL     1     -29.262 -12.441  -4.252  1.00  0.00    -0.266 N 
HETATM    3  N4  UNL     1     -28.835 -11.365  -3.737  1.00  0.00    -0.246 N 
ATOM      4  H4  UNL     1     -29.438 -10.544  -3.691  1.00  0.00     0.207 HD
ATOM      5  H5  UNL     1     -28.640 -13.248  -4.285  1.00  0.00     0.187 HD
BRANCH   3   6
HETATM    6  N3  UNL     1     -27.532 -11.309  -3.231  1.00  0.00    -0.294 N 
ATOM      7  H3  UNL     1     -27.264 -11.877  -2.427  1.00  0.00     0.183 HD
BRANCH   6   8
HETATM    8  C4  UNL     1     -26.568 -10.434  -3.864  1.00  0.00     0.415 C 
BRANCH   8   9
HETATM    9  N2  UNL     1     -26.948 -10.070  -5.198  1.00  0.00     0.127 N 
HETATM   10  C3  UNL     1     -25.799 -10.344  -6.062  1.00  0.00     0.403 C 
HETATM   11  N1  UNL     1     -24.906  -9.208  -5.784  1.00  0.00    -0.310 N 
HETATM   12  C2  UNL     1     -23.508  -9.275  -6.021  1.00  0.00     0.218 C 
HETATM   13  C13 UNL     1     -25.688  -8.122  -5.268  1.00  0.00     0.218 C 
HETATM   14  C1  UNL     1     -22.864 -10.492  -6.565  1.00  0.00     0.117 C 
HETATM   15  O1  UNL     1     -22.735  -8.303  -5.780  1.00  0.00    -0.274 OA
HETATM   16  C12 UNL     1     -27.097  -8.632  -5.257  1.00  0.00     0.312 C 
BRANCH  13  17
HETATM   17  C14 UNL     1     -25.567  -6.895  -6.093  1.00  0.00     0.198 C 
HETATM   18  O10 UNL     1     -25.577  -7.007  -7.336  1.00  0.00    -0.646 OA
HETATM   19  O11 UNL     1     -25.445  -5.672  -5.473  1.00  0.00    -0.646 OA
ENDBRANCH  13  17
ENDBRANCH   8   9
ENDBRANCH   6   8
ENDBRANCH   3   6
ENDBRANCH   1   2
BRANCH   1  20
HETATM   20  O2  UNL     1     -30.590 -13.563  -5.757  1.00  0.00    -0.350 OA
ATOM     21  H2  UNL     1     -31.444 -13.977  -5.778  1.00  0.00     0.214 HD
ENDBRANCH   1  20
BRANCH   1  22
HETATM   22  N6  UNL     1     -31.515 -13.000  -3.743  1.00  0.00    -0.022 NA
BRANCH  22  23
HETATM   23  O3  UNL     1     -31.244 -14.276  -3.322  1.00  0.00    -0.204 OA
BRANCH  23  24
HETATM   24  C6  UNL     1     -31.200 -14.637  -1.987  1.00  0.00     0.271 C 
HETATM   25  N7  UNL     1     -32.290 -15.360  -1.449  1.00  0.00    -0.053 NA
HETATM   26  N8  UNL     1     -30.193 -14.316  -1.282  1.00  0.00    -0.234 N 
ATOM     27  H8  UNL     1     -30.200 -14.601  -0.303  1.00  0.00     0.197 HD
BRANCH  26  28
HETATM   28  O4  UNL     1     -29.109 -13.626  -1.718  1.00  0.00    -0.287 OA
ATOM     29  H4  UNL     1     -28.947 -12.701  -1.576  1.00  0.00     0.244 HD
ENDBRANCH  26  28
ENDBRANCH  23  24
ENDBRANCH  22  23
ENDBRANCH   1  22
BRANCH   1  30
HETATM   30  C7  UNL     1     -31.082 -11.292  -5.396  1.00  0.00     0.140 A 
HETATM   31  N9  UNL     1     -32.163 -10.616  -5.101  1.00  0.00    -0.285 N 
HETATM   32  N10 UNL     1     -32.314  -9.504  -5.843  1.00  0.00    -0.208 N 
ATOM     33  H9  UNL     1     -32.824 -10.904  -4.381  1.00  0.00     0.187 HD
HETATM   34  C10 UNL     1     -31.252  -9.501  -6.645  1.00  0.00     0.200 A 
HETATM   35  C11 UNL     1     -30.438 -10.619  -6.400  1.00  0.00     0.149 A 
BRANCH  32  36
HETATM   36  C8  UNL     1     -33.392  -8.595  -5.728  1.00  0.00     0.196 C 
BRANCH  36  37
HETATM   37  O5  UNL     1     -34.541  -9.037  -6.194  1.00  0.00    -0.344 OA
ATOM     38  H5  UNL     1     -35.308  -8.585  -5.863  1.00  0.00     0.219 HD
ENDBRANCH  36  37
BRANCH  36  39
HETATM   39  C9  UNL     1     -33.472  -7.262  -5.190  1.00  0.00     0.332 C 
BRANCH  39  40
HETATM   40  O6  UNL     1     -32.356  -6.545  -4.926  1.00  0.00    -0.364 OA
ATOM     41  H6  UNL     1     -32.097  -5.817  -5.478  1.00  0.00     0.213 HD
ENDBRANCH  39  40
BRANCH  39  42
HETATM   42  O7  UNL     1     -34.237  -7.266  -3.998  1.00  0.00    -0.364 OA
ATOM     43  H7  UNL     1     -33.768  -6.806  -3.311  1.00  0.00     0.213 HD
ENDBRANCH  39  42
ENDBRANCH  36  39
ENDBRANCH  32  36
BRANCH  34  44
HETATM   44  O8  UNL     1     -30.880  -8.595  -7.621  1.00  0.00    -0.343 OA
ATOM     45  H8  UNL     1     -30.328  -7.824  -7.558  1.00  0.00     0.219 HD
ENDBRANCH  34  44
BRANCH  35  46
HETATM   46  O9  UNL     1     -29.255 -10.941  -7.042  1.00  0.00    -0.355 OA
ATOM     47  H9  UNL     1     -29.099 -11.077  -7.969  1.00  0.00     0.218 HD
ENDBRANCH  35  46
ENDBRANCH   1  30
TORSDOF 18
ENDMDL
MODEL 2
REMARK VINA RESULT: -8.578833368      1.291      1.905
REMARK  18 active torsions:
REMARK  status: ('A' for Active; 'I' for Inactive)
REMARK       I    between atoms: C2_2  and  N1_4 
REMARK    1  A    between atoms: N2_6  and  C4_7 
REMARK    2  A    between atoms: C4_7  and  N3_8 
REMARK    3  A    between atoms: N3_8  and  N4_10 
REMARK    4  A    between atoms: N5_12  and  C5_14 
REMARK    5  A    between atoms: C5_14  and  O2_15 
REMARK    6  A    between atoms: C5_14  and  N6_17 
REMARK    7  A    between atoms: C5_14  and  C7_25 
REMARK    8  A    between atoms: N6_17  and  O3_18 
REMARK    9  A    between atoms: O3_18  and  C6_19 
REMARK   10  A    between atoms: N8_21  and  O4_23 
REMARK   11  A    between atoms: N10_28  and  C8_29 
REMARK   12  A    between atoms: C8_29  and  O5_30 
REMARK   13  A    between atoms: C8_29  and  C9_32 
REMARK   14  A    between atoms: C9_32  and  O6_33 
REMARK   15  A    between atoms: C9_32  and  O7_35 
REMARK   16  A    between atoms: C10_37  and  O8_38 
REMARK   17  A    between atoms: C11_40  and  O9_41 
REMARK   18  A    between atoms: C13_44  and  C14_45 
ROOT
HETATM    1  C5  UNL     1     -30.243 -11.770  -4.682  1.00  0.00     0.298 C 
ENDROOT
BRANCH   1   2
HETATM    2  N5  UNL     1     -29.116 -11.159  -4.042  1.00  0.00    -0.266 N 
HETATM    3  N4  UNL     1     -27.999 -11.743  -3.916  1.00  0.00    -0.246 N 
ATOM      4  H4  UNL     1     -27.872 -12.689  -4.276  1.00  0.00     0.207 HD
ATOM      5  H5  UNL     1     -29.218 -10.213  -3.674  1.00  0.00     0.187 HD
BRANCH   3   6
HETATM    6  N3  UNL     1     -26.941 -11.085  -3.279  1.00  0.00    -0.294 N 
ATOM      7  H3  UNL     1     -26.963 -10.926  -2.272  1.00  0.00     0.183 HD
BRANCH   6   8
HETATM    8  C4  UNL     1     -25.816 -10.634  -4.070  1.00  0.00     0.415 C 
BRANCH   8   9
HETATM    9  N2  UNL     1     -26.186 -10.300  -5.414  1.00  0.00     0.127 N 
HETATM   10  C3  UNL     1     -24.959 -10.307  -6.211  1.00  0.00     0.403 C 
HETATM   11  N1  UNL     1     -24.327  -9.029  -5.847  1.00  0.00    -0.310 N 
HETATM   12  C2  UNL     1     -22.932  -8.809  -5.997  1.00  0.00     0.218 C 
HETATM   13  C13 UNL     1     -25.337  -8.140  -5.351  1.00  0.00     0.218 C 
HETATM   14  C1  UNL     1     -22.030  -9.853  -6.534  1.00  0.00     0.117 C 
HETATM   15  O1  UNL     1     -22.384  -7.715  -5.682  1.00  0.00    -0.274 OA
HETATM   16  C12 UNL     1     -26.614  -8.918  -5.442  1.00  0.00     0.312 C 
BRANCH  13  17
HETATM   17  C14 UNL     1     -25.417  -6.881  -6.133  1.00  0.00     0.198 C 
HETATM   18  O10 UNL     1     -25.560  -6.955  -7.370  1.00  0.00    -0.646 OA
HETATM   19  O11 UNL     1     -25.331  -5.673  -5.480  1.00  0.00    -0.646 OA
ENDBRANCH  13  17
ENDBRANCH   8   9
ENDBRANCH   6   8
ENDBRANCH   3   6
ENDBRANCH   1   2
BRANCH   1  20
HETATM   20  O2  UNL     1     -29.807 -12.515  -5.766  1.00  0.00    -0.350 OA
ATOM     21  H2  UNL     1     -30.477 -13.145  -6.004  1.00  0.00     0.214 HD
ENDBRANCH   1  20
BRANCH   1  22
HETATM   22  N6  UNL     1     -30.899 -12.705  -3.765  1.00  0.00    -0.022 NA
BRANCH  22  23
HETATM   23  O3  UNL     1     -30.413 -13.978  -3.916  1.00  0.00    -0.204 OA
BRANCH  23  24
HETATM   24  C6  UNL     1     -31.229 -15.077  -4.120  1.00  0.00     0.271 C 
HETATM   25  N7  UNL     1     -31.551 -15.892  -3.010  1.00  0.00    -0.053 NA
HETATM   26  N8  UNL     1     -31.667 -15.326  -5.286  1.00  0.00    -0.234 N 
ATOM     27  H8  UNL     1     -32.265 -16.145  -5.394  1.00  0.00     0.197 HD
BRANCH  26  28
HETATM   28  O4  UNL     1     -31.407 -14.597  -6.401  1.00  0.00    -0.287 OA
ATOM     29  H4  UNL     1     -31.698 -13.707  -6.561  1.00  0.00     0.244 HD
ENDBRANCH  26  28
ENDBRANCH  23  24
ENDBRANCH  22  23
ENDBRANCH   1  22
BRANCH   1  30
HETATM   30  C7  UNL     1     -31.248 -10.759  -5.155  1.00  0.00     0.140 A 
HETATM   31  N9  UNL     1     -31.222  -9.458  -5.020  1.00  0.00    -0.285 N 
HETATM   32  N10 UNL     1     -32.289  -8.845  -5.565  1.00  0.00    -0.208 N 
ATOM     33  H9  UNL     1     -30.468  -8.959  -4.549  1.00  0.00     0.187 HD
HETATM   34  C10 UNL     1     -33.015  -9.841  -6.066  1.00  0.00     0.200 A 
HETATM   35  C11 UNL     1     -32.396 -11.079  -5.831  1.00  0.00     0.149 A 
BRANCH  32  36
HETATM   36  C8  UNL     1     -32.509  -7.448  -5.559  1.00  0.00     0.196 C 
BRANCH  36  37
HETATM   37  O5  UNL     1     -31.536  -6.732  -6.086  1.00  0.00    -0.344 OA
ATOM     38  H5  UNL     1     -31.355  -5.914  -5.639  1.00  0.00     0.219 HD
ENDBRANCH  36  37
BRANCH  36  39
HETATM   39  C9  UNL     1     -33.607  -6.649  -5.082  1.00  0.00     0.332 C 
BRANCH  39  40
HETATM   40  O6  UNL     1     -33.423  -5.366  -4.696  1.00  0.00    -0.364 OA
ATOM     41  H6  UNL     1     -34.087  -4.705  -4.853  1.00  0.00     0.213 HD
ENDBRANCH  39  40
BRANCH  39  42
HETATM   42  O7  UNL     1     -34.249  -7.303  -4.003  1.00  0.00    -0.364 OA
ATOM     43  H7  UNL     1     -33.863  -7.026  -3.180  1.00  0.00     0.213 HD
ENDBRANCH  39  42
ENDBRANCH  36  39
ENDBRANCH  32  36
BRANCH  34  44
HETATM   44  O8  UNL     1     -34.220  -9.806  -6.743  1.00  0.00    -0.343 OA
ATOM     45  H8  UNL     1     -35.101  -9.975  -6.429  1.00  0.00     0.219 HD
ENDBRANCH  34  44
BRANCH  35  46
HETATM   46  O9  UNL     1     -32.861 -12.326  -6.210  1.00  0.00    -0.355 OA
ATOM     47  H9  UNL     1     -33.695 -12.735  -6.015  1.00  0.00     0.218 HD
ENDBRANCH  35  46
ENDBRANCH   1  30
TORSDOF 18
ENDMDL
MODEL 3
REMARK VINA RESULT: -8.576430578      1.406      2.486
REMARK  18 active torsions:
REMARK  status: ('A' for Active; 'I' for Inactive)
REMARK       I    between atoms: C2_2  and  N1_4 
REMARK    1  A    between atoms: N2_6  and  C4_7 
REMARK    2  A    between atoms: C4_7  and  N3_8 
REMARK    3  A    between atoms: N3_8  and  N4_10 
REMARK    4  A    between atoms: N5_12  and  C5_14 
REMARK    5  A    between atoms: C5_14  and  O2_15 
REMARK    6  A    between atoms: C5_14  and  N6_17 
REMARK    7  A    between atoms: C5_14  and  C7_25 
REMARK    8  A    between atoms: N6_17  and  O3_18 
REMARK    9  A    between atoms: O3_18  and  C6_19 
REMARK   10  A    between atoms: N8_21  and  O4_23 
REMARK   11  A    between atoms: N10_28  and  C8_29 
REMARK   12  A    between atoms: C8_29  and  O5_30 
REMARK   13  A    between atoms: C8_29  and  C9_32 
REMARK   14  A    between atoms: C9_32  and  O6_33 
REMARK   15  A    between atoms: C9_32  and  O7_35 
REMARK   16  A    between atoms: C10_37  and  O8_38 
REMARK   17  A    between atoms: C11_40  and  O9_41 
REMARK   18  A    between atoms: C13_44  and  C14_45 
ROOT
HETATM    1  C5  UNL     1     -31.200 -12.617  -5.303  1.00  0.00     0.298 C 
ENDROOT
BRANCH   1   2
HETATM    2  N5  UNL     1     -29.786 -12.842  -5.278  1.00  0.00    -0.266 N 
HETATM    3  N4  UNL     1     -29.234 -13.802  -5.894  1.00  0.00    -0.246 N 
ATOM      4  H4  UNL     1     -29.798 -14.456  -6.436  1.00  0.00     0.207 HD
ATOM      5  H5  UNL     1     -29.199 -12.202  -4.744  1.00  0.00     0.187 HD
BRANCH   3   6
HETATM    6  N3  UNL     1     -27.845 -13.962  -5.825  1.00  0.00    -0.294 N 
ATOM      7  H3  UNL     1     -27.435 -14.892  -5.744  1.00  0.00     0.183 HD
BRANCH   6   8
HETATM    8  C4  UNL     1     -26.999 -12.788  -5.870  1.00  0.00     0.415 C 
BRANCH   8   9
HETATM    9  N2  UNL     1     -26.164 -12.666  -4.711  1.00  0.00     0.127 N 
HETATM   10  C3  UNL     1     -26.343 -11.310  -4.192  1.00  0.00     0.403 C 
HETATM   11  N1  UNL     1     -25.535 -10.498  -5.117  1.00  0.00    -0.310 N 
HETATM   12  C2  UNL     1     -25.770  -9.110  -5.300  1.00  0.00     0.218 C 
HETATM   13  C13 UNL     1     -24.554 -11.342  -5.733  1.00  0.00     0.218 C 
HETATM   14  C1  UNL     1     -26.840  -8.395  -4.569  1.00  0.00     0.117 C 
HETATM   15  O1  UNL     1     -25.081  -8.409  -6.096  1.00  0.00    -0.274 OA
HETATM   16  C12 UNL     1     -24.781 -12.698  -5.137  1.00  0.00     0.312 C 
BRANCH  13  17
HETATM   17  C14 UNL     1     -23.168 -10.872  -5.487  1.00  0.00     0.198 C 
HETATM   18  O10 UNL     1     -22.745 -10.851  -4.313  1.00  0.00    -0.646 OA
HETATM   19  O11 UNL     1     -22.390 -10.473  -6.550  1.00  0.00    -0.646 OA
ENDBRANCH  13  17
ENDBRANCH   8   9
ENDBRANCH   6   8
ENDBRANCH   3   6
ENDBRANCH   1   2
BRANCH   1  20
HETATM   20  O2  UNL     1     -31.776 -13.422  -6.273  1.00  0.00    -0.350 OA
ATOM     21  H2  UNL     1     -31.291 -13.334  -7.084  1.00  0.00     0.214 HD
ENDBRANCH   1  20
BRANCH   1  22
HETATM   22  N6  UNL     1     -31.797 -13.007  -4.024  1.00  0.00    -0.022 NA
BRANCH  22  23
HETATM   23  O3  UNL     1     -31.242 -14.166  -3.545  1.00  0.00    -0.204 OA
BRANCH  23  24
HETATM   24  C6  UNL     1     -30.827 -14.317  -2.233  1.00  0.00     0.271 C 
HETATM   25  N7  UNL     1     -31.697 -14.959  -1.322  1.00  0.00    -0.053 NA
HETATM   26  N8  UNL     1     -29.687 -13.882  -1.881  1.00  0.00    -0.234 N 
ATOM     27  H8  UNL     1     -29.419 -14.014  -0.906  1.00  0.00     0.197 HD
BRANCH  26  28
HETATM   28  O4  UNL     1     -28.794 -13.256  -2.690  1.00  0.00    -0.287 OA
ATOM     29  H4  UNL     1     -27.874 -13.120  -2.498  1.00  0.00     0.244 HD
ENDBRANCH  26  28
ENDBRANCH  23  24
ENDBRANCH  22  23
ENDBRANCH   1  22
BRANCH   1  30
HETATM   30  C7  UNL     1     -31.545 -11.183  -5.589  1.00  0.00     0.140 A 
HETATM   31  N9  UNL     1     -32.662 -10.549  -5.340  1.00  0.00    -0.285 N 
HETATM   32  N10 UNL     1     -32.639  -9.260  -5.728  1.00  0.00    -0.208 N 
ATOM     33  H9  UNL     1     -33.468 -10.987  -4.896  1.00  0.00     0.187 HD
HETATM   34  C10 UNL     1     -31.425  -9.099  -6.249  1.00  0.00     0.200 A 
HETATM   35  C11 UNL     1     -30.690 -10.294  -6.185  1.00  0.00     0.149 A 
BRANCH  32  36
HETATM   36  C8  UNL     1     -33.711  -8.351  -5.575  1.00  0.00     0.196 C 
BRANCH  36  37
HETATM   37  O5  UNL     1     -34.880  -8.799  -5.983  1.00  0.00    -0.344 OA
ATOM     38  H5  UNL     1     -35.516  -8.126  -6.194  1.00  0.00     0.219 HD
ENDBRANCH  36  37
BRANCH  36  39
HETATM   39  C9  UNL     1     -33.769  -7.010  -5.053  1.00  0.00     0.332 C 
BRANCH  39  40
HETATM   40  O6  UNL     1     -32.648  -6.269  -4.904  1.00  0.00    -0.364 OA
ATOM     41  H6  UNL     1     -32.695  -5.335  -4.736  1.00  0.00     0.213 HD
ENDBRANCH  39  40
BRANCH  39  42
HETATM   42  O7  UNL     1     -34.418  -7.009  -3.794  1.00  0.00    -0.364 OA
ATOM     43  H7  UNL     1     -35.313  -6.705  -3.891  1.00  0.00     0.213 HD
ENDBRANCH  39  42
ENDBRANCH  36  39
ENDBRANCH  32  36
BRANCH  34  44
HETATM   44  O8  UNL     1     -30.842  -7.976  -6.806  1.00  0.00    -0.343 OA
ATOM     45  H8  UNL     1     -30.799  -7.698  -7.714  1.00  0.00     0.219 HD
ENDBRANCH  34  44
BRANCH  35  46
HETATM   46  O9  UNL     1     -29.396 -10.498  -6.630  1.00  0.00    -0.355 OA
ATOM     47  H9  UNL     1     -29.040 -10.379  -7.502  1.00  0.00     0.218 HD
ENDBRANCH  35  46
ENDBRANCH   1  30
TORSDOF 18
ENDMDL
MODEL 4
REMARK VINA RESULT: -8.469530603      2.445      7.928
REMARK  18 active torsions:
REMARK  status: ('A' for Active; 'I' for Inactive)
REMARK       I    between atoms: C2_2  and  N1_4 
REMARK    1  A    between atoms: N2_6  and  C4_7 
REMARK    2  A    between atoms: C4_7  and  N3_8 
REMARK    3  A    between atoms: N3_8  and  N4_10 
REMARK    4  A    between atoms: N5_12  and  C5_14 
REMARK    5  A    between atoms: C5_14  and  O2_15 
REMARK    6  A    between atoms: C5_14  and  N6_17 
REMARK    7  A    between atoms: C5_14  and  C7_25 
REMARK    8  A    between atoms: N6_17  and  O3_18 
REMARK    9  A    between atoms: O3_18  and  C6_19 
REMARK   10  A    between atoms: N8_21  and  O4_23 
REMARK   11  A    between atoms: N10_28  and  C8_29 
REMARK   12  A    between atoms: C8_29  and  O5_30 
REMARK   13  A    between atoms: C8_29  and  C9_32 
REMARK   14  A    between atoms: C9_32  and  O6_33 
REMARK   15  A    between atoms: C9_32  and  O7_35 
REMARK   16  A    between atoms: C10_37  and  O8_38 
REMARK   17  A    between atoms: C11_40  and  O9_41 
REMARK   18  A    between atoms: C13_44  and  C14_45 
ROOT
HETATM    1  C5  UNL     1     -29.336 -10.585  -5.063  1.00  0.00     0.298 C 
ENDROOT
BRANCH   1   2
HETATM    2  N5  UNL     1     -29.562 -11.998  -5.103  1.00  0.00    -0.266 N 
HETATM    3  N4  UNL     1     -30.246 -12.608  -4.228  1.00  0.00    -0.246 N 
ATOM      4  H4  UNL     1     -30.664 -12.093  -3.453  1.00  0.00     0.207 HD
ATOM      5  H5  UNL     1     -29.156 -12.536  -5.868  1.00  0.00     0.187 HD
BRANCH   3   6
HETATM    6  N3  UNL     1     -30.426 -13.992  -4.330  1.00  0.00    -0.294 N 
ATOM      7  H3  UNL     1     -30.057 -14.504  -5.132  1.00  0.00     0.183 HD
BRANCH   6   8
HETATM    8  C4  UNL     1     -31.143 -14.688  -3.282  1.00  0.00     0.415 C 
BRANCH   8   9
HETATM    9  N2  UNL     1     -32.458 -15.091  -3.689  1.00  0.00     0.127 N 
HETATM   10  C3  UNL     1     -33.402 -14.488  -2.748  1.00  0.00     0.403 C 
HETATM   11  N1  UNL     1     -33.278 -15.352  -1.563  1.00  0.00    -0.310 N 
HETATM   12  C2  UNL     1     -33.634 -14.904  -0.264  1.00  0.00     0.218 C 
HETATM   13  C13 UNL     1     -32.763 -16.626  -1.974  1.00  0.00     0.218 C 
HETATM   14  C1  UNL     1     -34.157 -13.540  -0.024  1.00  0.00     0.117 C 
HETATM   15  O1  UNL     1     -33.525 -15.641   0.757  1.00  0.00    -0.274 OA
HETATM   16  C12 UNL     1     -32.593 -16.513  -3.459  1.00  0.00     0.312 C 
BRANCH  13  17
HETATM   17  C14 UNL     1     -33.670 -17.745  -1.620  1.00  0.00     0.198 C 
HETATM   18  O10 UNL     1     -34.788 -17.805  -2.173  1.00  0.00    -0.646 OA
HETATM   19  O11 UNL     1     -33.263 -18.681  -0.697  1.00  0.00    -0.646 OA
ENDBRANCH  13  17
ENDBRANCH   8   9
ENDBRANCH   6   8
ENDBRANCH   3   6
ENDBRANCH   1   2
BRANCH   1  20
HETATM   20  O2  UNL     1     -29.214 -10.176  -3.744  1.00  0.00    -0.350 OA
ATOM     21  H2  UNL     1     -28.438  -9.637  -3.653  1.00  0.00     0.214 HD
ENDBRANCH   1  20
BRANCH   1  22
HETATM   22  N6  UNL     1     -28.071 -10.256  -5.724  1.00  0.00    -0.022 NA
BRANCH  22  23
HETATM   23  O3  UNL     1     -27.891  -8.900  -5.816  1.00  0.00    -0.204 OA
BRANCH  23  24
HETATM   24  C6  UNL     1     -26.783  -8.250  -5.301  1.00  0.00     0.271 C 
HETATM   25  N7  UNL     1     -25.635  -8.127  -6.117  1.00  0.00    -0.053 NA
HETATM   26  N8  UNL     1     -26.822  -7.782  -4.121  1.00  0.00    -0.234 N 
ATOM     27  H8  UNL     1     -25.985  -7.309  -3.779  1.00  0.00     0.197 HD
BRANCH  26  28
HETATM   28  O4  UNL     1     -27.880  -7.856  -3.274  1.00  0.00    -0.287 OA
ATOM     29  H4  UNL     1     -28.760  -8.126  -3.510  1.00  0.00     0.244 HD
ENDBRANCH  26  28
ENDBRANCH  23  24
ENDBRANCH  22  23
ENDBRANCH   1  22
BRANCH   1  30
HETATM   30  C7  UNL     1     -30.446  -9.810  -5.714  1.00  0.00     0.140 A 
HETATM   31  N9  UNL     1     -31.517  -9.300  -5.162  1.00  0.00    -0.285 N 
HETATM   32  N10 UNL     1     -32.315  -8.662  -6.039  1.00  0.00    -0.208 N 
ATOM     33  H9  UNL     1     -31.726  -9.378  -4.167  1.00  0.00     0.187 HD
HETATM   34  C10 UNL     1     -31.687  -8.793  -7.204  1.00  0.00     0.200 A 
HETATM   35  C11 UNL     1     -30.493  -9.516  -7.051  1.00  0.00     0.149 A 
BRANCH  32  36
HETATM   36  C8  UNL     1     -33.532  -8.023  -5.707  1.00  0.00     0.196 C 
BRANCH  36  37
HETATM   37  O5  UNL     1     -34.617  -8.674  -6.071  1.00  0.00    -0.344 OA
ATOM     38  H5  UNL     1     -35.214  -8.181  -6.621  1.00  0.00     0.219 HD
ENDBRANCH  36  37
BRANCH  36  39
HETATM   39  C9  UNL     1     -33.813  -6.779  -5.038  1.00  0.00     0.332 C 
BRANCH  39  40
HETATM   40  O6  UNL     1     -32.836  -5.874  -4.803  1.00  0.00    -0.364 OA
ATOM     41  H6  UNL     1     -32.968  -4.951  -4.982  1.00  0.00     0.213 HD
ENDBRANCH  39  40
BRANCH  39  42
HETATM   42  O7  UNL     1     -34.433  -7.030  -3.790  1.00  0.00    -0.364 OA
ATOM     43  H7  UNL     1     -35.090  -6.367  -3.615  1.00  0.00     0.213 HD
ENDBRANCH  39  42
ENDBRANCH  36  39
ENDBRANCH  32  36
BRANCH  34  44
HETATM   44  O8  UNL     1     -32.043  -8.334  -8.459  1.00  0.00    -0.343 OA
ATOM     45  H8  UNL     1     -31.515  -8.230  -9.243  1.00  0.00     0.219 HD
ENDBRANCH  34  44
BRANCH  35  46
HETATM   46  O9  UNL     1     -29.586  -9.842  -8.044  1.00  0.00    -0.355 OA
ATOM     47  H9  UNL     1     -28.897 -10.495  -8.031  1.00  0.00     0.218 HD
ENDBRANCH  35  46
ENDBRANCH   1  30
TORSDOF 18
ENDMDL
MODEL 5
REMARK VINA RESULT: -8.465570399      1.748      2.883
REMARK  18 active torsions:
REMARK  status: ('A' for Active; 'I' for Inactive)
REMARK       I    between atoms: C2_2  and  N1_4 
REMARK    1  A    between atoms: N2_6  and  C4_7 
REMARK    2  A    between atoms: C4_7  and  N3_8 
REMARK    3  A    between atoms: N3_8  and  N4_10 
REMARK    4  A    between atoms: N5_12  and  C5_14 
REMARK    5  A    between atoms: C5_14  and  O2_15 
REMARK    6  A    between atoms: C5_14  and  N6_17 
REMARK    7  A    between atoms: C5_14  and  C7_25 
REMARK    8  A    between atoms: N6_17  and  O3_18 
REMARK    9  A    between atoms: O3_18  and  C6_19 
REMARK   10  A    between atoms: N8_21  and  O4_23 
REMARK   11  A    between atoms: N10_28  and  C8_29 
REMARK   12  A    between atoms: C8_29  and  O5_30 
REMARK   13  A    between atoms: C8_29  and  C9_32 
REMARK   14  A    between atoms: C9_32  and  O6_33 
REMARK   15  A    between atoms: C9_32  and  O7_35 
REMARK   16  A    between atoms: C10_37  and  O8_38 
REMARK   17  A    between atoms: C11_40  and  O9_41 
REMARK   18  A    between atoms: C13_44  and  C14_45 
ROOT
HETATM    1  C5  UNL     1     -30.298 -13.789  -5.169  1.00  0.00     0.298 C 
ENDROOT
BRANCH   1   2
HETATM    2  N5  UNL     1     -28.957 -13.969  -5.636  1.00  0.00    -0.266 N 
HETATM    3  N4  UNL     1     -28.247 -13.012  -6.069  1.00  0.00    -0.246 N 
ATOM      4  H4  UNL     1     -28.625 -12.065  -6.096  1.00  0.00     0.207 HD
ATOM      5  H5  UNL     1     -28.555 -14.906  -5.619  1.00  0.00     0.187 HD
BRANCH   3   6
HETATM    6  N3  UNL     1     -26.943 -13.261  -6.509  1.00  0.00    -0.294 N 
ATOM      7  H3  UNL     1     -26.675 -14.191  -6.832  1.00  0.00     0.183 HD
BRANCH   6   8
HETATM    8  C4  UNL     1     -25.979 -12.181  -6.500  1.00  0.00     0.415 C 
BRANCH   8   9
HETATM    9  N2  UNL     1     -25.326 -12.036  -5.232  1.00  0.00     0.127 N 
HETATM   10  C3  UNL     1     -25.677 -10.712  -4.718  1.00  0.00     0.403 C 
HETATM   11  N1  UNL     1     -24.809  -9.818  -5.501  1.00  0.00    -0.310 N 
HETATM   12  C2  UNL     1     -25.116  -8.445  -5.689  1.00  0.00     0.218 C 
HETATM   13  C13 UNL     1     -23.690 -10.572  -5.987  1.00  0.00     0.218 C 
HETATM   14  C1  UNL     1     -26.329  -7.828  -5.105  1.00  0.00     0.117 C 
HETATM   15  O1  UNL     1     -24.376  -7.674  -6.365  1.00  0.00    -0.274 OA
HETATM   16  C12 UNL     1     -23.899 -11.958  -5.456  1.00  0.00     0.312 C 
BRANCH  13  17
HETATM   17  C14 UNL     1     -22.392 -10.014  -5.536  1.00  0.00     0.198 C 
HETATM   18  O10 UNL     1     -21.610  -9.554  -6.392  1.00  0.00    -0.646 OA
HETATM   19  O11 UNL     1     -22.082 -10.018  -4.194  1.00  0.00    -0.646 OA
ENDBRANCH  13  17
ENDBRANCH   8   9
ENDBRANCH   6   8
ENDBRANCH   3   6
ENDBRANCH   1   2
BRANCH   1  20
HETATM   20  O2  UNL     1     -31.179 -14.366  -6.071  1.00  0.00    -0.350 OA
ATOM     21  H2  UNL     1     -31.670 -13.683  -6.512  1.00  0.00     0.214 HD
ENDBRANCH   1  20
BRANCH   1  22
HETATM   22  N6  UNL     1     -30.488 -14.483  -3.894  1.00  0.00    -0.022 NA
BRANCH  22  23
HETATM   23  O3  UNL     1     -31.481 -13.902  -3.149  1.00  0.00    -0.204 OA
BRANCH  23  24
HETATM   24  C6  UNL     1     -32.411 -14.632  -2.431  1.00  0.00     0.271 C 
HETATM   25  N7  UNL     1     -32.323 -14.632  -1.019  1.00  0.00    -0.053 NA
HETATM   26  N8  UNL     1     -33.314 -15.279  -3.048  1.00  0.00    -0.234 N 
ATOM     27  H8  UNL     1     -33.980 -15.803  -2.481  1.00  0.00     0.197 HD
BRANCH  26  28
HETATM   28  O4  UNL     1     -33.469 -15.332  -4.395  1.00  0.00    -0.287 OA
ATOM     29  H4  UNL     1     -33.515 -16.124  -4.916  1.00  0.00     0.244 HD
ENDBRANCH  26  28
ENDBRANCH  23  24
ENDBRANCH  22  23
ENDBRANCH   1  22
BRANCH   1  30
HETATM   30  C7  UNL     1     -30.654 -12.340  -4.998  1.00  0.00     0.140 A 
HETATM   31  N9  UNL     1     -31.573 -11.647  -5.619  1.00  0.00    -0.285 N 
HETATM   32  N10 UNL     1     -31.628 -10.361  -5.223  1.00  0.00    -0.208 N 
ATOM     33  H9  UNL     1     -32.186 -12.041  -6.332  1.00  0.00     0.187 HD
HETATM   34  C10 UNL     1     -30.678 -10.265  -4.297  1.00  0.00     0.200 A 
HETATM   35  C11 UNL     1     -30.028 -11.497  -4.117  1.00  0.00     0.149 A 
BRANCH  32  36
HETATM   36  C8  UNL     1     -32.529  -9.397  -5.732  1.00  0.00     0.196 C 
BRANCH  36  37
HETATM   37  O5  UNL     1     -33.421  -9.865  -6.581  1.00  0.00    -0.344 OA
ATOM     38  H5  UNL     1     -33.074 -10.113  -7.430  1.00  0.00     0.219 HD
ENDBRANCH  36  37
BRANCH  36  39
HETATM   39  C9  UNL     1     -32.658  -7.982  -5.496  1.00  0.00     0.332 C 
BRANCH  39  40
HETATM   40  O6  UNL     1     -31.601  -7.150  -5.638  1.00  0.00    -0.364 OA
ATOM     41  H6  UNL     1     -31.678  -6.338  -6.125  1.00  0.00     0.213 HD
ENDBRANCH  39  40
BRANCH  39  42
HETATM   42  O7  UNL     1     -33.175  -7.754  -4.198  1.00  0.00    -0.364 OA
ATOM     43  H7  UNL     1     -33.840  -7.076  -4.228  1.00  0.00     0.213 HD
ENDBRANCH  39  42
ENDBRANCH  36  39
ENDBRANCH  32  36
BRANCH  34  44
HETATM   44  O8  UNL     1     -30.282  -9.175  -3.544  1.00  0.00    -0.343 OA
ATOM     45  H8  UNL     1     -29.430  -8.759  -3.476  1.00  0.00     0.219 HD
ENDBRANCH  34  44
BRANCH  35  46
HETATM   46  O9  UNL     1     -28.994 -11.770  -3.239  1.00  0.00    -0.355 OA
ATOM     47  H9  UNL     1     -28.922 -12.471  -2.603  1.00  0.00     0.218 HD
ENDBRANCH  35  46
ENDBRANCH   1  30
TORSDOF 18
ENDMDL
