MODEL 1
REMARK VINA RESULT: -8.506428315      0.000      0.000
REMARK  17 active torsions:
REMARK  status: ('A' for Active; 'I' for Inactive)
REMARK    1  A    between atoms: N1_1  and  C1_4 
REMARK    2  A    between atoms: C3_11  and  S1_12 
REMARK    3  A    between atoms: S1_12  and  C4_13 
REMARK    4  A    between atoms: C4_13  and  C5_14 
REMARK    5  A    between atoms: C5_14  and  O2_15 
REMARK    6  A    between atoms: O2_15  and  N4_16 
REMARK    7  A    between atoms: N4_16  and  C6_17 
REMARK    8  A    between atoms: C8_19  and  O3_20 
REMARK    9  A    between atoms: C10_24  and  N6_25 
REMARK   10  A    between atoms: N6_25  and  C11_27 
REMARK   11  A    between atoms: C11_27  and  O4_28 
REMARK   12  A    between atoms: C11_27  and  C12_30 
REMARK   13  A    between atoms: C12_30  and  O5_31 
REMARK   14  A    between atoms: C12_30  and  O6_33 
REMARK   15  A    between atoms: O6_33  and  N7_34 
REMARK   16  A    between atoms: C13_37  and  O7_38 
REMARK   17  A    between atoms: N10_46  and  N11_47 
ROOT
HETATM    1  C6  UNL     1     -29.327 -13.011  -4.748  1.00  0.00     0.162 C 
HETATM    2  C7  UNL     1     -29.975 -11.749  -5.321  1.00  0.00     0.072 A 
HETATM    3  C8  UNL     1     -29.576 -10.769  -6.175  1.00  0.00     0.108 A 
HETATM    4  C9  UNL     1     -30.482  -9.767  -6.543  1.00  0.00     0.109 A 
HETATM    5  N5  UNL     1     -30.061  -8.753  -7.430  1.00  0.00    -0.097 NA
HETATM    6  C10 UNL     1     -31.792  -9.757  -6.047  1.00  0.00     0.093 A 
HETATM    7  C13 UNL     1     -32.170 -10.754  -5.184  1.00  0.00     0.123 A 
HETATM    8  C14 UNL     1     -31.286 -11.755  -4.808  1.00  0.00     0.103 A 
HETATM    9  N8  UNL     1     -31.405 -12.899  -3.951  1.00  0.00    -0.272 N 
HETATM   10  N9  UNL     1     -31.671 -14.000  -3.178  1.00  0.00    -0.309 N 
ATOM     11  H9  UNL     1     -32.527 -14.532  -3.020  1.00  0.00     0.186 HD
HETATM   12  C15 UNL     1     -30.479 -14.136  -2.720  1.00  0.00     0.115 A 
HETATM   13  C16 UNL     1     -30.004 -13.026  -3.417  1.00  0.00     0.216 A 
ENDROOT
BRANCH   1  14
HETATM   14  N4  UNL     1     -28.561 -13.668  -5.362  1.00  0.00    -0.282 NA
BRANCH  14  15
HETATM   15  O2  UNL     1     -27.741 -14.361  -6.018  1.00  0.00    -0.208 OA
BRANCH  15  16
HETATM   16  C5  UNL     1     -26.332 -14.235  -5.853  1.00  0.00     0.228 C 
BRANCH  16  17
HETATM   17  C4  UNL     1     -25.720 -12.982  -6.323  1.00  0.00     0.112 C 
BRANCH  17  18
HETATM   18  S1  UNL     1     -25.006 -11.908  -5.115  1.00  0.00    -0.089 SA
BRANCH  18  19
HETATM   19  C3  UNL     1     -25.489 -10.218  -5.156  1.00  0.00     0.187 A 
HETATM   20  N3  UNL     1     -24.917  -9.347  -6.000  1.00  0.00    -0.286 N 
HETATM   21  C2  UNL     1     -25.306  -8.055  -5.985  1.00  0.00     0.340 A 
ATOM     22  H3  UNL     1     -24.194  -9.658  -6.648  1.00  0.00     0.172 HD
HETATM   23  N2  UNL     1     -26.260  -7.646  -5.129  1.00  0.00    -0.140 N 
HETATM   24  O1  UNL     1     -24.775  -7.227  -6.773  1.00  0.00    -0.246 OA
HETATM   25  C1  UNL     1     -26.851  -8.498  -4.276  1.00  0.00     0.703 A 
ATOM     26  H2  UNL     1     -26.542  -6.666  -5.129  1.00  0.00     0.189 HD
HETATM   27  N10 UNL     1     -26.445  -9.790  -4.307  1.00  0.00    -0.070 N 
BRANCH  25  28
HETATM   28  N1  UNL     1     -27.754  -8.058  -3.478  1.00  0.00    -0.233 N 
ATOM     29  H12 UNL     1     -27.549  -7.659  -2.562  1.00  0.00     0.174 HD
ATOM     30  H11 UNL     1     -28.732  -8.101  -3.763  1.00  0.00     0.174 HD
ENDBRANCH  25  28
BRANCH  27  31
HETATM   31  N11 UNL     1     -27.037 -10.724  -3.449  1.00  0.00    -0.322 N 
ATOM     32 2H11 UNL     1     -27.637 -10.379  -2.699  1.00  0.00     0.178 HD
ATOM     33 1H11 UNL     1     -26.853 -11.719  -3.579  1.00  0.00     0.178 HD
ENDBRANCH  27  31
ENDBRANCH  18  19
ENDBRANCH  17  18
ENDBRANCH  16  17
ENDBRANCH  15  16
ENDBRANCH  14  15
ENDBRANCH   1  14
BRANCH   3  34
HETATM   34  O3  UNL     1     -28.289 -10.770  -6.667  1.00  0.00    -0.358 OA
ATOM     35  H3  UNL     1     -28.127 -10.511  -7.566  1.00  0.00     0.217 HD
ENDBRANCH   3  34
BRANCH   7  36
HETATM   36  O7  UNL     1     -33.425 -10.810  -4.663  1.00  0.00    -0.356 OA
ATOM     37  H7  UNL     1     -33.578 -10.798  -3.725  1.00  0.00     0.218 HD
ENDBRANCH   7  36
BRANCH   6  38
HETATM   38  N6  UNL     1     -32.671  -8.767  -6.484  1.00  0.00    -0.356 N 
ATOM     39  H6  UNL     1     -33.281  -9.038  -7.255  1.00  0.00     0.162 HD
BRANCH  38  40
HETATM   40  C11 UNL     1     -32.845  -7.432  -6.015  1.00  0.00     0.276 C 
BRANCH  40  41
HETATM   41  O4  UNL     1     -31.563  -6.994  -5.528  1.00  0.00    -0.372 OA
ATOM     42  H4  UNL     1     -31.437  -6.108  -5.849  1.00  0.00     0.212 HD
ENDBRANCH  40  41
BRANCH  40  43
HETATM   43  C12 UNL     1     -33.720  -7.449  -4.787  1.00  0.00     0.334 C 
BRANCH  43  44
HETATM   44  O5  UNL     1     -34.755  -8.393  -4.910  1.00  0.00    -0.365 OA
ATOM     45  H5  UNL     1     -35.442  -8.239  -4.271  1.00  0.00     0.212 HD
ENDBRANCH  43  44
BRANCH  43  46
HETATM   46  O6  UNL     1     -34.283  -6.159  -4.676  1.00  0.00    -0.250 OA
BRANCH  46  47
HETATM   47  N7  UNL     1     -33.432  -5.192  -5.088  1.00  0.00    -0.308 N 
ATOM     48  H72 UNL     1     -32.485  -5.386  -5.413  1.00  0.00     0.184 HD
ATOM     49  H71 UNL     1     -33.848  -4.263  -5.034  1.00  0.00     0.184 HD
ENDBRANCH  46  47
ENDBRANCH  43  46
ENDBRANCH  40  43
ENDBRANCH  38  40
ENDBRANCH   6  38
TORSDOF 17
ENDMDL
MODEL 2
REMARK VINA RESULT: -8.460459869      1.771      2.332
REMARK  17 active torsions:
REMARK  status: ('A' for Active; 'I' for Inactive)
REMARK    1  A    between atoms: N1_1  and  C1_4 
REMARK    2  A    between atoms: C3_11  and  S1_12 
REMARK    3  A    between atoms: S1_12  and  C4_13 
REMARK    4  A    between atoms: C4_13  and  C5_14 
REMARK    5  A    between atoms: C5_14  and  O2_15 
REMARK    6  A    between atoms: O2_15  and  N4_16 
REMARK    7  A    between atoms: N4_16  and  C6_17 
REMARK    8  A    between atoms: C8_19  and  O3_20 
REMARK    9  A    between atoms: C10_24  and  N6_25 
REMARK   10  A    between atoms: N6_25  and  C11_27 
REMARK   11  A    between atoms: C11_27  and  O4_28 
REMARK   12  A    between atoms: C11_27  and  C12_30 
REMARK   13  A    between atoms: C12_30  and  O5_31 
REMARK   14  A    between atoms: C12_30  and  O6_33 
REMARK   15  A    between atoms: O6_33  and  N7_34 
REMARK   16  A    between atoms: C13_37  and  O7_38 
REMARK   17  A    between atoms: N10_46  and  N11_47 
ROOT
HETATM    1  C6  UNL     1     -28.439 -12.666  -3.748  1.00  0.00     0.162 C 
HETATM    2  C7  UNL     1     -29.125 -11.572  -4.569  1.00  0.00     0.072 A 
HETATM    3  C8  UNL     1     -28.694 -10.530  -5.329  1.00  0.00     0.108 A 
HETATM    4  C9  UNL     1     -29.631  -9.746  -6.015  1.00  0.00     0.109 A 
HETATM    5  N5  UNL     1     -29.176  -8.667  -6.802  1.00  0.00    -0.097 NA
HETATM    6  C10 UNL     1     -31.002 -10.015  -5.930  1.00  0.00     0.093 A 
HETATM    7  C13 UNL     1     -31.413 -11.070  -5.154  1.00  0.00     0.123 A 
HETATM    8  C14 UNL     1     -30.500 -11.858  -4.468  1.00  0.00     0.103 A 
HETATM    9  N8  UNL     1     -30.638 -12.999  -3.611  1.00  0.00    -0.272 N 
HETATM   10  N9  UNL     1     -30.896 -14.131  -2.880  1.00  0.00    -0.309 N 
ATOM     11  H9  UNL     1     -31.632 -14.834  -2.948  1.00  0.00     0.186 HD
HETATM   12  C15 UNL     1     -29.897 -14.009  -2.082  1.00  0.00     0.115 A 
HETATM   13  C16 UNL     1     -29.470 -12.824  -2.679  1.00  0.00     0.216 A 
ENDROOT
BRANCH   1  14
HETATM   14  N4  UNL     1     -27.406 -13.144  -4.063  1.00  0.00    -0.282 NA
BRANCH  14  15
HETATM   15  O2  UNL     1     -26.308 -13.660  -4.399  1.00  0.00    -0.208 OA
BRANCH  15  16
HETATM   16  C5  UNL     1     -25.685 -13.379  -5.647  1.00  0.00     0.228 C 
BRANCH  16  17
HETATM   17  C4  UNL     1     -24.353 -12.757  -5.598  1.00  0.00     0.112 C 
BRANCH  17  18
HETATM   18  S1  UNL     1     -24.100 -11.438  -4.449  1.00  0.00    -0.089 SA
BRANCH  18  19
HETATM   19  C3  UNL     1     -23.567  -9.895  -5.101  1.00  0.00     0.187 A 
HETATM   20  N3  UNL     1     -24.412  -9.075  -5.741  1.00  0.00    -0.286 N 
HETATM   21  C2  UNL     1     -23.957  -7.909  -6.242  1.00  0.00     0.340 A 
ATOM     22  H3  UNL     1     -25.394  -9.331  -5.848  1.00  0.00     0.172 HD
HETATM   23  N2  UNL     1     -22.661  -7.572  -6.099  1.00  0.00    -0.140 N 
HETATM   24  O1  UNL     1     -24.743  -7.130  -6.846  1.00  0.00    -0.246 OA
HETATM   25  C1  UNL     1     -21.793  -8.374  -5.461  1.00  0.00     0.703 A 
ATOM     26  H2  UNL     1     -22.331  -6.688  -6.485  1.00  0.00     0.189 HD
HETATM   27  N10 UNL     1     -22.273  -9.540  -4.966  1.00  0.00    -0.070 N 
BRANCH  25  28
HETATM   28  N1  UNL     1     -20.569  -8.009  -5.354  1.00  0.00    -0.233 N 
ATOM     29  H12 UNL     1     -20.118  -7.354  -5.993  1.00  0.00     0.174 HD
ATOM     30  H11 UNL     1     -20.004  -8.383  -4.592  1.00  0.00     0.174 HD
ENDBRANCH  25  28
BRANCH  27  31
HETATM   31  N11 UNL     1     -21.414 -10.407  -4.280  1.00  0.00    -0.322 N 
ATOM     32 2H11 UNL     1     -20.418 -10.371  -4.494  1.00  0.00     0.178 HD
ATOM     33 1H11 UNL     1     -21.797 -11.057  -3.593  1.00  0.00     0.178 HD
ENDBRANCH  27  31
ENDBRANCH  18  19
ENDBRANCH  17  18
ENDBRANCH  16  17
ENDBRANCH  15  16
ENDBRANCH  14  15
ENDBRANCH   1  14
BRANCH   3  34
HETATM   34  O3  UNL     1     -27.347 -10.257  -5.417  1.00  0.00    -0.358 OA
ATOM     35  H3  UNL     1     -26.866 -10.000  -4.639  1.00  0.00     0.217 HD
ENDBRANCH   3  34
BRANCH   7  36
HETATM   36  O7  UNL     1     -32.728 -11.393  -5.025  1.00  0.00    -0.356 OA
ATOM     37  H7  UNL     1     -33.124 -11.543  -4.175  1.00  0.00     0.218 HD
ENDBRANCH   7  36
BRANCH   6  38
HETATM   38  N6  UNL     1     -31.890  -9.237  -6.672  1.00  0.00    -0.356 N 
ATOM     39  H6  UNL     1     -32.053  -9.557  -7.627  1.00  0.00     0.162 HD
BRANCH  38  40
HETATM   40  C11 UNL     1     -32.603  -8.062  -6.296  1.00  0.00     0.276 C 
BRANCH  40  41
HETATM   41  O4  UNL     1     -31.693  -7.252  -5.530  1.00  0.00    -0.372 OA
ATOM     42  H4  UNL     1     -31.805  -6.357  -5.828  1.00  0.00     0.212 HD
ENDBRANCH  40  41
BRANCH  40  43
HETATM   43  C12 UNL     1     -33.685  -8.432  -5.313  1.00  0.00     0.334 C 
BRANCH  43  44
HETATM   44  O5  UNL     1     -34.951  -8.439  -5.924  1.00  0.00    -0.365 OA
ATOM     45  H5  UNL     1     -35.364  -7.584  -5.873  1.00  0.00     0.212 HD
ENDBRANCH  43  44
BRANCH  43  46
HETATM   46  O6  UNL     1     -33.665  -7.446  -4.302  1.00  0.00    -0.250 OA
BRANCH  46  47
HETATM   47  N7  UNL     1     -34.384  -6.352  -4.641  1.00  0.00    -0.308 N 
ATOM     48  H72 UNL     1     -34.465  -6.014  -5.599  1.00  0.00     0.184 HD
ATOM     49  H71 UNL     1     -34.827  -5.916  -3.832  1.00  0.00     0.184 HD
ENDBRANCH  46  47
ENDBRANCH  43  46
ENDBRANCH  40  43
ENDBRANCH  38  40
ENDBRANCH   6  38
TORSDOF 17
ENDMDL
MODEL 3
REMARK VINA RESULT: -8.381031706      1.067      1.695
REMARK  17 active torsions:
REMARK  status: ('A' for Active; 'I' for Inactive)
REMARK    1  A    between atoms: N1_1  and  C1_4 
REMARK    2  A    between atoms: C3_11  and  S1_12 
REMARK    3  A    between atoms: S1_12  and  C4_13 
REMARK    4  A    between atoms: C4_13  and  C5_14 
REMARK    5  A    between atoms: C5_14  and  O2_15 
REMARK    6  A    between atoms: O2_15  and  N4_16 
REMARK    7  A    between atoms: N4_16  and  C6_17 
REMARK    8  A    between atoms: C8_19  and  O3_20 
REMARK    9  A    between atoms: C10_24  and  N6_25 
REMARK   10  A    between atoms: N6_25  and  C11_27 
REMARK   11  A    between atoms: C11_27  and  O4_28 
REMARK   12  A    between atoms: C11_27  and  C12_30 
REMARK   13  A    between atoms: C12_30  and  O5_31 
REMARK   14  A    between atoms: C12_30  and  O6_33 
REMARK   15  A    between atoms: O6_33  and  N7_34 
REMARK   16  A    between atoms: C13_37  and  O7_38 
REMARK   17  A    between atoms: N10_46  and  N11_47 
ROOT
HETATM    1  C6  UNL     1     -28.984 -13.018  -4.725  1.00  0.00     0.162 C 
HETATM    2  C7  UNL     1     -29.641 -11.826  -5.424  1.00  0.00     0.072 A 
HETATM    3  C8  UNL     1     -29.261 -10.955  -6.397  1.00  0.00     0.108 A 
HETATM    4  C9  UNL     1     -30.172  -9.995  -6.856  1.00  0.00     0.109 A 
HETATM    5  N5  UNL     1     -29.770  -9.096  -7.866  1.00  0.00    -0.097 NA
HETATM    6  C10 UNL     1     -31.467  -9.917  -6.329  1.00  0.00     0.093 A 
HETATM    7  C13 UNL     1     -31.827 -10.804  -5.346  1.00  0.00     0.123 A 
HETATM    8  C14 UNL     1     -30.937 -11.761  -4.879  1.00  0.00     0.103 A 
HETATM    9  N8  UNL     1     -31.039 -12.795  -3.891  1.00  0.00    -0.272 N 
HETATM   10  N9  UNL     1     -31.289 -13.797  -2.988  1.00  0.00    -0.309 N 
ATOM     11  H9  UNL     1     -32.143 -14.299  -2.746  1.00  0.00     0.186 HD
HETATM   12  C15 UNL     1     -30.086 -13.889  -2.549  1.00  0.00     0.115 A 
HETATM   13  C16 UNL     1     -29.625 -12.871  -3.384  1.00  0.00     0.216 A 
ENDROOT
BRANCH   1  14
HETATM   14  N4  UNL     1     -28.238 -13.748  -5.278  1.00  0.00    -0.282 NA
BRANCH  14  15
HETATM   15  O2  UNL     1     -27.449 -14.530  -5.868  1.00  0.00    -0.208 OA
BRANCH  15  16
HETATM   16  C5  UNL     1     -26.044 -14.307  -5.909  1.00  0.00     0.228 C 
BRANCH  16  17
HETATM   17  C4  UNL     1     -25.467 -13.508  -4.817  1.00  0.00     0.112 C 
BRANCH  17  18
HETATM   18  S1  UNL     1     -24.347 -12.211  -5.245  1.00  0.00    -0.089 SA
BRANCH  18  19
HETATM   19  C3  UNL     1     -24.977 -10.570  -5.239  1.00  0.00     0.187 A 
HETATM   20  N3  UNL     1     -26.149 -10.272  -4.660  1.00  0.00    -0.286 N 
HETATM   21  C2  UNL     1     -26.604  -9.002  -4.694  1.00  0.00     0.340 A 
ATOM     22  H3  UNL     1     -26.693 -10.999  -4.196  1.00  0.00     0.172 HD
HETATM   23  N2  UNL     1     -25.885  -8.044  -5.307  1.00  0.00    -0.140 N 
HETATM   24  O1  UNL     1     -27.705  -8.711  -4.153  1.00  0.00    -0.246 OA
HETATM   25  C1  UNL     1     -24.708  -8.314  -5.893  1.00  0.00     0.703 A 
ATOM     26  H2  UNL     1     -26.243  -7.089  -5.327  1.00  0.00     0.189 HD
HETATM   27  N10 UNL     1     -24.270  -9.595  -5.846  1.00  0.00    -0.070 N 
BRANCH  25  28
HETATM   28  N1  UNL     1     -24.062  -7.366  -6.466  1.00  0.00    -0.233 N 
ATOM     29  H12 UNL     1     -24.343  -6.386  -6.422  1.00  0.00     0.174 HD
ATOM     30  H11 UNL     1     -23.220  -7.588  -6.996  1.00  0.00     0.174 HD
ENDBRANCH  25  28
BRANCH  27  31
HETATM   31  N11 UNL     1     -23.043  -9.930  -6.429  1.00  0.00    -0.322 N 
ATOM     32 2H11 UNL     1     -22.852  -9.604  -7.377  1.00  0.00     0.178 HD
ATOM     33 1H11 UNL     1     -22.373 -10.496  -5.907  1.00  0.00     0.178 HD
ENDBRANCH  27  31
ENDBRANCH  18  19
ENDBRANCH  17  18
ENDBRANCH  16  17
ENDBRANCH  15  16
ENDBRANCH  14  15
ENDBRANCH   1  14
BRANCH   3  34
HETATM   34  O3  UNL     1     -27.988 -11.025  -6.919  1.00  0.00    -0.358 OA
ATOM     35  H3  UNL     1     -27.555 -10.233  -7.217  1.00  0.00     0.217 HD
ENDBRANCH   3  34
BRANCH   7  36
HETATM   36  O7  UNL     1     -33.067 -10.788  -4.788  1.00  0.00    -0.356 OA
ATOM     37  H7  UNL     1     -33.374 -10.050  -4.274  1.00  0.00     0.218 HD
ENDBRANCH   7  36
BRANCH   6  38
HETATM   38  N6  UNL     1     -32.353  -8.977  -6.855  1.00  0.00    -0.356 N 
ATOM     39  H6  UNL     1     -32.938  -9.313  -7.621  1.00  0.00     0.162 HD
BRANCH  38  40
HETATM   40  C11 UNL     1     -32.564  -7.617  -6.484  1.00  0.00     0.276 C 
BRANCH  40  41
HETATM   41  O4  UNL     1     -31.262  -7.024  -6.327  1.00  0.00    -0.372 OA
ATOM     42  H4  UNL     1     -31.368  -6.090  -6.468  1.00  0.00     0.212 HD
ENDBRANCH  40  41
BRANCH  40  43
HETATM   43  C12 UNL     1     -33.161  -7.569  -5.100  1.00  0.00     0.334 C 
BRANCH  43  44
HETATM   44  O5  UNL     1     -34.453  -8.124  -5.080  1.00  0.00    -0.365 OA
ATOM     45  H5  UNL     1     -35.081  -7.526  -4.692  1.00  0.00     0.212 HD
ENDBRANCH  43  44
BRANCH  43  46
HETATM   46  O6  UNL     1     -33.239  -6.205  -4.742  1.00  0.00    -0.250 OA
BRANCH  46  47
HETATM   47  N7  UNL     1     -34.513  -5.751  -4.730  1.00  0.00    -0.308 N 
ATOM     48  H72 UNL     1     -35.322  -6.368  -4.670  1.00  0.00     0.184 HD
ATOM     49  H71 UNL     1     -34.561  -4.734  -4.786  1.00  0.00     0.184 HD
ENDBRANCH  46  47
ENDBRANCH  43  46
ENDBRANCH  40  43
ENDBRANCH  38  40
ENDBRANCH   6  38
TORSDOF 17
ENDMDL
MODEL 4
REMARK VINA RESULT: -8.318844953      2.495      3.058
REMARK  17 active torsions:
REMARK  status: ('A' for Active; 'I' for Inactive)
REMARK    1  A    between atoms: N1_1  and  C1_4 
REMARK    2  A    between atoms: C3_11  and  S1_12 
REMARK    3  A    between atoms: S1_12  and  C4_13 
REMARK    4  A    between atoms: C4_13  and  C5_14 
REMARK    5  A    between atoms: C5_14  and  O2_15 
REMARK    6  A    between atoms: O2_15  and  N4_16 
REMARK    7  A    between atoms: N4_16  and  C6_17 
REMARK    8  A    between atoms: C8_19  and  O3_20 
REMARK    9  A    between atoms: C10_24  and  N6_25 
REMARK   10  A    between atoms: N6_25  and  C11_27 
REMARK   11  A    between atoms: C11_27  and  O4_28 
REMARK   12  A    between atoms: C11_27  and  C12_30 
REMARK   13  A    between atoms: C12_30  and  O5_31 
REMARK   14  A    between atoms: C12_30  and  O6_33 
REMARK   15  A    between atoms: O6_33  and  N7_34 
REMARK   16  A    between atoms: C13_37  and  O7_38 
REMARK   17  A    between atoms: N10_46  and  N11_47 
ROOT
HETATM    1  C6  UNL     1     -28.526 -12.680  -3.742  1.00  0.00     0.162 C 
HETATM    2  C7  UNL     1     -29.197 -11.575  -4.561  1.00  0.00     0.072 A 
HETATM    3  C8  UNL     1     -28.753 -10.522  -5.298  1.00  0.00     0.108 A 
HETATM    4  C9  UNL     1     -29.677  -9.729  -5.990  1.00  0.00     0.109 A 
HETATM    5  N5  UNL     1     -29.208  -8.638  -6.753  1.00  0.00    -0.097 NA
HETATM    6  C10 UNL     1     -31.049 -10.000  -5.935  1.00  0.00     0.093 A 
HETATM    7  C13 UNL     1     -31.474 -11.066  -5.182  1.00  0.00     0.123 A 
HETATM    8  C14 UNL     1     -30.573 -11.863  -4.490  1.00  0.00     0.103 A 
HETATM    9  N8  UNL     1     -30.727 -13.017  -3.652  1.00  0.00    -0.272 N 
HETATM   10  N9  UNL     1     -30.998 -14.159  -2.942  1.00  0.00    -0.309 N 
ATOM     11  H9  UNL     1     -31.732 -14.860  -3.034  1.00  0.00     0.186 HD
HETATM   12  C15 UNL     1     -30.014 -14.047  -2.124  1.00  0.00     0.115 A 
HETATM   13  C16 UNL     1     -29.577 -12.853  -2.696  1.00  0.00     0.216 A 
ENDROOT
BRANCH   1  14
HETATM   14  N4  UNL     1     -27.487 -13.153  -4.044  1.00  0.00    -0.282 NA
BRANCH  14  15
HETATM   15  O2  UNL     1     -26.377 -13.650  -4.367  1.00  0.00    -0.208 OA
BRANCH  15  16
HETATM   16  C5  UNL     1     -25.272 -12.849  -4.772  1.00  0.00     0.228 C 
BRANCH  16  17
HETATM   17  C4  UNL     1     -25.088 -12.656  -6.219  1.00  0.00     0.112 C 
BRANCH  17  18
HETATM   18  S1  UNL     1     -24.177 -11.239  -6.754  1.00  0.00    -0.089 SA
BRANCH  18  19
HETATM   19  C3  UNL     1     -22.659 -10.903  -5.934  1.00  0.00     0.187 A 
HETATM   20  N3  UNL     1     -21.848 -11.891  -5.528  1.00  0.00    -0.286 N 
HETATM   21  C2  UNL     1     -20.701 -11.588  -4.886  1.00  0.00     0.340 A 
ATOM     22  H3  UNL     1     -22.096 -12.864  -5.704  1.00  0.00     0.172 HD
HETATM   23  N2  UNL     1     -20.375 -10.303  -4.655  1.00  0.00    -0.140 N 
HETATM   24  O1  UNL     1     -19.931 -12.509  -4.500  1.00  0.00    -0.246 OA
HETATM   25  C1  UNL     1     -21.167  -9.294  -5.052  1.00  0.00     0.703 A 
ATOM     26  H2  UNL     1     -19.505 -10.090  -4.167  1.00  0.00     0.189 HD
HETATM   27  N10 UNL     1     -22.314  -9.621  -5.695  1.00  0.00    -0.070 N 
BRANCH  25  28
HETATM   28  N1  UNL     1     -20.813  -8.087  -4.806  1.00  0.00    -0.233 N 
ATOM     29  H12 UNL     1     -20.028  -7.842  -4.202  1.00  0.00     0.174 HD
ATOM     30  H11 UNL     1     -21.333  -7.320  -5.232  1.00  0.00     0.174 HD
ENDBRANCH  25  28
BRANCH  27  31
HETATM   31  N11 UNL     1     -23.170  -8.609  -6.143  1.00  0.00    -0.322 N 
ATOM     32 2H11 UNL     1     -22.808  -7.930  -6.813  1.00  0.00     0.178 HD
ATOM     33 1H11 UNL     1     -24.126  -8.562  -5.789  1.00  0.00     0.178 HD
ENDBRANCH  27  31
ENDBRANCH  18  19
ENDBRANCH  17  18
ENDBRANCH  16  17
ENDBRANCH  15  16
ENDBRANCH  14  15
ENDBRANCH   1  14
BRANCH   3  34
HETATM   34  O3  UNL     1     -27.405 -10.247  -5.356  1.00  0.00    -0.358 OA
ATOM     35  H3  UNL     1     -27.042  -9.547  -4.826  1.00  0.00     0.217 HD
ENDBRANCH   3  34
BRANCH   7  36
HETATM   36  O7  UNL     1     -32.791 -11.391  -5.083  1.00  0.00    -0.356 OA
ATOM     37  H7  UNL     1     -33.080 -12.295  -5.037  1.00  0.00     0.218 HD
ENDBRANCH   7  36
BRANCH   6  38
HETATM   38  N6  UNL     1     -31.923  -9.212  -6.683  1.00  0.00    -0.356 N 
ATOM     39  H6  UNL     1     -32.070  -9.520  -7.645  1.00  0.00     0.162 HD
BRANCH  38  40
HETATM   40  C11 UNL     1     -32.643  -8.042  -6.305  1.00  0.00     0.276 C 
BRANCH  40  41
HETATM   41  O4  UNL     1     -31.733  -7.222  -5.547  1.00  0.00    -0.372 OA
ATOM     42  H4  UNL     1     -32.204  -6.428  -5.322  1.00  0.00     0.212 HD
ENDBRANCH  40  41
BRANCH  40  43
HETATM   43  C12 UNL     1     -33.715  -8.418  -5.313  1.00  0.00     0.334 C 
BRANCH  43  44
HETATM   44  O5  UNL     1     -34.986  -8.426  -5.912  1.00  0.00    -0.365 OA
ATOM     45  H5  UNL     1     -35.426  -7.591  -5.804  1.00  0.00     0.212 HD
ENDBRANCH  43  44
BRANCH  43  46
HETATM   46  O6  UNL     1     -33.688  -7.434  -4.300  1.00  0.00    -0.250 OA
BRANCH  46  47
HETATM   47  N7  UNL     1     -34.396  -6.332  -4.638  1.00  0.00    -0.308 N 
ATOM     48  H72 UNL     1     -35.385  -6.218  -4.418  1.00  0.00     0.184 HD
ATOM     49  H71 UNL     1     -33.827  -5.644  -5.130  1.00  0.00     0.184 HD
ENDBRANCH  46  47
ENDBRANCH  43  46
ENDBRANCH  40  43
ENDBRANCH  38  40
ENDBRANCH   6  38
TORSDOF 17
ENDMDL
MODEL 5
REMARK VINA RESULT: -8.268775472      1.903      2.393
REMARK  17 active torsions:
REMARK  status: ('A' for Active; 'I' for Inactive)
REMARK    1  A    between atoms: N1_1  and  C1_4 
REMARK    2  A    between atoms: C3_11  and  S1_12 
REMARK    3  A    between atoms: S1_12  and  C4_13 
REMARK    4  A    between atoms: C4_13  and  C5_14 
REMARK    5  A    between atoms: C5_14  and  O2_15 
REMARK    6  A    between atoms: O2_15  and  N4_16 
REMARK    7  A    between atoms: N4_16  and  C6_17 
REMARK    8  A    between atoms: C8_19  and  O3_20 
REMARK    9  A    between atoms: C10_24  and  N6_25 
REMARK   10  A    between atoms: N6_25  and  C11_27 
REMARK   11  A    between atoms: C11_27  and  O4_28 
REMARK   12  A    between atoms: C11_27  and  C12_30 
REMARK   13  A    between atoms: C12_30  and  O5_31 
REMARK   14  A    between atoms: C12_30  and  O6_33 
REMARK   15  A    between atoms: O6_33  and  N7_34 
REMARK   16  A    between atoms: C13_37  and  O7_38 
REMARK   17  A    between atoms: N10_46  and  N11_47 
ROOT
HETATM    1  C6  UNL     1     -29.151 -13.795  -5.390  1.00  0.00     0.162 C 
HETATM    2  C7  UNL     1     -29.655 -12.408  -4.985  1.00  0.00     0.072 A 
HETATM    3  C8  UNL     1     -29.088 -11.305  -4.428  1.00  0.00     0.108 A 
HETATM    4  C9  UNL     1     -29.859 -10.149  -4.253  1.00  0.00     0.109 A 
HETATM    5  N5  UNL     1     -29.263  -9.008  -3.675  1.00  0.00    -0.097 NA
HETATM    6  C10 UNL     1     -31.204 -10.110  -4.640  1.00  0.00     0.093 A 
HETATM    7  C13 UNL     1     -31.756 -11.237  -5.197  1.00  0.00     0.123 A 
HETATM    8  C14 UNL     1     -31.007 -12.390  -5.378  1.00  0.00     0.103 A 
HETATM    9  N8  UNL     1     -31.310 -13.680  -5.927  1.00  0.00    -0.272 N 
HETATM   10  N9  UNL     1     -31.701 -14.839  -6.550  1.00  0.00    -0.309 N 
ATOM     11  H9  UNL     1     -32.380 -15.020  -7.288  1.00  0.00     0.186 HD
HETATM   12  C15 UNL     1     -30.920 -15.617  -5.890  1.00  0.00     0.115 A 
HETATM   13  C16 UNL     1     -30.399 -14.572  -5.129  1.00  0.00     0.216 A 
ENDROOT
BRANCH   1  14
HETATM   14  N4  UNL     1     -28.059 -13.979  -5.803  1.00  0.00    -0.282 NA
BRANCH  14  15
HETATM   15  O2  UNL     1     -26.898 -14.169  -6.248  1.00  0.00    -0.208 OA
BRANCH  15  16
HETATM   16  C5  UNL     1     -25.774 -14.349  -5.393  1.00  0.00     0.228 C 
BRANCH  16  17
HETATM   17  C4  UNL     1     -24.896 -13.185  -5.199  1.00  0.00     0.112 C 
BRANCH  17  18
HETATM   18  S1  UNL     1     -24.759 -12.025  -6.525  1.00  0.00    -0.089 SA
BRANCH  18  19
HETATM   19  C3  UNL     1     -25.994 -10.777  -6.632  1.00  0.00     0.187 A 
HETATM   20  N3  UNL     1     -27.150 -10.989  -7.277  1.00  0.00    -0.286 N 
HETATM   21  C2  UNL     1     -28.062  -9.998  -7.350  1.00  0.00     0.340 A 
ATOM     22  H3  UNL     1     -27.339 -11.893  -7.708  1.00  0.00     0.172 HD
HETATM   23  N2  UNL     1     -27.811  -8.806  -6.779  1.00  0.00    -0.140 N 
HETATM   24  O1  UNL     1     -29.152 -10.187  -7.954  1.00  0.00    -0.246 OA
HETATM   25  C1  UNL     1     -26.662  -8.567  -6.125  1.00  0.00     0.703 A 
ATOM     26  H2  UNL     1     -28.509  -8.065  -6.844  1.00  0.00     0.189 HD
HETATM   27  N10 UNL     1     -25.761  -9.576  -6.065  1.00  0.00    -0.070 N 
BRANCH  25  28
HETATM   28  N1  UNL     1     -26.470  -7.413  -5.601  1.00  0.00    -0.233 N 
ATOM     29  H12 UNL     1     -26.154  -6.599  -6.130  1.00  0.00     0.174 HD
ATOM     30  H11 UNL     1     -26.641  -7.285  -4.604  1.00  0.00     0.174 HD
ENDBRANCH  25  28
BRANCH  27  31
HETATM   31  N11 UNL     1     -24.553  -9.386  -5.384  1.00  0.00    -0.322 N 
ATOM     32 2H11 UNL     1     -24.477  -8.595  -4.744  1.00  0.00     0.178 HD
ATOM     33 1H11 UNL     1     -23.776 -10.028  -5.544  1.00  0.00     0.178 HD
ENDBRANCH  27  31
ENDBRANCH  18  19
ENDBRANCH  17  18
ENDBRANCH  16  17
ENDBRANCH  15  16
ENDBRANCH  14  15
ENDBRANCH   1  14
BRANCH   3  34
HETATM   34  O3  UNL     1     -27.766 -11.335  -4.043  1.00  0.00    -0.358 OA
ATOM     35  H3  UNL     1     -27.324 -10.528  -3.806  1.00  0.00     0.217 HD
ENDBRANCH   3  34
BRANCH   7  36
HETATM   36  O7  UNL     1     -33.055 -11.273  -5.598  1.00  0.00    -0.356 OA
ATOM     37  H7  UNL     1     -33.400 -11.997  -6.108  1.00  0.00     0.218 HD
ENDBRANCH   7  36
BRANCH   6  38
HETATM   38  N6  UNL     1     -31.915  -8.920  -4.492  1.00  0.00    -0.356 N 
ATOM     39  H6  UNL     1     -32.113  -8.650  -3.527  1.00  0.00     0.162 HD
BRANCH  38  40
HETATM   40  C11 UNL     1     -32.407  -8.023  -5.484  1.00  0.00     0.276 C 
BRANCH  40  41
HETATM   41  O4  UNL     1     -31.663  -6.798  -5.340  1.00  0.00    -0.372 OA
ATOM     42  H4  UNL     1     -31.691  -6.361  -6.183  1.00  0.00     0.212 HD
ENDBRANCH  40  41
BRANCH  40  43
HETATM   43  C12 UNL     1     -33.824  -7.636  -5.143  1.00  0.00     0.334 C 
BRANCH  43  44
HETATM   44  O5  UNL     1     -33.956  -7.332  -3.777  1.00  0.00    -0.365 OA
ATOM     45  H5  UNL     1     -34.323  -6.464  -3.649  1.00  0.00     0.212 HD
ENDBRANCH  43  44
BRANCH  43  46
HETATM   46  O6  UNL     1     -34.631  -8.754  -5.447  1.00  0.00    -0.250 OA
BRANCH  46  47
HETATM   47  N7  UNL     1     -34.622  -9.047  -6.767  1.00  0.00    -0.308 N 
ATOM     48  H72 UNL     1     -34.385  -8.365  -7.487  1.00  0.00     0.184 HD
ATOM     49  H71 UNL     1     -34.878 -10.018  -6.949  1.00  0.00     0.184 HD
ENDBRANCH  46  47
ENDBRANCH  43  46
ENDBRANCH  40  43
ENDBRANCH  38  40
ENDBRANCH   6  38
TORSDOF 17
ENDMDL
