MODEL 1
REMARK VINA RESULT: -8.112265875      0.000      0.000
REMARK  13 active torsions:
REMARK  status: ('A' for Active; 'I' for Inactive)
REMARK    1  A    between atoms: C3_4  and  N2_5 
REMARK    2  A    between atoms: C4_8  and  N3_9 
REMARK    3  A    between atoms: C5_11  and  N4_12 
REMARK    4  A    between atoms: C5_11  and  O4_22 
REMARK    5  A    between atoms: N4_12  and  C6_14 
REMARK    6  A    between atoms: C6_14  and  C7_15 
REMARK    7  A    between atoms: C7_15  and  N5_16 
REMARK    8  A    between atoms: C7_15  and  O3_20 
REMARK    9  A    between atoms: O4_22  and  N6_23 
REMARK       I    between atoms: N6_23  and  C8_25 
REMARK   10  A    between atoms: C8_25  and  C9_27 
REMARK   11  A    between atoms: C9_27  and  C10_28 
REMARK   12  A    between atoms: C13_31  and  S1_32 
REMARK   13  A    between atoms: S1_32  and  N7_33 
ROOT
HETATM    1  N1  UNL     1       8.820  -6.368  -5.891  1.00  0.00    -0.191 NA
HETATM    2  C1  UNL     1       7.911  -7.061  -5.991  1.00  0.00     0.106 C 
HETATM    3  C2  UNL     1       6.752  -7.910  -6.112  1.00  0.00     0.123 A 
HETATM    4  C3  UNL     1       6.828  -9.276  -5.981  1.00  0.00     0.157 A 
HETATM    5  C4  UNL     1       5.694 -10.076  -6.105  1.00  0.00     0.112 A 
HETATM    6  C16 UNL     1       4.512  -9.430  -6.362  1.00  0.00     0.147 A 
HETATM    7  N8  UNL     1       3.328 -10.192  -6.492  1.00  0.00    -0.080 NA
HETATM    8  N9  UNL     1       4.471  -8.108  -6.483  1.00  0.00    -0.328 N 
ATOM      9  H9  UNL     1       3.568  -7.674  -6.673  1.00  0.00     0.168 HD
HETATM   10  C17 UNL     1       5.546  -7.303  -6.370  1.00  0.00     0.123 A 
HETATM   11  N10 UNL     1       5.431  -6.002  -6.505  1.00  0.00    -0.384 N 
ATOM     12 1H10 UNL     1       4.537  -5.551  -6.696  1.00  0.00     0.157 HD
ATOM     13 2H10 UNL     1       6.245  -5.392  -6.420  1.00  0.00     0.157 HD
ENDROOT
BRANCH   4  14
HETATM   14  N2  UNL     1       8.106  -9.842  -5.716  1.00  0.00    -0.111 N 
HETATM   15  O1  UNL     1       8.853 -10.147  -6.637  1.00  0.00    -0.532 OA
HETATM   16  O2  UNL     1       8.472 -10.039  -4.418  1.00  0.00    -0.532 OA
ENDBRANCH   4  14
BRANCH   5  17
HETATM   17  N3  UNL     1       5.871 -11.418  -5.969  1.00  0.00    -0.316 N 
HETATM   18  C5  UNL     1       5.528 -12.444  -5.450  1.00  0.00     0.244 C 
ATOM     19  H3  UNL     1       6.645 -11.662  -6.588  1.00  0.00     0.169 HD
BRANCH  18  20
HETATM   20  N4  UNL     1       6.215 -13.681  -5.780  1.00  0.00    -0.350 N 
ATOM     21  H4  UNL     1       6.201 -14.034  -6.737  1.00  0.00     0.163 HD
BRANCH  20  22
HETATM   22  C6  UNL     1       6.921 -14.414  -4.742  1.00  0.00     0.184 C 
BRANCH  22  23
HETATM   23  C7  UNL     1       8.364 -13.991  -4.774  1.00  0.00     0.334 C 
BRANCH  23  24
HETATM   24  N5  UNL     1       9.154 -15.175  -5.069  1.00  0.00    -0.051 N 
ATOM     25  H53 UNL     1      10.126 -15.090  -4.774  1.00  0.00     0.277 HD
ATOM     26  H52 UNL     1       8.909 -15.975  -4.485  1.00  0.00     0.277 HD
ATOM     27  H51 UNL     1       9.055 -15.364  -6.067  1.00  0.00     0.277 HD
ENDBRANCH  23  24
BRANCH  23  28
HETATM   28  O3  UNL     1       8.593 -12.973  -5.699  1.00  0.00    -0.369 OA
ATOM     29  H3  UNL     1       8.166 -12.162  -5.452  1.00  0.00     0.212 HD
ENDBRANCH  23  28
ENDBRANCH  22  23
ENDBRANCH  20  22
ENDBRANCH  18  20
BRANCH  18  30
HETATM   30  O4  UNL     1       4.505 -12.510  -4.544  1.00  0.00    -0.198 OA
BRANCH  30  31
HETATM   31  N6  UNL     1       3.231 -12.732  -4.969  1.00  0.00    -0.225 N 
HETATM   32  C8  UNL     1       2.309 -13.099  -3.973  1.00  0.00     0.245 C 
HETATM   33  O5  UNL     1       2.616 -13.219  -2.767  1.00  0.00    -0.271 OA
ATOM     34  H6  UNL     1       2.962 -12.638  -5.948  1.00  0.00     0.198 HD
BRANCH  32  35
HETATM   35  C9  UNL     1       0.907 -13.357  -4.365  1.00  0.00     0.143 C 
BRANCH  35  36
HETATM   36  C10 UNL     1       0.144 -12.176  -4.766  1.00  0.00    -0.049 A 
HETATM   37  C11 UNL     1       0.553 -10.912  -4.398  1.00  0.00     0.009 A 
HETATM   38  C12 UNL     1      -0.159  -9.788  -4.772  1.00  0.00     0.026 A 
HETATM   39  C13 UNL     1      -1.300  -9.932  -5.524  1.00  0.00     0.079 A 
HETATM   40  C14 UNL     1      -1.728 -11.207  -5.903  1.00  0.00     0.026 A 
HETATM   41  C15 UNL     1      -1.019 -12.324  -5.532  1.00  0.00     0.009 A 
BRANCH  39  42
HETATM   42  S1  UNL     1      -2.177  -8.498  -5.983  1.00  0.00     0.256 S 
HETATM   43  O6  UNL     1      -2.991  -7.959  -4.840  1.00  0.00    -0.201 OA
HETATM   44  O7  UNL     1      -3.086  -8.783  -7.166  1.00  0.00    -0.201 OA
BRANCH  42  45
HETATM   45  N7  UNL     1      -1.010  -7.294  -6.411  1.00  0.00    -0.324 N 
ATOM     46  H72 UNL     1      -0.189  -7.042  -5.861  1.00  0.00     0.169 HD
ATOM     47  H71 UNL     1      -1.299  -6.894  -7.304  1.00  0.00     0.169 HD
ENDBRANCH  42  45
ENDBRANCH  39  42
ENDBRANCH  35  36
ENDBRANCH  32  35
ENDBRANCH  30  31
ENDBRANCH  18  30
ENDBRANCH   5  17
TORSDOF 13
ENDMDL
MODEL 2
REMARK VINA RESULT: -7.678375312      4.368      8.833
REMARK  13 active torsions:
REMARK  status: ('A' for Active; 'I' for Inactive)
REMARK    1  A    between atoms: C3_4  and  N2_5 
REMARK    2  A    between atoms: C4_8  and  N3_9 
REMARK    3  A    between atoms: C5_11  and  N4_12 
REMARK    4  A    between atoms: C5_11  and  O4_22 
REMARK    5  A    between atoms: N4_12  and  C6_14 
REMARK    6  A    between atoms: C6_14  and  C7_15 
REMARK    7  A    between atoms: C7_15  and  N5_16 
REMARK    8  A    between atoms: C7_15  and  O3_20 
REMARK    9  A    between atoms: O4_22  and  N6_23 
REMARK       I    between atoms: N6_23  and  C8_25 
REMARK   10  A    between atoms: C8_25  and  C9_27 
REMARK   11  A    between atoms: C9_27  and  C10_28 
REMARK   12  A    between atoms: C13_31  and  S1_32 
REMARK   13  A    between atoms: S1_32  and  N7_33 
ROOT
HETATM    1  N1  UNL     1       2.873 -14.106  -5.887  1.00  0.00    -0.191 NA
HETATM    2  C1  UNL     1       3.243 -13.063  -5.581  1.00  0.00     0.106 C 
HETATM    3  C2  UNL     1       3.681 -11.745  -5.192  1.00  0.00     0.123 A 
HETATM    4  C3  UNL     1       4.929 -11.266  -5.509  1.00  0.00     0.157 A 
HETATM    5  C4  UNL     1       5.330  -9.989  -5.120  1.00  0.00     0.112 A 
HETATM    6  C16 UNL     1       4.420  -9.248  -4.412  1.00  0.00     0.147 A 
HETATM    7  N8  UNL     1       4.772  -7.944  -3.996  1.00  0.00    -0.080 NA
HETATM    8  N9  UNL     1       3.221  -9.740  -4.122  1.00  0.00    -0.328 N 
ATOM      9  H9  UNL     1       2.578  -9.150  -3.594  1.00  0.00     0.168 HD
HETATM   10  C17 UNL     1       2.798 -10.969  -4.481  1.00  0.00     0.123 A 
HETATM   11  N10 UNL     1       1.598 -11.391  -4.156  1.00  0.00    -0.384 N 
ATOM     12 1H10 UNL     1       0.943 -10.814  -3.628  1.00  0.00     0.157 HD
ATOM     13 2H10 UNL     1       1.278 -12.320  -4.427  1.00  0.00     0.157 HD
ENDROOT
BRANCH   4  14
HETATM   14  N2  UNL     1       5.795 -12.120  -6.247  1.00  0.00    -0.111 N 
HETATM   15  O1  UNL     1       6.012 -11.908  -7.433  1.00  0.00    -0.532 OA
HETATM   16  O2  UNL     1       6.371 -13.174  -5.602  1.00  0.00    -0.532 OA
ENDBRANCH   4  14
BRANCH   5  17
HETATM   17  N3  UNL     1       6.588  -9.608  -5.472  1.00  0.00    -0.316 N 
HETATM   18  C5  UNL     1       7.770  -9.693  -5.281  1.00  0.00     0.244 C 
ATOM     19  H3  UNL     1       6.476  -8.955  -6.247  1.00  0.00     0.169 HD
BRANCH  18  20
HETATM   20  N4  UNL     1       8.689  -8.929  -6.108  1.00  0.00    -0.350 N 
ATOM     21  H4  UNL     1       9.174  -9.380  -6.883  1.00  0.00     0.163 HD
BRANCH  20  22
HETATM   22  C6  UNL     1       8.913  -7.521  -5.826  1.00  0.00     0.184 C 
BRANCH  22  23
HETATM   23  C7  UNL     1      10.303  -7.374  -5.269  1.00  0.00     0.334 C 
BRANCH  23  24
HETATM   24  N5  UNL     1      10.411  -6.029  -4.729  1.00  0.00    -0.051 N 
ATOM     25  H53 UNL     1      11.025  -5.427  -5.278  1.00  0.00     0.277 HD
ATOM     26  H52 UNL     1       9.556  -5.483  -4.843  1.00  0.00     0.277 HD
ATOM     27  H51 UNL     1      10.702  -6.115  -3.755  1.00  0.00     0.277 HD
ENDBRANCH  23  24
BRANCH  23  28
HETATM   28  O3  UNL     1      10.587  -8.341  -4.305  1.00  0.00    -0.369 OA
ATOM     29  H3  UNL     1      10.935  -9.138  -4.689  1.00  0.00     0.212 HD
ENDBRANCH  23  28
ENDBRANCH  22  23
ENDBRANCH  20  22
ENDBRANCH  18  20
BRANCH  18  30
HETATM   30  O4  UNL     1       8.307 -10.486  -4.303  1.00  0.00    -0.198 OA
BRANCH  30  31
HETATM   31  N6  UNL     1       8.623 -11.782  -4.574  1.00  0.00    -0.225 N 
HETATM   32  C8  UNL     1       9.962 -12.024  -4.930  1.00  0.00     0.245 C 
HETATM   33  O5  UNL     1      10.825 -11.123  -4.999  1.00  0.00    -0.271 OA
ATOM     34  H6  UNL     1       7.932 -12.530  -4.521  1.00  0.00     0.198 HD
BRANCH  32  35
HETATM   35  C9  UNL     1      10.373 -13.410  -5.238  1.00  0.00     0.143 C 
BRANCH  35  36
HETATM   36  C10 UNL     1      10.123 -14.386  -4.179  1.00  0.00    -0.049 A 
HETATM   37  C11 UNL     1       8.880 -14.963  -4.029  1.00  0.00     0.009 A 
HETATM   38  C12 UNL     1       8.632 -15.889  -3.033  1.00  0.00     0.026 A 
HETATM   39  C13 UNL     1       9.644 -16.240  -2.172  1.00  0.00     0.079 A 
HETATM   40  C14 UNL     1      10.909 -15.662  -2.311  1.00  0.00     0.026 A 
HETATM   41  C15 UNL     1      11.155 -14.743  -3.303  1.00  0.00     0.009 A 
BRANCH  39  42
HETATM   42  S1  UNL     1       9.304 -17.411  -0.927  1.00  0.00     0.256 S 
HETATM   43  O6  UNL     1       8.211 -18.356  -1.342  1.00  0.00    -0.201 OA
HETATM   44  O7  UNL     1       8.914 -16.717   0.367  1.00  0.00    -0.201 OA
BRANCH  42  45
HETATM   45  N7  UNL     1      10.742 -18.342  -0.687  1.00  0.00    -0.324 N 
ATOM     46  H72 UNL     1      10.869 -19.317  -0.957  1.00  0.00     0.169 HD
ATOM     47  H71 UNL     1      11.425 -17.736  -0.232  1.00  0.00     0.169 HD
ENDBRANCH  42  45
ENDBRANCH  39  42
ENDBRANCH  35  36
ENDBRANCH  32  35
ENDBRANCH  30  31
ENDBRANCH  18  30
ENDBRANCH   5  17
TORSDOF 13
ENDMDL
MODEL 3
REMARK VINA RESULT: -7.667842630      1.616      4.375
REMARK  13 active torsions:
REMARK  status: ('A' for Active; 'I' for Inactive)
REMARK    1  A    between atoms: C3_4  and  N2_5 
REMARK    2  A    between atoms: C4_8  and  N3_9 
REMARK    3  A    between atoms: C5_11  and  N4_12 
REMARK    4  A    between atoms: C5_11  and  O4_22 
REMARK    5  A    between atoms: N4_12  and  C6_14 
REMARK    6  A    between atoms: C6_14  and  C7_15 
REMARK    7  A    between atoms: C7_15  and  N5_16 
REMARK    8  A    between atoms: C7_15  and  O3_20 
REMARK    9  A    between atoms: O4_22  and  N6_23 
REMARK       I    between atoms: N6_23  and  C8_25 
REMARK   10  A    between atoms: C8_25  and  C9_27 
REMARK   11  A    between atoms: C9_27  and  C10_28 
REMARK   12  A    between atoms: C13_31  and  S1_32 
REMARK   13  A    between atoms: S1_32  and  N7_33 
ROOT
HETATM    1  N1  UNL     1      12.312 -11.800  -4.916  1.00  0.00    -0.191 NA
HETATM    2  C1  UNL     1      11.206 -12.106  -4.937  1.00  0.00     0.106 C 
HETATM    3  C2  UNL     1       9.823 -12.515  -4.975  1.00  0.00     0.123 A 
HETATM    4  C3  UNL     1       8.791 -11.614  -4.873  1.00  0.00     0.157 A 
HETATM    5  C4  UNL     1       7.463 -12.034  -4.911  1.00  0.00     0.112 A 
HETATM    6  C16 UNL     1       7.248 -13.381  -5.053  1.00  0.00     0.147 A 
HETATM    7  N8  UNL     1       5.919 -13.862  -5.101  1.00  0.00    -0.080 NA
HETATM    8  N9  UNL     1       8.268 -14.226  -5.149  1.00  0.00    -0.328 N 
ATOM      9  H9  UNL     1       8.056 -15.218  -5.254  1.00  0.00     0.168 HD
HETATM   10  C17 UNL     1       9.564 -13.857  -5.117  1.00  0.00     0.123 A 
HETATM   11  N10 UNL     1      10.522 -14.750  -5.214  1.00  0.00    -0.384 N 
ATOM     12 1H10 UNL     1      10.329 -15.746  -5.319  1.00  0.00     0.157 HD
ATOM     13 2H10 UNL     1      11.503 -14.471  -5.189  1.00  0.00     0.157 HD
ENDROOT
BRANCH   4  14
HETATM   14  N2  UNL     1       9.127 -10.240  -4.728  1.00  0.00    -0.111 N 
HETATM   15  O1  UNL     1       9.225  -9.739  -3.614  1.00  0.00    -0.532 OA
HETATM   16  O2  UNL     1       9.332  -9.499  -5.854  1.00  0.00    -0.532 OA
ENDBRANCH   4  14
BRANCH   5  17
HETATM   17  N3  UNL     1       6.510 -11.070  -4.792  1.00  0.00    -0.316 N 
HETATM   18  C5  UNL     1       5.403 -10.768  -4.441  1.00  0.00     0.244 C 
ATOM     19  H3  UNL     1       6.924 -10.219  -5.174  1.00  0.00     0.169 HD
BRANCH  18  20
HETATM   20  N4  UNL     1       4.940  -9.402  -4.616  1.00  0.00    -0.350 N 
ATOM     21  H4  UNL     1       4.803  -8.801  -3.804  1.00  0.00     0.163 HD
BRANCH  20  22
HETATM   22  C6  UNL     1       4.674  -8.896  -5.952  1.00  0.00     0.184 C 
BRANCH  22  23
HETATM   23  C7  UNL     1       5.569  -7.710  -6.188  1.00  0.00     0.334 C 
BRANCH  23  24
HETATM   24  N5  UNL     1       5.280  -6.737  -5.148  1.00  0.00    -0.051 N 
ATOM     25  H53 UNL     1       4.464  -6.162  -5.356  1.00  0.00     0.277 HD
ATOM     26  H52 UNL     1       4.926  -7.162  -4.291  1.00  0.00     0.277 HD
ATOM     27  H51 UNL     1       6.128  -6.189  -5.001  1.00  0.00     0.277 HD
ENDBRANCH  23  24
BRANCH  23  28
HETATM   28  O3  UNL     1       6.918  -8.066  -6.201  1.00  0.00    -0.369 OA
ATOM     29  H3  UNL     1       7.222  -8.282  -7.075  1.00  0.00     0.212 HD
ENDBRANCH  23  28
ENDBRANCH  22  23
ENDBRANCH  20  22
ENDBRANCH  18  20
BRANCH  18  30
HETATM   30  O4  UNL     1       4.536 -11.663  -3.874  1.00  0.00    -0.198 OA
BRANCH  30  31
HETATM   31  N6  UNL     1       3.438 -12.078  -4.563  1.00  0.00    -0.225 N 
HETATM   32  C8  UNL     1       2.410 -12.647  -3.791  1.00  0.00     0.245 C 
HETATM   33  O5  UNL     1       2.476 -12.772  -2.549  1.00  0.00    -0.271 OA
ATOM     34  H6  UNL     1       3.366 -11.983  -5.576  1.00  0.00     0.198 HD
BRANCH  32  35
HETATM   35  C9  UNL     1       1.189 -13.121  -4.476  1.00  0.00     0.143 C 
BRANCH  35  36
HETATM   36  C10 UNL     1       0.216 -12.082  -4.809  1.00  0.00    -0.049 A 
HETATM   37  C11 UNL     1      -1.047 -12.412  -5.250  1.00  0.00     0.009 A 
HETATM   38  C12 UNL     1      -1.977 -11.439  -5.566  1.00  0.00     0.026 A 
HETATM   39  C13 UNL     1      -1.635 -10.114  -5.440  1.00  0.00     0.079 A 
HETATM   40  C14 UNL     1      -0.358  -9.764  -4.995  1.00  0.00     0.026 A 
HETATM   41  C15 UNL     1       0.565 -10.732  -4.680  1.00  0.00     0.009 A 
BRANCH  39  42
HETATM   42  S1  UNL     1      -2.827  -8.908  -5.843  1.00  0.00     0.256 S 
HETATM   43  O6  UNL     1      -4.162  -9.225  -5.228  1.00  0.00    -0.201 OA
HETATM   44  O7  UNL     1      -2.975  -8.787  -7.349  1.00  0.00    -0.201 OA
BRANCH  42  45
HETATM   45  N7  UNL     1      -2.286  -7.405  -5.179  1.00  0.00    -0.324 N 
ATOM     46  H72 UNL     1      -1.608  -7.299  -4.425  1.00  0.00     0.169 HD
ATOM     47  H71 UNL     1      -2.768  -6.659  -5.682  1.00  0.00     0.169 HD
ENDBRANCH  42  45
ENDBRANCH  39  42
ENDBRANCH  35  36
ENDBRANCH  32  35
ENDBRANCH  30  31
ENDBRANCH  18  30
ENDBRANCH   5  17
TORSDOF 13
ENDMDL
MODEL 4
REMARK VINA RESULT: -7.648189263      2.104      3.789
REMARK  13 active torsions:
REMARK  status: ('A' for Active; 'I' for Inactive)
REMARK    1  A    between atoms: C3_4  and  N2_5 
REMARK    2  A    between atoms: C4_8  and  N3_9 
REMARK    3  A    between atoms: C5_11  and  N4_12 
REMARK    4  A    between atoms: C5_11  and  O4_22 
REMARK    5  A    between atoms: N4_12  and  C6_14 
REMARK    6  A    between atoms: C6_14  and  C7_15 
REMARK    7  A    between atoms: C7_15  and  N5_16 
REMARK    8  A    between atoms: C7_15  and  O3_20 
REMARK    9  A    between atoms: O4_22  and  N6_23 
REMARK       I    between atoms: N6_23  and  C8_25 
REMARK   10  A    between atoms: C8_25  and  C9_27 
REMARK   11  A    between atoms: C9_27  and  C10_28 
REMARK   12  A    between atoms: C13_31  and  S1_32 
REMARK   13  A    between atoms: S1_32  and  N7_33 
ROOT
HETATM    1  N1  UNL     1       9.151  -5.549  -5.480  1.00  0.00    -0.191 NA
HETATM    2  C1  UNL     1       9.076  -6.693  -5.546  1.00  0.00     0.106 C 
HETATM    3  C2  UNL     1       9.010  -8.131  -5.630  1.00  0.00     0.123 A 
HETATM    4  C3  UNL     1       7.851  -8.791  -5.960  1.00  0.00     0.157 A 
HETATM    5  C4  UNL     1       7.812 -10.183  -6.033  1.00  0.00     0.112 A 
HETATM    6  C16 UNL     1       8.981 -10.846  -5.761  1.00  0.00     0.147 A 
HETATM    7  N8  UNL     1       9.000 -12.258  -5.826  1.00  0.00    -0.080 NA
HETATM    8  N9  UNL     1      10.085 -10.178  -5.446  1.00  0.00    -0.328 N 
ATOM      9  H9  UNL     1      10.929 -10.716  -5.253  1.00  0.00     0.168 HD
HETATM   10  C17 UNL     1      10.160  -8.834  -5.365  1.00  0.00     0.123 A 
HETATM   11  N10 UNL     1      11.287  -8.241  -5.044  1.00  0.00    -0.384 N 
ATOM     12 1H10 UNL     1      12.140  -8.763  -4.847  1.00  0.00     0.157 HD
ATOM     13 2H10 UNL     1      11.345  -7.224  -4.983  1.00  0.00     0.157 HD
ENDROOT
BRANCH   4  14
HETATM   14  N2  UNL     1       6.695  -8.005  -6.222  1.00  0.00    -0.111 N 
HETATM   15  O1  UNL     1       6.638  -7.302  -7.223  1.00  0.00    -0.532 OA
HETATM   16  O2  UNL     1       5.662  -8.054  -5.334  1.00  0.00    -0.532 OA
ENDBRANCH   4  14
BRANCH   5  17
HETATM   17  N3  UNL     1       6.617 -10.747  -6.357  1.00  0.00    -0.316 N 
HETATM   18  C5  UNL     1       5.691 -11.435  -6.025  1.00  0.00     0.244 C 
ATOM     19  H3  UNL     1       6.418 -10.452  -7.313  1.00  0.00     0.169 HD
BRANCH  18  20
HETATM   20  N4  UNL     1       4.602 -11.673  -6.957  1.00  0.00    -0.350 N 
ATOM     21  H4  UNL     1       4.091 -12.555  -6.931  1.00  0.00     0.163 HD
BRANCH  20  22
HETATM   22  C6  UNL     1       4.245 -10.651  -7.926  1.00  0.00     0.184 C 
BRANCH  22  23
HETATM   23  C7  UNL     1       2.950 -10.025  -7.486  1.00  0.00     0.334 C 
BRANCH  23  24
HETATM   24  N5  UNL     1       3.284  -8.905  -6.623  1.00  0.00    -0.051 N 
ATOM     25  H53 UNL     1       4.283  -8.831  -6.434  1.00  0.00     0.277 HD
ATOM     26  H52 UNL     1       3.170  -8.000  -7.080  1.00  0.00     0.277 HD
ATOM     27  H51 UNL     1       2.723  -8.997  -5.775  1.00  0.00     0.277 HD
ENDBRANCH  23  24
BRANCH  23  28
HETATM   28  O3  UNL     1       2.165  -9.626  -8.568  1.00  0.00    -0.369 OA
ATOM     29  H3  UNL     1       1.514  -8.981  -8.320  1.00  0.00     0.212 HD
ENDBRANCH  23  28
ENDBRANCH  22  23
ENDBRANCH  20  22
ENDBRANCH  18  20
BRANCH  18  30
HETATM   30  O4  UNL     1       5.607 -12.019  -4.790  1.00  0.00    -0.198 OA
BRANCH  30  31
HETATM   31  N6  UNL     1       4.547 -11.751  -3.980  1.00  0.00    -0.225 N 
HETATM   32  C8  UNL     1       3.449 -12.621  -4.100  1.00  0.00     0.245 C 
HETATM   33  O5  UNL     1       3.425 -13.587  -4.893  1.00  0.00    -0.271 OA
ATOM     34  H6  UNL     1       4.549 -10.968  -3.326  1.00  0.00     0.198 HD
BRANCH  32  35
HETATM   35  C9  UNL     1       2.263 -12.386  -3.250  1.00  0.00     0.143 C 
BRANCH  35  36
HETATM   36  C10 UNL     1       1.081 -11.888  -3.950  1.00  0.00    -0.049 A 
HETATM   37  C11 UNL     1       0.070 -12.746  -4.327  1.00  0.00     0.009 A 
HETATM   38  C12 UNL     1      -1.054 -12.287  -4.988  1.00  0.00     0.026 A 
HETATM   39  C13 UNL     1      -1.166 -10.948  -5.278  1.00  0.00     0.079 A 
HETATM   40  C14 UNL     1      -0.149 -10.067  -4.903  1.00  0.00     0.026 A 
HETATM   41  C15 UNL     1       0.968 -10.524  -4.244  1.00  0.00     0.009 A 
BRANCH  39  42
HETATM   42  S1  UNL     1      -2.595 -10.397  -6.110  1.00  0.00     0.256 S 
HETATM   43  O6  UNL     1      -3.722 -10.129  -5.153  1.00  0.00    -0.201 OA
HETATM   44  O7  UNL     1      -3.036 -11.416  -7.146  1.00  0.00    -0.201 OA
BRANCH  42  45
HETATM   45  N7  UNL     1      -2.197  -8.901  -6.884  1.00  0.00    -0.324 N 
ATOM     46  H72 UNL     1      -1.265  -8.490  -6.936  1.00  0.00     0.169 HD
ATOM     47  H71 UNL     1      -3.060  -8.520  -7.271  1.00  0.00     0.169 HD
ENDBRANCH  42  45
ENDBRANCH  39  42
ENDBRANCH  35  36
ENDBRANCH  32  35
ENDBRANCH  30  31
ENDBRANCH  18  30
ENDBRANCH   5  17
TORSDOF 13
ENDMDL
MODEL 5
REMARK VINA RESULT: -7.603334784      2.229      3.358
REMARK  13 active torsions:
REMARK  status: ('A' for Active; 'I' for Inactive)
REMARK    1  A    between atoms: C3_4  and  N2_5 
REMARK    2  A    between atoms: C4_8  and  N3_9 
REMARK    3  A    between atoms: C5_11  and  N4_12 
REMARK    4  A    between atoms: C5_11  and  O4_22 
REMARK    5  A    between atoms: N4_12  and  C6_14 
REMARK    6  A    between atoms: C6_14  and  C7_15 
REMARK    7  A    between atoms: C7_15  and  N5_16 
REMARK    8  A    between atoms: C7_15  and  O3_20 
REMARK    9  A    between atoms: O4_22  and  N6_23 
REMARK       I    between atoms: N6_23  and  C8_25 
REMARK   10  A    between atoms: C8_25  and  C9_27 
REMARK   11  A    between atoms: C9_27  and  C10_28 
REMARK   12  A    between atoms: C13_31  and  S1_32 
REMARK   13  A    between atoms: S1_32  and  N7_33 
ROOT
HETATM    1  N1  UNL     1       7.652  -7.027  -6.628  1.00  0.00    -0.191 NA
HETATM    2  C1  UNL     1       8.195  -7.948  -6.209  1.00  0.00     0.106 C 
HETATM    3  C2  UNL     1       8.902  -9.089  -5.683  1.00  0.00     0.123 A 
HETATM    4  C3  UNL     1       8.354 -10.350  -5.680  1.00  0.00     0.157 A 
HETATM    5  C4  UNL     1       9.056 -11.438  -5.165  1.00  0.00     0.112 A 
HETATM    6  C16 UNL     1      10.308 -11.182  -4.667  1.00  0.00     0.147 A 
HETATM    7  N8  UNL     1      11.067 -12.250  -4.136  1.00  0.00    -0.080 NA
HETATM    8  N9  UNL     1      10.809  -9.952  -4.685  1.00  0.00    -0.328 N 
ATOM      9  H9  UNL     1      11.744  -9.813  -4.304  1.00  0.00     0.168 HD
HETATM   10  C17 UNL     1      10.160  -8.876  -5.174  1.00  0.00     0.123 A 
HETATM   11  N10 UNL     1      10.717  -7.687  -5.156  1.00  0.00    -0.384 N 
ATOM     12 1H10 UNL     1      11.651  -7.529  -4.778  1.00  0.00     0.157 HD
ATOM     13 2H10 UNL     1      10.226  -6.873  -5.526  1.00  0.00     0.157 HD
ENDROOT
BRANCH   4  14
HETATM   14  N2  UNL     1       7.047 -10.503  -6.220  1.00  0.00    -0.111 N 
HETATM   15  O1  UNL     1       6.081 -10.007  -5.656  1.00  0.00    -0.532 OA
HETATM   16  O2  UNL     1       6.902 -11.215  -7.373  1.00  0.00    -0.532 OA
ENDBRANCH   4  14
BRANCH   5  17
HETATM   17  N3  UNL     1       8.428 -12.644  -5.196  1.00  0.00    -0.316 N 
HETATM   18  C5  UNL     1       7.436 -13.283  -4.976  1.00  0.00     0.244 C 
ATOM     19  H3  UNL     1       9.106 -13.304  -5.579  1.00  0.00     0.169 HD
BRANCH  18  20
HETATM   20  N4  UNL     1       7.416 -14.705  -5.272  1.00  0.00    -0.350 N 
ATOM     21  H4  UNL     1       7.253 -15.027  -6.226  1.00  0.00     0.163 HD
BRANCH  20  22
HETATM   22  C6  UNL     1       7.629 -15.668  -4.205  1.00  0.00     0.184 C 
BRANCH  22  23
HETATM   23  C7  UNL     1       9.108 -15.927  -4.100  1.00  0.00     0.334 C 
BRANCH  23  24
HETATM   24  N5  UNL     1       9.620 -16.057  -5.454  1.00  0.00    -0.051 N 
ATOM     25  H53 UNL     1       8.903 -16.323  -6.128  1.00  0.00     0.277 HD
ATOM     26  H52 UNL     1       9.870 -15.161  -5.874  1.00  0.00     0.277 HD
ATOM     27  H51 UNL     1      10.400 -16.713  -5.421  1.00  0.00     0.277 HD
ENDBRANCH  23  24
BRANCH  23  28
HETATM   28  O3  UNL     1       9.768 -14.922  -3.392  1.00  0.00    -0.369 OA
ATOM     29  H3  UNL     1      10.704 -14.928  -3.553  1.00  0.00     0.212 HD
ENDBRANCH  23  28
ENDBRANCH  22  23
ENDBRANCH  20  22
ENDBRANCH  18  20
BRANCH  18  30
HETATM   30  O4  UNL     1       6.301 -12.730  -4.448  1.00  0.00    -0.198 OA
BRANCH  30  31
HETATM   31  N6  UNL     1       5.078 -13.113  -4.908  1.00  0.00    -0.225 N 
HETATM   32  C8  UNL     1       3.978 -12.417  -4.376  1.00  0.00     0.245 C 
HETATM   33  O5  UNL     1       4.092 -11.500  -3.534  1.00  0.00    -0.271 OA
ATOM     34  H6  UNL     1       4.967 -13.857  -5.596  1.00  0.00     0.198 HD
BRANCH  32  35
HETATM   35  C9  UNL     1       2.621 -12.782  -4.832  1.00  0.00     0.143 C 
BRANCH  35  36
HETATM   36  C10 UNL     1       1.841 -11.690  -5.410  1.00  0.00    -0.049 A 
HETATM   37  C11 UNL     1       0.618 -11.337  -4.878  1.00  0.00     0.009 A 
HETATM   38  C12 UNL     1      -0.129 -10.304  -5.415  1.00  0.00     0.026 A 
HETATM   39  C13 UNL     1       0.356  -9.617  -6.502  1.00  0.00     0.079 A 
HETATM   40  C14 UNL     1       1.592  -9.964  -7.052  1.00  0.00     0.026 A 
HETATM   41  C15 UNL     1       2.334 -10.989  -6.516  1.00  0.00     0.009 A 
BRANCH  39  42
HETATM   42  S1  UNL     1      -0.606  -8.318  -7.156  1.00  0.00     0.256 S 
HETATM   43  O6  UNL     1      -0.511  -8.263  -8.655  1.00  0.00    -0.201 OA
HETATM   44  O7  UNL     1      -0.175  -6.986  -6.568  1.00  0.00    -0.201 OA
BRANCH  42  45
HETATM   45  N7  UNL     1      -2.256  -8.640  -6.745  1.00  0.00    -0.324 N 
ATOM     46  H72 UNL     1      -2.789  -8.164  -6.019  1.00  0.00     0.169 HD
ATOM     47  H71 UNL     1      -2.583  -9.385  -7.361  1.00  0.00     0.169 HD
ENDBRANCH  42  45
ENDBRANCH  39  42
ENDBRANCH  35  36
ENDBRANCH  32  35
ENDBRANCH  30  31
ENDBRANCH  18  30
ENDBRANCH   5  17
TORSDOF 13
ENDMDL
