MODEL 1
REMARK VINA RESULT: -7.543102739      0.000      0.000
REMARK  13 active torsions:
REMARK  status: ('A' for Active; 'I' for Inactive)
REMARK    1  A    between atoms: O1_2  and  C2_3 
REMARK    2  A    between atoms: C3_4  and  O2_5 
REMARK    3  A    between atoms: O2_5  and  C4_6 
REMARK    4  A    between atoms: C4_6  and  N1_7 
REMARK    5  A    between atoms: C6_9  and  O3_10 
REMARK    6  A    between atoms: C7_14  and  N3_15 
REMARK    7  A    between atoms: C9_24  and  C10_25 
REMARK    8  A    between atoms: C10_25  and  C11_26 
REMARK    9  A    between atoms: C11_26  and  O4_27 
REMARK   10  A    between atoms: C11_26  and  C12_29 
REMARK   11  A    between atoms: C12_29  and  O5_30 
REMARK   12  A    between atoms: O5_30  and  S1_31 
REMARK   13  A    between atoms: C13_35  and  O9_36 
ROOT
HETATM    1  C2  UNL     1      -1.937  28.821  17.277  1.00  0.00     0.154 A 
HETATM    2  C3  UNL     1      -3.215  28.689  16.809  1.00  0.00     0.187 A 
HETATM    3  N4  UNL     1      -4.117  29.693  17.047  1.00  0.00    -0.320 N 
ATOM      4  H4  UNL     1      -5.070  29.598  16.698  1.00  0.00     0.169 HD
HETATM    5  C8  UNL     1      -3.775  30.801  17.729  1.00  0.00     0.110 A 
HETATM    6  N5  UNL     1      -4.667  31.707  17.901  1.00  0.00    -0.385 N 
ATOM      7  H51 UNL     1      -4.409  32.548  18.419  1.00  0.00     0.157 HD
ATOM      8  H52 UNL     1      -5.612  31.580  17.539  1.00  0.00     0.157 HD
HETATM    9  C9  UNL     1      -2.489  30.974  18.222  1.00  0.00     0.024 A 
HETATM   10  C13 UNL     1      -1.599  29.954  17.971  1.00  0.00     0.116 A 
ENDROOT
BRANCH   2  11
HETATM   11  O2  UNL     1      -3.615  27.580  16.109  1.00  0.00    -0.285 OA
BRANCH  11  12
HETATM   12  C4  UNL     1      -4.540  26.623  16.530  1.00  0.00     0.260 C 
BRANCH  12  13
HETATM   13  N1  UNL     1      -4.266  26.010  17.801  1.00  0.00    -0.144 N 
HETATM   14  C5  UNL     1      -5.019  26.100  18.921  1.00  0.00     0.172 A 
HETATM   15  C6  UNL     1      -4.417  25.373  19.922  1.00  0.00     0.172 A 
HETATM   16  N2  UNL     1      -3.302  24.861  19.360  1.00  0.00    -0.169 N 
HETATM   17  C7  UNL     1      -3.215  25.244  18.090  1.00  0.00     0.685 A 
ATOM     18  H2  UNL     1      -2.626  24.268  19.840  1.00  0.00     0.186 HD
BRANCH  15  19
HETATM   19  O3  UNL     1      -4.862  25.199  21.244  1.00  0.00    -0.345 OA
ATOM     20  H3  UNL     1      -4.496  25.578  22.034  1.00  0.00     0.219 HD
ENDBRANCH  15  19
BRANCH  17  21
HETATM   21  N3  UNL     1      -2.280  24.932  17.277  1.00  0.00    -0.234 N 
ATOM     22  H32 UNL     1      -2.303  24.165  16.605  1.00  0.00     0.174 HD
ATOM     23  H31 UNL     1      -1.384  25.413  17.193  1.00  0.00     0.174 HD
ENDBRANCH  17  21
ENDBRANCH  12  13
ENDBRANCH  11  12
ENDBRANCH   2  11
BRANCH   1  24
HETATM   24  O1  UNL     1      -0.999  27.844  17.062  1.00  0.00    -0.349 OA
HETATM   25  C1  UNL     1      -0.494  27.670  15.751  1.00  0.00     0.210 C 
ENDBRANCH   1  24
BRANCH  10  26
HETATM   26  O9  UNL     1      -0.309  30.073  18.434  1.00  0.00    -0.352 OA
HETATM   27  C14 UNL     1       0.620  30.778  17.636  1.00  0.00     0.210 C 
ENDBRANCH  10  26
BRANCH   9  28
HETATM   28  C10 UNL     1      -2.052  32.146  18.965  1.00  0.00     0.079 C 
BRANCH  28  29
HETATM   29  C11 UNL     1      -1.838  33.406  18.214  1.00  0.00     0.147 C 
BRANCH  29  30
HETATM   30  O4  UNL     1      -0.687  34.091  18.503  1.00  0.00    -0.393 OA
ATOM     31  H4  UNL     1       0.126  33.620  18.364  1.00  0.00     0.210 HD
ENDBRANCH  29  30
BRANCH  29  32
HETATM   32  C12 UNL     1      -2.993  34.346  18.611  1.00  0.00     0.224 C 
BRANCH  32  33
HETATM   33  O5  UNL     1      -3.782  34.629  17.508  1.00  0.00    -0.254 OA
BRANCH  33  34
HETATM   34  S1  UNL     1      -4.832  35.878  17.893  1.00  0.00     0.251 S 
HETATM   35  O6  UNL     1      -5.199  35.829  19.348  1.00  0.00    -0.572 OA
HETATM   36  O7  UNL     1      -6.069  35.668  17.030  1.00  0.00    -0.572 OA
HETATM   37  O8  UNL     1      -4.121  37.333  17.478  1.00  0.00    -0.572 OA
ENDBRANCH  33  34
ENDBRANCH  32  33
ENDBRANCH  29  32
ENDBRANCH  28  29
ENDBRANCH   9  28
TORSDOF 13
ENDMDL
MODEL 2
REMARK VINA RESULT: -7.421381688      1.611      2.566
REMARK  13 active torsions:
REMARK  status: ('A' for Active; 'I' for Inactive)
REMARK    1  A    between atoms: O1_2  and  C2_3 
REMARK    2  A    between atoms: C3_4  and  O2_5 
REMARK    3  A    between atoms: O2_5  and  C4_6 
REMARK    4  A    between atoms: C4_6  and  N1_7 
REMARK    5  A    between atoms: C6_9  and  O3_10 
REMARK    6  A    between atoms: C7_14  and  N3_15 
REMARK    7  A    between atoms: C9_24  and  C10_25 
REMARK    8  A    between atoms: C10_25  and  C11_26 
REMARK    9  A    between atoms: C11_26  and  O4_27 
REMARK   10  A    between atoms: C11_26  and  C12_29 
REMARK   11  A    between atoms: C12_29  and  O5_30 
REMARK   12  A    between atoms: O5_30  and  S1_31 
REMARK   13  A    between atoms: C13_35  and  O9_36 
ROOT
HETATM    1  C2  UNL     1      -3.266  29.412  16.843  1.00  0.00     0.154 A 
HETATM    2  C3  UNL     1      -2.193  28.572  16.737  1.00  0.00     0.187 A 
HETATM    3  N4  UNL     1      -1.012  28.924  17.338  1.00  0.00    -0.320 N 
ATOM      4  H4  UNL     1      -0.210  28.299  17.262  1.00  0.00     0.169 HD
HETATM    5  C8  UNL     1      -0.885  30.073  18.025  1.00  0.00     0.110 A 
HETATM    6  N5  UNL     1       0.246  30.330  18.574  1.00  0.00    -0.385 N 
ATOM      7  H51 UNL     1       0.343  31.202  19.095  1.00  0.00     0.157 HD
ATOM      8  H52 UNL     1       1.028  29.683  18.478  1.00  0.00     0.157 HD
HETATM    9  C9  UNL     1      -1.949  30.954  18.156  1.00  0.00     0.024 A 
HETATM   10  C13 UNL     1      -3.126  30.581  17.546  1.00  0.00     0.116 A 
ENDROOT
BRANCH   2  11
HETATM   11  O2  UNL     1      -2.268  27.390  16.048  1.00  0.00    -0.285 OA
BRANCH  11  12
HETATM   12  C4  UNL     1      -2.175  26.107  16.589  1.00  0.00     0.260 C 
BRANCH  12  13
HETATM   13  N1  UNL     1      -3.170  25.772  17.571  1.00  0.00    -0.144 N 
HETATM   14  C5  UNL     1      -2.946  25.345  18.835  1.00  0.00     0.172 A 
HETATM   15  C6  UNL     1      -4.157  25.132  19.454  1.00  0.00     0.172 A 
HETATM   16  N2  UNL     1      -5.084  25.443  18.524  1.00  0.00    -0.169 N 
HETATM   17  C7  UNL     1      -4.490  25.827  17.398  1.00  0.00     0.685 A 
ATOM     18  H2  UNL     1      -6.093  25.392  18.665  1.00  0.00     0.186 HD
BRANCH  15  19
HETATM   19  O3  UNL     1      -4.384  24.687  20.767  1.00  0.00    -0.345 OA
ATOM     20  H3  UNL     1      -4.988  25.046  21.406  1.00  0.00     0.219 HD
ENDBRANCH  15  19
BRANCH  17  21
HETATM   21  N3  UNL     1      -5.082  26.188  16.325  1.00  0.00    -0.234 N 
ATOM     22  H32 UNL     1      -5.032  25.710  15.425  1.00  0.00     0.174 HD
ATOM     23  H31 UNL     1      -5.684  27.006  16.228  1.00  0.00     0.174 HD
ENDBRANCH  17  21
ENDBRANCH  12  13
ENDBRANCH  11  12
ENDBRANCH   2  11
BRANCH   1  24
HETATM   24  O1  UNL     1      -4.469  29.103  16.261  1.00  0.00    -0.349 OA
HETATM   25  C1  UNL     1      -4.737  29.597  14.962  1.00  0.00     0.210 C 
ENDBRANCH   1  24
BRANCH  10  26
HETATM   26  O9  UNL     1      -4.216  31.415  17.645  1.00  0.00    -0.352 OA
HETATM   27  C14 UNL     1      -4.765  31.641  18.927  1.00  0.00     0.210 C 
ENDBRANCH  10  26
BRANCH   9  28
HETATM   28  C10 UNL     1      -1.882  32.212  18.885  1.00  0.00     0.079 C 
BRANCH  28  29
HETATM   29  C11 UNL     1      -1.674  33.457  18.109  1.00  0.00     0.147 C 
BRANCH  29  30
HETATM   30  O4  UNL     1      -0.519  34.145  18.370  1.00  0.00    -0.393 OA
ATOM     31  H4  UNL     1      -0.188  34.690  17.666  1.00  0.00     0.210 HD
ENDBRANCH  29  30
BRANCH  29  32
HETATM   32  C12 UNL     1      -2.822  34.406  18.502  1.00  0.00     0.224 C 
BRANCH  32  33
HETATM   33  O5  UNL     1      -3.631  34.663  17.406  1.00  0.00    -0.254 OA
BRANCH  33  34
HETATM   34  S1  UNL     1      -4.754  35.838  17.818  1.00  0.00     0.251 S 
HETATM   35  O6  UNL     1      -5.964  35.743  16.934  1.00  0.00    -0.572 OA
HETATM   36  O7  UNL     1      -4.055  37.175  17.613  1.00  0.00    -0.572 OA
HETATM   37  O8  UNL     1      -5.147  35.672  19.433  1.00  0.00    -0.572 OA
ENDBRANCH  33  34
ENDBRANCH  32  33
ENDBRANCH  29  32
ENDBRANCH  28  29
ENDBRANCH   9  28
TORSDOF 13
ENDMDL
MODEL 3
REMARK VINA RESULT: -7.209132591      1.474      2.285
REMARK  13 active torsions:
REMARK  status: ('A' for Active; 'I' for Inactive)
REMARK    1  A    between atoms: O1_2  and  C2_3 
REMARK    2  A    between atoms: C3_4  and  O2_5 
REMARK    3  A    between atoms: O2_5  and  C4_6 
REMARK    4  A    between atoms: C4_6  and  N1_7 
REMARK    5  A    between atoms: C6_9  and  O3_10 
REMARK    6  A    between atoms: C7_14  and  N3_15 
REMARK    7  A    between atoms: C9_24  and  C10_25 
REMARK    8  A    between atoms: C10_25  and  C11_26 
REMARK    9  A    between atoms: C11_26  and  O4_27 
REMARK   10  A    between atoms: C11_26  and  C12_29 
REMARK   11  A    between atoms: C12_29  and  O5_30 
REMARK   12  A    between atoms: O5_30  and  S1_31 
REMARK   13  A    between atoms: C13_35  and  O9_36 
ROOT
HETATM    1  C2  UNL     1      -3.837  29.653  16.937  1.00  0.00     0.154 A 
HETATM    2  C3  UNL     1      -2.966  28.599  16.970  1.00  0.00     0.187 A 
HETATM    3  N4  UNL     1      -1.777  28.741  17.637  1.00  0.00    -0.320 N 
ATOM      4  H4  UNL     1      -1.126  27.957  17.664  1.00  0.00     0.169 HD
HETATM    5  C8  UNL     1      -1.448  29.888  18.257  1.00  0.00     0.110 A 
HETATM    6  N5  UNL     1      -0.325  29.944  18.876  1.00  0.00    -0.385 N 
ATOM      7  H51 UNL     1      -0.076  30.814  19.346  1.00  0.00     0.157 HD
ATOM      8  H52 UNL     1       0.303  29.141  18.883  1.00  0.00     0.157 HD
HETATM    9  C9  UNL     1      -2.303  30.981  18.248  1.00  0.00     0.024 A 
HETATM   10  C13 UNL     1      -3.492  30.818  17.573  1.00  0.00     0.116 A 
ENDROOT
BRANCH   2  11
HETATM   11  O2  UNL     1      -3.251  27.409  16.354  1.00  0.00    -0.285 OA
BRANCH  11  12
HETATM   12  C4  UNL     1      -4.240  26.498  16.726  1.00  0.00     0.260 C 
BRANCH  12  13
HETATM   13  N1  UNL     1      -4.141  25.986  18.067  1.00  0.00    -0.144 N 
HETATM   14  C5  UNL     1      -5.097  26.037  19.023  1.00  0.00     0.172 A 
HETATM   15  C6  UNL     1      -4.614  25.441  20.166  1.00  0.00     0.172 A 
HETATM   16  N2  UNL     1      -3.364  25.045  19.852  1.00  0.00    -0.169 N 
HETATM   17  C7  UNL     1      -3.083  25.373  18.594  1.00  0.00     0.685 A 
ATOM     18  H2  UNL     1      -2.726  24.565  20.487  1.00  0.00     0.186 HD
BRANCH  15  19
HETATM   19  O3  UNL     1      -5.277  25.278  21.395  1.00  0.00    -0.345 OA
ATOM     20  H3  UNL     1      -5.063  24.671  22.093  1.00  0.00     0.219 HD
ENDBRANCH  15  19
BRANCH  17  21
HETATM   21  N3  UNL     1      -1.983  25.140  17.987  1.00  0.00    -0.234 N 
ATOM     22  H32 UNL     1      -1.831  25.204  16.981  1.00  0.00     0.174 HD
ATOM     23  H31 UNL     1      -1.110  24.859  18.433  1.00  0.00     0.174 HD
ENDBRANCH  17  21
ENDBRANCH  12  13
ENDBRANCH  11  12
ENDBRANCH   2  11
BRANCH   1  24
HETATM   24  O1  UNL     1      -5.039  29.558  16.284  1.00  0.00    -0.349 OA
HETATM   25  C1  UNL     1      -5.075  29.825  14.894  1.00  0.00     0.210 C 
ENDBRANCH   1  24
BRANCH  10  26
HETATM   26  O9  UNL     1      -4.381  31.868  17.533  1.00  0.00    -0.352 OA
HETATM   27  C14 UNL     1      -5.226  32.065  18.647  1.00  0.00     0.210 C 
ENDBRANCH  10  26
BRANCH   9  28
HETATM   28  C10 UNL     1      -2.012  32.250  18.899  1.00  0.00     0.079 C 
BRANCH  28  29
HETATM   29  C11 UNL     1      -1.696  33.416  18.040  1.00  0.00     0.147 C 
BRANCH  29  30
HETATM   30  O4  UNL     1      -0.457  33.974  18.214  1.00  0.00    -0.393 OA
ATOM     31  H4  UNL     1       0.008  33.721  19.003  1.00  0.00     0.210 HD
ENDBRANCH  29  30
BRANCH  29  32
HETATM   32  C12 UNL     1      -2.705  34.517  18.420  1.00  0.00     0.224 C 
BRANCH  32  33
HETATM   33  O5  UNL     1      -3.547  34.785  17.353  1.00  0.00    -0.254 OA
BRANCH  33  34
HETATM   34  S1  UNL     1      -4.703  35.901  17.835  1.00  0.00     0.251 S 
HETATM   35  O6  UNL     1      -5.067  35.693  19.277  1.00  0.00    -0.572 OA
HETATM   36  O7  UNL     1      -5.914  35.662  16.945  1.00  0.00    -0.572 OA
HETATM   37  O8  UNL     1      -4.120  37.442  17.557  1.00  0.00    -0.572 OA
ENDBRANCH  33  34
ENDBRANCH  32  33
ENDBRANCH  29  32
ENDBRANCH  28  29
ENDBRANCH   9  28
TORSDOF 13
ENDMDL
MODEL 4
REMARK VINA RESULT: -7.178012423      3.055      7.717
REMARK  13 active torsions:
REMARK  status: ('A' for Active; 'I' for Inactive)
REMARK    1  A    between atoms: O1_2  and  C2_3 
REMARK    2  A    between atoms: C3_4  and  O2_5 
REMARK    3  A    between atoms: O2_5  and  C4_6 
REMARK    4  A    between atoms: C4_6  and  N1_7 
REMARK    5  A    between atoms: C6_9  and  O3_10 
REMARK    6  A    between atoms: C7_14  and  N3_15 
REMARK    7  A    between atoms: C9_24  and  C10_25 
REMARK    8  A    between atoms: C10_25  and  C11_26 
REMARK    9  A    between atoms: C11_26  and  O4_27 
REMARK   10  A    between atoms: C11_26  and  C12_29 
REMARK   11  A    between atoms: C12_29  and  O5_30 
REMARK   12  A    between atoms: O5_30  and  S1_31 
REMARK   13  A    between atoms: C13_35  and  O9_36 
ROOT
HETATM    1  C2  UNL     1      -1.986  31.417  18.170  1.00  0.00     0.154 A 
HETATM    2  C3  UNL     1      -3.344  31.544  18.254  1.00  0.00     0.187 A 
HETATM    3  N4  UNL     1      -4.136  30.743  17.474  1.00  0.00    -0.320 N 
ATOM      4  H4  UNL     1      -5.150  30.834  17.535  1.00  0.00     0.169 HD
HETATM    5  C8  UNL     1      -3.609  29.838  16.629  1.00  0.00     0.110 A 
HETATM    6  N5  UNL     1      -4.412  29.111  15.941  1.00  0.00    -0.385 N 
ATOM      7  H51 UNL     1      -4.013  28.425  15.300  1.00  0.00     0.157 HD
ATOM      8  H52 UNL     1      -5.421  29.228  16.026  1.00  0.00     0.157 HD
HETATM    9  C9  UNL     1      -2.236  29.678  16.513  1.00  0.00     0.024 A 
HETATM   10  C13 UNL     1      -1.459  30.492  17.306  1.00  0.00     0.116 A 
ENDROOT
BRANCH   2  11
HETATM   11  O2  UNL     1      -3.933  32.450  19.097  1.00  0.00    -0.285 OA
BRANCH  11  12
HETATM   12  C4  UNL     1      -5.189  33.037  18.939  1.00  0.00     0.260 C 
BRANCH  12  13
HETATM   13  N1  UNL     1      -5.190  34.462  18.747  1.00  0.00    -0.144 N 
HETATM   14  C5  UNL     1      -4.270  35.187  18.070  1.00  0.00     0.172 A 
HETATM   15  C6  UNL     1      -4.628  36.515  18.117  1.00  0.00     0.172 A 
HETATM   16  N2  UNL     1      -5.771  36.544  18.833  1.00  0.00    -0.169 N 
HETATM   17  C7  UNL     1      -6.105  35.313  19.208  1.00  0.00     0.685 A 
ATOM     18  H2  UNL     1      -6.301  37.387  19.054  1.00  0.00     0.186 HD
BRANCH  15  19
HETATM   19  O3  UNL     1      -3.953  37.607  17.545  1.00  0.00    -0.345 OA
ATOM     20  H3  UNL     1      -3.016  37.719  17.438  1.00  0.00     0.219 HD
ENDBRANCH  15  19
BRANCH  17  21
HETATM   21  N3  UNL     1      -7.132  34.994  19.898  1.00  0.00    -0.234 N 
ATOM     22  H32 UNL     1      -7.978  34.549  19.541  1.00  0.00     0.174 HD
ATOM     23  H31 UNL     1      -7.241  35.143  20.902  1.00  0.00     0.174 HD
ENDBRANCH  17  21
ENDBRANCH  12  13
ENDBRANCH  11  12
ENDBRANCH   2  11
BRANCH   1  24
HETATM   24  O1  UNL     1      -1.153  32.195  18.932  1.00  0.00    -0.349 OA
HETATM   25  C1  UNL     1      -0.797  33.477  18.448  1.00  0.00     0.210 C 
ENDBRANCH   1  24
BRANCH  10  26
HETATM   26  O9  UNL     1      -0.090  30.375  17.234  1.00  0.00    -0.352 OA
HETATM   27  C14 UNL     1       0.611  30.045  18.415  1.00  0.00     0.210 C 
ENDBRANCH  10  26
BRANCH   9  28
HETATM   28  C10 UNL     1      -1.600  28.719  15.622  1.00  0.00     0.079 C 
BRANCH  28  29
HETATM   29  C11 UNL     1      -1.091  27.456  16.208  1.00  0.00     0.147 C 
BRANCH  29  30
HETATM   30  O4  UNL     1      -0.036  26.872  15.558  1.00  0.00    -0.393 OA
ATOM     31  H4  UNL     1       0.066  25.936  15.682  1.00  0.00     0.210 HD
ENDBRANCH  29  30
BRANCH  29  32
HETATM   32  C12 UNL     1      -2.248  26.442  16.117  1.00  0.00     0.224 C 
BRANCH  32  33
HETATM   33  O5  UNL     1      -2.433  25.813  17.337  1.00  0.00    -0.254 OA
BRANCH  33  34
HETATM   34  S1  UNL     1      -4.010  26.064  17.848  1.00  0.00     0.251 S 
HETATM   35  O6  UNL     1      -4.933  26.189  16.670  1.00  0.00    -0.572 OA
HETATM   36  O7  UNL     1      -3.992  27.362  18.644  1.00  0.00    -0.572 OA
HETATM   37  O8  UNL     1      -4.459  24.813  18.861  1.00  0.00    -0.572 OA
ENDBRANCH  33  34
ENDBRANCH  32  33
ENDBRANCH  29  32
ENDBRANCH  28  29
ENDBRANCH   9  28
TORSDOF 13
ENDMDL
MODEL 5
REMARK VINA RESULT: -7.121077258      3.193      7.534
REMARK  13 active torsions:
REMARK  status: ('A' for Active; 'I' for Inactive)
REMARK    1  A    between atoms: O1_2  and  C2_3 
REMARK    2  A    between atoms: C3_4  and  O2_5 
REMARK    3  A    between atoms: O2_5  and  C4_6 
REMARK    4  A    between atoms: C4_6  and  N1_7 
REMARK    5  A    between atoms: C6_9  and  O3_10 
REMARK    6  A    between atoms: C7_14  and  N3_15 
REMARK    7  A    between atoms: C9_24  and  C10_25 
REMARK    8  A    between atoms: C10_25  and  C11_26 
REMARK    9  A    between atoms: C11_26  and  O4_27 
REMARK   10  A    between atoms: C11_26  and  C12_29 
REMARK   11  A    between atoms: C12_29  and  O5_30 
REMARK   12  A    between atoms: O5_30  and  S1_31 
REMARK   13  A    between atoms: C13_35  and  O9_36 
ROOT
HETATM    1  C2  UNL     1      -1.958  31.504  18.118  1.00  0.00     0.154 A 
HETATM    2  C3  UNL     1      -3.312  31.685  18.158  1.00  0.00     0.187 A 
HETATM    3  N4  UNL     1      -4.109  30.919  17.348  1.00  0.00    -0.320 N 
ATOM      4  H4  UNL     1      -5.120  31.051  17.377  1.00  0.00     0.169 HD
HETATM    5  C8  UNL     1      -3.592  29.997  16.517  1.00  0.00     0.110 A 
HETATM    6  N5  UNL     1      -4.399  29.305  15.799  1.00  0.00    -0.385 N 
ATOM      7  H51 UNL     1      -4.007  28.606  15.168  1.00  0.00     0.157 HD
ATOM      8  H52 UNL     1      -5.405  29.463  15.852  1.00  0.00     0.157 HD
HETATM    9  C9  UNL     1      -2.222  29.783  16.444  1.00  0.00     0.024 A 
HETATM   10  C13 UNL     1      -1.440  30.562  17.267  1.00  0.00     0.116 A 
ENDROOT
BRANCH   2  11
HETATM   11  O2  UNL     1      -3.891  32.611  18.986  1.00  0.00    -0.285 OA
BRANCH  11  12
HETATM   12  C4  UNL     1      -5.190  33.114  18.889  1.00  0.00     0.260 C 
BRANCH  12  13
HETATM   13  N1  UNL     1      -5.312  34.543  18.991  1.00  0.00    -0.144 N 
HETATM   14  C5  UNL     1      -6.155  35.226  19.800  1.00  0.00     0.172 A 
HETATM   15  C6  UNL     1      -5.967  36.575  19.600  1.00  0.00     0.172 A 
HETATM   16  N2  UNL     1      -5.002  36.658  18.662  1.00  0.00    -0.169 N 
HETATM   17  C7  UNL     1      -4.611  35.440  18.300  1.00  0.00     0.685 A 
ATOM     18  H2  UNL     1      -4.626  37.529  18.286  1.00  0.00     0.186 HD
BRANCH  15  19
HETATM   19  O3  UNL     1      -6.634  37.637  20.234  1.00  0.00    -0.345 OA
ATOM     20  H3  UNL     1      -6.259  38.308  20.792  1.00  0.00     0.219 HD
ENDBRANCH  15  19
BRANCH  17  21
HETATM   21  N3  UNL     1      -3.713  35.169  17.432  1.00  0.00    -0.234 N 
ATOM     22  H32 UNL     1      -3.461  34.237  17.105  1.00  0.00     0.174 HD
ATOM     23  H31 UNL     1      -3.129  35.854  16.952  1.00  0.00     0.174 HD
ENDBRANCH  17  21
ENDBRANCH  12  13
ENDBRANCH  11  12
ENDBRANCH   2  11
BRANCH   1  24
HETATM   24  O1  UNL     1      -1.120  32.246  18.910  1.00  0.00    -0.349 OA
HETATM   25  C1  UNL     1      -0.647  33.486  18.418  1.00  0.00     0.210 C 
ENDBRANCH   1  24
BRANCH  10  26
HETATM   26  O9  UNL     1      -0.075  30.390  17.239  1.00  0.00    -0.352 OA
HETATM   27  C14 UNL     1       0.570  30.005  18.436  1.00  0.00     0.210 C 
ENDBRANCH  10  26
BRANCH   9  28
HETATM   28  C10 UNL     1      -1.596  28.802  15.570  1.00  0.00     0.079 C 
BRANCH  28  29
HETATM   29  C11 UNL     1      -1.144  27.524  16.169  1.00  0.00     0.147 C 
BRANCH  29  30
HETATM   30  O4  UNL     1      -0.035  26.952  15.603  1.00  0.00    -0.393 OA
ATOM     31  H4  UNL     1       0.008  26.004  15.634  1.00  0.00     0.210 HD
ENDBRANCH  29  30
BRANCH  29  32
HETATM   32  C12 UNL     1      -2.290  26.516  15.950  1.00  0.00     0.224 C 
BRANCH  32  33
HETATM   33  O5  UNL     1      -2.551  25.824  17.121  1.00  0.00    -0.254 OA
BRANCH  33  34
HETATM   34  S1  UNL     1      -4.059  26.274  17.698  1.00  0.00     0.251 S 
HETATM   35  O6  UNL     1      -4.657  25.174  18.526  1.00  0.00    -0.572 OA
HETATM   36  O7  UNL     1      -4.918  26.535  16.468  1.00  0.00    -0.572 OA
HETATM   37  O8  UNL     1      -3.907  27.695  18.565  1.00  0.00    -0.572 OA
ENDBRANCH  33  34
ENDBRANCH  32  33
ENDBRANCH  29  32
ENDBRANCH  28  29
ENDBRANCH   9  28
TORSDOF 13
ENDMDL
