MODEL 1
REMARK VINA RESULT: -7.805957401      0.000      0.000
REMARK  2 active torsions:
REMARK  status: ('A' for Active; 'I' for Inactive)
REMARK    1  A    between atoms: O1_1  and  N1_3 
REMARK    2  A    between atoms: N1_3  and  C1_4 
ROOT
HETATM    1  C1  UNL     1     -22.588 -21.626 -22.572  1.00  0.00     0.225 C 
HETATM    2  C2  UNL     1     -22.669 -21.750 -24.068  1.00  0.00     0.276 C 
HETATM    3  F1  UNL     1     -23.257 -20.641 -24.659  1.00  0.00    -0.241 F 
HETATM    4  C3  UNL     1     -23.565 -22.931 -24.367  1.00  0.00     0.346 C 
HETATM    5  F2  UNL     1     -22.930 -23.795 -25.260  1.00  0.00    -0.196 F 
HETATM    6  F3  UNL     1     -24.748 -22.558 -24.964  1.00  0.00    -0.196 F 
HETATM    7  C4  UNL     1     -23.823 -23.643 -23.083  1.00  0.00     0.376 C 
HETATM    8  F4  UNL     1     -23.090 -24.824 -23.043  1.00  0.00    -0.192 F 
HETATM    9  F5  UNL     1     -25.154 -23.976 -22.899  1.00  0.00    -0.192 F 
HETATM   10  C5  UNL     1     -23.400 -22.716 -21.969  1.00  0.00     0.336 C 
HETATM   11  F6  UNL     1     -24.521 -22.152 -21.364  1.00  0.00    -0.197 F 
HETATM   12  F7  UNL     1     -22.756 -23.456 -21.026  1.00  0.00    -0.197 F 
ENDROOT
BRANCH   1  13
HETATM   13  N1  UNL     1     -21.206 -21.625 -22.163  1.00  0.00    -0.089 NA
BRANCH  13  14
HETATM   14  O1  UNL     1     -20.638 -20.423 -22.162  1.00  0.00    -0.295 OA
ATOM     15  H1  UNL     1     -20.160 -20.218 -21.368  1.00  0.00     0.238 HD
ENDBRANCH  13  14
ENDBRANCH   1  13
TORSDOF 2
ENDMDL
MODEL 2
REMARK VINA RESULT: -7.686916995      1.092      3.163
REMARK  2 active torsions:
REMARK  status: ('A' for Active; 'I' for Inactive)
REMARK    1  A    between atoms: O1_1  and  N1_3 
REMARK    2  A    between atoms: N1_3  and  C1_4 
ROOT
HETATM    1  C1  UNL     1     -21.770 -22.854 -22.804  1.00  0.00     0.225 C 
HETATM    2  C2  UNL     1     -22.718 -22.795 -21.638  1.00  0.00     0.276 C 
HETATM    3  F1  UNL     1     -22.865 -24.025 -21.015  1.00  0.00    -0.241 F 
HETATM    4  C3  UNL     1     -24.075 -22.419 -22.190  1.00  0.00     0.346 C 
HETATM    5  F2  UNL     1     -24.596 -21.341 -21.474  1.00  0.00    -0.196 F 
HETATM    6  F3  UNL     1     -24.992 -23.439 -22.075  1.00  0.00    -0.196 F 
HETATM    7  C4  UNL     1     -23.895 -22.029 -23.617  1.00  0.00     0.376 C 
HETATM    8  F4  UNL     1     -23.995 -20.648 -23.744  1.00  0.00    -0.192 F 
HETATM    9  F5  UNL     1     -24.836 -22.591 -24.462  1.00  0.00    -0.192 F 
HETATM   10  C5  UNL     1     -22.524 -22.504 -24.037  1.00  0.00     0.336 C 
HETATM   11  F6  UNL     1     -22.635 -23.645 -24.828  1.00  0.00    -0.197 F 
HETATM   12  F7  UNL     1     -21.956 -21.532 -24.800  1.00  0.00    -0.197 F 
ENDROOT
BRANCH   1  13
HETATM   13  N1  UNL     1     -20.635 -22.003 -22.546  1.00  0.00    -0.089 NA
BRANCH  13  14
HETATM   14  O1  UNL     1     -20.953 -20.762 -22.193  1.00  0.00    -0.295 OA
ATOM     15  H1  UNL     1     -21.811 -20.480 -22.487  1.00  0.00     0.238 HD
ENDBRANCH  13  14
ENDBRANCH   1  13
TORSDOF 2
ENDMDL
MODEL 3
REMARK VINA RESULT: -7.640756465      1.127      1.509
REMARK  2 active torsions:
REMARK  status: ('A' for Active; 'I' for Inactive)
REMARK    1  A    between atoms: O1_1  and  N1_3 
REMARK    2  A    between atoms: N1_3  and  C1_4 
ROOT
HETATM    1  C1  UNL     1     -22.195 -22.097 -22.107  1.00  0.00     0.225 C 
HETATM    2  C2  UNL     1     -23.159 -21.420 -23.042  1.00  0.00     0.276 C 
HETATM    3  F1  UNL     1     -24.056 -20.601 -22.373  1.00  0.00    -0.241 F 
HETATM    4  C3  UNL     1     -23.972 -22.509 -23.705  1.00  0.00     0.346 C 
HETATM    5  F2  UNL     1     -23.953 -22.339 -25.090  1.00  0.00    -0.196 F 
HETATM    6  F3  UNL     1     -25.296 -22.482 -23.329  1.00  0.00    -0.196 F 
HETATM    7  C4  UNL     1     -23.350 -23.818 -23.355  1.00  0.00     0.376 C 
HETATM    8  F4  UNL     1     -22.668 -24.325 -24.456  1.00  0.00    -0.192 F 
HETATM    9  F5  UNL     1     -24.272 -24.775 -22.965  1.00  0.00    -0.192 F 
HETATM   10  C5  UNL     1     -22.400 -23.566 -22.209  1.00  0.00     0.336 C 
HETATM   11  F6  UNL     1     -22.959 -24.020 -21.017  1.00  0.00    -0.197 F 
HETATM   12  F7  UNL     1     -21.270 -24.289 -22.432  1.00  0.00    -0.197 F 
ENDROOT
BRANCH   1  13
HETATM   13  N1  UNL     1     -20.852 -21.667 -22.405  1.00  0.00    -0.089 NA
BRANCH  13  14
HETATM   14  O1  UNL     1     -20.644 -20.367 -22.229  1.00  0.00    -0.295 OA
ATOM     15  H1  UNL     1     -19.731 -20.107 -22.283  1.00  0.00     0.238 HD
ENDBRANCH  13  14
ENDBRANCH   1  13
TORSDOF 2
ENDMDL
MODEL 4
REMARK VINA RESULT: -7.495188278      1.223      2.743
REMARK  2 active torsions:
REMARK  status: ('A' for Active; 'I' for Inactive)
REMARK    1  A    between atoms: O1_1  and  N1_3 
REMARK    2  A    between atoms: N1_3  and  C1_4 
ROOT
HETATM    1  C1  UNL     1     -22.196 -22.125 -22.871  1.00  0.00     0.225 C 
HETATM    2  C2  UNL     1     -22.199 -23.497 -22.256  1.00  0.00     0.276 C 
HETATM    3  F1  UNL     1     -21.370 -24.380 -22.933  1.00  0.00    -0.241 F 
HETATM    4  C3  UNL     1     -23.606 -24.035 -22.380  1.00  0.00     0.346 C 
HETATM    5  F2  UNL     1     -24.051 -24.492 -21.139  1.00  0.00    -0.196 F 
HETATM    6  F3  UNL     1     -23.687 -25.107 -23.239  1.00  0.00    -0.196 F 
HETATM    7  C4  UNL     1     -24.481 -22.920 -22.842  1.00  0.00     0.376 C 
HETATM    8  F4  UNL     1     -25.263 -22.466 -21.786  1.00  0.00    -0.192 F 
HETATM    9  F5  UNL     1     -25.340 -23.286 -23.865  1.00  0.00    -0.192 F 
HETATM   10  C5  UNL     1     -23.573 -21.823 -23.343  1.00  0.00     0.336 C 
HETATM   11  F6  UNL     1     -23.571 -21.803 -24.736  1.00  0.00    -0.197 F 
HETATM   12  F7  UNL     1     -24.077 -20.633 -22.919  1.00  0.00    -0.197 F 
ENDROOT
BRANCH   1  13
HETATM   13  N1  UNL     1     -21.676 -21.173 -21.922  1.00  0.00    -0.089 NA
BRANCH  13  14
HETATM   14  O1  UNL     1     -20.679 -20.428 -22.388  1.00  0.00    -0.295 OA
ATOM     15  H1  UNL     1     -19.853 -20.890 -22.474  1.00  0.00     0.238 HD
ENDBRANCH  13  14
ENDBRANCH   1  13
TORSDOF 2
ENDMDL
MODEL 5
REMARK VINA RESULT: -7.472243356      1.190      2.147
REMARK  2 active torsions:
REMARK  status: ('A' for Active; 'I' for Inactive)
REMARK    1  A    between atoms: O1_1  and  N1_3 
REMARK    2  A    between atoms: N1_3  and  C1_4 
ROOT
HETATM    1  C1  UNL     1     -22.204 -22.805 -21.850  1.00  0.00     0.225 C 
HETATM    2  C2  UNL     1     -22.735 -21.444 -22.204  1.00  0.00     0.276 C 
HETATM    3  F1  UNL     1     -23.187 -20.748 -21.092  1.00  0.00    -0.241 F 
HETATM    4  C3  UNL     1     -23.933 -21.656 -23.103  1.00  0.00     0.346 C 
HETATM    5  F2  UNL     1     -23.802 -20.883 -24.258  1.00  0.00    -0.196 F 
HETATM    6  F3  UNL     1     -25.113 -21.270 -22.510  1.00  0.00    -0.196 F 
HETATM    7  C4  UNL     1     -23.975 -23.100 -23.472  1.00  0.00     0.376 C 
HETATM    8  F4  UNL     1     -23.562 -23.261 -24.791  1.00  0.00    -0.192 F 
HETATM    9  F5  UNL     1     -25.237 -23.656 -23.363  1.00  0.00    -0.192 F 
HETATM   10  C5  UNL     1     -23.044 -23.826 -22.531  1.00  0.00     0.336 C 
HETATM   11  F6  UNL     1     -23.779 -24.511 -21.566  1.00  0.00    -0.197 F 
HETATM   12  F7  UNL     1     -22.353 -24.750 -23.251  1.00  0.00    -0.197 F 
ENDROOT
BRANCH   1  13
HETATM   13  N1  UNL     1     -20.803 -22.877 -22.183  1.00  0.00    -0.089 NA
BRANCH  13  14
HETATM   14  O1  UNL     1     -20.251 -21.704 -22.474  1.00  0.00    -0.295 OA
ATOM     15  H1  UNL     1     -19.756 -21.318 -21.760  1.00  0.00     0.238 HD
ENDBRANCH  13  14
ENDBRANCH   1  13
TORSDOF 2
ENDMDL
