MODEL 1
REMARK VINA RESULT: -6.764476143      0.000      0.000
REMARK  2 active torsions:
REMARK  status: ('A' for Active; 'I' for Inactive)
REMARK    1  A    between atoms: N1_1  and  C1_5 
REMARK    2  A    between atoms: C5_14  and  O1_15 
ROOT
HETATM    1  C1  UNL     1     -22.218 -23.284 -22.566  1.00  0.00     0.296 C 
HETATM    2  C2  UNL     1     -23.326 -23.691 -23.499  1.00  0.00     0.285 C 
HETATM    3  F1  UNL     1     -22.758 -24.049 -24.701  1.00  0.00    -0.240 F 
HETATM    4  C3  UNL     1     -24.076 -22.394 -23.734  1.00  0.00     0.346 C 
HETATM    5  F2  UNL     1     -24.932 -22.444 -24.784  1.00  0.00    -0.196 F 
HETATM    6  F3  UNL     1     -24.697 -21.941 -22.580  1.00  0.00    -0.196 F 
HETATM    7  C4  UNL     1     -22.902 -21.440 -23.972  1.00  0.00     0.372 C 
HETATM    8  F4  UNL     1     -22.259 -21.695 -25.148  1.00  0.00    -0.193 F 
HETATM    9  F5  UNL     1     -23.284 -20.132 -23.942  1.00  0.00    -0.193 F 
HETATM   10  C5  UNL     1     -22.040 -21.804 -22.755  1.00  0.00     0.306 C 
HETATM   11  F6  UNL     1     -22.510 -21.134 -21.639  1.00  0.00    -0.202 F 
ENDROOT
BRANCH   1  12
HETATM   12  N1  UNL     1     -22.560 -23.663 -21.228  1.00  0.00    -0.066 N 
ATOM     13  H13 UNL     1     -23.379 -23.163 -20.882  1.00  0.00     0.275 HD
ATOM     14  H12 UNL     1     -22.937 -24.610 -21.179  1.00  0.00     0.275 HD
ATOM     15  H11 UNL     1     -21.748 -23.539 -20.623  1.00  0.00     0.275 HD
ENDBRANCH   1  12
BRANCH  10  16
HETATM   16  O1  UNL     1     -20.728 -21.456 -23.061  1.00  0.00    -0.355 OA
ATOM     17  H1  UNL     1     -20.643 -20.551 -23.336  1.00  0.00     0.213 HD
ENDBRANCH  10  16
TORSDOF 2
ENDMDL
MODEL 2
REMARK VINA RESULT: -6.688505219      0.982      1.150
REMARK  2 active torsions:
REMARK  status: ('A' for Active; 'I' for Inactive)
REMARK    1  A    between atoms: N1_1  and  C1_5 
REMARK    2  A    between atoms: C5_14  and  O1_15 
ROOT
HETATM    1  C1  UNL     1     -22.185 -23.111 -23.077  1.00  0.00     0.296 C 
HETATM    2  C2  UNL     1     -23.156 -23.228 -24.220  1.00  0.00     0.285 C 
HETATM    3  F1  UNL     1     -22.599 -22.605 -25.314  1.00  0.00    -0.240 F 
HETATM    4  C3  UNL     1     -24.325 -22.371 -23.773  1.00  0.00     0.346 C 
HETATM    5  F2  UNL     1     -25.192 -22.072 -24.770  1.00  0.00    -0.196 F 
HETATM    6  F3  UNL     1     -24.968 -22.913 -22.670  1.00  0.00    -0.196 F 
HETATM    7  C4  UNL     1     -23.577 -21.142 -23.249  1.00  0.00     0.372 C 
HETATM    8  F4  UNL     1     -22.983 -20.433 -24.253  1.00  0.00    -0.193 F 
HETATM    9  F5  UNL     1     -24.384 -20.313 -22.529  1.00  0.00    -0.193 F 
HETATM   10  C5  UNL     1     -22.546 -21.844 -22.354  1.00  0.00     0.306 C 
HETATM   11  F6  UNL     1     -23.127 -22.153 -21.137  1.00  0.00    -0.202 F 
ENDROOT
BRANCH   1  12
HETATM   12  N1  UNL     1     -22.265 -24.287 -22.263  1.00  0.00    -0.066 N 
ATOM     13  H13 UNL     1     -21.908 -24.131 -21.321  1.00  0.00     0.275 HD
ATOM     14  H12 UNL     1     -23.227 -24.522 -22.017  1.00  0.00     0.275 HD
ATOM     15  H11 UNL     1     -21.789 -25.057 -22.734  1.00  0.00     0.275 HD
ENDBRANCH   1  12
BRANCH  10  16
HETATM   16  O1  UNL     1     -21.465 -20.979 -22.215  1.00  0.00    -0.355 OA
ATOM     17  H1  UNL     1     -20.641 -21.379 -22.470  1.00  0.00     0.213 HD
ENDBRANCH  10  16
TORSDOF 2
ENDMDL
MODEL 3
REMARK VINA RESULT: -6.630929587      1.835      2.746
REMARK  2 active torsions:
REMARK  status: ('A' for Active; 'I' for Inactive)
REMARK    1  A    between atoms: N1_1  and  C1_5 
REMARK    2  A    between atoms: C5_14  and  O1_15 
ROOT
HETATM    1  C1  UNL     1     -22.064 -22.367 -22.972  1.00  0.00     0.296 C 
HETATM    2  C2  UNL     1     -22.972 -22.240 -21.779  1.00  0.00     0.285 C 
HETATM    3  F1  UNL     1     -23.235 -23.507 -21.310  1.00  0.00    -0.240 F 
HETATM    4  C3  UNL     1     -24.262 -21.715 -22.378  1.00  0.00     0.346 C 
HETATM    5  F2  UNL     1     -25.327 -21.812 -21.546  1.00  0.00    -0.196 F 
HETATM    6  F3  UNL     1     -24.112 -20.431 -22.880  1.00  0.00    -0.196 F 
HETATM    7  C4  UNL     1     -24.383 -22.625 -23.604  1.00  0.00     0.372 C 
HETATM    8  F4  UNL     1     -24.653 -23.918 -23.262  1.00  0.00    -0.193 F 
HETATM    9  F5  UNL     1     -25.326 -22.186 -24.484  1.00  0.00    -0.193 F 
HETATM   10  C5  UNL     1     -22.965 -22.464 -24.170  1.00  0.00     0.306 C 
HETATM   11  F6  UNL     1     -22.891 -21.293 -24.902  1.00  0.00    -0.202 F 
ENDROOT
BRANCH   1  12
HETATM   12  N1  UNL     1     -21.167 -21.251 -23.007  1.00  0.00    -0.066 N 
ATOM     13  H13 UNL     1     -20.850 -20.980 -22.076  1.00  0.00     0.275 HD
ATOM     14  H12 UNL     1     -20.259 -21.498 -23.402  1.00  0.00     0.275 HD
ATOM     15  H11 UNL     1     -21.608 -20.479 -23.505  1.00  0.00     0.275 HD
ENDBRANCH   1  12
BRANCH  10  16
HETATM   16  O1  UNL     1     -22.703 -23.587 -24.949  1.00  0.00    -0.355 OA
ATOM     17  H1  UNL     1     -23.434 -24.193 -24.975  1.00  0.00     0.213 HD
ENDBRANCH  10  16
TORSDOF 2
ENDMDL
MODEL 4
REMARK VINA RESULT: -6.554210087      2.010      3.199
REMARK  2 active torsions:
REMARK  status: ('A' for Active; 'I' for Inactive)
REMARK    1  A    between atoms: N1_1  and  C1_5 
REMARK    2  A    between atoms: C5_14  and  O1_15 
ROOT
HETATM    1  C1  UNL     1     -24.003 -22.025 -23.231  1.00  0.00     0.296 C 
HETATM    2  C2  UNL     1     -24.487 -23.443 -23.099  1.00  0.00     0.285 C 
HETATM    3  F1  UNL     1     -25.013 -23.596 -21.836  1.00  0.00    -0.240 F 
HETATM    4  C3  UNL     1     -23.206 -24.254 -23.145  1.00  0.00     0.346 C 
HETATM    5  F2  UNL     1     -23.359 -25.536 -22.735  1.00  0.00    -0.196 F 
HETATM    6  F3  UNL     1     -22.591 -24.175 -24.385  1.00  0.00    -0.196 F 
HETATM    7  C4  UNL     1     -22.329 -23.430 -22.197  1.00  0.00     0.372 C 
HETATM    8  F4  UNL     1     -22.752 -23.510 -20.902  1.00  0.00    -0.193 F 
HETATM    9  F5  UNL     1     -21.016 -23.787 -22.265  1.00  0.00    -0.193 F 
HETATM   10  C5  UNL     1     -22.565 -22.035 -22.794  1.00  0.00     0.306 C 
HETATM   11  F6  UNL     1     -21.745 -21.859 -23.894  1.00  0.00    -0.202 F 
ENDROOT
BRANCH   1  12
HETATM   12  N1  UNL     1     -24.198 -21.580 -24.578  1.00  0.00    -0.066 N 
ATOM     13  H13 UNL     1     -23.722 -22.175 -25.255  1.00  0.00     0.275 HD
ATOM     14  H12 UNL     1     -25.155 -21.731 -24.900  1.00  0.00     0.275 HD
ATOM     15  H11 UNL     1     -23.916 -20.603 -24.656  1.00  0.00     0.275 HD
ENDBRANCH   1  12
BRANCH  10  16
HETATM   16  O1  UNL     1     -22.303 -21.108 -21.790  1.00  0.00    -0.355 OA
ATOM     17  H1  UNL     1     -21.569 -21.359 -21.242  1.00  0.00     0.213 HD
ENDBRANCH  10  16
TORSDOF 2
ENDMDL
MODEL 5
REMARK VINA RESULT: -6.537331427      1.839      3.135
REMARK  2 active torsions:
REMARK  status: ('A' for Active; 'I' for Inactive)
REMARK    1  A    between atoms: N1_1  and  C1_5 
REMARK    2  A    between atoms: C5_14  and  O1_15 
ROOT
HETATM    1  C1  UNL     1     -22.599 -21.844 -22.438  1.00  0.00     0.296 C 
HETATM    2  C2  UNL     1     -23.825 -21.512 -23.245  1.00  0.00     0.285 C 
HETATM    3  F1  UNL     1     -24.845 -21.222 -22.367  1.00  0.00    -0.240 F 
HETATM    4  C3  UNL     1     -24.174 -22.832 -23.905  1.00  0.00     0.346 C 
HETATM    5  F2  UNL     1     -25.420 -22.860 -24.439  1.00  0.00    -0.196 F 
HETATM    6  F3  UNL     1     -23.209 -23.220 -24.822  1.00  0.00    -0.196 F 
HETATM    7  C4  UNL     1     -24.017 -23.782 -22.715  1.00  0.00     0.372 C 
HETATM    8  F4  UNL     1     -24.985 -23.592 -21.772  1.00  0.00    -0.193 F 
HETATM    9  F5  UNL     1     -24.010 -25.091 -23.095  1.00  0.00    -0.193 F 
HETATM   10  C5  UNL     1     -22.636 -23.330 -22.220  1.00  0.00     0.306 C 
HETATM   11  F6  UNL     1     -21.653 -23.935 -22.982  1.00  0.00    -0.202 F 
ENDROOT
BRANCH   1  12
HETATM   12  N1  UNL     1     -21.434 -21.387 -23.134  1.00  0.00    -0.066 N 
ATOM     13  H13 UNL     1     -21.668 -20.800 -23.935  1.00  0.00     0.275 HD
ATOM     14  H12 UNL     1     -20.909 -20.696 -22.597  1.00  0.00     0.275 HD
ATOM     15  H11 UNL     1     -20.861 -22.188 -23.396  1.00  0.00     0.275 HD
ENDBRANCH   1  12
BRANCH  10  16
HETATM   16  O1  UNL     1     -22.547 -23.677 -20.875  1.00  0.00    -0.355 OA
ATOM     17  H1  UNL     1     -21.666 -23.922 -20.618  1.00  0.00     0.213 HD
ENDBRANCH  10  16
TORSDOF 2
ENDMDL
