MODEL 1
REMARK VINA RESULT: -7.935318673      0.000      0.000
REMARK  11 active torsions:
REMARK  status: ('A' for Active; 'I' for Inactive)
REMARK    1  A    between atoms: N2_5  and  N3_6 
REMARK    2  A    between atoms: C2_9  and  C3_10 
REMARK    3  A    between atoms: C3_10  and  S1_11 
REMARK    4  A    between atoms: S1_11  and  C4_12 
REMARK    5  A    between atoms: C6_18  and  N6_19 
REMARK    6  A    between atoms: N6_19  and  C7_21 
REMARK    7  A    between atoms: C11_25  and  N7_26 
REMARK    8  A    between atoms: C13_31  and  O1_32 
REMARK    9  A    between atoms: C14_37  and  N10_38 
REMARK   10  A    between atoms: N10_38  and  N11_40 
REMARK   11  A    between atoms: N12_43  and  N13_44 
ROOT
HETATM    1  C4  UNL     1     -15.014  -5.906  12.699  1.00  0.00     0.175 A 
HETATM    2  N4  UNL     1     -15.730  -7.031  12.621  1.00  0.00    -0.167 N 
ATOM      3  H4  UNL     1     -16.569  -7.231  13.165  1.00  0.00     0.186 HD
HETATM    4  C5  UNL     1     -15.184  -7.853  11.726  1.00  0.00     0.709 A 
HETATM    5  N5  UNL     1     -15.576  -9.044  11.259  1.00  0.00    -0.175 N 
ATOM      6  H5  UNL     1     -16.404  -9.481  11.663  1.00  0.00     0.186 HD
HETATM    7  C6  UNL     1     -14.899  -9.707  10.248  1.00  0.00     0.121 A 
HETATM    8  C12 UNL     1     -13.806  -9.093   9.743  1.00  0.00     0.107 A 
HETATM    9  C13 UNL     1     -13.411  -7.846  10.245  1.00  0.00     0.183 A 
HETATM   10  N8  UNL     1     -14.096  -7.244  11.219  1.00  0.00    -0.061 N 
HETATM   11  N9  UNL     1     -13.956  -6.076  11.780  1.00  0.00    -0.256 N 
ATOM     12  H9  UNL     1     -13.214  -5.403  11.588  1.00  0.00     0.190 HD
ENDROOT
BRANCH   1  13
HETATM   13  S1  UNL     1     -15.318  -4.390  13.456  1.00  0.00    -0.086 SA
BRANCH  13  14
HETATM   14  C3  UNL     1     -14.569  -2.886  12.909  1.00  0.00     0.146 C 
BRANCH  14  15
HETATM   15  C2  UNL     1     -15.359  -2.319  11.752  1.00  0.00     0.109 A 
HETATM   16  N2  UNL     1     -16.462  -1.671  11.612  1.00  0.00    -0.091 N 
HETATM   17  C1  UNL     1     -16.667  -1.387  10.288  1.00  0.00     0.719 A 
HETATM   18  N1  UNL     1     -17.702  -0.751   9.778  1.00  0.00    -0.231 N 
HETATM   19  N12 UNL     1     -15.657  -1.859   9.551  1.00  0.00    -0.071 N 
ATOM     20  H12 UNL     1     -18.473  -0.392  10.340  1.00  0.00     0.174 HD
ATOM     21  H11 UNL     1     -17.855  -0.539   8.792  1.00  0.00     0.174 HD
HETATM   22  C14 UNL     1     -14.832  -2.439  10.438  1.00  0.00     0.185 A 
BRANCH  16  23
HETATM   23  N3  UNL     1     -17.344  -1.199  12.602  1.00  0.00    -0.324 N 
ATOM     24  H32 UNL     1     -17.906  -0.347  12.609  1.00  0.00     0.178 HD
ATOM     25  H31 UNL     1     -17.554  -1.755  13.430  1.00  0.00     0.178 HD
ENDBRANCH  16  23
BRANCH  19  26
HETATM   26  N13 UNL     1     -15.465  -1.837   8.151  1.00  0.00    -0.322 N 
ATOM     27 2H13 UNL     1     -15.904  -2.474   7.487  1.00  0.00     0.178 HD
ATOM     28 1H13 UNL     1     -14.921  -1.197   7.574  1.00  0.00     0.178 HD
ENDBRANCH  19  26
BRANCH  22  29
HETATM   29  N10 UNL     1     -13.633  -3.138  10.212  1.00  0.00    -0.288 N 
ATOM     30  H10 UNL     1     -13.698  -4.042   9.744  1.00  0.00     0.188 HD
BRANCH  29  31
HETATM   31  N11 UNL     1     -12.354  -2.690  10.579  1.00  0.00    -0.344 N 
ATOM     32 2H11 UNL     1     -12.315  -1.823  11.114  1.00  0.00     0.176 HD
ATOM     33 1H11 UNL     1     -11.478  -3.162  10.352  1.00  0.00     0.176 HD
ENDBRANCH  29  31
ENDBRANCH  22  29
ENDBRANCH  14  15
ENDBRANCH  13  14
ENDBRANCH   1  13
BRANCH   9  34
HETATM   34  O1  UNL     1     -12.301  -7.196   9.741  1.00  0.00    -0.344 OA
ATOM     35  H1  UNL     1     -12.158  -7.129   8.804  1.00  0.00     0.219 HD
ENDBRANCH   9  34
BRANCH   7  36
HETATM   36  N6  UNL     1     -15.405 -10.975   9.915  1.00  0.00    -0.369 N 
ATOM     37  H6  UNL     1     -14.907 -11.461   9.169  1.00  0.00     0.161 HD
BRANCH  36  38
HETATM   38  C7  UNL     1     -16.517 -11.684  10.470  1.00  0.00     0.113 C 
HETATM   39  C8  UNL     1     -15.886 -12.838  11.301  1.00  0.00     0.027 C 
HETATM   40  C9  UNL     1     -15.481 -13.735  10.143  1.00  0.00     0.004 C 
HETATM   41  C10 UNL     1     -16.494 -13.459   9.016  1.00  0.00     0.035 C 
HETATM   42  C11 UNL     1     -17.434 -12.480   9.632  1.00  0.00     0.206 C 
BRANCH  42  43
HETATM   43  N7  UNL     1     -18.318 -11.781   8.777  1.00  0.00    -0.073 N 
ATOM     44  H73 UNL     1     -18.048 -11.947   7.807  1.00  0.00     0.274 HD
ATOM     45  H72 UNL     1     -19.234 -12.230   8.801  1.00  0.00     0.274 HD
ATOM     46  H71 UNL     1     -18.431 -10.779   8.928  1.00  0.00     0.274 HD
ENDBRANCH  42  43
ENDBRANCH  36  38
ENDBRANCH   7  36
TORSDOF 11
ENDMDL
MODEL 2
REMARK VINA RESULT: -7.716211280      0.621      2.052
REMARK  11 active torsions:
REMARK  status: ('A' for Active; 'I' for Inactive)
REMARK    1  A    between atoms: N2_5  and  N3_6 
REMARK    2  A    between atoms: C2_9  and  C3_10 
REMARK    3  A    between atoms: C3_10  and  S1_11 
REMARK    4  A    between atoms: S1_11  and  C4_12 
REMARK    5  A    between atoms: C6_18  and  N6_19 
REMARK    6  A    between atoms: N6_19  and  C7_21 
REMARK    7  A    between atoms: C11_25  and  N7_26 
REMARK    8  A    between atoms: C13_31  and  O1_32 
REMARK    9  A    between atoms: C14_37  and  N10_38 
REMARK   10  A    between atoms: N10_38  and  N11_40 
REMARK   11  A    between atoms: N12_43  and  N13_44 
ROOT
HETATM    1  C4  UNL     1     -15.002  -5.634  12.833  1.00  0.00     0.175 A 
HETATM    2  N4  UNL     1     -15.714  -6.759  12.721  1.00  0.00    -0.167 N 
ATOM      3  H4  UNL     1     -16.572  -6.962  13.233  1.00  0.00     0.186 HD
HETATM    4  C5  UNL     1     -15.136  -7.573  11.838  1.00  0.00     0.709 A 
HETATM    5  N5  UNL     1     -15.511  -8.760  11.348  1.00  0.00    -0.175 N 
ATOM      6  H5  UNL     1     -16.353  -9.201  11.718  1.00  0.00     0.186 HD
HETATM    7  C6  UNL     1     -14.798  -9.414  10.357  1.00  0.00     0.121 A 
HETATM    8  C12 UNL     1     -13.688  -8.797   9.896  1.00  0.00     0.107 A 
HETATM    9  C13 UNL     1     -13.312  -7.553  10.421  1.00  0.00     0.183 A 
HETATM   10  N8  UNL     1     -14.031  -6.960  11.376  1.00  0.00    -0.061 N 
HETATM   11  N9  UNL     1     -13.912  -5.796  11.951  1.00  0.00    -0.256 N 
ATOM     12  H9  UNL     1     -13.163  -5.122  11.791  1.00  0.00     0.190 HD
ENDROOT
BRANCH   1  13
HETATM   13  S1  UNL     1     -15.332  -4.124  13.591  1.00  0.00    -0.086 SA
BRANCH  13  14
HETATM   14  C3  UNL     1     -14.644  -2.601  13.019  1.00  0.00     0.146 C 
BRANCH  14  15
HETATM   15  C2  UNL     1     -15.135  -2.318  11.618  1.00  0.00     0.109 A 
HETATM   16  N2  UNL     1     -14.705  -2.536  10.424  1.00  0.00    -0.091 N 
HETATM   17  C1  UNL     1     -15.614  -2.069   9.513  1.00  0.00     0.719 A 
HETATM   18  N1  UNL     1     -15.496  -2.109   8.201  1.00  0.00    -0.231 N 
HETATM   19  N12 UNL     1     -16.670  -1.542  10.141  1.00  0.00    -0.071 N 
ATOM     20  H12 UNL     1     -14.690  -2.511   7.723  1.00  0.00     0.174 HD
ATOM     21  H11 UNL     1     -16.173  -1.761   7.523  1.00  0.00     0.174 HD
HETATM   22  C14 UNL     1     -16.395  -1.687  11.447  1.00  0.00     0.185 A 
BRANCH  16  23
HETATM   23  N3  UNL     1     -13.546  -3.220  10.010  1.00  0.00    -0.324 N 
ATOM     24  H32 UNL     1     -13.431  -3.886   9.245  1.00  0.00     0.178 HD
ATOM     25  H31 UNL     1     -12.642  -3.032  10.442  1.00  0.00     0.178 HD
ENDBRANCH  16  23
BRANCH  19  26
HETATM   26  N13 UNL     1     -17.819  -0.909   9.613  1.00  0.00    -0.322 N 
ATOM     27 2H13 UNL     1     -17.932   0.097   9.488  1.00  0.00     0.178 HD
ATOM     28 1H13 UNL     1     -18.679  -1.313   9.244  1.00  0.00     0.178 HD
ENDBRANCH  19  26
BRANCH  22  29
HETATM   29  N10 UNL     1     -17.139  -1.267  12.564  1.00  0.00    -0.288 N 
ATOM     30  H10 UNL     1     -16.823  -0.427  13.049  1.00  0.00     0.188 HD
BRANCH  29  31
HETATM   31  N11 UNL     1     -18.282  -1.911  13.064  1.00  0.00    -0.344 N 
ATOM     32 2H11 UNL     1     -19.176  -1.460  12.871  1.00  0.00     0.176 HD
ATOM     33 1H11 UNL     1     -18.281  -2.781  13.596  1.00  0.00     0.176 HD
ENDBRANCH  29  31
ENDBRANCH  22  29
ENDBRANCH  14  15
ENDBRANCH  13  14
ENDBRANCH   1  13
BRANCH   9  34
HETATM   34  O1  UNL     1     -12.185  -6.900   9.963  1.00  0.00    -0.344 OA
ATOM     35  H1  UNL     1     -11.852  -6.128  10.408  1.00  0.00     0.219 HD
ENDBRANCH   9  34
BRANCH   7  36
HETATM   36  N6  UNL     1     -15.291 -10.679   9.995  1.00  0.00    -0.369 N 
ATOM     37  H6  UNL     1     -14.696 -11.216   9.364  1.00  0.00     0.161 HD
BRANCH  36  38
HETATM   38  C7  UNL     1     -16.508 -11.325  10.384  1.00  0.00     0.113 C 
HETATM   39  C8  UNL     1     -16.060 -12.586  11.177  1.00  0.00     0.027 C 
HETATM   40  C9  UNL     1     -15.614 -13.431   9.996  1.00  0.00     0.004 C 
HETATM   41  C10 UNL     1     -16.480 -12.988   8.803  1.00  0.00     0.035 C 
HETATM   42  C11 UNL     1     -17.396 -11.976   9.401  1.00  0.00     0.206 C 
BRANCH  42  43
HETATM   43  N7  UNL     1     -18.129 -11.144   8.523  1.00  0.00    -0.073 N 
ATOM     44  H73 UNL     1     -17.524 -10.395   8.187  1.00  0.00     0.274 HD
ATOM     45  H72 UNL     1     -18.310 -11.648   7.655  1.00  0.00     0.274 HD
ATOM     46  H71 UNL     1     -19.001 -10.742   8.867  1.00  0.00     0.274 HD
ENDBRANCH  42  43
ENDBRANCH  36  38
ENDBRANCH   7  36
TORSDOF 11
ENDMDL
MODEL 3
REMARK VINA RESULT: -7.584090900      2.842      4.701
REMARK  11 active torsions:
REMARK  status: ('A' for Active; 'I' for Inactive)
REMARK    1  A    between atoms: N2_5  and  N3_6 
REMARK    2  A    between atoms: C2_9  and  C3_10 
REMARK    3  A    between atoms: C3_10  and  S1_11 
REMARK    4  A    between atoms: S1_11  and  C4_12 
REMARK    5  A    between atoms: C6_18  and  N6_19 
REMARK    6  A    between atoms: N6_19  and  C7_21 
REMARK    7  A    between atoms: C11_25  and  N7_26 
REMARK    8  A    between atoms: C13_31  and  O1_32 
REMARK    9  A    between atoms: C14_37  and  N10_38 
REMARK   10  A    between atoms: N10_38  and  N11_40 
REMARK   11  A    between atoms: N12_43  and  N13_44 
ROOT
HETATM    1  C4  UNL     1     -15.473  -9.323  11.176  1.00  0.00     0.175 A 
HETATM    2  N4  UNL     1     -16.121 -10.140  10.341  1.00  0.00    -0.167 N 
ATOM      3  H4  UNL     1     -16.779  -9.841   9.622  1.00  0.00     0.186 HD
HETATM    4  C5  UNL     1     -15.778 -11.403  10.589  1.00  0.00     0.709 A 
HETATM    5  N5  UNL     1     -16.105 -12.548   9.978  1.00  0.00    -0.175 N 
ATOM      6  H5  UNL     1     -16.779 -12.521   9.213  1.00  0.00     0.186 HD
HETATM    7  C6  UNL     1     -15.562 -13.768  10.345  1.00  0.00     0.121 A 
HETATM    8  C12 UNL     1     -14.675 -13.759  11.364  1.00  0.00     0.107 A 
HETATM    9  C13 UNL     1     -14.345 -12.551  11.991  1.00  0.00     0.183 A 
HETATM   10  N8  UNL     1     -14.893 -11.397  11.603  1.00  0.00    -0.061 N 
HETATM   11  N9  UNL     1     -14.686 -10.169  11.986  1.00  0.00    -0.256 N 
ATOM     12  H9  UNL     1     -14.065  -9.872  12.739  1.00  0.00     0.190 HD
ENDROOT
BRANCH   1  13
HETATM   13  S1  UNL     1     -15.286  -7.611  11.211  1.00  0.00    -0.086 SA
BRANCH  13  14
HETATM   14  C3  UNL     1     -14.909  -6.724  12.691  1.00  0.00     0.146 C 
BRANCH  14  15
HETATM   15  C2  UNL     1     -14.272  -5.399  12.338  1.00  0.00     0.109 A 
HETATM   16  N2  UNL     1     -13.290  -5.010  11.603  1.00  0.00    -0.091 N 
HETATM   17  C1  UNL     1     -13.194  -3.645  11.645  1.00  0.00     0.719 A 
HETATM   18  N1  UNL     1     -12.295  -2.906  11.026  1.00  0.00    -0.231 N 
HETATM   19  N12 UNL     1     -14.152  -3.137  12.426  1.00  0.00    -0.071 N 
ATOM     20  H12 UNL     1     -11.564  -3.294  10.430  1.00  0.00     0.174 HD
ATOM     21  H11 UNL     1     -12.224  -1.889  11.057  1.00  0.00     0.174 HD
HETATM   22  C14 UNL     1     -14.834  -4.207  12.865  1.00  0.00     0.185 A 
BRANCH  16  23
HETATM   23  N3  UNL     1     -12.446  -5.773  10.773  1.00  0.00    -0.324 N 
ATOM     24  H32 UNL     1     -11.427  -5.824  10.765  1.00  0.00     0.178 HD
ATOM     25  H31 UNL     1     -12.829  -6.439  10.103  1.00  0.00     0.178 HD
ENDBRANCH  16  23
BRANCH  19  26
HETATM   26  N13 UNL     1     -14.411  -1.797  12.793  1.00  0.00    -0.322 N 
ATOM     27 2H13 UNL     1     -13.714  -1.053  12.838  1.00  0.00     0.178 HD
ATOM     28 1H13 UNL     1     -15.291  -1.339  13.026  1.00  0.00     0.178 HD
ENDBRANCH  19  26
BRANCH  22  29
HETATM   29  N10 UNL     1     -15.920  -4.264  13.757  1.00  0.00    -0.288 N 
ATOM     30  H10 UNL     1     -15.707  -4.357  14.750  1.00  0.00     0.188 HD
BRANCH  29  31
HETATM   31  N11 UNL     1     -17.273  -4.204  13.390  1.00  0.00    -0.344 N 
ATOM     32 2H11 UNL     1     -17.534  -3.456  12.748  1.00  0.00     0.176 HD
ATOM     33 1H11 UNL     1     -18.000  -4.844  13.713  1.00  0.00     0.176 HD
ENDBRANCH  29  31
ENDBRANCH  22  29
ENDBRANCH  14  15
ENDBRANCH  13  14
ENDBRANCH   1  13
BRANCH   9  34
HETATM   34  O1  UNL     1     -13.437 -12.515  13.031  1.00  0.00    -0.344 OA
ATOM     35  H1  UNL     1     -13.365 -11.750  13.591  1.00  0.00     0.219 HD
ENDBRANCH   9  34
BRANCH   7  36
HETATM   36  N6  UNL     1     -16.055 -14.882   9.643  1.00  0.00    -0.369 N 
ATOM     37  H6  UNL     1     -17.071 -14.930   9.560  1.00  0.00     0.161 HD
BRANCH  36  38
HETATM   38  C7  UNL     1     -15.340 -15.958   9.028  1.00  0.00     0.113 C 
HETATM   39  C8  UNL     1     -16.184 -16.343   7.780  1.00  0.00     0.027 C 
HETATM   40  C9  UNL     1     -17.304 -17.074   8.500  1.00  0.00     0.004 C 
HETATM   41  C10 UNL     1     -16.676 -17.668   9.774  1.00  0.00     0.035 C 
HETATM   42  C11 UNL     1     -15.239 -17.290   9.656  1.00  0.00     0.206 C 
BRANCH  42  43
HETATM   43  N7  UNL     1     -14.424 -17.416  10.805  1.00  0.00    -0.073 N 
ATOM     44  H73 UNL     1     -13.684 -18.093  10.620  1.00  0.00     0.274 HD
ATOM     45  H72 UNL     1     -13.879 -16.563  10.925  1.00  0.00     0.274 HD
ATOM     46  H71 UNL     1     -14.880 -17.650  11.687  1.00  0.00     0.274 HD
ENDBRANCH  42  43
ENDBRANCH  36  38
ENDBRANCH   7  36
TORSDOF 11
ENDMDL
MODEL 4
REMARK VINA RESULT: -7.442383994      2.674      4.347
REMARK  11 active torsions:
REMARK  status: ('A' for Active; 'I' for Inactive)
REMARK    1  A    between atoms: N2_5  and  N3_6 
REMARK    2  A    between atoms: C2_9  and  C3_10 
REMARK    3  A    between atoms: C3_10  and  S1_11 
REMARK    4  A    between atoms: S1_11  and  C4_12 
REMARK    5  A    between atoms: C6_18  and  N6_19 
REMARK    6  A    between atoms: N6_19  and  C7_21 
REMARK    7  A    between atoms: C11_25  and  N7_26 
REMARK    8  A    between atoms: C13_31  and  O1_32 
REMARK    9  A    between atoms: C14_37  and  N10_38 
REMARK   10  A    between atoms: N10_38  and  N11_40 
REMARK   11  A    between atoms: N12_43  and  N13_44 
ROOT
HETATM    1  C4  UNL     1     -15.478  -9.214  11.208  1.00  0.00     0.175 A 
HETATM    2  N4  UNL     1     -16.071 -10.034  10.336  1.00  0.00    -0.167 N 
ATOM      3  H4  UNL     1     -16.703  -9.739   9.592  1.00  0.00     0.186 HD
HETATM    4  C5  UNL     1     -15.714 -11.293  10.585  1.00  0.00     0.709 A 
HETATM    5  N5  UNL     1     -15.990 -12.437   9.948  1.00  0.00    -0.175 N 
ATOM      6  H5  UNL     1     -16.630 -12.414   9.154  1.00  0.00     0.186 HD
HETATM    7  C6  UNL     1     -15.441 -13.651  10.326  1.00  0.00     0.121 A 
HETATM    8  C12 UNL     1     -14.600 -13.636  11.384  1.00  0.00     0.107 A 
HETATM    9  C13 UNL     1     -14.323 -12.428  12.038  1.00  0.00     0.183 A 
HETATM   10  N8  UNL     1     -14.875 -11.282  11.638  1.00  0.00    -0.061 N 
HETATM   11  N9  UNL     1     -14.710 -10.054  12.044  1.00  0.00    -0.256 N 
ATOM     12  H9  UNL     1     -14.130  -9.754  12.827  1.00  0.00     0.190 HD
ENDROOT
BRANCH   1  13
HETATM   13  S1  UNL     1     -15.327  -7.500  11.269  1.00  0.00    -0.086 SA
BRANCH  13  14
HETATM   14  C3  UNL     1     -14.874  -6.636  12.742  1.00  0.00     0.146 C 
BRANCH  14  15
HETATM   15  C2  UNL     1     -14.255  -5.305  12.378  1.00  0.00     0.109 A 
HETATM   16  N2  UNL     1     -13.287  -4.909  11.628  1.00  0.00    -0.091 N 
HETATM   17  C1  UNL     1     -13.204  -3.542  11.666  1.00  0.00     0.719 A 
HETATM   18  N1  UNL     1     -12.321  -2.796  11.033  1.00  0.00    -0.231 N 
HETATM   19  N12 UNL     1     -14.155  -3.041  12.460  1.00  0.00    -0.071 N 
ATOM     20  H12 UNL     1     -11.595  -3.178  10.428  1.00  0.00     0.174 HD
ATOM     21  H11 UNL     1     -12.259  -1.779  11.062  1.00  0.00     0.174 HD
HETATM   22  C14 UNL     1     -14.821  -4.117  12.911  1.00  0.00     0.185 A 
BRANCH  16  23
HETATM   23  N3  UNL     1     -12.449  -5.665  10.788  1.00  0.00    -0.324 N 
ATOM     24  H32 UNL     1     -11.915  -5.363   9.971  1.00  0.00     0.178 HD
ATOM     25  H31 UNL     1     -12.244  -6.643  10.990  1.00  0.00     0.178 HD
ENDBRANCH  16  23
BRANCH  19  26
HETATM   26  N13 UNL     1     -14.421  -1.703  12.829  1.00  0.00    -0.322 N 
ATOM     27 2H13 UNL     1     -14.447  -0.910  12.188  1.00  0.00     0.178 HD
ATOM     28 1H13 UNL     1     -14.662  -1.309  13.737  1.00  0.00     0.178 HD
ENDBRANCH  19  26
BRANCH  22  29
HETATM   29  N10 UNL     1     -15.893  -4.183  13.819  1.00  0.00    -0.288 N 
ATOM     30  H10 UNL     1     -15.665  -4.256  14.810  1.00  0.00     0.188 HD
BRANCH  29  31
HETATM   31  N11 UNL     1     -17.252  -4.156  13.469  1.00  0.00    -0.344 N 
ATOM     32 2H11 UNL     1     -17.465  -4.236  12.475  1.00  0.00     0.176 HD
ATOM     33 1H11 UNL     1     -18.027  -4.064  14.127  1.00  0.00     0.176 HD
ENDBRANCH  29  31
ENDBRANCH  22  29
ENDBRANCH  14  15
ENDBRANCH  13  14
ENDBRANCH   1  13
BRANCH   9  34
HETATM   34  O1  UNL     1     -13.462 -12.387  13.118  1.00  0.00    -0.344 OA
ATOM     35  H1  UNL     1     -13.679 -12.826  13.933  1.00  0.00     0.219 HD
ENDBRANCH   9  34
BRANCH   7  36
HETATM   36  N6  UNL     1     -15.880 -14.765   9.591  1.00  0.00    -0.369 N 
ATOM     37  H6  UNL     1     -15.318 -15.610   9.703  1.00  0.00     0.161 HD
BRANCH  36  38
HETATM   38  C7  UNL     1     -17.000 -14.888   8.710  1.00  0.00     0.113 C 
HETATM   39  C8  UNL     1     -17.420 -16.384   8.796  1.00  0.00     0.027 C 
HETATM   40  C9  UNL     1     -16.292 -16.968   7.963  1.00  0.00     0.004 C 
HETATM   41  C10 UNL     1     -15.893 -15.873   6.957  1.00  0.00     0.035 C 
HETATM   42  C11 UNL     1     -16.858 -14.775   7.244  1.00  0.00     0.206 C 
BRANCH  42  43
HETATM   43  N7  UNL     1     -16.586 -13.495   6.707  1.00  0.00    -0.073 N 
ATOM     44  H73 UNL     1     -16.029 -12.962   7.373  1.00  0.00     0.274 HD
ATOM     45  H72 UNL     1     -15.926 -13.589   5.935  1.00  0.00     0.274 HD
ATOM     46  H71 UNL     1     -17.379 -12.929   6.404  1.00  0.00     0.274 HD
ENDBRANCH  42  43
ENDBRANCH  36  38
ENDBRANCH   7  36
TORSDOF 11
ENDMDL
MODEL 5
REMARK VINA RESULT: -7.368828470      3.446      5.839
REMARK  11 active torsions:
REMARK  status: ('A' for Active; 'I' for Inactive)
REMARK    1  A    between atoms: N2_5  and  N3_6 
REMARK    2  A    between atoms: C2_9  and  C3_10 
REMARK    3  A    between atoms: C3_10  and  S1_11 
REMARK    4  A    between atoms: S1_11  and  C4_12 
REMARK    5  A    between atoms: C6_18  and  N6_19 
REMARK    6  A    between atoms: N6_19  and  C7_21 
REMARK    7  A    between atoms: C11_25  and  N7_26 
REMARK    8  A    between atoms: C13_31  and  O1_32 
REMARK    9  A    between atoms: C14_37  and  N10_38 
REMARK   10  A    between atoms: N10_38  and  N11_40 
REMARK   11  A    between atoms: N12_43  and  N13_44 
ROOT
HETATM    1  C4  UNL     1     -15.301 -10.467  10.695  1.00  0.00     0.175 A 
HETATM    2  N4  UNL     1     -15.642 -11.541   9.976  1.00  0.00    -0.167 N 
ATOM      3  H4  UNL     1     -16.113 -11.515   9.072  1.00  0.00     0.186 HD
HETATM    4  C5  UNL     1     -15.273 -12.649  10.617  1.00  0.00     0.709 A 
HETATM    5  N5  UNL     1     -15.336 -13.939  10.268  1.00  0.00    -0.175 N 
ATOM      6  H5  UNL     1     -15.788 -14.188   9.389  1.00  0.00     0.186 HD
HETATM    7  C6  UNL     1     -14.810 -14.950  11.056  1.00  0.00     0.121 A 
HETATM    8  C12 UNL     1     -14.222 -14.576  12.214  1.00  0.00     0.107 A 
HETATM    9  C13 UNL     1     -14.165 -13.220  12.562  1.00  0.00     0.183 A 
HETATM   10  N8  UNL     1     -14.685 -12.280  11.770  1.00  0.00    -0.061 N 
HETATM   11  N9  UNL     1     -14.685 -10.980  11.857  1.00  0.00    -0.256 N 
ATOM     12  H9  UNL     1     -14.308 -10.430  12.629  1.00  0.00     0.190 HD
ENDROOT
BRANCH   1  13
HETATM   13  S1  UNL     1     -15.269  -8.786  10.323  1.00  0.00    -0.086 SA
BRANCH  13  14
HETATM   14  C3  UNL     1     -14.870  -7.553  11.523  1.00  0.00     0.146 C 
BRANCH  14  15
HETATM   15  C2  UNL     1     -13.487  -7.007  11.248  1.00  0.00     0.109 A 
HETATM   16  N2  UNL     1     -12.360  -7.493  10.862  1.00  0.00    -0.091 N 
HETATM   17  C1  UNL     1     -11.436  -6.488  10.755  1.00  0.00     0.719 A 
HETATM   18  N1  UNL     1     -10.174  -6.622  10.402  1.00  0.00    -0.231 N 
HETATM   19  N12 UNL     1     -11.990  -5.314  11.074  1.00  0.00    -0.071 N 
ATOM     20  H12 UNL     1      -9.751  -7.518  10.159  1.00  0.00     0.174 HD
ATOM     21  H11 UNL     1      -9.486  -5.874  10.322  1.00  0.00     0.174 HD
HETATM   22  C14 UNL     1     -13.262  -5.612  11.381  1.00  0.00     0.185 A 
BRANCH  16  23
HETATM   23  N3  UNL     1     -12.043  -8.813  10.491  1.00  0.00    -0.324 N 
ATOM     24  H32 UNL     1     -11.287  -9.412  10.825  1.00  0.00     0.178 HD
ATOM     25  H31 UNL     1     -12.639  -9.338   9.851  1.00  0.00     0.178 HD
ENDBRANCH  16  23
BRANCH  19  26
HETATM   26  N13 UNL     1     -11.412  -4.026  11.147  1.00  0.00    -0.322 N 
ATOM     27 2H13 UNL     1     -11.278  -3.395  10.356  1.00  0.00     0.178 HD
ATOM     28 1H13 UNL     1     -11.080  -3.501  11.955  1.00  0.00     0.178 HD
ENDBRANCH  19  26
BRANCH  22  29
HETATM   29  N10 UNL     1     -14.290  -4.764  11.832  1.00  0.00    -0.288 N 
ATOM     30  H10 UNL     1     -14.635  -4.908  12.781  1.00  0.00     0.188 HD
BRANCH  29  31
HETATM   31  N11 UNL     1     -14.879  -3.735  11.080  1.00  0.00    -0.344 N 
ATOM     32 2H11 UNL     1     -14.994  -3.913  10.083  1.00  0.00     0.176 HD
ATOM     33 1H11 UNL     1     -15.193  -2.839  11.454  1.00  0.00     0.176 HD
ENDBRANCH  29  31
ENDBRANCH  22  29
ENDBRANCH  14  15
ENDBRANCH  13  14
ENDBRANCH   1  13
BRANCH   9  34
HETATM   34  O1  UNL     1     -13.564 -12.813  13.738  1.00  0.00    -0.344 OA
ATOM     35  H1  UNL     1     -14.014 -12.896  14.571  1.00  0.00     0.219 HD
ENDBRANCH   9  34
BRANCH   7  36
HETATM   36  N6  UNL     1     -15.012 -16.255  10.576  1.00  0.00    -0.369 N 
ATOM     37  H6  UNL     1     -14.993 -16.988  11.285  1.00  0.00     0.161 HD
BRANCH  36  38
HETATM   38  C7  UNL     1     -15.242 -16.705   9.237  1.00  0.00     0.113 C 
HETATM   39  C8  UNL     1     -16.758 -17.047   9.180  1.00  0.00     0.027 C 
HETATM   40  C9  UNL     1     -16.708 -18.355   9.952  1.00  0.00     0.004 C 
HETATM   41  C10 UNL     1     -15.315 -18.954   9.687  1.00  0.00     0.035 C 
HETATM   42  C11 UNL     1     -14.699 -17.984   8.738  1.00  0.00     0.206 C 
BRANCH  42  43
HETATM   43  N7  UNL     1     -13.304 -18.066   8.517  1.00  0.00    -0.073 N 
ATOM     44  H73 UNL     1     -13.132 -18.461   7.593  1.00  0.00     0.274 HD
ATOM     45  H72 UNL     1     -12.927 -17.126   8.397  1.00  0.00     0.274 HD
ATOM     46  H71 UNL     1     -12.744 -18.567   9.207  1.00  0.00     0.274 HD
ENDBRANCH  42  43
ENDBRANCH  36  38
ENDBRANCH   7  36
TORSDOF 11
ENDMDL
