MODEL 1
REMARK VINA RESULT: -5.612921884      0.000      0.000
REMARK  4 active torsions:
REMARK  status: ('A' for Active; 'I' for Inactive)
REMARK    1  A    between atoms: N1_2  and  N2_3 
REMARK    2  A    between atoms: N1_2  and  C2_11 
REMARK    3  A    between atoms: N2_3  and  S1_5 
REMARK    4  A    between atoms: S1_5  and  N3_6 
ROOT
HETATM    1  C2  UNL     1     -38.145 -70.568  -2.874  1.00  0.00     0.111 C 
HETATM    2  C3  UNL     1     -37.468 -71.820  -3.365  1.00  0.00     0.033 C 
HETATM    3  C4  UNL     1     -38.534 -72.665  -4.006  1.00  0.00    -0.002 C 
HETATM    4  C5  UNL     1     -38.729 -72.156  -5.433  1.00  0.00     0.026 C 
HETATM    5  C6  UNL     1     -40.068 -71.461  -5.402  1.00  0.00     0.020 C 
HETATM    6 BR1  UNL     1     -40.912 -71.240  -7.068  1.00  0.00    -0.085 Br
HETATM    7  C7  UNL     1     -40.811 -72.372  -4.426  1.00  0.00     0.031 C 
HETATM    8  C8  UNL     1     -39.790 -72.249  -3.298  1.00  0.00    -0.029 C 
HETATM    9  C9  UNL     1     -40.129 -72.994  -2.080  1.00  0.00     0.016 C 
HETATM   10  C10 UNL     1     -39.623 -70.774  -3.180  1.00  0.00    -0.013 C 
HETATM   11  C11 UNL     1     -40.450 -70.127  -2.111  1.00  0.00     0.018 C 
HETATM   12  C12 UNL     1     -39.975 -70.210  -4.553  1.00  0.00     0.033 C 
ENDROOT
BRANCH   1  13
HETATM   13  N1  UNL     1     -37.932 -70.301  -1.482  1.00  0.00    -0.316 N 
HETATM   14  C1  UNL     1     -37.489 -68.977  -1.187  1.00  0.00     0.172 C 
BRANCH  13  15
HETATM   15  N2  UNL     1     -37.336 -71.310  -0.770  1.00  0.00    -0.212 N 
ATOM     16  H2  UNL     1     -36.561 -71.856  -1.147  1.00  0.00     0.201 HD
BRANCH  15  17
HETATM   17  S1  UNL     1     -37.972 -71.594   0.784  1.00  0.00     0.330 S 
HETATM   18  O1  UNL     1     -39.333 -70.945   0.934  1.00  0.00    -0.181 OA
HETATM   19  O2  UNL     1     -38.178 -73.057   0.979  1.00  0.00    -0.181 OA
BRANCH  17  20
HETATM   20  N3  UNL     1     -36.958 -70.888   1.978  1.00  0.00    -0.310 N 
ATOM     21  H32 UNL     1     -35.945 -71.005   2.011  1.00  0.00     0.170 HD
ATOM     22  H31 UNL     1     -37.515 -70.344   2.638  1.00  0.00     0.170 HD
ENDBRANCH  17  20
ENDBRANCH  15  17
ENDBRANCH  13  15
ENDBRANCH   1  13
TORSDOF 4
ENDMDL
MODEL 2
REMARK VINA RESULT: -5.610423675      4.277      5.735
REMARK  4 active torsions:
REMARK  status: ('A' for Active; 'I' for Inactive)
REMARK    1  A    between atoms: N1_2  and  N2_3 
REMARK    2  A    between atoms: N1_2  and  C2_11 
REMARK    3  A    between atoms: N2_3  and  S1_5 
REMARK    4  A    between atoms: S1_5  and  N3_6 
ROOT
HETATM    1  C2  UNL     1     -38.642 -69.070  -2.065  1.00  0.00     0.111 C 
HETATM    2  C3  UNL     1     -38.588 -67.922  -1.092  1.00  0.00     0.033 C 
HETATM    3  C4  UNL     1     -38.722 -68.514   0.284  1.00  0.00    -0.002 C 
HETATM    4  C5  UNL     1     -37.339 -69.002   0.712  1.00  0.00     0.026 C 
HETATM    5  C6  UNL     1     -37.438 -70.507   0.651  1.00  0.00     0.020 C 
HETATM    6 BR1  UNL     1     -36.166 -71.452   1.663  1.00  0.00    -0.085 Br
HETATM    7  C7  UNL     1     -38.884 -70.691   1.111  1.00  0.00     0.031 C 
HETATM    8  C8  UNL     1     -39.497 -69.778   0.051  1.00  0.00    -0.029 C 
HETATM    9  C9  UNL     1     -40.959 -69.667   0.110  1.00  0.00     0.016 C 
HETATM   10  C10 UNL     1     -38.895 -70.302  -1.205  1.00  0.00    -0.013 C 
HETATM   11  C11 UNL     1     -39.751 -71.271  -1.961  1.00  0.00     0.018 C 
HETATM   12  C12 UNL     1     -37.578 -70.951  -0.790  1.00  0.00     0.033 C 
ENDROOT
BRANCH   1  13
HETATM   13  N1  UNL     1     -39.646 -68.925  -3.078  1.00  0.00    -0.316 N 
HETATM   14  C1  UNL     1     -39.171 -69.068  -4.415  1.00  0.00     0.172 C 
BRANCH  13  15
HETATM   15  N2  UNL     1     -40.561 -67.925  -2.865  1.00  0.00    -0.212 N 
ATOM     16  H2  UNL     1     -40.309 -67.046  -2.415  1.00  0.00     0.201 HD
BRANCH  15  17
HETATM   17  S1  UNL     1     -42.144 -68.248  -3.403  1.00  0.00     0.330 S 
HETATM   18  O1  UNL     1     -42.176 -69.495  -4.261  1.00  0.00    -0.181 OA
HETATM   19  O2  UNL     1     -43.023 -68.519  -2.230  1.00  0.00    -0.181 OA
BRANCH  17  20
HETATM   20  N3  UNL     1     -42.710 -66.959  -4.389  1.00  0.00    -0.310 N 
ATOM     21  H32 UNL     1     -42.304 -66.707  -5.290  1.00  0.00     0.170 HD
ATOM     22  H31 UNL     1     -43.501 -66.494  -3.942  1.00  0.00     0.170 HD
ENDBRANCH  17  20
ENDBRANCH  15  17
ENDBRANCH  13  15
ENDBRANCH   1  13
TORSDOF 4
ENDMDL
MODEL 3
REMARK VINA RESULT: -5.562897654      2.130      3.146
REMARK  4 active torsions:
REMARK  status: ('A' for Active; 'I' for Inactive)
REMARK    1  A    between atoms: N1_2  and  N2_3 
REMARK    2  A    between atoms: N1_2  and  C2_11 
REMARK    3  A    between atoms: N2_3  and  S1_5 
REMARK    4  A    between atoms: S1_5  and  N3_6 
ROOT
HETATM    1  C2  UNL     1     -39.051 -71.196  -2.372  1.00  0.00     0.111 C 
HETATM    2  C3  UNL     1     -40.405 -71.773  -2.054  1.00  0.00     0.033 C 
HETATM    3  C4  UNL     1     -41.305 -70.613  -1.729  1.00  0.00    -0.002 C 
HETATM    4  C5  UNL     1     -41.808 -70.036  -3.051  1.00  0.00     0.026 C 
HETATM    5  C6  UNL     1     -41.077 -68.724  -3.190  1.00  0.00     0.020 C 
HETATM    6 BR1  UNL     1     -41.860 -67.470  -4.352  1.00  0.00    -0.085 Br
HETATM    7  C7  UNL     1     -41.034 -68.294  -1.724  1.00  0.00     0.031 C 
HETATM    8  C8  UNL     1     -40.361 -69.566  -1.214  1.00  0.00    -0.029 C 
HETATM    9  C9  UNL     1     -40.094 -69.582   0.229  1.00  0.00     0.016 C 
HETATM   10  C10 UNL     1     -39.196 -69.698  -2.132  1.00  0.00    -0.013 C 
HETATM   11  C11 UNL     1     -37.907 -69.150  -1.601  1.00  0.00     0.018 C 
HETATM   12  C12 UNL     1     -39.602 -68.982  -3.416  1.00  0.00     0.033 C 
ENDROOT
BRANCH   1  13
HETATM   13  N1  UNL     1     -37.986 -71.750  -1.587  1.00  0.00    -0.316 N 
HETATM   14  C1  UNL     1     -36.854 -72.185  -2.337  1.00  0.00     0.172 C 
BRANCH  13  15
HETATM   15  N2  UNL     1     -38.375 -72.562  -0.552  1.00  0.00    -0.212 N 
ATOM     16  H2  UNL     1     -39.159 -73.208  -0.635  1.00  0.00     0.201 HD
BRANCH  15  17
HETATM   17  S1  UNL     1     -37.462 -72.423   0.878  1.00  0.00     0.330 S 
HETATM   18  O1  UNL     1     -36.475 -71.278   0.777  1.00  0.00    -0.181 OA
HETATM   19  O2  UNL     1     -38.367 -72.101   2.018  1.00  0.00    -0.181 OA
BRANCH  17  20
HETATM   20  N3  UNL     1     -36.535 -73.848   1.133  1.00  0.00    -0.310 N 
ATOM     21  H32 UNL     1     -36.164 -74.134   2.039  1.00  0.00     0.170 HD
ATOM     22  H31 UNL     1     -36.415 -74.352   0.254  1.00  0.00     0.170 HD
ENDBRANCH  17  20
ENDBRANCH  15  17
ENDBRANCH  13  15
ENDBRANCH   1  13
TORSDOF 4
ENDMDL
MODEL 4
REMARK VINA RESULT: -5.542767510      2.463      3.168
REMARK  4 active torsions:
REMARK  status: ('A' for Active; 'I' for Inactive)
REMARK    1  A    between atoms: N1_2  and  N2_3 
REMARK    2  A    between atoms: N1_2  and  C2_11 
REMARK    3  A    between atoms: N2_3  and  S1_5 
REMARK    4  A    between atoms: S1_5  and  N3_6 
ROOT
HETATM    1  C2  UNL     1     -40.173 -69.659  -3.500  1.00  0.00     0.111 C 
HETATM    2  C3  UNL     1     -38.928 -69.141  -4.171  1.00  0.00     0.033 C 
HETATM    3  C4  UNL     1     -37.996 -70.312  -4.317  1.00  0.00    -0.002 C 
HETATM    4  C5  UNL     1     -38.411 -71.077  -5.572  1.00  0.00     0.026 C 
HETATM    5  C6  UNL     1     -39.040 -72.344  -5.047  1.00  0.00     0.020 C 
HETATM    6 BR1  UNL     1     -39.122 -73.780  -6.259  1.00  0.00    -0.085 Br
HETATM    7  C7  UNL     1     -38.153 -72.589  -3.827  1.00  0.00     0.031 C 
HETATM    8  C8  UNL     1     -38.392 -71.222  -3.190  1.00  0.00    -0.029 C 
HETATM    9  C9  UNL     1     -37.703 -71.013  -1.911  1.00  0.00     0.016 C 
HETATM   10  C10 UNL     1     -39.877 -71.123  -3.198  1.00  0.00    -0.013 C 
HETATM   11  C11 UNL     1     -40.544 -71.514  -1.915  1.00  0.00     0.018 C 
HETATM   12  C12 UNL     1     -40.342 -72.016  -4.345  1.00  0.00     0.033 C 
ENDROOT
BRANCH   1  13
HETATM   13  N1  UNL     1     -40.531 -68.944  -2.310  1.00  0.00    -0.316 N 
HETATM   14  C1  UNL     1     -41.878 -68.475  -2.276  1.00  0.00     0.172 C 
BRANCH  13  15
HETATM   15  N2  UNL     1     -39.578 -68.082  -1.829  1.00  0.00    -0.212 N 
ATOM     16  H2  UNL     1     -38.992 -67.521  -2.447  1.00  0.00     0.201 HD
BRANCH  15  17
HETATM   17  S1  UNL     1     -39.439 -68.008  -0.133  1.00  0.00     0.330 S 
HETATM   18  O1  UNL     1     -38.012 -67.711   0.276  1.00  0.00    -0.181 OA
HETATM   19  O2  UNL     1     -40.271 -66.886   0.387  1.00  0.00    -0.181 OA
BRANCH  17  20
HETATM   20  N3  UNL     1     -39.842 -69.527   0.562  1.00  0.00    -0.310 N 
ATOM     21  H32 UNL     1     -40.278 -70.293   0.048  1.00  0.00     0.170 HD
ATOM     22  H31 UNL     1     -39.585 -69.543   1.549  1.00  0.00     0.170 HD
ENDBRANCH  17  20
ENDBRANCH  15  17
ENDBRANCH  13  15
ENDBRANCH   1  13
TORSDOF 4
ENDMDL
MODEL 5
REMARK VINA RESULT: -5.529001932      2.099      2.934
REMARK  4 active torsions:
REMARK  status: ('A' for Active; 'I' for Inactive)
REMARK    1  A    between atoms: N1_2  and  N2_3 
REMARK    2  A    between atoms: N1_2  and  C2_11 
REMARK    3  A    between atoms: N2_3  and  S1_5 
REMARK    4  A    between atoms: S1_5  and  N3_6 
ROOT
HETATM    1  C2  UNL     1     -38.729 -70.020  -2.296  1.00  0.00     0.111 C 
HETATM    2  C3  UNL     1     -39.721 -71.152  -2.341  1.00  0.00     0.033 C 
HETATM    3  C4  UNL     1     -41.083 -70.542  -2.151  1.00  0.00    -0.002 C 
HETATM    4  C5  UNL     1     -41.547 -70.020  -3.509  1.00  0.00     0.026 C 
HETATM    5  C6  UNL     1     -41.459 -68.519  -3.383  1.00  0.00     0.020 C 
HETATM    6 BR1  UNL     1     -42.496 -67.533  -4.602  1.00  0.00    -0.085 Br
HETATM    7  C7  UNL     1     -41.870 -68.357  -1.920  1.00  0.00     0.031 C 
HETATM    8  C8  UNL     1     -40.806 -69.297  -1.359  1.00  0.00    -0.029 C 
HETATM    9  C9  UNL     1     -40.819 -69.437   0.101  1.00  0.00     0.016 C 
HETATM   10  C10 UNL     1     -39.561 -68.780  -1.991  1.00  0.00    -0.013 C 
HETATM   11  C11 UNL     1     -38.763 -67.840  -1.141  1.00  0.00     0.018 C 
HETATM   12  C12 UNL     1     -40.008 -68.098  -3.281  1.00  0.00     0.033 C 
ENDROOT
BRANCH   1  13
HETATM   13  N1  UNL     1     -37.687 -70.200  -1.328  1.00  0.00    -0.316 N 
HETATM   14  C1  UNL     1     -36.372 -69.919  -1.806  1.00  0.00     0.172 C 
BRANCH  13  15
HETATM   15  N2  UNL     1     -37.814 -71.301  -0.520  1.00  0.00    -0.212 N 
ATOM     16  H2  UNL     1     -38.114 -72.207  -0.880  1.00  0.00     0.201 HD
BRANCH  15  17
HETATM   17  S1  UNL     1     -37.438 -71.057   1.123  1.00  0.00     0.330 S 
HETATM   18  O1  UNL     1     -37.656 -69.611   1.515  1.00  0.00    -0.181 OA
HETATM   19  O2  UNL     1     -38.358 -71.868   1.970  1.00  0.00    -0.181 OA
BRANCH  17  20
HETATM   20  N3  UNL     1     -35.778 -71.398   1.409  1.00  0.00    -0.310 N 
ATOM     21  H32 UNL     1     -35.008 -70.836   1.047  1.00  0.00     0.170 HD
ATOM     22  H31 UNL     1     -35.684 -72.234   1.986  1.00  0.00     0.170 HD
ENDBRANCH  17  20
ENDBRANCH  15  17
ENDBRANCH  13  15
ENDBRANCH   1  13
TORSDOF 4
ENDMDL
