MODEL 1
REMARK VINA RESULT: -4.700234995      0.000      0.000
REMARK  2 active torsions:
REMARK  status: ('A' for Active; 'I' for Inactive)
REMARK    1  A    between atoms: C2_3  and  N2_4 
REMARK    2  A    between atoms: C5_8  and  N3_9 
ROOT
HETATM    1  N1  UNL     1      13.500   3.051  -8.440  1.00  0.00    -0.195 NA
HETATM    2  C1  UNL     1      13.135   2.675  -9.485  1.00  0.00     0.091 C 
HETATM    3  C2  UNL     1      12.666   2.182 -10.789  1.00  0.00     0.129 C 
HETATM    4  C6  UNL     1      12.994   0.697 -10.809  1.00  0.00     0.047 C 
HETATM    5  C7  UNL     1      11.812   0.015 -10.108  1.00  0.00     0.004 C 
HETATM    6  C8  UNL     1      10.705  -0.022 -11.137  1.00  0.00     0.000 C 
HETATM    7  C9  UNL     1      10.421   1.379 -11.593  1.00  0.00     0.004 C 
HETATM    8  C10 UNL     1      11.180   2.425 -10.829  1.00  0.00     0.047 C 
ENDROOT
BRANCH   3   9
HETATM    9  N2  UNL     1      13.312   2.883 -11.870  1.00  0.00    -0.299 N 
HETATM   10  C3  UNL     1      13.937   2.382 -12.952  1.00  0.00     0.121 A 
HETATM   11  C4  UNL     1      14.388   3.463 -13.689  1.00  0.00     0.163 A 
HETATM   12  O1  UNL     1      14.030   4.546 -13.045  1.00  0.00    -0.290 OA
HETATM   13  C5  UNL     1      13.386   4.220 -11.955  1.00  0.00     0.225 A 
BRANCH  13  14
HETATM   14  N3  UNL     1      12.891   5.057 -11.086  1.00  0.00    -0.365 N 
ATOM     15  H32 UNL     1      13.106   5.074 -10.089  1.00  0.00     0.159 HD
ATOM     16  H31 UNL     1      12.227   5.801 -11.299  1.00  0.00     0.159 HD
ENDBRANCH  13  14
ENDBRANCH   3   9
TORSDOF 2
ENDMDL
MODEL 2
REMARK VINA RESULT: -4.476024637      2.056      4.069
REMARK  2 active torsions:
REMARK  status: ('A' for Active; 'I' for Inactive)
REMARK    1  A    between atoms: C2_3  and  N2_4 
REMARK    2  A    between atoms: C5_8  and  N3_9 
ROOT
HETATM    1  N1  UNL     1      13.779   4.785 -10.783  1.00  0.00    -0.195 NA
HETATM    2  C1  UNL     1      13.524   3.873 -11.466  1.00  0.00     0.091 C 
HETATM    3  C2  UNL     1      13.199   2.739 -12.346  1.00  0.00     0.129 C 
HETATM    4  C6  UNL     1      12.033   3.206 -13.204  1.00  0.00     0.047 C 
HETATM    5  C7  UNL     1      12.672   3.957 -14.379  1.00  0.00     0.004 C 
HETATM    6  C8  UNL     1      13.176   2.880 -15.314  1.00  0.00     0.000 C 
HETATM    7  C9  UNL     1      14.126   1.993 -14.563  1.00  0.00     0.004 C 
HETATM    8  C10 UNL     1      14.430   2.476 -13.175  1.00  0.00     0.047 C 
ENDROOT
BRANCH   3   9
HETATM    9  N2  UNL     1      12.859   1.568 -11.579  1.00  0.00    -0.299 N 
HETATM   10  C3  UNL     1      11.828   0.719 -11.739  1.00  0.00     0.121 A 
HETATM   11  C4  UNL     1      11.942  -0.241 -10.749  1.00  0.00     0.163 A 
HETATM   12  O1  UNL     1      13.008   0.054 -10.046  1.00  0.00    -0.290 OA
HETATM   13  C5  UNL     1      13.569   1.133 -10.526  1.00  0.00     0.225 A 
BRANCH  13  14
HETATM   14  N3  UNL     1      14.648   1.699 -10.061  1.00  0.00    -0.365 N 
ATOM     15  H32 UNL     1      15.457   1.982 -10.615  1.00  0.00     0.159 HD
ATOM     16  H31 UNL     1      14.815   1.930  -9.082  1.00  0.00     0.159 HD
ENDBRANCH  13  14
ENDBRANCH   3   9
TORSDOF 2
ENDMDL
MODEL 3
REMARK VINA RESULT: -4.469463847      2.211      4.024
REMARK  2 active torsions:
REMARK  status: ('A' for Active; 'I' for Inactive)
REMARK    1  A    between atoms: C2_3  and  N2_4 
REMARK    2  A    between atoms: C5_8  and  N3_9 
ROOT
HETATM    1  N1  UNL     1      15.581   3.009 -13.073  1.00  0.00    -0.195 NA
HETATM    2  C1  UNL     1      14.490   2.989 -12.655  1.00  0.00     0.091 C 
HETATM    3  C2  UNL     1      13.115   2.989 -12.133  1.00  0.00     0.129 C 
HETATM    4  C6  UNL     1      13.018   4.210 -11.231  1.00  0.00     0.047 C 
HETATM    5  C7  UNL     1      12.680   5.377 -12.168  1.00  0.00     0.004 C 
HETATM    6  C8  UNL     1      11.203   5.240 -12.460  1.00  0.00     0.000 C 
HETATM    7  C9  UNL     1      10.950   3.884 -13.053  1.00  0.00     0.004 C 
HETATM    8  C10 UNL     1      12.204   3.106 -13.328  1.00  0.00     0.047 C 
ENDROOT
BRANCH   3   9
HETATM    9  N2  UNL     1      12.834   1.773 -11.414  1.00  0.00    -0.299 N 
HETATM   10  C3  UNL     1      11.777   0.946 -11.525  1.00  0.00     0.121 A 
HETATM   11  C4  UNL     1      11.974  -0.079 -10.616  1.00  0.00     0.163 A 
HETATM   12  O1  UNL     1      13.109   0.159 -10.006  1.00  0.00    -0.290 OA
HETATM   13  C5  UNL     1      13.638   1.262 -10.469  1.00  0.00     0.225 A 
BRANCH  13  14
HETATM   14  N3  UNL     1      14.766   1.785 -10.078  1.00  0.00    -0.365 N 
ATOM     15  H32 UNL     1      15.343   1.447  -9.307  1.00  0.00     0.159 HD
ATOM     16  H31 UNL     1      15.213   2.599 -10.499  1.00  0.00     0.159 HD
ENDBRANCH  13  14
ENDBRANCH   3   9
TORSDOF 2
ENDMDL
MODEL 4
REMARK VINA RESULT: -4.318887332      0.967      1.555
REMARK  2 active torsions:
REMARK  status: ('A' for Active; 'I' for Inactive)
REMARK    1  A    between atoms: C2_3  and  N2_4 
REMARK    2  A    between atoms: C5_8  and  N3_9 
ROOT
HETATM    1  N1  UNL     1      14.469   2.821  -8.654  1.00  0.00    -0.195 NA
HETATM    2  C1  UNL     1      13.756   2.695  -9.570  1.00  0.00     0.091 C 
HETATM    3  C2  UNL     1      12.853   2.514 -10.718  1.00  0.00     0.129 C 
HETATM    4  C6  UNL     1      13.205   1.156 -11.306  1.00  0.00     0.047 C 
HETATM    5  C7  UNL     1      12.396   0.141 -10.488  1.00  0.00     0.004 C 
HETATM    6  C8  UNL     1      10.987   0.223 -11.031  1.00  0.00     0.000 C 
HETATM    7  C9  UNL     1      10.502   1.638 -10.906  1.00  0.00     0.004 C 
HETATM    8  C10 UNL     1      11.451   2.535 -10.166  1.00  0.00     0.047 C 
ENDROOT
BRANCH   3   9
HETATM    9  N2  UNL     1      13.022   3.571 -11.682  1.00  0.00    -0.299 N 
HETATM   10  C3  UNL     1      12.272   4.673 -11.874  1.00  0.00     0.121 A 
HETATM   11  C4  UNL     1      12.848   5.371 -12.921  1.00  0.00     0.163 A 
HETATM   12  O1  UNL     1      13.895   4.687 -13.312  1.00  0.00    -0.290 OA
HETATM   13  C5  UNL     1      14.015   3.607 -12.584  1.00  0.00     0.225 A 
BRANCH  13  14
HETATM   14  N3  UNL     1      14.949   2.707 -12.710  1.00  0.00    -0.365 N 
ATOM     15  H32 UNL     1      15.629   2.451 -11.993  1.00  0.00     0.159 HD
ATOM     16  H31 UNL     1      15.116   2.145 -13.544  1.00  0.00     0.159 HD
ENDBRANCH  13  14
ENDBRANCH   3   9
TORSDOF 2
ENDMDL
MODEL 5
REMARK VINA RESULT: -4.225170219      1.717      2.409
REMARK  2 active torsions:
REMARK  status: ('A' for Active; 'I' for Inactive)
REMARK    1  A    between atoms: C2_3  and  N2_4 
REMARK    2  A    between atoms: C5_8  and  N3_9 
ROOT
HETATM    1  N1  UNL     1      12.478  -0.275  -9.904  1.00  0.00    -0.195 NA
HETATM    2  C1  UNL     1      12.341   0.592 -10.675  1.00  0.00     0.091 C 
HETATM    3  C2  UNL     1      12.145   1.678 -11.648  1.00  0.00     0.129 C 
HETATM    4  C6  UNL     1      11.282   1.088 -12.754  1.00  0.00     0.047 C 
HETATM    5  C7  UNL     1       9.837   1.244 -12.263  1.00  0.00     0.004 C 
HETATM    6  C8  UNL     1       9.488   2.696 -12.504  1.00  0.00     0.000 C 
HETATM    7  C9  UNL     1      10.479   3.559 -11.780  1.00  0.00     0.004 C 
HETATM    8  C10 UNL     1      11.432   2.785 -10.916  1.00  0.00     0.047 C 
ENDROOT
BRANCH   3   9
HETATM    9  N2  UNL     1      13.407   2.153 -12.156  1.00  0.00    -0.299 N 
HETATM   10  C3  UNL     1      13.724   2.552 -13.402  1.00  0.00     0.121 A 
HETATM   11  C4  UNL     1      15.060   2.913 -13.378  1.00  0.00     0.163 A 
HETATM   12  O1  UNL     1      15.489   2.725 -12.154  1.00  0.00    -0.290 OA
HETATM   13  C5  UNL     1      14.516   2.270 -11.409  1.00  0.00     0.225 A 
BRANCH  13  14
HETATM   14  N3  UNL     1      14.603   1.977 -10.142  1.00  0.00    -0.365 N 
ATOM     15  H32 UNL     1      14.539   1.040  -9.743  1.00  0.00     0.159 HD
ATOM     16  H31 UNL     1      14.749   2.652  -9.391  1.00  0.00     0.159 HD
ENDBRANCH  13  14
ENDBRANCH   3   9
TORSDOF 2
ENDMDL
