MODEL 1
REMARK VINA RESULT: -6.226393137      0.000      0.000
REMARK  10 active torsions:
REMARK  status: ('A' for Active; 'I' for Inactive)
REMARK    1  A    between atoms: C2_5  and  N3_6 
REMARK    2  A    between atoms: C3_9  and  N4_10 
REMARK    3  A    between atoms: N4_10  and  O1_12 
REMARK    4  A    between atoms: N5_14  and  C4_15 
REMARK    5  A    between atoms: C4_15  and  C5_16 
REMARK    6  A    between atoms: C5_16  and  N6_17 
REMARK    7  A    between atoms: N6_17  and  O2_19 
REMARK    8  A    between atoms: C6_21  and  O3_22 
REMARK    9  A    between atoms: C6_21  and  C7_24 
REMARK   10  A    between atoms: C8_25  and  O4_26 
ROOT
HETATM    1  C5  UNL     1      28.795  33.675  42.197  1.00  0.00     0.084 C 
HETATM    2  C6  UNL     1      28.663  34.292  40.957  1.00  0.00     0.112 C 
ENDROOT
BRANCH   1   3
HETATM    3  C4  UNL     1      29.196  32.354  42.623  1.00  0.00     0.197 C 
BRANCH   3   4
HETATM    4  N5  UNL     1      29.607  31.507  41.475  1.00  0.00    -0.274 N 
HETATM    5  C3  UNL     1      28.672  30.778  40.866  1.00  0.00     0.177 A 
HETATM    6  C2  UNL     1      29.004  29.957  39.773  1.00  0.00     0.161 A 
HETATM    7  N2  UNL     1      30.300  29.951  39.383  1.00  0.00    -0.277 N 
HETATM    8  N1  UNL     1      31.210  30.670  39.987  1.00  0.00    -0.245 N 
ATOM      9  H2  UNL     1      30.575  29.366  38.594  1.00  0.00     0.189 HD
HETATM   10  C1  UNL     1      32.574  30.644  39.553  1.00  0.00     0.183 C 
HETATM   11  C11 UNL     1      30.867  31.456  41.041  1.00  0.00     0.345 A 
HETATM   12  O7  UNL     1      31.720  32.164  41.648  1.00  0.00    -0.245 OA
BRANCH   5  13
HETATM   13  N4  UNL     1      27.462  30.837  41.294  1.00  0.00    -0.249 N 
ATOM     14  H4  UNL     1      26.945  31.716  41.291  1.00  0.00     0.196 HD
BRANCH  13  15
HETATM   15  O1  UNL     1      26.889  29.680  41.756  1.00  0.00    -0.288 OA
ATOM     16  H1  UNL     1      26.354  29.732  42.540  1.00  0.00     0.244 HD
ENDBRANCH  13  15
ENDBRANCH   5  13
BRANCH   6  17
HETATM   17  N3  UNL     1      28.082  29.264  39.204  1.00  0.00    -0.381 N 
ATOM     18  H32 UNL     1      28.321  28.681  38.403  1.00  0.00     0.157 HD
ATOM     19  H31 UNL     1      27.108  29.258  39.507  1.00  0.00     0.157 HD
ENDBRANCH   6  17
ENDBRANCH   3   4
ENDBRANCH   1   3
BRANCH   1  20
HETATM   20  N6  UNL     1      28.500  34.441  43.270  1.00  0.00    -0.269 N 
ATOM     21  H6  UNL     1      29.279  34.769  43.839  1.00  0.00     0.194 HD
BRANCH  20  22
HETATM   22  O2  UNL     1      27.285  34.800  43.643  1.00  0.00    -0.290 OA
ATOM     23  H2  UNL     1      26.950  34.770  44.531  1.00  0.00     0.244 HD
ENDBRANCH  20  22
ENDBRANCH   1  20
BRANCH   2  24
HETATM   24  O3  UNL     1      28.256  35.591  41.047  1.00  0.00    -0.357 OA
ATOM     25  H3  UNL     1      28.873  36.143  41.512  1.00  0.00     0.217 HD
ENDBRANCH   2  24
BRANCH   2  26
HETATM   26  C7  UNL     1      28.834  33.959  39.563  1.00  0.00     0.118 A 
HETATM   27  C8  UNL     1      29.997  34.014  38.847  1.00  0.00     0.162 A 
HETATM   28  N7  UNL     1      29.995  33.666  37.516  1.00  0.00    -0.288 N 
HETATM   29  C9  UNL     1      28.888  33.273  36.893  1.00  0.00     0.329 A 
ATOM     30  H7  UNL     1      30.868  33.712  36.991  1.00  0.00     0.172 HD
HETATM   31  O5  UNL     1      28.909  32.961  35.682  1.00  0.00    -0.247 OA
HETATM   32  N8  UNL     1      27.717  33.196  37.534  1.00  0.00    -0.275 N 
HETATM   33  C10 UNL     1      27.696  33.526  38.818  1.00  0.00     0.266 A 
ATOM     34  H8  UNL     1      26.870  32.894  37.052  1.00  0.00     0.173 HD
HETATM   35  O6  UNL     1      26.579  33.452  39.426  1.00  0.00    -0.267 OA
BRANCH  27  36
HETATM   36  O4  UNL     1      31.199  34.403  39.378  1.00  0.00    -0.345 OA
ATOM     37  H4  UNL     1      31.921  34.735  38.859  1.00  0.00     0.219 HD
ENDBRANCH  27  36
ENDBRANCH   2  26
TORSDOF 10
ENDMDL
MODEL 2
REMARK VINA RESULT: -5.975369691      0.240      1.604
REMARK  10 active torsions:
REMARK  status: ('A' for Active; 'I' for Inactive)
REMARK    1  A    between atoms: C2_5  and  N3_6 
REMARK    2  A    between atoms: C3_9  and  N4_10 
REMARK    3  A    between atoms: N4_10  and  O1_12 
REMARK    4  A    between atoms: N5_14  and  C4_15 
REMARK    5  A    between atoms: C4_15  and  C5_16 
REMARK    6  A    between atoms: C5_16  and  N6_17 
REMARK    7  A    between atoms: N6_17  and  O2_19 
REMARK    8  A    between atoms: C6_21  and  O3_22 
REMARK    9  A    between atoms: C6_21  and  C7_24 
REMARK   10  A    between atoms: C8_25  and  O4_26 
ROOT
HETATM    1  C5  UNL     1      28.736  33.654  42.162  1.00  0.00     0.084 C 
HETATM    2  C6  UNL     1      28.622  34.259  40.914  1.00  0.00     0.112 C 
ENDROOT
BRANCH   1   3
HETATM    3  C4  UNL     1      29.080  32.321  42.602  1.00  0.00     0.197 C 
BRANCH   3   4
HETATM    4  N5  UNL     1      29.548  31.474  41.476  1.00  0.00    -0.274 N 
HETATM    5  C3  UNL     1      28.648  30.729  40.833  1.00  0.00     0.177 A 
HETATM    6  C2  UNL     1      29.036  29.908  39.760  1.00  0.00     0.161 A 
HETATM    7  N2  UNL     1      30.347  29.916  39.424  1.00  0.00    -0.277 N 
HETATM    8  N1  UNL     1      31.223  30.650  40.061  1.00  0.00    -0.245 N 
ATOM      9  H2  UNL     1      30.662  29.331  38.649  1.00  0.00     0.189 HD
HETATM   10  C1  UNL     1      32.603  30.639  39.684  1.00  0.00     0.183 C 
HETATM   11  C11 UNL     1      30.826  31.437  41.096  1.00  0.00     0.345 A 
HETATM   12  O7  UNL     1      31.644  32.158  41.733  1.00  0.00    -0.245 OA
BRANCH   5  13
HETATM   13  N4  UNL     1      27.421  30.775  41.211  1.00  0.00    -0.249 N 
ATOM     14  H4  UNL     1      26.872  31.629  41.112  1.00  0.00     0.196 HD
BRANCH  13  15
HETATM   15  O1  UNL     1      26.875  29.639  41.751  1.00  0.00    -0.288 OA
ATOM     16  H1  UNL     1      25.932  29.613  41.867  1.00  0.00     0.244 HD
ENDBRANCH  13  15
ENDBRANCH   5  13
BRANCH   6  17
HETATM   17  N3  UNL     1      28.148  29.200  39.157  1.00  0.00    -0.381 N 
ATOM     18  H32 UNL     1      28.434  28.581  38.399  1.00  0.00     0.157 HD
ATOM     19  H31 UNL     1      27.155  29.216  39.391  1.00  0.00     0.157 HD
ENDBRANCH   6  17
ENDBRANCH   3   4
ENDBRANCH   1   3
BRANCH   1  20
HETATM   20  N6  UNL     1      28.487  34.447  43.226  1.00  0.00    -0.269 N 
ATOM     21  H6  UNL     1      29.291  34.805  43.741  1.00  0.00     0.194 HD
BRANCH  20  22
HETATM   22  O2  UNL     1      27.288  34.796  43.656  1.00  0.00    -0.290 OA
ATOM     23  H2  UNL     1      27.025  34.852  44.567  1.00  0.00     0.244 HD
ENDBRANCH  20  22
ENDBRANCH   1  20
BRANCH   2  24
HETATM   24  O3  UNL     1      28.276  35.577  40.990  1.00  0.00    -0.357 OA
ATOM     25  H3  UNL     1      27.620  35.827  40.350  1.00  0.00     0.217 HD
ENDBRANCH   2  24
BRANCH   2  26
HETATM   26  C7  UNL     1      28.765  33.901  39.523  1.00  0.00     0.118 A 
HETATM   27  C8  UNL     1      27.809  33.342  38.722  1.00  0.00     0.162 A 
HETATM   28  N7  UNL     1      28.104  33.053  37.410  1.00  0.00    -0.288 N 
HETATM   29  C9  UNL     1      29.300  33.301  36.886  1.00  0.00     0.329 A 
ATOM     30  H7  UNL     1      27.383  32.636  36.821  1.00  0.00     0.172 HD
HETATM   31  O5  UNL     1      29.547  33.031  35.690  1.00  0.00    -0.247 OA
HETATM   32  N8  UNL     1      30.281  33.846  37.614  1.00  0.00    -0.275 N 
HETATM   33  C10 UNL     1      30.018  34.133  38.882  1.00  0.00     0.266 A 
ATOM     34  H8  UNL     1      31.198  34.034  37.208  1.00  0.00     0.173 HD
HETATM   35  O6  UNL     1      30.954  34.652  39.572  1.00  0.00    -0.267 OA
BRANCH  27  36
HETATM   36  O4  UNL     1      26.541  33.042  39.147  1.00  0.00    -0.345 OA
ATOM     37  H4  UNL     1      25.760  33.210  38.634  1.00  0.00     0.219 HD
ENDBRANCH  27  36
ENDBRANCH   2  26
TORSDOF 10
ENDMDL
MODEL 3
REMARK VINA RESULT: -5.748001330      0.817      2.388
REMARK  10 active torsions:
REMARK  status: ('A' for Active; 'I' for Inactive)
REMARK    1  A    between atoms: C2_5  and  N3_6 
REMARK    2  A    between atoms: C3_9  and  N4_10 
REMARK    3  A    between atoms: N4_10  and  O1_12 
REMARK    4  A    between atoms: N5_14  and  C4_15 
REMARK    5  A    between atoms: C4_15  and  C5_16 
REMARK    6  A    between atoms: C5_16  and  N6_17 
REMARK    7  A    between atoms: N6_17  and  O2_19 
REMARK    8  A    between atoms: C6_21  and  O3_22 
REMARK    9  A    between atoms: C6_21  and  C7_24 
REMARK   10  A    between atoms: C8_25  and  O4_26 
ROOT
HETATM    1  C5  UNL     1      28.684  33.607  42.182  1.00  0.00     0.084 C 
HETATM    2  C6  UNL     1      28.596  34.294  40.975  1.00  0.00     0.112 C 
ENDROOT
BRANCH   1   3
HETATM    3  C4  UNL     1      28.972  32.236  42.537  1.00  0.00     0.197 C 
BRANCH   3   4
HETATM    4  N5  UNL     1      29.584  31.493  41.407  1.00  0.00    -0.274 N 
HETATM    5  C3  UNL     1      30.910  31.535  41.271  1.00  0.00     0.177 A 
HETATM    6  C2  UNL     1      31.542  30.850  40.219  1.00  0.00     0.161 A 
HETATM    7  N2  UNL     1      30.747  30.159  39.370  1.00  0.00    -0.277 N 
HETATM    8  N1  UNL     1      29.447  30.123  39.512  1.00  0.00    -0.245 N 
ATOM      9  H2  UNL     1      31.174  29.651  38.596  1.00  0.00     0.189 HD
HETATM   10  C1  UNL     1      28.629  29.384  38.600  1.00  0.00     0.183 C 
HETATM   11  C11 UNL     1      28.856  30.793  40.536  1.00  0.00     0.345 A 
HETATM   12  O7  UNL     1      27.603  30.780  40.703  1.00  0.00    -0.245 OA
BRANCH   5  13
HETATM   13  N4  UNL     1      31.598  32.213  42.117  1.00  0.00    -0.249 N 
ATOM     14  H4  UNL     1      31.648  31.936  43.097  1.00  0.00     0.196 HD
BRANCH  13  15
HETATM   15  O1  UNL     1      32.264  33.322  41.660  1.00  0.00    -0.288 OA
ATOM     16  H1  UNL     1      32.027  34.165  42.028  1.00  0.00     0.244 HD
ENDBRANCH  13  15
ENDBRANCH   5  13
BRANCH   6  17
HETATM   17  N3  UNL     1      32.823  30.908  40.111  1.00  0.00    -0.381 N 
ATOM     18  H32 UNL     1      33.272  31.816  39.988  1.00  0.00     0.157 HD
ATOM     19  H31 UNL     1      33.433  30.091  40.140  1.00  0.00     0.157 HD
ENDBRANCH   6  17
ENDBRANCH   3   4
ENDBRANCH   1   3
BRANCH   1  20
HETATM   20  N6  UNL     1      28.468  34.341  43.295  1.00  0.00    -0.269 N 
ATOM     21  H6  UNL     1      29.283  34.604  43.848  1.00  0.00     0.194 HD
BRANCH  20  22
HETATM   22  O2  UNL     1      27.287  34.746  43.726  1.00  0.00    -0.290 OA
ATOM     23  H2  UNL     1      26.908  35.603  43.569  1.00  0.00     0.244 HD
ENDBRANCH  20  22
ENDBRANCH   1  20
BRANCH   2  24
HETATM   24  O3  UNL     1      28.305  35.618  41.134  1.00  0.00    -0.357 OA
ATOM     25  H3  UNL     1      28.738  36.006  41.886  1.00  0.00     0.217 HD
ENDBRANCH   2  24
BRANCH   2  26
HETATM   26  C7  UNL     1      28.724  34.018  39.564  1.00  0.00     0.118 A 
HETATM   27  C8  UNL     1      29.883  33.984  38.841  1.00  0.00     0.162 A 
HETATM   28  N7  UNL     1      29.838  33.708  37.494  1.00  0.00    -0.288 N 
HETATM   29  C9  UNL     1      28.692  33.470  36.863  1.00  0.00     0.329 A 
ATOM     30  H7  UNL     1      30.708  33.686  36.963  1.00  0.00     0.172 HD
HETATM   31  O5  UNL     1      28.674  33.221  35.637  1.00  0.00    -0.247 OA
HETATM   32  N8  UNL     1      27.522  33.487  37.510  1.00  0.00    -0.275 N 
HETATM   33  C10 UNL     1      27.543  33.751  38.810  1.00  0.00     0.266 A 
ATOM     34  H8  UNL     1      26.646  33.304  37.021  1.00  0.00     0.173 HD
HETATM   35  O6  UNL     1      26.427  33.766  39.423  1.00  0.00    -0.267 OA
BRANCH  27  36
HETATM   36  O4  UNL     1      31.122  34.212  39.380  1.00  0.00    -0.345 OA
ATOM     37  H4  UNL     1      31.808  34.696  38.936  1.00  0.00     0.219 HD
ENDBRANCH  27  36
ENDBRANCH   2  26
TORSDOF 10
ENDMDL
MODEL 4
REMARK VINA RESULT: -5.691568706      2.491      4.730
REMARK  10 active torsions:
REMARK  status: ('A' for Active; 'I' for Inactive)
REMARK    1  A    between atoms: C2_5  and  N3_6 
REMARK    2  A    between atoms: C3_9  and  N4_10 
REMARK    3  A    between atoms: N4_10  and  O1_12 
REMARK    4  A    between atoms: N5_14  and  C4_15 
REMARK    5  A    between atoms: C4_15  and  C5_16 
REMARK    6  A    between atoms: C5_16  and  N6_17 
REMARK    7  A    between atoms: N6_17  and  O2_19 
REMARK    8  A    between atoms: C6_21  and  O3_22 
REMARK    9  A    between atoms: C6_21  and  C7_24 
REMARK   10  A    between atoms: C8_25  and  O4_26 
ROOT
HETATM    1  C5  UNL     1      28.762  33.624  42.109  1.00  0.00     0.084 C 
HETATM    2  C6  UNL     1      29.102  32.276  42.061  1.00  0.00     0.112 C 
ENDROOT
BRANCH   1   3
HETATM    3  C4  UNL     1      28.704  34.680  41.125  1.00  0.00     0.197 C 
BRANCH   3   4
HETATM    4  N5  UNL     1      30.030  35.318  40.924  1.00  0.00    -0.274 N 
HETATM    5  C3  UNL     1      30.715  35.011  39.821  1.00  0.00     0.177 A 
HETATM    6  C2  UNL     1      31.975  35.585  39.581  1.00  0.00     0.161 A 
HETATM    7  N2  UNL     1      32.445  36.448  40.511  1.00  0.00    -0.277 N 
HETATM    8  N1  UNL     1      31.765  36.743  41.590  1.00  0.00    -0.245 N 
ATOM      9  H2  UNL     1      33.357  36.882  40.367  1.00  0.00     0.189 HD
HETATM   10  C1  UNL     1      32.286  37.660  42.557  1.00  0.00     0.183 C 
HETATM   11  C11 UNL     1      30.548  36.176  41.803  1.00  0.00     0.345 A 
HETATM   12  O7  UNL     1      29.866  36.438  42.833  1.00  0.00    -0.245 OA
BRANCH   5  13
HETATM   13  N4  UNL     1      30.203  34.183  38.984  1.00  0.00    -0.249 N 
ATOM     14  H4  UNL     1      30.117  33.192  39.210  1.00  0.00     0.196 HD
BRANCH  13  15
HETATM   15  O1  UNL     1      29.776  34.673  37.776  1.00  0.00    -0.288 OA
ATOM     16  H1  UNL     1      29.062  35.299  37.779  1.00  0.00     0.244 HD
ENDBRANCH  13  15
ENDBRANCH   5  13
BRANCH   6  17
HETATM   17  N3  UNL     1      32.614  35.271  38.509  1.00  0.00    -0.381 N 
ATOM     18  H32 UNL     1      33.234  35.958  38.080  1.00  0.00     0.157 HD
ATOM     19  H31 UNL     1      32.541  34.363  38.050  1.00  0.00     0.157 HD
ENDBRANCH   6  17
ENDBRANCH   3   4
ENDBRANCH   1   3
BRANCH   1  20
HETATM   20  N6  UNL     1      28.391  34.095  43.320  1.00  0.00    -0.269 N 
ATOM     21  H6  UNL     1      28.970  33.836  44.119  1.00  0.00     0.194 HD
BRANCH  20  22
HETATM   22  O2  UNL     1      27.342  34.861  43.554  1.00  0.00    -0.290 OA
ATOM     23  H2  UNL     1      26.551  34.588  44.003  1.00  0.00     0.244 HD
ENDBRANCH  20  22
ENDBRANCH   1  20
BRANCH   2  24
HETATM   24  O3  UNL     1      28.994  31.654  43.270  1.00  0.00    -0.357 OA
ATOM     25  H3  UNL     1      29.835  31.473  43.672  1.00  0.00     0.217 HD
ENDBRANCH   2  24
BRANCH   2  26
HETATM   26  C7  UNL     1      29.549  31.310  41.085  1.00  0.00     0.118 A 
HETATM   27  C8  UNL     1      30.803  31.207  40.553  1.00  0.00     0.162 A 
HETATM   28  N7  UNL     1      31.071  30.229  39.624  1.00  0.00    -0.288 N 
HETATM   29  C9  UNL     1      30.142  29.368  39.221  1.00  0.00     0.329 A 
ATOM     30  H7  UNL     1      32.010  30.161  39.232  1.00  0.00     0.172 HD
HETATM   31  O5  UNL     1      30.407  28.485  38.374  1.00  0.00    -0.247 OA
HETATM   32  N8  UNL     1      28.894  29.412  39.701  1.00  0.00    -0.275 N 
HETATM   33  C10 UNL     1      28.614  30.348  40.598  1.00  0.00     0.266 A 
ATOM     34  H8  UNL     1      28.184  28.750  39.388  1.00  0.00     0.173 HD
HETATM   35  O6  UNL     1      27.425  30.387  41.053  1.00  0.00    -0.267 OA
BRANCH  27  36
HETATM   36  O4  UNL     1      31.842  32.035  40.890  1.00  0.00    -0.345 OA
ATOM     37  H4  UNL     1      32.725  31.936  40.554  1.00  0.00     0.219 HD
ENDBRANCH  27  36
ENDBRANCH   2  26
TORSDOF 10
ENDMDL
MODEL 5
REMARK VINA RESULT: -5.685048606      2.212      4.478
REMARK  10 active torsions:
REMARK  status: ('A' for Active; 'I' for Inactive)
REMARK    1  A    between atoms: C2_5  and  N3_6 
REMARK    2  A    between atoms: C3_9  and  N4_10 
REMARK    3  A    between atoms: N4_10  and  O1_12 
REMARK    4  A    between atoms: N5_14  and  C4_15 
REMARK    5  A    between atoms: C4_15  and  C5_16 
REMARK    6  A    between atoms: C5_16  and  N6_17 
REMARK    7  A    between atoms: N6_17  and  O2_19 
REMARK    8  A    between atoms: C6_21  and  O3_22 
REMARK    9  A    between atoms: C6_21  and  C7_24 
REMARK   10  A    between atoms: C8_25  and  O4_26 
ROOT
HETATM    1  C5  UNL     1      30.665  31.874  39.447  1.00  0.00     0.084 C 
HETATM    2  C6  UNL     1      29.630  32.171  38.566  1.00  0.00     0.112 C 
ENDROOT
BRANCH   1   3
HETATM    3  C4  UNL     1      30.833  32.002  40.877  1.00  0.00     0.197 C 
BRANCH   3   4
HETATM    4  N5  UNL     1      30.429  33.347  41.359  1.00  0.00    -0.274 N 
HETATM    5  C3  UNL     1      29.406  33.429  42.210  1.00  0.00     0.177 A 
HETATM    6  C2  UNL     1      28.981  34.676  42.699  1.00  0.00     0.161 A 
HETATM    7  N2  UNL     1      29.655  35.767  42.267  1.00  0.00    -0.277 N 
HETATM    8  N1  UNL     1      30.659  35.676  41.432  1.00  0.00    -0.245 N 
ATOM      9  H2  UNL     1      29.372  36.688  42.602  1.00  0.00     0.189 HD
HETATM   10  C1  UNL     1      31.355  36.847  40.991  1.00  0.00     0.183 C 
HETATM   11  C11 UNL     1      31.053  34.460  40.972  1.00  0.00     0.345 A 
HETATM   12  O7  UNL     1      32.017  34.336  40.165  1.00  0.00    -0.245 OA
BRANCH   5  13
HETATM   13  N4  UNL     1      28.814  32.348  42.575  1.00  0.00    -0.249 N 
ATOM     14  H4  UNL     1      28.240  31.817  41.921  1.00  0.00     0.196 HD
BRANCH  13  15
HETATM   15  O1  UNL     1      28.981  31.933  43.871  1.00  0.00    -0.288 OA
ATOM     16  H1  UNL     1      29.319  31.058  44.017  1.00  0.00     0.244 HD
ENDBRANCH  13  15
ENDBRANCH   5  13
BRANCH   6  17
HETATM   17  N3  UNL     1      27.990  34.726  43.518  1.00  0.00    -0.381 N 
ATOM     18  H32 UNL     1      28.117  35.172  44.427  1.00  0.00     0.157 HD
ATOM     19  H31 UNL     1      27.067  34.342  43.316  1.00  0.00     0.157 HD
ENDBRANCH   6  17
ENDBRANCH   3   4
ENDBRANCH   1   3
BRANCH   1  20
HETATM   20  N6  UNL     1      31.776  31.342  38.893  1.00  0.00    -0.269 N 
ATOM     21  H6  UNL     1      31.859  30.326  38.895  1.00  0.00     0.194 HD
BRANCH  20  22
HETATM   22  O2  UNL     1      32.764  32.030  38.350  1.00  0.00    -0.290 OA
ATOM     23  H2  UNL     1      33.661  31.730  38.264  1.00  0.00     0.244 HD
ENDBRANCH  20  22
ENDBRANCH   1  20
BRANCH   2  24
HETATM   24  O3  UNL     1      29.926  31.860  37.271  1.00  0.00    -0.357 OA
ATOM     25  H3  UNL     1      29.296  32.207  36.651  1.00  0.00     0.217 HD
ENDBRANCH   2  24
BRANCH   2  26
HETATM   26  C7  UNL     1      28.298  32.725  38.613  1.00  0.00     0.118 A 
HETATM   27  C8  UNL     1      27.275  32.323  39.425  1.00  0.00     0.162 A 
HETATM   28  N7  UNL     1      26.055  32.953  39.346  1.00  0.00    -0.288 N 
HETATM   29  C9  UNL     1      25.832  33.952  38.497  1.00  0.00     0.329 A 
ATOM     30  H7  UNL     1      25.298  32.645  39.956  1.00  0.00     0.172 HD
HETATM   31  O5  UNL     1      24.715  34.512  38.442  1.00  0.00    -0.247 OA
HETATM   32  N8  UNL     1      26.789  34.395  37.674  1.00  0.00    -0.275 N 
HETATM   33  C10 UNL     1      27.974  33.801  37.734  1.00  0.00     0.266 A 
ATOM     34  H8  UNL     1      26.614  35.161  37.024  1.00  0.00     0.173 HD
HETATM   35  O6  UNL     1      28.883  34.225  36.949  1.00  0.00    -0.267 OA
BRANCH  27  36
HETATM   36  O4  UNL     1      27.384  31.308  40.339  1.00  0.00    -0.345 OA
ATOM     37  H4  UNL     1      26.977  31.326  41.197  1.00  0.00     0.219 HD
ENDBRANCH  27  36
ENDBRANCH   2  26
TORSDOF 10
ENDMDL
