MODEL 1
REMARK VINA RESULT: -6.456217949      0.000      0.000
REMARK  13 active torsions:
REMARK  status: ('A' for Active; 'I' for Inactive)
REMARK    1  A    between atoms: C2_5  and  C3_6 
REMARK    2  A    between atoms: C3_6  and  C4_7 
REMARK    3  A    between atoms: C3_6  and  C6_15 
REMARK    4  A    between atoms: C4_7  and  C5_8 
REMARK    5  A    between atoms: C5_8  and  O1_9 
REMARK    6  A    between atoms: C5_8  and  N3_11 
REMARK    7  A    between atoms: N3_11  and  O2_13 
REMARK    8  A    between atoms: C6_15  and  O3_16 
REMARK    9  A    between atoms: C6_15  and  N4_18 
REMARK   10  A    between atoms: C8_20  and  N5_21 
REMARK   11  A    between atoms: C10_26  and  N6_27 
REMARK   12  A    between atoms: N9_36  and  N10_37 
REMARK   13  A    between atoms: N10_37  and  O4_39 
ROOT
HETATM    1  C3  UNL     1      28.552  32.324  40.483  1.00  0.00     0.041 C 
ENDROOT
BRANCH   1   2
HETATM    2  C2  UNL     1      27.935  32.962  39.492  1.00  0.00     0.120 A 
HETATM    3  N2  UNL     1      26.615  33.463  39.657  1.00  0.00    -0.314 N 
HETATM    4  C1  UNL     1      25.975  34.109  38.768  1.00  0.00     0.219 A 
ATOM      5  H2  UNL     1      26.150  33.292  40.548  1.00  0.00     0.170 HD
HETATM    6  N1  UNL     1      24.654  34.585  38.995  1.00  0.00    -0.061 NA
HETATM    7  N9  UNL     1      26.620  34.347  37.524  1.00  0.00    -0.178 N 
HETATM    8  C12 UNL     1      27.959  33.869  37.283  1.00  0.00     0.219 A 
HETATM    9  N7  UNL     1      28.530  33.221  38.250  1.00  0.00    -0.314 N 
HETATM   10  N8  UNL     1      28.592  34.115  36.033  1.00  0.00    -0.061 NA
ATOM     11  H7  UNL     1      29.477  32.875  38.096  1.00  0.00     0.170 HD
BRANCH   7  12
HETATM   12  N10 UNL     1      25.984  35.045  36.505  1.00  0.00    -0.198 N 
ATOM     13  H10 UNL     1      25.724  34.582  35.635  1.00  0.00     0.216 HD
BRANCH  12  14
HETATM   14  O4  UNL     1      25.743  36.256  36.688  1.00  0.00    -0.274 OA
ATOM     15  H4  UNL     1      24.840  36.514  36.834  1.00  0.00     0.246 HD
ENDBRANCH  12  14
ENDBRANCH   7  12
ENDBRANCH   1   2
BRANCH   1  16
HETATM   16  C4  UNL     1      29.476  32.952  41.413  1.00  0.00     0.102 C 
BRANCH  16  17
HETATM   17  C5  UNL     1      28.997  33.910  42.447  1.00  0.00     0.243 C 
BRANCH  17  18
HETATM   18  O1  UNL     1      29.992  34.610  43.107  1.00  0.00    -0.375 OA
ATOM     19  H1  UNL     1      29.742  34.972  43.949  1.00  0.00     0.212 HD
ENDBRANCH  17  18
BRANCH  17  20
HETATM   20  N3  UNL     1      28.348  33.099  43.461  1.00  0.00    -0.276 N 
ATOM     21  H3  UNL     1      27.417  33.312  43.818  1.00  0.00     0.190 HD
BRANCH  20  22
HETATM   22  O2  UNL     1      29.045  32.074  43.884  1.00  0.00    -0.292 OA
ATOM     23  H2  UNL     1      28.631  31.558  44.566  1.00  0.00     0.244 HD
ENDBRANCH  20  22
ENDBRANCH  17  20
ENDBRANCH  16  17
ENDBRANCH   1  16
BRANCH   1  24
HETATM   24  C6  UNL     1      28.266  30.918  40.631  1.00  0.00     0.148 C 
BRANCH  24  25
HETATM   25  O3  UNL     1      27.457  30.613  41.626  1.00  0.00    -0.346 OA
ATOM     26  H3  UNL     1      27.736  29.880  42.163  1.00  0.00     0.219 HD
ENDBRANCH  24  25
BRANCH  24  27
HETATM   27  N4  UNL     1      28.720  29.848  39.877  1.00  0.00    -0.358 N 
HETATM   28  C7  UNL     1      30.208  29.781  39.684  1.00  0.00     0.157 C 
HETATM   29  C8  UNL     1      30.463  30.057  38.241  1.00  0.00     0.203 C 
HETATM   30  C9  UNL     1      29.735  29.031  37.433  1.00  0.00     0.068 C 
HETATM   31  C10 UNL     1      28.966  28.060  38.263  1.00  0.00     0.203 C 
HETATM   32  C11 UNL     1      28.020  28.790  39.251  1.00  0.00     0.157 C 
BRANCH  29  33
HETATM   33  N5  UNL     1      31.878  30.018  37.960  1.00  0.00    -0.073 N 
ATOM     34  H53 UNL     1      32.273  30.954  37.873  1.00  0.00     0.274 HD
ATOM     35  H52 UNL     1      32.416  29.700  38.765  1.00  0.00     0.274 HD
ATOM     36  H51 UNL     1      32.064  29.450  37.133  1.00  0.00     0.274 HD
ENDBRANCH  29  33
BRANCH  31  37
HETATM   37  N6  UNL     1      28.076  27.259  37.417  1.00  0.00    -0.073 N 
ATOM     38  H63 UNL     1      28.475  27.098  36.491  1.00  0.00     0.274 HD
ATOM     39  H62 UNL     1      28.025  26.290  37.729  1.00  0.00     0.274 HD
ATOM     40  H61 UNL     1      27.154  27.691  37.364  1.00  0.00     0.274 HD
ENDBRANCH  31  37
ENDBRANCH  24  27
ENDBRANCH   1  24
TORSDOF 13
ENDMDL
MODEL 2
REMARK VINA RESULT: -6.409775832      0.115      1.677
REMARK  13 active torsions:
REMARK  status: ('A' for Active; 'I' for Inactive)
REMARK    1  A    between atoms: C2_5  and  C3_6 
REMARK    2  A    between atoms: C3_6  and  C4_7 
REMARK    3  A    between atoms: C3_6  and  C6_15 
REMARK    4  A    between atoms: C4_7  and  C5_8 
REMARK    5  A    between atoms: C5_8  and  O1_9 
REMARK    6  A    between atoms: C5_8  and  N3_11 
REMARK    7  A    between atoms: N3_11  and  O2_13 
REMARK    8  A    between atoms: C6_15  and  O3_16 
REMARK    9  A    between atoms: C6_15  and  N4_18 
REMARK   10  A    between atoms: C8_20  and  N5_21 
REMARK   11  A    between atoms: C10_26  and  N6_27 
REMARK   12  A    between atoms: N9_36  and  N10_37 
REMARK   13  A    between atoms: N10_37  and  O4_39 
ROOT
HETATM    1  C3  UNL     1      28.603  32.332  40.497  1.00  0.00     0.041 C 
ENDROOT
BRANCH   1   2
HETATM    2  C2  UNL     1      27.947  33.008  39.557  1.00  0.00     0.120 A 
HETATM    3  N2  UNL     1      28.540  33.254  38.289  1.00  0.00    -0.314 N 
HETATM    4  C1  UNL     1      27.965  33.863  37.332  1.00  0.00     0.219 A 
ATOM      5  H2  UNL     1      29.492  32.921  38.137  1.00  0.00     0.170 HD
HETATM    6  N1  UNL     1      28.614  34.079  36.085  1.00  0.00    -0.061 NA
HETATM    7  N9  UNL     1      26.639  34.331  37.542  1.00  0.00    -0.178 N 
HETATM    8  C12 UNL     1      25.971  34.117  38.803  1.00  0.00     0.219 A 
HETATM    9  N7  UNL     1      26.640  33.486  39.717  1.00  0.00    -0.314 N 
HETATM   10  N8  UNL     1      24.644  34.591  38.998  1.00  0.00    -0.061 NA
ATOM     11  H7  UNL     1      26.183  33.327  40.615  1.00  0.00     0.170 HD
BRANCH   7  12
HETATM   12  N10 UNL     1      25.946  35.004  36.544  1.00  0.00    -0.198 N 
ATOM     13  H10 UNL     1      25.635  34.519  35.703  1.00  0.00     0.216 HD
BRANCH  12  14
HETATM   14  O4  UNL     1      25.717  36.219  36.709  1.00  0.00    -0.274 OA
ATOM     15  H4  UNL     1      25.666  36.772  35.938  1.00  0.00     0.246 HD
ENDBRANCH  12  14
ENDBRANCH   7  12
ENDBRANCH   1   2
BRANCH   1  16
HETATM   16  C4  UNL     1      29.553  32.929  41.422  1.00  0.00     0.102 C 
BRANCH  16  17
HETATM   17  C5  UNL     1      29.112  33.896  42.465  1.00  0.00     0.243 C 
BRANCH  17  18
HETATM   18  O1  UNL     1      30.134  34.540  43.140  1.00  0.00    -0.375 OA
ATOM     19  H1  UNL     1      30.797  33.969  43.509  1.00  0.00     0.212 HD
ENDBRANCH  17  18
BRANCH  17  20
HETATM   20  N3  UNL     1      28.416  33.105  43.464  1.00  0.00    -0.276 N 
ATOM     21  H3  UNL     1      27.492  33.357  43.814  1.00  0.00     0.190 HD
BRANCH  20  22
HETATM   22  O2  UNL     1      29.063  32.045  43.883  1.00  0.00    -0.292 OA
ATOM     23  H2  UNL     1      28.850  31.238  43.431  1.00  0.00     0.244 HD
ENDBRANCH  20  22
ENDBRANCH  17  20
ENDBRANCH  16  17
ENDBRANCH   1  16
BRANCH   1  24
HETATM   24  C6  UNL     1      28.333  30.919  40.592  1.00  0.00     0.148 C 
BRANCH  24  25
HETATM   25  O3  UNL     1      27.523  30.568  41.571  1.00  0.00    -0.346 OA
ATOM     26  H3  UNL     1      27.813  29.824  42.088  1.00  0.00     0.219 HD
ENDBRANCH  24  25
BRANCH  24  27
HETATM   27  N4  UNL     1      28.804  29.883  39.802  1.00  0.00    -0.358 N 
HETATM   28  C7  UNL     1      30.288  29.872  39.572  1.00  0.00     0.157 C 
HETATM   29  C8  UNL     1      30.498  30.190  38.130  1.00  0.00     0.203 C 
HETATM   30  C9  UNL     1      29.784  29.158  37.316  1.00  0.00     0.068 C 
HETATM   31  C10 UNL     1      29.070  28.142  38.140  1.00  0.00     0.203 C 
HETATM   32  C11 UNL     1      28.125  28.816  39.168  1.00  0.00     0.157 C 
BRANCH  29  33
HETATM   33  N5  UNL     1      31.905  30.206  37.813  1.00  0.00    -0.073 N 
ATOM     34  H53 UNL     1      32.483  30.171  38.653  1.00  0.00     0.274 HD
ATOM     35  H52 UNL     1      32.207  29.331  37.384  1.00  0.00     0.274 HD
ATOM     36  H51 UNL     1      32.133  31.011  37.230  1.00  0.00     0.274 HD
ENDBRANCH  29  33
BRANCH  31  37
HETATM   37  N6  UNL     1      28.187  27.331  37.297  1.00  0.00    -0.073 N 
ATOM     38  H63 UNL     1      28.674  26.528  36.898  1.00  0.00     0.274 HD
ATOM     39  H62 UNL     1      27.492  26.828  37.848  1.00  0.00     0.274 HD
ATOM     40  H61 UNL     1      27.754  27.910  36.577  1.00  0.00     0.274 HD
ENDBRANCH  31  37
ENDBRANCH  24  27
ENDBRANCH   1  24
TORSDOF 13
ENDMDL
MODEL 3
REMARK VINA RESULT: -6.001354814      1.041      2.558
REMARK  13 active torsions:
REMARK  status: ('A' for Active; 'I' for Inactive)
REMARK    1  A    between atoms: C2_5  and  C3_6 
REMARK    2  A    between atoms: C3_6  and  C4_7 
REMARK    3  A    between atoms: C3_6  and  C6_15 
REMARK    4  A    between atoms: C4_7  and  C5_8 
REMARK    5  A    between atoms: C5_8  and  O1_9 
REMARK    6  A    between atoms: C5_8  and  N3_11 
REMARK    7  A    between atoms: N3_11  and  O2_13 
REMARK    8  A    between atoms: C6_15  and  O3_16 
REMARK    9  A    between atoms: C6_15  and  N4_18 
REMARK   10  A    between atoms: C8_20  and  N5_21 
REMARK   11  A    between atoms: C10_26  and  N6_27 
REMARK   12  A    between atoms: N9_36  and  N10_37 
REMARK   13  A    between atoms: N10_37  and  O4_39 
ROOT
HETATM    1  C3  UNL     1      28.830  32.580  40.287  1.00  0.00     0.041 C 
ENDROOT
BRANCH   1   2
HETATM    2  C2  UNL     1      28.070  33.208  39.393  1.00  0.00     0.120 A 
HETATM    3  N2  UNL     1      28.575  33.528  38.104  1.00  0.00    -0.314 N 
HETATM    4  C1  UNL     1      27.900  34.097  37.188  1.00  0.00     0.219 A 
ATOM      5  H2  UNL     1      29.545  33.286  37.899  1.00  0.00     0.170 HD
HETATM    6  N1  UNL     1      28.464  34.391  35.916  1.00  0.00    -0.061 NA
HETATM    7  N9  UNL     1      26.549  34.437  37.470  1.00  0.00    -0.178 N 
HETATM    8  C12 UNL     1      25.967  34.143  38.756  1.00  0.00     0.219 A 
HETATM    9  N7  UNL     1      26.734  33.561  39.625  1.00  0.00    -0.314 N 
HETATM   10  N8  UNL     1      24.613  34.489  39.025  1.00  0.00    -0.061 NA
ATOM     11  H7  UNL     1      26.339  33.346  40.540  1.00  0.00     0.170 HD
BRANCH   7  12
HETATM   12  N10 UNL     1      25.750  35.059  36.520  1.00  0.00    -0.198 N 
ATOM     13  H10 UNL     1      25.218  34.513  35.843  1.00  0.00     0.216 HD
BRANCH  12  14
HETATM   14  O4  UNL     1      25.702  36.306  36.522  1.00  0.00    -0.274 OA
ATOM     15  H4  UNL     1      25.456  36.744  35.715  1.00  0.00     0.246 HD
ENDBRANCH  12  14
ENDBRANCH   7  12
ENDBRANCH   1   2
BRANCH   1  16
HETATM   16  C4  UNL     1      29.659  33.253  41.274  1.00  0.00     0.102 C 
BRANCH  16  17
HETATM   17  C5  UNL     1      29.195  33.435  42.677  1.00  0.00     0.243 C 
BRANCH  17  18
HETATM   18  O1  UNL     1      28.406  32.411  43.173  1.00  0.00    -0.375 OA
ATOM     19  H1  UNL     1      28.783  31.542  43.108  1.00  0.00     0.212 HD
ENDBRANCH  17  18
BRANCH  17  20
HETATM   20  N3  UNL     1      28.348  34.613  42.660  1.00  0.00    -0.276 N 
ATOM     21  H3  UNL     1      28.446  35.347  41.959  1.00  0.00     0.190 HD
BRANCH  20  22
HETATM   22  O2  UNL     1      27.447  34.664  43.611  1.00  0.00    -0.292 OA
ATOM     23  H2  UNL     1      27.776  34.922  44.464  1.00  0.00     0.244 HD
ENDBRANCH  20  22
ENDBRANCH  17  20
ENDBRANCH  16  17
ENDBRANCH   1  16
BRANCH   1  24
HETATM   24  C6  UNL     1      28.810  31.138  40.263  1.00  0.00     0.148 C 
BRANCH  24  25
HETATM   25  O3  UNL     1      27.895  30.578  41.029  1.00  0.00    -0.346 OA
ATOM     26  H3  UNL     1      28.235  30.046  41.740  1.00  0.00     0.219 HD
ENDBRANCH  24  25
BRANCH  24  27
HETATM   27  N4  UNL     1      29.614  30.263  39.550  1.00  0.00    -0.358 N 
HETATM   28  C7  UNL     1      28.969  29.626  38.353  1.00  0.00     0.157 C 
HETATM   29  C8  UNL     1      28.810  28.178  38.676  1.00  0.00     0.203 C 
HETATM   30  C9  UNL     1      30.163  27.613  38.967  1.00  0.00     0.068 C 
HETATM   31  C10 UNL     1      31.259  28.620  38.876  1.00  0.00     0.203 C 
HETATM   32  C11 UNL     1      30.955  29.861  39.753  1.00  0.00     0.157 C 
BRANCH  29  33
HETATM   33  N5  UNL     1      28.190  27.479  37.576  1.00  0.00    -0.073 N 
ATOM     34  H53 UNL     1      27.495  28.056  37.104  1.00  0.00     0.274 HD
ATOM     35  H52 UNL     1      28.836  27.349  36.797  1.00  0.00     0.274 HD
ATOM     36  H51 UNL     1      27.796  26.593  37.892  1.00  0.00     0.274 HD
ENDBRANCH  29  33
BRANCH  31  37
HETATM   37  N6  UNL     1      32.502  28.070  39.424  1.00  0.00    -0.073 N 
ATOM     38  H63 UNL     1      32.336  27.224  39.969  1.00  0.00     0.274 HD
ATOM     39  H62 UNL     1      33.093  27.668  38.697  1.00  0.00     0.274 HD
ATOM     40  H61 UNL     1      32.995  28.780  39.965  1.00  0.00     0.274 HD
ENDBRANCH  31  37
ENDBRANCH  24  27
ENDBRANCH   1  24
TORSDOF 13
ENDMDL
MODEL 4
REMARK VINA RESULT: -5.972775042      2.018      5.142
REMARK  13 active torsions:
REMARK  status: ('A' for Active; 'I' for Inactive)
REMARK    1  A    between atoms: C2_5  and  C3_6 
REMARK    2  A    between atoms: C3_6  and  C4_7 
REMARK    3  A    between atoms: C3_6  and  C6_15 
REMARK    4  A    between atoms: C4_7  and  C5_8 
REMARK    5  A    between atoms: C5_8  and  O1_9 
REMARK    6  A    between atoms: C5_8  and  N3_11 
REMARK    7  A    between atoms: N3_11  and  O2_13 
REMARK    8  A    between atoms: C6_15  and  O3_16 
REMARK    9  A    between atoms: C6_15  and  N4_18 
REMARK   10  A    between atoms: C8_20  and  N5_21 
REMARK   11  A    between atoms: C10_26  and  N6_27 
REMARK   12  A    between atoms: N9_36  and  N10_37 
REMARK   13  A    between atoms: N10_37  and  O4_39 
ROOT
HETATM    1  C3  UNL     1      28.335  32.217  40.135  1.00  0.00     0.041 C 
ENDROOT
BRANCH   1   2
HETATM    2  C2  UNL     1      27.691  33.001  39.274  1.00  0.00     0.120 A 
HETATM    3  N2  UNL     1      28.305  33.410  38.060  1.00  0.00    -0.314 N 
HETATM    4  C1  UNL     1      27.742  34.130  37.176  1.00  0.00     0.219 A 
ATOM      5  H2  UNL     1      29.263  33.105  37.885  1.00  0.00     0.170 HD
HETATM    6  N1  UNL     1      28.412  34.506  35.979  1.00  0.00    -0.061 NA
HETATM    7  N9  UNL     1      26.408  34.558  37.417  1.00  0.00    -0.178 N 
HETATM    8  C12 UNL     1      25.719  34.183  38.627  1.00  0.00     0.219 A 
HETATM    9  N7  UNL     1      26.377  33.446  39.468  1.00  0.00    -0.314 N 
HETATM   10  N8  UNL     1      24.384  34.618  38.854  1.00  0.00    -0.061 NA
ATOM     11  H7  UNL     1      25.905  33.172  40.330  1.00  0.00     0.170 HD
BRANCH   7  12
HETATM   12  N10 UNL     1      25.728  35.346  36.498  1.00  0.00    -0.198 N 
ATOM     13  H10 UNL     1      25.153  34.924  35.768  1.00  0.00     0.216 HD
BRANCH  12  14
HETATM   14  O4  UNL     1      25.841  36.585  36.593  1.00  0.00    -0.274 OA
ATOM     15  H4  UNL     1      26.603  36.994  36.201  1.00  0.00     0.246 HD
ENDBRANCH  12  14
ENDBRANCH   7  12
ENDBRANCH   1   2
BRANCH   1  16
HETATM   16  C4  UNL     1      28.592  30.802  39.921  1.00  0.00     0.102 C 
BRANCH  16  17
HETATM   17  C5  UNL     1      27.496  29.798  40.002  1.00  0.00     0.243 C 
BRANCH  17  18
HETATM   18  O1  UNL     1      26.980  29.590  41.269  1.00  0.00    -0.375 OA
ATOM     19  H1  UNL     1      26.095  29.246  41.294  1.00  0.00     0.212 HD
ENDBRANCH  17  18
BRANCH  17  20
HETATM   20  N3  UNL     1      28.092  28.535  39.606  1.00  0.00    -0.276 N 
ATOM     21  H3  UNL     1      29.001  28.227  39.951  1.00  0.00     0.190 HD
BRANCH  20  22
HETATM   22  O2  UNL     1      27.376  27.819  38.774  1.00  0.00    -0.292 OA
ATOM     23  H2  UNL     1      27.459  26.878  38.878  1.00  0.00     0.244 HD
ENDBRANCH  20  22
ENDBRANCH  17  20
ENDBRANCH  16  17
ENDBRANCH   1  16
BRANCH   1  24
HETATM   24  C6  UNL     1      28.807  32.834  41.351  1.00  0.00     0.148 C 
BRANCH  24  25
HETATM   25  O3  UNL     1      28.420  32.243  42.464  1.00  0.00    -0.346 OA
ATOM     26  H3  UNL     1      28.716  32.660  43.266  1.00  0.00     0.219 HD
ENDBRANCH  24  25
BRANCH  24  27
HETATM   27  N4  UNL     1      29.605  33.955  41.512  1.00  0.00    -0.358 N 
HETATM   28  C7  UNL     1      31.073  33.739  41.279  1.00  0.00     0.157 C 
HETATM   29  C8  UNL     1      31.741  33.884  42.604  1.00  0.00     0.203 C 
HETATM   30  C9  UNL     1      31.439  35.249  43.133  1.00  0.00     0.068 C 
HETATM   31  C10 UNL     1      30.569  36.056  42.230  1.00  0.00     0.203 C 
HETATM   32  C11 UNL     1      29.276  35.286  41.860  1.00  0.00     0.157 C 
BRANCH  29  33
HETATM   33  N5  UNL     1      33.165  33.688  42.479  1.00  0.00    -0.073 N 
ATOM     34  H53 UNL     1      33.609  34.454  41.973  1.00  0.00     0.274 HD
ATOM     35  H52 UNL     1      33.643  33.799  43.373  1.00  0.00     0.274 HD
ATOM     36  H51 UNL     1      33.367  32.784  42.051  1.00  0.00     0.274 HD
ENDBRANCH  29  33
BRANCH  31  37
HETATM   37  N6  UNL     1      30.101  37.263  42.918  1.00  0.00    -0.073 N 
ATOM     38  H63 UNL     1      29.088  37.365  42.860  1.00  0.00     0.274 HD
ATOM     39  H62 UNL     1      30.188  37.181  43.931  1.00  0.00     0.274 HD
ATOM     40  H61 UNL     1      30.587  38.086  42.560  1.00  0.00     0.274 HD
ENDBRANCH  31  37
ENDBRANCH  24  27
ENDBRANCH   1  24
TORSDOF 13
ENDMDL
MODEL 5
REMARK VINA RESULT: -5.905632450      2.085      4.953
REMARK  13 active torsions:
REMARK  status: ('A' for Active; 'I' for Inactive)
REMARK    1  A    between atoms: C2_5  and  C3_6 
REMARK    2  A    between atoms: C3_6  and  C4_7 
REMARK    3  A    between atoms: C3_6  and  C6_15 
REMARK    4  A    between atoms: C4_7  and  C5_8 
REMARK    5  A    between atoms: C5_8  and  O1_9 
REMARK    6  A    between atoms: C5_8  and  N3_11 
REMARK    7  A    between atoms: N3_11  and  O2_13 
REMARK    8  A    between atoms: C6_15  and  O3_16 
REMARK    9  A    between atoms: C6_15  and  N4_18 
REMARK   10  A    between atoms: C8_20  and  N5_21 
REMARK   11  A    between atoms: C10_26  and  N6_27 
REMARK   12  A    between atoms: N9_36  and  N10_37 
REMARK   13  A    between atoms: N10_37  and  O4_39 
ROOT
HETATM    1  C3  UNL     1      28.372  32.443  40.736  1.00  0.00     0.041 C 
ENDROOT
BRANCH   1   2
HETATM    2  C2  UNL     1      27.835  33.076  39.697  1.00  0.00     0.120 A 
HETATM    3  N2  UNL     1      26.471  33.474  39.711  1.00  0.00    -0.314 N 
HETATM    4  C1  UNL     1      25.897  34.109  38.770  1.00  0.00     0.219 A 
ATOM      5  H2  UNL     1      25.914  33.233  40.531  1.00  0.00     0.170 HD
HETATM    6  N1  UNL     1      24.526  34.479  38.845  1.00  0.00    -0.061 NA
HETATM    7  N9  UNL     1      26.670  34.445  37.625  1.00  0.00    -0.178 N 
HETATM    8  C12 UNL     1      28.062  34.075  37.539  1.00  0.00     0.219 A 
HETATM    9  N7  UNL     1      28.557  33.430  38.549  1.00  0.00    -0.314 N 
HETATM   10  N8  UNL     1      28.823  34.419  36.388  1.00  0.00    -0.061 NA
ATOM     11  H7  UNL     1      29.540  33.159  38.505  1.00  0.00     0.170 HD
BRANCH   7  12
HETATM   12  N10 UNL     1      26.114  35.138  36.559  1.00  0.00    -0.198 N 
ATOM     13  H10 UNL     1      25.993  34.693  35.649  1.00  0.00     0.216 HD
BRANCH  12  14
HETATM   14  O4  UNL     1      25.766  36.322  36.747  1.00  0.00    -0.274 OA
ATOM     15  H4  UNL     1      25.052  36.666  36.224  1.00  0.00     0.246 HD
ENDBRANCH  12  14
ENDBRANCH   7  12
ENDBRANCH   1   2
BRANCH   1  16
HETATM   16  C4  UNL     1      28.541  31.001  40.819  1.00  0.00     0.102 C 
BRANCH  16  17
HETATM   17  C5  UNL     1      27.395  30.076  40.597  1.00  0.00     0.243 C 
BRANCH  17  18
HETATM   18  O1  UNL     1      26.807  29.581  41.749  1.00  0.00    -0.375 OA
ATOM     19  H1  UNL     1      26.153  30.146  42.143  1.00  0.00     0.212 HD
ENDBRANCH  17  18
BRANCH  17  20
HETATM   20  N3  UNL     1      27.950  28.923  39.912  1.00  0.00    -0.276 N 
ATOM     21  H3  UNL     1      27.404  28.082  39.727  1.00  0.00     0.190 HD
BRANCH  20  22
HETATM   22  O2  UNL     1      29.203  29.042  39.547  1.00  0.00    -0.292 OA
ATOM     23  H2  UNL     1      29.500  28.403  38.911  1.00  0.00     0.244 HD
ENDBRANCH  20  22
ENDBRANCH  17  20
ENDBRANCH  16  17
ENDBRANCH   1  16
BRANCH   1  24
HETATM   24  C6  UNL     1      28.815  33.259  41.839  1.00  0.00     0.148 C 
BRANCH  24  25
HETATM   25  O3  UNL     1      28.379  32.883  43.025  1.00  0.00    -0.346 OA
ATOM     26  H3  UNL     1      28.085  31.981  43.079  1.00  0.00     0.219 HD
ENDBRANCH  24  25
BRANCH  24  27
HETATM   27  N4  UNL     1      29.631  34.379  41.828  1.00  0.00    -0.358 N 
HETATM   28  C7  UNL     1      31.048  34.139  41.393  1.00  0.00     0.157 C 
HETATM   29  C8  UNL     1      31.904  34.339  42.597  1.00  0.00     0.203 C 
HETATM   30  C9  UNL     1      31.686  35.731  43.098  1.00  0.00     0.068 C 
HETATM   31  C10 UNL     1      30.696  36.503  42.295  1.00  0.00     0.203 C 
HETATM   32  C11 UNL     1      29.360  35.728  42.155  1.00  0.00     0.157 C 
BRANCH  29  33
HETATM   33  N5  UNL     1      33.293  34.125  42.274  1.00  0.00    -0.073 N 
ATOM     34  H53 UNL     1      33.912  34.537  42.973  1.00  0.00     0.274 HD
ATOM     35  H52 UNL     1      33.563  33.148  42.390  1.00  0.00     0.274 HD
ATOM     36  H51 UNL     1      33.501  34.466  41.336  1.00  0.00     0.274 HD
ENDBRANCH  29  33
BRANCH  31  37
HETATM   37  N6  UNL     1      30.336  37.745  42.985  1.00  0.00    -0.073 N 
ATOM     38  H63 UNL     1      30.213  38.520  42.333  1.00  0.00     0.274 HD
ATOM     39  H62 UNL     1      29.389  37.711  43.360  1.00  0.00     0.274 HD
ATOM     40  H61 UNL     1      31.024  37.961  43.707  1.00  0.00     0.274 HD
ENDBRANCH  31  37
ENDBRANCH  24  27
ENDBRANCH   1  24
TORSDOF 13
ENDMDL
