MODEL 1
REMARK VINA RESULT: -5.641176711      0.000      0.000
REMARK  1 active torsions:
REMARK  status: ('A' for Active; 'I' for Inactive)
REMARK    1  A    between atoms: C3_3  and  N1_4 
ROOT
HETATM    1  C1  UNL     1      14.106   9.268  -2.964  1.00  0.00     0.014 C 
HETATM    2  C2  UNL     1      13.826   9.927  -1.983  1.00  0.00    -0.098 C 
HETATM    3  C3  UNL     1      13.456  10.700  -0.792  1.00  0.00     0.219 C 
ENDROOT
BRANCH   3   4
HETATM    4  N1  UNL     1      14.407  10.496   0.275  1.00  0.00    -0.334 N 
HETATM    5  C4  UNL     1      15.762  10.814   0.306  1.00  0.00     0.188 C 
HETATM    6  N2  UNL     1      16.564  11.296  -0.773  1.00  0.00    -0.064 NA
HETATM    7  N3  UNL     1      16.258  10.620   1.494  1.00  0.00    -0.354 N 
HETATM    8  C5  UNL     1      15.243  10.137   2.413  1.00  0.00     0.050 C 
ATOM      9  H3  UNL     1      17.232  10.786   1.747  1.00  0.00     0.163 HD
HETATM   10  C6  UNL     1      14.988  11.247   3.408  1.00  0.00     0.041 C 
HETATM   11  C7  UNL     1      15.797   8.945   3.131  1.00  0.00     0.041 C 
HETATM   12  C8  UNL     1      14.059   9.867   1.551  1.00  0.00     0.053 C 
HETATM   13  C9  UNL     1      12.758  10.411   2.037  1.00  0.00     0.041 C 
HETATM   14  C10 UNL     1      13.850   8.364   1.310  1.00  0.00     0.041 C 
ENDBRANCH   3   4
TORSDOF 1
ENDMDL
MODEL 2
REMARK VINA RESULT: -5.419196202      1.148      4.004
REMARK  1 active torsions:
REMARK  status: ('A' for Active; 'I' for Inactive)
REMARK    1  A    between atoms: C3_3  and  N1_4 
ROOT
HETATM    1  C1  UNL     1      16.597  12.404   3.514  1.00  0.00     0.014 C 
HETATM    2  C2  UNL     1      16.458  11.360   2.908  1.00  0.00    -0.098 C 
HETATM    3  C3  UNL     1      16.262  10.089   2.201  1.00  0.00     0.219 C 
ENDROOT
BRANCH   3   4
HETATM    4  N1  UNL     1      15.613  10.297   0.929  1.00  0.00    -0.334 N 
HETATM    5  C4  UNL     1      16.066  11.020  -0.171  1.00  0.00     0.188 C 
HETATM    6  N2  UNL     1      17.228  11.848  -0.246  1.00  0.00    -0.064 NA
HETATM    7  N3  UNL     1      15.276  10.856  -1.193  1.00  0.00    -0.354 N 
HETATM    8  C5  UNL     1      14.175   9.968  -0.865  1.00  0.00     0.050 C 
ATOM      9  H3  UNL     1      15.412  11.293  -2.105  1.00  0.00     0.163 HD
HETATM   10  C6  UNL     1      14.392   8.693  -1.650  1.00  0.00     0.041 C 
HETATM   11  C7  UNL     1      12.905  10.619  -1.318  1.00  0.00     0.041 C 
HETATM   12  C8  UNL     1      14.292   9.755   0.604  1.00  0.00     0.053 C 
HETATM   13  C9  UNL     1      14.206   8.340   1.068  1.00  0.00     0.041 C 
HETATM   14  C10 UNL     1      13.236  10.547   1.389  1.00  0.00     0.041 C 
ENDBRANCH   3   4
TORSDOF 1
ENDMDL
MODEL 3
REMARK VINA RESULT: -5.309177555      1.603      3.220
REMARK  1 active torsions:
REMARK  status: ('A' for Active; 'I' for Inactive)
REMARK    1  A    between atoms: C3_3  and  N1_4 
ROOT
HETATM    1  C1  UNL     1      18.050  10.837  -0.698  1.00  0.00     0.014 C 
HETATM    2  C2  UNL     1      17.336  10.992   0.273  1.00  0.00    -0.098 C 
HETATM    3  C3  UNL     1      16.467  11.216   1.434  1.00  0.00     0.219 C 
ENDROOT
BRANCH   3   4
HETATM    4  N1  UNL     1      15.214  10.516   1.289  1.00  0.00    -0.334 N 
HETATM    5  C4  UNL     1      14.367  10.468   0.184  1.00  0.00     0.188 C 
HETATM    6  N2  UNL     1      14.476  11.221  -1.025  1.00  0.00    -0.064 NA
HETATM    7  N3  UNL     1      13.404   9.612   0.374  1.00  0.00    -0.354 N 
HETATM    8  C5  UNL     1      13.518   8.975   1.673  1.00  0.00     0.050 C 
ATOM      9  H3  UNL     1      12.666   9.414  -0.303  1.00  0.00     0.163 HD
HETATM   10  C6  UNL     1      13.883   7.528   1.421  1.00  0.00     0.041 C 
HETATM   11  C7  UNL     1      12.179   9.040   2.340  1.00  0.00     0.041 C 
HETATM   12  C8  UNL     1      14.609   9.721   2.360  1.00  0.00     0.053 C 
HETATM   13  C9  UNL     1      15.658   8.889   3.016  1.00  0.00     0.041 C 
HETATM   14  C10 UNL     1      14.067  10.681   3.430  1.00  0.00     0.041 C 
ENDBRANCH   3   4
TORSDOF 1
ENDMDL
MODEL 4
REMARK VINA RESULT: -5.263471489      1.112      4.091
REMARK  1 active torsions:
REMARK  status: ('A' for Active; 'I' for Inactive)
REMARK    1  A    between atoms: C3_3  and  N1_4 
ROOT
HETATM    1  C1  UNL     1      14.833  10.809   4.975  1.00  0.00     0.014 C 
HETATM    2  C2  UNL     1      15.183  10.066   4.079  1.00  0.00    -0.098 C 
HETATM    3  C3  UNL     1      15.577   9.144   3.009  1.00  0.00     0.219 C 
ENDROOT
BRANCH   3   4
HETATM    4  N1  UNL     1      15.191   9.653   1.715  1.00  0.00    -0.334 N 
HETATM    5  C4  UNL     1      15.782  10.668   0.967  1.00  0.00     0.188 C 
HETATM    6  N2  UNL     1      16.836  11.542   1.373  1.00  0.00    -0.064 NA
HETATM    7  N3  UNL     1      15.247  10.745  -0.218  1.00  0.00    -0.354 N 
HETATM    8  C5  UNL     1      14.205   9.748  -0.387  1.00  0.00     0.050 C 
ATOM      9  H3  UNL     1      15.523  11.418  -0.933  1.00  0.00     0.163 HD
HETATM   10  C6  UNL     1      14.720   8.744  -1.394  1.00  0.00     0.041 C 
HETATM   11  C7  UNL     1      12.995  10.432  -0.943  1.00  0.00     0.041 C 
HETATM   12  C8  UNL     1      14.035   9.153   0.968  1.00  0.00     0.053 C 
HETATM   13  C9  UNL     1      14.008   7.664   1.029  1.00  0.00     0.041 C 
HETATM   14  C10 UNL     1      12.757   9.651   1.661  1.00  0.00     0.041 C 
ENDBRANCH   3   4
TORSDOF 1
ENDMDL
MODEL 5
REMARK VINA RESULT: -5.247795203      2.021      4.360
REMARK  1 active torsions:
REMARK  status: ('A' for Active; 'I' for Inactive)
REMARK    1  A    between atoms: C3_3  and  N1_4 
ROOT
HETATM    1  C1  UNL     1      13.584   8.998   4.440  1.00  0.00     0.014 C 
HETATM    2  C2  UNL     1      13.099   9.114   3.332  1.00  0.00    -0.098 C 
HETATM    3  C3  UNL     1      12.513   9.292   1.999  1.00  0.00     0.219 C 
ENDROOT
BRANCH   3   4
HETATM    4  N1  UNL     1      13.467   8.969   0.964  1.00  0.00    -0.334 N 
HETATM    5  C4  UNL     1      14.005   7.729   0.633  1.00  0.00     0.188 C 
HETATM    6  N2  UNL     1      13.841   6.497   1.338  1.00  0.00    -0.064 NA
HETATM    7  N3  UNL     1      14.718   7.806  -0.454  1.00  0.00    -0.354 N 
HETATM    8  C5  UNL     1      14.724   9.159  -0.980  1.00  0.00     0.050 C 
ATOM      9  H3  UNL     1      15.207   7.019  -0.880  1.00  0.00     0.163 HD
HETATM   10  C6  UNL     1      13.936   9.131  -2.271  1.00  0.00     0.041 C 
HETATM   11  C7  UNL     1      16.143   9.535  -1.273  1.00  0.00     0.041 C 
HETATM   12  C8  UNL     1      14.055   9.972   0.073  1.00  0.00     0.053 C 
HETATM   13  C9  UNL     1      12.991  10.905  -0.398  1.00  0.00     0.041 C 
HETATM   14  C10 UNL     1      15.057  10.811   0.881  1.00  0.00     0.041 C 
ENDBRANCH   3   4
TORSDOF 1
ENDMDL
