MODEL 1
REMARK VINA RESULT: -5.442758575      0.000      0.000
REMARK  6 active torsions:
REMARK  status: ('A' for Active; 'I' for Inactive)
REMARK    1  A    between atoms: N1_1  and  C1_4 
REMARK    2  A    between atoms: N2_8  and  C5_9 
REMARK    3  A    between atoms: C5_9  and  C6_10 
REMARK    4  A    between atoms: C6_10  and  C7_11 
REMARK    5  A    between atoms: C7_11  and  C8_12 
REMARK    6  A    between atoms: C9_13  and  N3_14 
ROOT
HETATM    1  C1  UNL     1       2.765  30.513  13.126  1.00  0.00     0.113 A 
HETATM    2  C2  UNL     1       1.630  29.836  13.589  1.00  0.00     0.051 A 
HETATM    3  C3  UNL     1       1.782  28.929  14.604  1.00  0.00     0.023 A 
HETATM    4  C4  UNL     1       3.047  28.732  15.113  1.00  0.00     0.110 A 
HETATM    5  N2  UNL     1       4.121  29.380  14.667  1.00  0.00    -0.302 N 
HETATM    6  N4  UNL     1       3.959  30.250  13.690  1.00  0.00    -0.284 N 
ATOM      7  H4  UNL     1       4.779  30.748  13.345  1.00  0.00     0.188 HD
ENDROOT
BRANCH   5   8
HETATM    8  C5  UNL     1       5.447  29.172  15.203  1.00  0.00     0.149 C 
BRANCH   8   9
HETATM    9  C6  UNL     1       6.341  28.683  14.077  1.00  0.00     0.034 C 
BRANCH   9  10
HETATM   10  C7  UNL     1       6.767  27.267  14.401  1.00  0.00     0.097 C 
BRANCH  10  11
HETATM   11  C8  UNL     1       5.589  26.386  14.327  1.00  0.00    -0.084 C 
HETATM   12  C9  UNL     1       4.635  25.647  14.263  1.00  0.00     0.003 C 
BRANCH  12  13
HETATM   13  N3  UNL     1       3.543  24.772  14.199  1.00  0.00    -0.359 N 
ATOM     14  H32 UNL     1       4.124  25.207  14.915  1.00  0.00     0.166 HD
ATOM     15  H31 UNL     1       2.748  24.136  14.134  1.00  0.00     0.166 HD
ENDBRANCH  12  13
ENDBRANCH  10  11
ENDBRANCH   9  10
ENDBRANCH   8   9
ENDBRANCH   5   8
BRANCH   1  16
HETATM   16  N1  UNL     1       2.627  31.362  12.177  1.00  0.00    -0.384 N 
ATOM     17  H12 UNL     1       1.799  31.950  12.086  1.00  0.00     0.157 HD
ATOM     18  H11 UNL     1       3.376  31.451  11.490  1.00  0.00     0.157 HD
ENDBRANCH   1  16
TORSDOF 6
ENDMDL
MODEL 2
REMARK VINA RESULT: -5.374344873      1.877      3.093
REMARK  6 active torsions:
REMARK  status: ('A' for Active; 'I' for Inactive)
REMARK    1  A    between atoms: N1_1  and  C1_4 
REMARK    2  A    between atoms: N2_8  and  C5_9 
REMARK    3  A    between atoms: C5_9  and  C6_10 
REMARK    4  A    between atoms: C6_10  and  C7_11 
REMARK    5  A    between atoms: C7_11  and  C8_12 
REMARK    6  A    between atoms: C9_13  and  N3_14 
ROOT
HETATM    1  C1  UNL     1       4.087  30.321  13.693  1.00  0.00     0.113 A 
HETATM    2  C2  UNL     1       3.386  31.060  12.733  1.00  0.00     0.051 A 
HETATM    3  C3  UNL     1       2.040  30.845  12.600  1.00  0.00     0.023 A 
HETATM    4  C4  UNL     1       1.450  29.909  13.422  1.00  0.00     0.110 A 
HETATM    5  N2  UNL     1       2.124  29.211  14.332  1.00  0.00    -0.302 N 
HETATM    6  N4  UNL     1       3.418  29.429  14.448  1.00  0.00    -0.284 N 
ATOM      7  H4  UNL     1       3.939  28.895  15.144  1.00  0.00     0.188 HD
ENDROOT
BRANCH   5   8
HETATM    8  C5  UNL     1       1.502  28.230  15.192  1.00  0.00     0.149 C 
BRANCH   8   9
HETATM    9  C6  UNL     1       1.168  27.009  14.354  1.00  0.00     0.034 C 
BRANCH   9  10
HETATM   10  C7  UNL     1       1.978  25.845  14.882  1.00  0.00     0.097 C 
BRANCH  10  11
HETATM   11  C8  UNL     1       3.409  26.120  14.665  1.00  0.00    -0.084 C 
HETATM   12  C9  UNL     1       4.578  26.351  14.467  1.00  0.00     0.003 C 
BRANCH  12  13
HETATM   13  N3  UNL     1       5.927  26.638  14.222  1.00  0.00    -0.359 N 
ATOM     14  H32 UNL     1       5.013  26.961  13.903  1.00  0.00     0.166 HD
ATOM     15  H31 UNL     1       6.914  26.835  14.056  1.00  0.00     0.166 HD
ENDBRANCH  12  13
ENDBRANCH  10  11
ENDBRANCH   9  10
ENDBRANCH   8   9
ENDBRANCH   5   8
BRANCH   1  16
HETATM   16  N1  UNL     1       5.346  30.519  13.820  1.00  0.00    -0.384 N 
ATOM     17  H12 UNL     1       5.895  30.084  14.561  1.00  0.00     0.157 HD
ATOM     18  H11 UNL     1       5.813  31.134  13.153  1.00  0.00     0.157 HD
ENDBRANCH   1  16
TORSDOF 6
ENDMDL
MODEL 3
REMARK VINA RESULT: -5.198063305      1.635      4.847
REMARK  6 active torsions:
REMARK  status: ('A' for Active; 'I' for Inactive)
REMARK    1  A    between atoms: N1_1  and  C1_4 
REMARK    2  A    between atoms: N2_8  and  C5_9 
REMARK    3  A    between atoms: C5_9  and  C6_10 
REMARK    4  A    between atoms: C6_10  and  C7_11 
REMARK    5  A    between atoms: C7_11  and  C8_12 
REMARK    6  A    between atoms: C9_13  and  N3_14 
ROOT
HETATM    1  C1  UNL     1       6.772  27.782  14.134  1.00  0.00     0.113 A 
HETATM    2  C2  UNL     1       7.000  29.146  14.350  1.00  0.00     0.051 A 
HETATM    3  C3  UNL     1       5.986  29.901  14.877  1.00  0.00     0.023 A 
HETATM    4  C4  UNL     1       4.794  29.273  15.165  1.00  0.00     0.110 A 
HETATM    5  N2  UNL     1       4.585  27.975  14.956  1.00  0.00    -0.302 N 
HETATM    6  N4  UNL     1       5.570  27.262  14.449  1.00  0.00    -0.284 N 
ATOM      7  H4  UNL     1       5.415  26.267  14.287  1.00  0.00     0.188 HD
ENDROOT
BRANCH   5   8
HETATM    8  C5  UNL     1       3.333  27.319  15.260  1.00  0.00     0.149 C 
BRANCH   8   9
HETATM    9  C6  UNL     1       2.327  28.382  15.663  1.00  0.00     0.034 C 
BRANCH   9  10
HETATM   10  C7  UNL     1       1.317  28.517  14.545  1.00  0.00     0.097 C 
BRANCH  10  11
HETATM   11  C8  UNL     1       1.725  29.624  13.662  1.00  0.00    -0.084 C 
HETATM   12  C9  UNL     1       2.066  30.542  12.956  1.00  0.00     0.003 C 
BRANCH  12  13
HETATM   13  N3  UNL     1       2.481  31.611  12.151  1.00  0.00    -0.359 N 
ATOM     14  H32 UNL     1       2.818  31.103  12.969  1.00  0.00     0.166 HD
ATOM     15  H31 UNL     1       2.769  32.388  11.555  1.00  0.00     0.166 HD
ENDBRANCH  12  13
ENDBRANCH  10  11
ENDBRANCH   9  10
ENDBRANCH   8   9
ENDBRANCH   5   8
BRANCH   1  16
HETATM   16  N1  UNL     1       7.718  27.073  13.641  1.00  0.00    -0.384 N 
ATOM     17  H12 UNL     1       8.674  27.116  13.994  1.00  0.00     0.157 HD
ATOM     18  H11 UNL     1       7.503  26.442  12.869  1.00  0.00     0.157 HD
ENDBRANCH   1  16
TORSDOF 6
ENDMDL
MODEL 4
REMARK VINA RESULT: -5.109288054      1.527      2.406
REMARK  6 active torsions:
REMARK  status: ('A' for Active; 'I' for Inactive)
REMARK    1  A    between atoms: N1_1  and  C1_4 
REMARK    2  A    between atoms: N2_8  and  C5_9 
REMARK    3  A    between atoms: C5_9  and  C6_10 
REMARK    4  A    between atoms: C6_10  and  C7_11 
REMARK    5  A    between atoms: C7_11  and  C8_12 
REMARK    6  A    between atoms: C9_13  and  N3_14 
ROOT
HETATM    1  C1  UNL     1       3.236  30.305  13.071  1.00  0.00     0.113 A 
HETATM    2  C2  UNL     1       1.866  30.588  13.038  1.00  0.00     0.051 A 
HETATM    3  C3  UNL     1       1.026  29.834  13.815  1.00  0.00     0.023 A 
HETATM    4  C4  UNL     1       1.580  28.836  14.587  1.00  0.00     0.110 A 
HETATM    5  N2  UNL     1       2.885  28.574  14.613  1.00  0.00    -0.302 N 
HETATM    6  N4  UNL     1       3.679  29.307  13.860  1.00  0.00    -0.284 N 
ATOM      7  H4  UNL     1       4.680  29.109  13.875  1.00  0.00     0.188 HD
ENDROOT
BRANCH   5   8
HETATM    8  C5  UNL     1       3.463  27.526  15.424  1.00  0.00     0.149 C 
BRANCH   8   9
HETATM    9  C6  UNL     1       3.084  26.190  14.811  1.00  0.00     0.034 C 
BRANCH   9  10
HETATM   10  C7  UNL     1       4.358  25.411  14.566  1.00  0.00     0.097 C 
BRANCH  10  11
HETATM   11  C8  UNL     1       5.462  26.360  14.339  1.00  0.00    -0.084 C 
HETATM   12  C9  UNL     1       6.354  27.154  14.152  1.00  0.00     0.003 C 
BRANCH  12  13
HETATM   13  N3  UNL     1       7.374  28.091  13.947  1.00  0.00    -0.359 N 
ATOM     14  H32 UNL     1       6.607  27.678  13.417  1.00  0.00     0.166 HD
ATOM     15  H31 UNL     1       8.123  28.771  13.815  1.00  0.00     0.166 HD
ENDBRANCH  12  13
ENDBRANCH  10  11
ENDBRANCH   9  10
ENDBRANCH   8   9
ENDBRANCH   5   8
BRANCH   1  16
HETATM   16  N1  UNL     1       4.024  31.007  12.346  1.00  0.00    -0.384 N 
ATOM     17  H12 UNL     1       4.198  31.996  12.527  1.00  0.00     0.157 HD
ATOM     18  H11 UNL     1       4.494  30.557  11.560  1.00  0.00     0.157 HD
ENDBRANCH   1  16
TORSDOF 6
ENDMDL
MODEL 5
REMARK VINA RESULT: -5.104334486      1.642      4.233
REMARK  6 active torsions:
REMARK  status: ('A' for Active; 'I' for Inactive)
REMARK    1  A    between atoms: N1_1  and  C1_4 
REMARK    2  A    between atoms: N2_8  and  C5_9 
REMARK    3  A    between atoms: C5_9  and  C6_10 
REMARK    4  A    between atoms: C6_10  and  C7_11 
REMARK    5  A    between atoms: C7_11  and  C8_12 
REMARK    6  A    between atoms: C9_13  and  N3_14 
ROOT
HETATM    1  C1  UNL     1       2.878  25.551  14.862  1.00  0.00     0.113 A 
HETATM    2  C2  UNL     1       1.532  25.811  14.580  1.00  0.00     0.051 A 
HETATM    3  C3  UNL     1       1.067  27.090  14.744  1.00  0.00     0.023 A 
HETATM    4  C4  UNL     1       1.955  28.050  15.179  1.00  0.00     0.110 A 
HETATM    5  N2  UNL     1       3.233  27.793  15.446  1.00  0.00    -0.302 N 
HETATM    6  N4  UNL     1       3.665  26.559  15.283  1.00  0.00    -0.284 N 
ATOM      7  H4  UNL     1       4.644  26.358  15.487  1.00  0.00     0.188 HD
ENDROOT
BRANCH   5   8
HETATM    8  C5  UNL     1       4.161  28.803  15.902  1.00  0.00     0.149 C 
BRANCH   8   9
HETATM    9  C6  UNL     1       5.315  28.865  14.917  1.00  0.00     0.034 C 
BRANCH   9  10
HETATM   10  C7  UNL     1       5.311  30.238  14.281  1.00  0.00     0.097 C 
BRANCH  10  11
HETATM   11  C8  UNL     1       4.046  30.421  13.548  1.00  0.00    -0.084 C 
HETATM   12  C9  UNL     1       3.010  30.592  12.950  1.00  0.00     0.003 C 
BRANCH  12  13
HETATM   13  N3  UNL     1       1.819  30.811  12.247  1.00  0.00    -0.359 N 
ATOM     14  H32 UNL     1       2.272  30.049  12.751  1.00  0.00     0.166 HD
ATOM     15  H31 UNL     1       0.956  30.986  11.731  1.00  0.00     0.166 HD
ENDBRANCH  12  13
ENDBRANCH  10  11
ENDBRANCH   9  10
ENDBRANCH   8   9
ENDBRANCH   5   8
BRANCH   1  16
HETATM   16  N1  UNL     1       3.316  24.357  14.711  1.00  0.00    -0.384 N 
ATOM     17  H12 UNL     1       3.957  24.101  13.960  1.00  0.00     0.157 HD
ATOM     18  H11 UNL     1       3.010  23.638  15.367  1.00  0.00     0.157 HD
ENDBRANCH   1  16
TORSDOF 6
ENDMDL
