MODEL 1
REMARK VINA RESULT: -6.920796374      0.000      0.000
REMARK  7 active torsions:
REMARK  status: ('A' for Active; 'I' for Inactive)
REMARK    1  A    between atoms: S1_2  and  N1_5 
REMARK    2  A    between atoms: N1_5  and  C2_7 
REMARK    3  A    between atoms: C3_10  and  O3_11 
REMARK    4  A    between atoms: C4_13  and  C5_14 
REMARK    5  A    between atoms: N3_15  and  N4_17 
REMARK       I    between atoms: N4_17  and  C6_19 
REMARK    6  A    between atoms: C6_19  and  C7_21 
REMARK    7  A    between atoms: C8_27  and  N7_28 
ROOT
HETATM    1  C5  UNL     1      36.432   4.141  23.204  1.00  0.00     0.130 C 
HETATM    2  N3  UNL     1      35.244   4.538  23.395  1.00  0.00    -0.308 N 
ATOM      3  H3  UNL     1      34.561   3.880  23.769  1.00  0.00     0.186 HD
ENDROOT
BRANCH   2   4
HETATM    4  N4  UNL     1      34.831   5.861  23.111  1.00  0.00    -0.265 N 
HETATM    5  C6  UNL     1      34.709   6.803  24.128  1.00  0.00     0.292 C 
HETATM    6  O4  UNL     1      34.994   6.398  25.322  1.00  0.00    -0.264 OA
ATOM      7  H4  UNL     1      34.620   6.127  22.149  1.00  0.00     0.190 HD
BRANCH   5   8
HETATM    8  C7  UNL     1      34.301   8.179  23.986  1.00  0.00     0.171 A 
HETATM    9  N5  UNL     1      33.812   8.774  22.866  1.00  0.00    -0.232 N 
HETATM   10  O5  UNL     1      33.563  10.005  23.130  1.00  0.00    -0.155 OA
ATOM     11  H5  UNL     1      33.666   8.318  21.965  1.00  0.00     0.197 HD
HETATM   12  N6  UNL     1      33.851  10.283  24.352  1.00  0.00    -0.224 N 
HETATM   13  C8  UNL     1      34.329   9.148  24.950  1.00  0.00     0.155 A 
ATOM     14  H6  UNL     1      33.741  11.193  24.800  1.00  0.00     0.198 HD
BRANCH  13  15
HETATM   15  N7  UNL     1      34.706   9.098  26.178  1.00  0.00    -0.382 N 
ATOM     16  H72 UNL     1      34.826   8.227  26.695  1.00  0.00     0.157 HD
ATOM     17  H71 UNL     1      34.941   9.844  26.832  1.00  0.00     0.157 HD
ENDBRANCH  13  15
ENDBRANCH   5   8
ENDBRANCH   2   4
BRANCH   1  18
HETATM   18  C4  UNL     1      36.754   2.737  23.537  1.00  0.00     0.076 A 
HETATM   19  C3  UNL     1      36.205   1.925  24.492  1.00  0.00     0.161 A 
HETATM   20  N2  UNL     1      36.661   0.712  24.594  1.00  0.00    -0.316 N 
HETATM   21  C2  UNL     1      37.635   0.323  23.771  1.00  0.00     0.160 A 
ATOM     22  H2  UNL     1      36.282   0.071  25.291  1.00  0.00     0.170 HD
HETATM   23  S2  UNL     1      37.916   1.711  22.820  1.00  0.00    -0.048 SA
BRANCH  19  24
HETATM   24  O3  UNL     1      35.171   2.439  25.320  1.00  0.00    -0.345 OA
ATOM     25  H3  UNL     1      35.253   3.247  25.812  1.00  0.00     0.219 HD
ENDBRANCH  19  24
BRANCH  21  26
HETATM   26  N1  UNL     1      38.217  -0.858  23.727  1.00  0.00    -0.264 N 
ATOM     27  H1  UNL     1      39.195  -0.958  24.000  1.00  0.00     0.180 HD
BRANCH  26  28
HETATM   28  S1  UNL     1      37.318  -2.231  23.206  1.00  0.00     0.228 S 
HETATM   29  C1  UNL     1      38.227  -2.973  21.855  1.00  0.00     0.186 C 
HETATM   30  O1  UNL     1      35.984  -1.729  22.713  1.00  0.00    -0.206 OA
HETATM   31  O2  UNL     1      37.179  -3.269  24.266  1.00  0.00    -0.206 OA
ENDBRANCH  26  28
ENDBRANCH  21  26
ENDBRANCH   1  18
TORSDOF 7
ENDMDL
MODEL 2
REMARK VINA RESULT: -6.852762744      0.876      1.349
REMARK  7 active torsions:
REMARK  status: ('A' for Active; 'I' for Inactive)
REMARK    1  A    between atoms: S1_2  and  N1_5 
REMARK    2  A    between atoms: N1_5  and  C2_7 
REMARK    3  A    between atoms: C3_10  and  O3_11 
REMARK    4  A    between atoms: C4_13  and  C5_14 
REMARK    5  A    between atoms: N3_15  and  N4_17 
REMARK       I    between atoms: N4_17  and  C6_19 
REMARK    6  A    between atoms: C6_19  and  C7_21 
REMARK    7  A    between atoms: C8_27  and  N7_28 
ROOT
HETATM    1  C5  UNL     1      36.440   4.265  23.302  1.00  0.00     0.130 C 
HETATM    2  N3  UNL     1      36.198   5.030  24.283  1.00  0.00    -0.308 N 
ATOM      3  H3  UNL     1      36.222   4.642  25.226  1.00  0.00     0.186 HD
ENDROOT
BRANCH   2   4
HETATM    4  N4  UNL     1      35.897   6.403  24.119  1.00  0.00    -0.265 N 
HETATM    5  C6  UNL     1      34.582   6.855  24.177  1.00  0.00     0.292 C 
HETATM    6  O4  UNL     1      33.676   5.958  24.388  1.00  0.00    -0.264 OA
ATOM      7  H4  UNL     1      36.653   7.068  23.955  1.00  0.00     0.190 HD
BRANCH   5   8
HETATM    8  C7  UNL     1      34.131   8.217  24.028  1.00  0.00     0.171 A 
HETATM    9  N5  UNL     1      33.617   9.017  24.999  1.00  0.00    -0.232 N 
HETATM   10  O5  UNL     1      33.330  10.156  24.482  1.00  0.00    -0.155 OA
ATOM     11  H5  UNL     1      33.482   8.756  25.976  1.00  0.00     0.197 HD
HETATM   12  N6  UNL     1      33.615  10.180  23.228  1.00  0.00    -0.224 N 
HETATM   13  C8  UNL     1      34.132   8.962  22.881  1.00  0.00     0.155 A 
ATOM     14  H6  UNL     1      33.479  10.972  22.599  1.00  0.00     0.198 HD
BRANCH  13  15
HETATM   15  N7  UNL     1      34.516   8.667  21.690  1.00  0.00    -0.382 N 
ATOM     16  H72 UNL     1      34.251   7.807  21.210  1.00  0.00     0.157 HD
ATOM     17  H71 UNL     1      35.110   9.178  21.037  1.00  0.00     0.157 HD
ENDBRANCH  13  15
ENDBRANCH   5   8
ENDBRANCH   2   4
BRANCH   1  18
HETATM   18  C4  UNL     1      36.743   2.847  23.591  1.00  0.00     0.076 A 
HETATM   19  C3  UNL     1      36.137   1.992  24.471  1.00  0.00     0.161 A 
HETATM   20  N2  UNL     1      36.588   0.775  24.547  1.00  0.00    -0.316 N 
HETATM   21  C2  UNL     1      37.613   0.424  23.770  1.00  0.00     0.160 A 
ATOM     22  H2  UNL     1      36.168   0.103  25.188  1.00  0.00     0.170 HD
HETATM   23  S2  UNL     1      37.950   1.854  22.902  1.00  0.00    -0.048 SA
BRANCH  19  24
HETATM   24  O3  UNL     1      35.052   2.469  25.255  1.00  0.00    -0.345 OA
ATOM     25  H3  UNL     1      34.149   2.218  25.099  1.00  0.00     0.219 HD
ENDBRANCH  19  24
BRANCH  21  26
HETATM   26  N1  UNL     1      38.199  -0.754  23.709  1.00  0.00    -0.264 N 
ATOM     27  H1  UNL     1      39.187  -0.848  23.945  1.00  0.00     0.180 HD
BRANCH  26  28
HETATM   28  S1  UNL     1      37.288  -2.134  23.228  1.00  0.00     0.228 S 
HETATM   29  C1  UNL     1      38.186  -2.917  21.892  1.00  0.00     0.186 C 
HETATM   30  O1  UNL     1      35.956  -1.636  22.728  1.00  0.00    -0.206 OA
HETATM   31  O2  UNL     1      37.147  -3.144  24.314  1.00  0.00    -0.206 OA
ENDBRANCH  26  28
ENDBRANCH  21  26
ENDBRANCH   1  18
TORSDOF 7
ENDMDL
MODEL 3
REMARK VINA RESULT: -6.836285735      1.524      1.862
REMARK  7 active torsions:
REMARK  status: ('A' for Active; 'I' for Inactive)
REMARK    1  A    between atoms: S1_2  and  N1_5 
REMARK    2  A    between atoms: N1_5  and  C2_7 
REMARK    3  A    between atoms: C3_10  and  O3_11 
REMARK    4  A    between atoms: C4_13  and  C5_14 
REMARK    5  A    between atoms: N3_15  and  N4_17 
REMARK       I    between atoms: N4_17  and  C6_19 
REMARK    6  A    between atoms: C6_19  and  C7_21 
REMARK    7  A    between atoms: C8_27  and  N7_28 
ROOT
HETATM    1  C5  UNL     1      35.844   3.821  24.489  1.00  0.00     0.130 C 
HETATM    2  N3  UNL     1      35.175   4.477  23.635  1.00  0.00    -0.308 N 
ATOM      3  H3  UNL     1      35.141   4.139  22.674  1.00  0.00     0.186 HD
ENDROOT
BRANCH   2   4
HETATM    4  N4  UNL     1      34.474   5.661  23.966  1.00  0.00    -0.265 N 
HETATM    5  C6  UNL     1      34.878   6.892  23.459  1.00  0.00     0.292 C 
HETATM    6  O4  UNL     1      35.911   6.882  22.681  1.00  0.00    -0.264 OA
ATOM      7  H4  UNL     1      33.665   5.611  24.584  1.00  0.00     0.190 HD
BRANCH   5   8
HETATM    8  C7  UNL     1      34.263   8.173  23.709  1.00  0.00     0.171 A 
HETATM    9  N5  UNL     1      33.720   8.602  24.879  1.00  0.00    -0.232 N 
HETATM   10  O5  UNL     1      33.271   9.793  24.710  1.00  0.00    -0.155 OA
ATOM     11  H5  UNL     1      33.676   8.068  25.747  1.00  0.00     0.197 HD
HETATM   12  N6  UNL     1      33.474  10.197  23.506  1.00  0.00    -0.224 N 
HETATM   13  C8  UNL     1      34.108   9.198  22.818  1.00  0.00     0.155 A 
ATOM     14  H6  UNL     1      33.209  11.107  23.129  1.00  0.00     0.198 HD
BRANCH  13  15
HETATM   15  N7  UNL     1      34.450   9.294  21.583  1.00  0.00    -0.382 N 
ATOM     16  H72 UNL     1      34.522   8.494  20.955  1.00  0.00     0.157 HD
ATOM     17  H71 UNL     1      34.699  10.110  21.023  1.00  0.00     0.157 HD
ENDBRANCH  13  15
ENDBRANCH   5   8
ENDBRANCH   2   4
BRANCH   1  18
HETATM   18  C4  UNL     1      36.537   2.598  24.033  1.00  0.00     0.076 A 
HETATM   19  C3  UNL     1      37.048   2.300  22.799  1.00  0.00     0.161 A 
HETATM   20  N2  UNL     1      37.620   1.143  22.640  1.00  0.00    -0.316 N 
HETATM   21  C2  UNL     1      37.678   0.311  23.679  1.00  0.00     0.160 A 
ATOM     22  H2  UNL     1      38.016   0.878  21.738  1.00  0.00     0.170 HD
HETATM   23  S2  UNL     1      36.903   1.186  24.922  1.00  0.00    -0.048 SA
BRANCH  19  24
HETATM   24  O3  UNL     1      36.932   3.259  21.757  1.00  0.00    -0.345 OA
ATOM     25  H3  UNL     1      36.751   4.178  21.915  1.00  0.00     0.219 HD
ENDBRANCH  19  24
BRANCH  21  26
HETATM   26  N1  UNL     1      38.214  -0.892  23.707  1.00  0.00    -0.264 N 
ATOM     27  H1  UNL     1      39.169  -1.021  24.045  1.00  0.00     0.180 HD
BRANCH  26  28
HETATM   28  S1  UNL     1      37.295  -2.246  23.171  1.00  0.00     0.228 S 
HETATM   29  C1  UNL     1      38.180  -2.970  21.793  1.00  0.00     0.186 C 
HETATM   30  O1  UNL     1      35.960  -1.722  22.705  1.00  0.00    -0.206 OA
HETATM   31  O2  UNL     1      37.160  -3.304  24.212  1.00  0.00    -0.206 OA
ENDBRANCH  26  28
ENDBRANCH  21  26
ENDBRANCH   1  18
TORSDOF 7
ENDMDL
MODEL 4
REMARK VINA RESULT: -6.823622861      1.824      2.251
REMARK  7 active torsions:
REMARK  status: ('A' for Active; 'I' for Inactive)
REMARK    1  A    between atoms: S1_2  and  N1_5 
REMARK    2  A    between atoms: N1_5  and  C2_7 
REMARK    3  A    between atoms: C3_10  and  O3_11 
REMARK    4  A    between atoms: C4_13  and  C5_14 
REMARK    5  A    between atoms: N3_15  and  N4_17 
REMARK       I    between atoms: N4_17  and  C6_19 
REMARK    6  A    between atoms: C6_19  and  C7_21 
REMARK    7  A    between atoms: C8_27  and  N7_28 
ROOT
HETATM    1  C5  UNL     1      37.703   2.652  22.502  1.00  0.00     0.130 C 
HETATM    2  N3  UNL     1      36.498   3.040  22.455  1.00  0.00    -0.308 N 
ATOM      3  H3  UNL     1      35.755   2.350  22.569  1.00  0.00     0.186 HD
ENDROOT
BRANCH   2   4
HETATM    4  N4  UNL     1      36.143   4.395  22.252  1.00  0.00    -0.265 N 
HETATM    5  C6  UNL     1      35.407   5.089  23.207  1.00  0.00     0.292 C 
HETATM    6  O4  UNL     1      35.078   4.429  24.269  1.00  0.00    -0.264 OA
ATOM      7  H4  UNL     1      36.431   4.867  21.395  1.00  0.00     0.190 HD
BRANCH   5   8
HETATM    8  C7  UNL     1      34.978   6.464  23.134  1.00  0.00     0.171 A 
HETATM    9  N5  UNL     1      35.539   7.457  22.395  1.00  0.00    -0.232 N 
HETATM   10  O5  UNL     1      34.879   8.539  22.592  1.00  0.00    -0.155 OA
ATOM     11  H5  UNL     1      36.351   7.358  21.784  1.00  0.00     0.197 HD
HETATM   12  N6  UNL     1      33.908   8.346  23.414  1.00  0.00    -0.224 N 
HETATM   13  C8  UNL     1      33.924   7.032  23.795  1.00  0.00     0.155 A 
ATOM     14  H6  UNL     1      33.242   9.052  23.728  1.00  0.00     0.198 HD
BRANCH  13  15
HETATM   15  N7  UNL     1      33.076   6.521  24.615  1.00  0.00    -0.382 N 
ATOM     16  H72 UNL     1      32.952   6.849  25.573  1.00  0.00     0.157 HD
ATOM     17  H71 UNL     1      32.412   5.756  24.496  1.00  0.00     0.157 HD
ENDBRANCH  13  15
ENDBRANCH   5   8
ENDBRANCH   2   4
BRANCH   1  18
HETATM   18  C4  UNL     1      37.958   1.213  22.720  1.00  0.00     0.076 A 
HETATM   19  C3  UNL     1      37.793   0.465  23.854  1.00  0.00     0.161 A 
HETATM   20  N2  UNL     1      38.089  -0.800  23.798  1.00  0.00    -0.316 N 
HETATM   21  C2  UNL     1      38.537  -1.301  22.647  1.00  0.00     0.160 A 
ATOM     22  H2  UNL     1      37.980  -1.397  24.618  1.00  0.00     0.170 HD
HETATM   23  S2  UNL     1      38.540   0.053  21.609  1.00  0.00    -0.048 SA
BRANCH  19  24
HETATM   24  O3  UNL     1      37.309   1.098  25.031  1.00  0.00    -0.345 OA
ATOM     25  H3  UNL     1      36.401   1.054  25.308  1.00  0.00     0.219 HD
ENDBRANCH  19  24
BRANCH  21  26
HETATM   26  N1  UNL     1      38.884  -2.548  22.402  1.00  0.00    -0.264 N 
ATOM     27  H1  UNL     1      39.533  -2.761  21.644  1.00  0.00     0.180 HD
BRANCH  26  28
HETATM   28  S1  UNL     1      38.237  -3.816  23.370  1.00  0.00     0.228 S 
HETATM   29  C1  UNL     1      38.542  -5.351  22.499  1.00  0.00     0.186 C 
HETATM   30  O1  UNL     1      36.752  -3.578  23.483  1.00  0.00    -0.206 OA
HETATM   31  O2  UNL     1      38.899  -3.927  24.700  1.00  0.00    -0.206 OA
ENDBRANCH  26  28
ENDBRANCH  21  26
ENDBRANCH   1  18
TORSDOF 7
ENDMDL
MODEL 5
REMARK VINA RESULT: -6.707025695      1.499      1.577
REMARK  7 active torsions:
REMARK  status: ('A' for Active; 'I' for Inactive)
REMARK    1  A    between atoms: S1_2  and  N1_5 
REMARK    2  A    between atoms: N1_5  and  C2_7 
REMARK    3  A    between atoms: C3_10  and  O3_11 
REMARK    4  A    between atoms: C4_13  and  C5_14 
REMARK    5  A    between atoms: N3_15  and  N4_17 
REMARK       I    between atoms: N4_17  and  C6_19 
REMARK    6  A    between atoms: C6_19  and  C7_21 
REMARK    7  A    between atoms: C8_27  and  N7_28 
ROOT
HETATM    1  C5  UNL     1      35.732   3.533  24.860  1.00  0.00     0.130 C 
HETATM    2  N3  UNL     1      35.401   4.483  24.089  1.00  0.00    -0.308 N 
ATOM      3  H3  UNL     1      35.636   4.416  23.099  1.00  0.00     0.186 HD
ENDROOT
BRANCH   2   4
HETATM    4  N4  UNL     1      34.718   5.633  24.550  1.00  0.00    -0.265 N 
HETATM    5  C6  UNL     1      35.324   6.885  24.510  1.00  0.00     0.292 C 
HETATM    6  O4  UNL     1      36.525   6.926  24.033  1.00  0.00    -0.264 OA
ATOM      7  H4  UNL     1      33.770   5.543  24.916  1.00  0.00     0.190 HD
BRANCH   5   8
HETATM    8  C7  UNL     1      34.751   8.135  24.944  1.00  0.00     0.171 A 
HETATM    9  N5  UNL     1      33.617   8.720  24.474  1.00  0.00    -0.232 N 
HETATM   10  O5  UNL     1      33.433   9.822  25.104  1.00  0.00    -0.155 OA
ATOM     11  H5  UNL     1      33.014   8.345  23.742  1.00  0.00     0.197 HD
HETATM   12  N6  UNL     1      34.365  10.023  25.968  1.00  0.00    -0.224 N 
HETATM   13  C8  UNL     1      35.239   8.972  25.909  1.00  0.00     0.155 A 
ATOM     14  H6  UNL     1      34.439  10.828  26.591  1.00  0.00     0.198 HD
BRANCH  13  15
HETATM   15  N7  UNL     1      36.283   8.875  26.652  1.00  0.00    -0.382 N 
ATOM     16  H72 UNL     1      37.167   9.339  26.443  1.00  0.00     0.157 HD
ATOM     17  H71 UNL     1      36.435   8.365  27.523  1.00  0.00     0.157 HD
ENDBRANCH  13  15
ENDBRANCH   5   8
ENDBRANCH   2   4
BRANCH   1  18
HETATM   18  C4  UNL     1      36.443   2.380  24.270  1.00  0.00     0.076 A 
HETATM   19  C3  UNL     1      36.874   2.191  22.985  1.00  0.00     0.161 A 
HETATM   20  N2  UNL     1      37.484   1.077  22.705  1.00  0.00    -0.316 N 
HETATM   21  C2  UNL     1      37.657   0.181  23.676  1.00  0.00     0.160 A 
ATOM     22  H2  UNL     1      37.823   0.894  21.761  1.00  0.00     0.170 HD
HETATM   23  S2  UNL     1      36.938   0.931  25.029  1.00  0.00    -0.048 SA
BRANCH  19  24
HETATM   24  O3  UNL     1      36.637   3.211  22.025  1.00  0.00    -0.345 OA
ATOM     25  H3  UNL     1      36.540   4.127  22.254  1.00  0.00     0.219 HD
ENDBRANCH  19  24
BRANCH  21  26
HETATM   26  N1  UNL     1      38.247  -0.993  23.581  1.00  0.00    -0.264 N 
ATOM     27  H1  UNL     1      39.251  -1.076  23.740  1.00  0.00     0.180 HD
BRANCH  26  28
HETATM   28  S1  UNL     1      37.313  -2.385  23.187  1.00  0.00     0.228 S 
HETATM   29  C1  UNL     1      38.313  -3.399  22.101  1.00  0.00     0.186 C 
HETATM   30  O1  UNL     1      36.085  -1.906  22.454  1.00  0.00    -0.206 OA
HETATM   31  O2  UNL     1      36.978  -3.215  24.378  1.00  0.00    -0.206 OA
ENDBRANCH  26  28
ENDBRANCH  21  26
ENDBRANCH   1  18
TORSDOF 7
ENDMDL
