MODEL 1
REMARK VINA RESULT: -5.594498130      0.000      0.000
REMARK  2 active torsions:
REMARK  status: ('A' for Active; 'I' for Inactive)
REMARK    1  A    between atoms: C2_2  and  N2_6 
REMARK    2  A    between atoms: N2_6  and  C3_8 
ROOT
HETATM    1  C3  UNL     1       7.656   8.669  49.764  1.00  0.00     0.119 C 
HETATM    2  C4  UNL     1       7.819   9.293  51.159  1.00  0.00     0.038 C 
HETATM    3  C5  UNL     1       7.725  10.600  50.434  1.00  0.00     0.044 C 
HETATM    4  C6  UNL     1       8.552   9.858  49.376  1.00  0.00     0.213 C 
HETATM    5  N3  UNL     1       9.778   9.603  50.038  1.00  0.00    -0.068 N 
HETATM    6  C7  UNL     1      10.609   8.602  49.414  1.00  0.00     0.272 C 
HETATM    7  C8  UNL     1      10.595  10.755  50.289  1.00  0.00     0.272 C 
HETATM    8  C9  UNL     1       9.296   9.124  51.350  1.00  0.00     0.243 C 
ENDROOT
BRANCH   1   9
HETATM    9  N2  UNL     1       6.303   8.776  49.347  1.00  0.00    -0.373 N 
ATOM     10  H2  UNL     1       5.756   9.597  49.607  1.00  0.00     0.161 HD
BRANCH   9  11
HETATM   11  C2  UNL     1       5.708   7.754  48.576  1.00  0.00     0.066 C 
HETATM   12  C1  UNL     1       5.735   6.319  48.946  1.00  0.00     0.088 C 
HETATM   13  N1  UNL     1       5.109   8.146  47.478  1.00  0.00    -0.389 N 
ATOM     14  H12 UNL     1       4.679   7.408  46.921  1.00  0.00     0.157 HD
ATOM     15  H11 UNL     1       5.089   9.133  47.223  1.00  0.00     0.157 HD
ENDBRANCH   9  11
ENDBRANCH   1   9
TORSDOF 2
ENDMDL
MODEL 2
REMARK VINA RESULT: -5.473965331      0.862      1.263
REMARK  2 active torsions:
REMARK  status: ('A' for Active; 'I' for Inactive)
REMARK    1  A    between atoms: C2_2  and  N2_6 
REMARK    2  A    between atoms: N2_6  and  C3_8 
ROOT
HETATM    1  C3  UNL     1       7.741   9.190  49.070  1.00  0.00     0.119 C 
HETATM    2  C4  UNL     1       8.704   8.391  49.963  1.00  0.00     0.038 C 
HETATM    3  C5  UNL     1       8.283   9.349  51.035  1.00  0.00     0.044 C 
HETATM    4  C6  UNL     1       8.318  10.361  49.882  1.00  0.00     0.213 C 
HETATM    5  N3  UNL     1       9.687  10.398  49.519  1.00  0.00    -0.068 N 
HETATM    6  C7  UNL     1       9.958  10.985  48.230  1.00  0.00     0.272 C 
HETATM    7  C8  UNL     1      10.562  11.016  50.474  1.00  0.00     0.272 C 
HETATM    8  C9  UNL     1      10.015   8.957  49.506  1.00  0.00     0.243 C 
ENDROOT
BRANCH   1   9
HETATM    9  N2  UNL     1       6.400   8.844  49.383  1.00  0.00    -0.373 N 
ATOM     10  H2  UNL     1       5.904   9.351  50.116  1.00  0.00     0.161 HD
BRANCH   9  11
HETATM   11  C2  UNL     1       5.748   7.802  48.689  1.00  0.00     0.066 C 
HETATM   12  C1  UNL     1       5.717   6.394  49.152  1.00  0.00     0.088 C 
HETATM   13  N1  UNL     1       5.149   8.148  47.575  1.00  0.00    -0.389 N 
ATOM     14  H12 UNL     1       4.678   7.395  47.073  1.00  0.00     0.157 HD
ATOM     15  H11 UNL     1       5.170   9.116  47.256  1.00  0.00     0.157 HD
ENDBRANCH   9  11
ENDBRANCH   1   9
TORSDOF 2
ENDMDL
MODEL 3
REMARK VINA RESULT: -5.439734015      2.044      4.637
REMARK  2 active torsions:
REMARK  status: ('A' for Active; 'I' for Inactive)
REMARK    1  A    between atoms: C2_2  and  N2_6 
REMARK    2  A    between atoms: N2_6  and  C3_8 
ROOT
HETATM    1  C3  UNL     1       6.762   7.645  49.630  1.00  0.00     0.119 C 
HETATM    2  C4  UNL     1       7.564   7.693  48.320  1.00  0.00     0.038 C 
HETATM    3  C5  UNL     1       6.291   8.205  47.721  1.00  0.00     0.044 C 
HETATM    4  C6  UNL     1       5.653   7.181  48.670  1.00  0.00     0.213 C 
HETATM    5  N3  UNL     1       6.117   5.939  48.173  1.00  0.00    -0.068 N 
HETATM    6  C7  UNL     1       5.976   4.829  49.084  1.00  0.00     0.272 C 
HETATM    7  C8  UNL     1       5.573   5.539  46.908  1.00  0.00     0.272 C 
HETATM    8  C9  UNL     1       7.547   6.240  47.950  1.00  0.00     0.243 C 
ENDROOT
BRANCH   1   9
HETATM    9  N2  UNL     1       6.603   8.960  50.142  1.00  0.00    -0.373 N 
ATOM     10  H2  UNL     1       5.866   9.561  49.773  1.00  0.00     0.161 HD
BRANCH   9  11
HETATM   11  C2  UNL     1       7.458   9.442  51.157  1.00  0.00     0.066 C 
HETATM   12  C1  UNL     1       8.214   8.566  52.083  1.00  0.00     0.088 C 
HETATM   13  N1  UNL     1       7.556  10.746  51.247  1.00  0.00    -0.389 N 
ATOM     14  H12 UNL     1       8.173  11.095  51.980  1.00  0.00     0.157 HD
ATOM     15  H11 UNL     1       7.036  11.349  50.610  1.00  0.00     0.157 HD
ENDBRANCH   9  11
ENDBRANCH   1   9
TORSDOF 2
ENDMDL
MODEL 4
REMARK VINA RESULT: -5.360807629      1.727      4.411
REMARK  2 active torsions:
REMARK  status: ('A' for Active; 'I' for Inactive)
REMARK    1  A    between atoms: C2_2  and  N2_6 
REMARK    2  A    between atoms: N2_6  and  C3_8 
ROOT
HETATM    1  C3  UNL     1       6.620   8.584  49.260  1.00  0.00     0.119 C 
HETATM    2  C4  UNL     1       5.414   7.667  49.004  1.00  0.00     0.038 C 
HETATM    3  C5  UNL     1       6.354   6.559  49.368  1.00  0.00     0.044 C 
HETATM    4  C6  UNL     1       7.364   7.415  48.592  1.00  0.00     0.213 C 
HETATM    5  N3  UNL     1       6.863   7.393  47.268  1.00  0.00    -0.068 N 
HETATM    6  C7  UNL     1       7.404   8.408  46.396  1.00  0.00     0.272 C 
HETATM    7  C8  UNL     1       6.969   6.133  46.589  1.00  0.00     0.272 C 
HETATM    8  C9  UNL     1       5.425   7.633  47.505  1.00  0.00     0.243 C 
ENDROOT
BRANCH   1   9
HETATM    9  N2  UNL     1       6.834   8.712  50.658  1.00  0.00    -0.373 N 
ATOM     10  H2  UNL     1       6.223   8.222  51.311  1.00  0.00     0.161 HD
BRANCH   9  11
HETATM   11  C2  UNL     1       7.887   9.514  51.151  1.00  0.00     0.066 C 
HETATM   12  C1  UNL     1       9.300   9.070  51.217  1.00  0.00     0.088 C 
HETATM   13  N1  UNL     1       7.546  10.710  51.563  1.00  0.00    -0.389 N 
ATOM     14  H12 UNL     1       8.306  11.289  51.920  1.00  0.00     0.157 HD
ATOM     15  H11 UNL     1       6.574  11.016  51.518  1.00  0.00     0.157 HD
ENDBRANCH   9  11
ENDBRANCH   1   9
TORSDOF 2
ENDMDL
MODEL 5
REMARK VINA RESULT: -5.287600184      1.032      1.639
REMARK  2 active torsions:
REMARK  status: ('A' for Active; 'I' for Inactive)
REMARK    1  A    between atoms: C2_2  and  N2_6 
REMARK    2  A    between atoms: N2_6  and  C3_8 
ROOT
HETATM    1  C3  UNL     1       7.063   9.073  49.373  1.00  0.00     0.119 C 
HETATM    2  C4  UNL     1       7.684  10.467  49.194  1.00  0.00     0.038 C 
HETATM    3  C5  UNL     1       8.686   9.759  48.335  1.00  0.00     0.044 C 
HETATM    4  C6  UNL     1       8.546   8.664  49.400  1.00  0.00     0.213 C 
HETATM    5  N3  UNL     1       9.056   9.278  50.570  1.00  0.00    -0.068 N 
HETATM    6  C7  UNL     1       8.713   8.613  51.804  1.00  0.00     0.272 C 
HETATM    7  C8  UNL     1      10.472   9.510  50.578  1.00  0.00     0.272 C 
HETATM    8  C9  UNL     1       8.404  10.602  50.502  1.00  0.00     0.243 C 
ENDROOT
BRANCH   1   9
HETATM    9  N2  UNL     1       6.361   8.708  48.193  1.00  0.00    -0.373 N 
ATOM     10  H2  UNL     1       6.251   9.386  47.439  1.00  0.00     0.161 HD
BRANCH   9  11
HETATM   11  C2  UNL     1       5.813   7.414  48.057  1.00  0.00     0.066 C 
HETATM   12  C1  UNL     1       5.747   6.426  49.160  1.00  0.00     0.088 C 
HETATM   13  N1  UNL     1       5.350   7.114  46.868  1.00  0.00    -0.389 N 
ATOM     14  H12 UNL     1       4.954   6.180  46.769  1.00  0.00     0.157 HD
ATOM     15  H11 UNL     1       5.395   7.794  46.109  1.00  0.00     0.157 HD
ENDBRANCH   9  11
ENDBRANCH   1   9
TORSDOF 2
ENDMDL
