MODEL 1
REMARK VINA RESULT: -6.741680350      0.000      0.000
REMARK  3 active torsions:
REMARK  status: ('A' for Active; 'I' for Inactive)
REMARK    1  A    between atoms: C2_2  and  S1_5 
REMARK    2  A    between atoms: S1_5  and  N1_8 
REMARK    3  A    between atoms: N1_8  and  C3_10 
ROOT
HETATM    1  C3  UNL     1      31.450 -12.813   4.005  1.00  0.00     0.041 C 
HETATM    2  C4  UNL     1      31.884 -13.943   4.954  1.00  0.00     0.036 C 
HETATM    3  C5  UNL     1      32.151 -15.220   4.252  1.00  0.00    -0.012 C 
HETATM    4  C6  UNL     1      33.274 -15.035   3.277  1.00  0.00     0.009 C 
HETATM    5  C7  UNL     1      32.846 -13.964   2.289  1.00  0.00    -0.012 C 
HETATM    6  C8  UNL     1      31.603 -14.453   1.594  1.00  0.00     0.009 C 
HETATM    7  C9  UNL     1      30.487 -14.620   2.608  1.00  0.00    -0.012 C 
HETATM    8  C10 UNL     1      30.877 -15.688   3.595  1.00  0.00     0.009 C 
HETATM    9  C11 UNL     1      30.211 -13.295   3.287  1.00  0.00     0.036 C 
HETATM   10  C12 UNL     1      32.547 -12.655   2.996  1.00  0.00     0.036 C 
ENDROOT
BRANCH   1  11
HETATM   11  N1  UNL     1      31.239 -11.697   4.840  1.00  0.00    -0.305 N 
ATOM     12  H1  UNL     1      31.720 -11.648   5.738  1.00  0.00     0.173 HD
BRANCH  11  13
HETATM   13  S1  UNL     1      30.229 -10.463   4.396  1.00  0.00     0.295 S 
HETATM   14  O1  UNL     1      29.712  -9.772   5.655  1.00  0.00    -0.200 OA
HETATM   15  O2  UNL     1      29.056 -10.830   3.538  1.00  0.00    -0.200 OA
BRANCH  13  16
HETATM   16  C2  UNL     1      31.119  -9.211   3.502  1.00  0.00     0.357 C 
HETATM   17  C1  UNL     1      30.820  -7.880   4.140  1.00  0.00     0.110 C 
HETATM   18  F1  UNL     1      32.444  -9.489   3.525  1.00  0.00    -0.187 F 
HETATM   19  F2  UNL     1      30.627  -9.229   2.191  1.00  0.00    -0.187 F 
ENDBRANCH  13  16
ENDBRANCH  11  13
ENDBRANCH   1  11
TORSDOF 3
ENDMDL
MODEL 2
REMARK VINA RESULT: -6.623647310      3.240      4.013
REMARK  3 active torsions:
REMARK  status: ('A' for Active; 'I' for Inactive)
REMARK    1  A    between atoms: C2_2  and  S1_5 
REMARK    2  A    between atoms: S1_5  and  N1_8 
REMARK    3  A    between atoms: N1_8  and  C3_10 
ROOT
HETATM    1  C3  UNL     1      32.479 -14.124   2.724  1.00  0.00     0.041 C 
HETATM    2  C4  UNL     1      31.152 -14.560   2.080  1.00  0.00     0.036 C 
HETATM    3  C5  UNL     1      30.281 -15.321   3.006  1.00  0.00    -0.012 C 
HETATM    4  C6  UNL     1      29.916 -14.461   4.178  1.00  0.00     0.009 C 
HETATM    5  C7  UNL     1      31.209 -14.064   4.869  1.00  0.00    -0.012 C 
HETATM    6  C8  UNL     1      31.893 -15.327   5.320  1.00  0.00     0.009 C 
HETATM    7  C9  UNL     1      32.256 -16.167   4.109  1.00  0.00    -0.012 C 
HETATM    8  C10 UNL     1      30.990 -16.589   3.409  1.00  0.00     0.009 C 
HETATM    9  C11 UNL     1      33.173 -15.380   3.197  1.00  0.00     0.036 C 
HETATM   10  C12 UNL     1      32.122 -13.302   3.927  1.00  0.00     0.036 C 
ENDROOT
BRANCH   1  11
HETATM   11  N1  UNL     1      33.167 -13.429   1.708  1.00  0.00    -0.305 N 
ATOM     12  H1  UNL     1      32.838 -13.502   0.745  1.00  0.00     0.173 HD
BRANCH  11  13
HETATM   13  S1  UNL     1      34.495 -12.499   2.041  1.00  0.00     0.295 S 
HETATM   14  O1  UNL     1      35.340 -12.376   0.776  1.00  0.00    -0.200 OA
HETATM   15  O2  UNL     1      35.376 -12.963   3.161  1.00  0.00    -0.200 OA
BRANCH  13  16
HETATM   16  C2  UNL     1      34.012 -10.837   2.451  1.00  0.00     0.357 C 
HETATM   17  C1  UNL     1      34.643  -9.908   1.448  1.00  0.00     0.110 C 
HETATM   18  F1  UNL     1      32.662 -10.739   2.443  1.00  0.00    -0.187 F 
HETATM   19  F2  UNL     1      34.525 -10.575   3.728  1.00  0.00    -0.187 F 
ENDBRANCH  13  16
ENDBRANCH  11  13
ENDBRANCH   1  11
TORSDOF 3
ENDMDL
MODEL 3
REMARK VINA RESULT: -6.562478131      0.731      2.033
REMARK  3 active torsions:
REMARK  status: ('A' for Active; 'I' for Inactive)
REMARK    1  A    between atoms: C2_2  and  S1_5 
REMARK    2  A    between atoms: S1_5  and  N1_8 
REMARK    3  A    between atoms: N1_8  and  C3_10 
ROOT
HETATM    1  C3  UNL     1      31.581 -12.770   4.089  1.00  0.00     0.041 C 
HETATM    2  C4  UNL     1      32.637 -12.925   2.981  1.00  0.00     0.036 C 
HETATM    3  C5  UNL     1      32.648 -14.278   2.377  1.00  0.00    -0.012 C 
HETATM    4  C6  UNL     1      31.323 -14.557   1.737  1.00  0.00     0.009 C 
HETATM    5  C7  UNL     1      30.266 -14.468   2.824  1.00  0.00    -0.012 C 
HETATM    6  C8  UNL     1      30.592 -15.508   3.864  1.00  0.00     0.009 C 
HETATM    7  C9  UNL     1      31.934 -15.189   4.497  1.00  0.00    -0.012 C 
HETATM    8  C10 UNL     1      33.007 -15.282   3.443  1.00  0.00     0.009 C 
HETATM    9  C11 UNL     1      31.885 -13.817   5.135  1.00  0.00     0.036 C 
HETATM   10  C12 UNL     1      30.256 -13.095   3.468  1.00  0.00     0.036 C 
ENDROOT
BRANCH   1  11
HETATM   11  N1  UNL     1      31.720 -11.442   4.542  1.00  0.00    -0.305 N 
ATOM     12  H1  UNL     1      32.532 -11.190   5.106  1.00  0.00     0.173 HD
BRANCH  11  13
HETATM   13  S1  UNL     1      30.596 -10.282   4.179  1.00  0.00     0.295 S 
HETATM   14  O1  UNL     1      30.159  -9.597   5.472  1.00  0.00    -0.200 OA
HETATM   15  O2  UNL     1      29.373 -10.738   3.444  1.00  0.00    -0.200 OA
BRANCH  13  16
HETATM   16  C2  UNL     1      31.317  -8.996   3.185  1.00  0.00     0.357 C 
HETATM   17  C1  UNL     1      32.727  -9.403   2.847  1.00  0.00     0.110 C 
HETATM   18  F1  UNL     1      30.571  -8.809   2.071  1.00  0.00    -0.187 F 
HETATM   19  F2  UNL     1      31.334  -7.841   3.976  1.00  0.00    -0.187 F 
ENDBRANCH  13  16
ENDBRANCH  11  13
ENDBRANCH   1  11
TORSDOF 3
ENDMDL
MODEL 4
REMARK VINA RESULT: -6.554187252      2.245      2.981
REMARK  3 active torsions:
REMARK  status: ('A' for Active; 'I' for Inactive)
REMARK    1  A    between atoms: C2_2  and  S1_5 
REMARK    2  A    between atoms: S1_5  and  N1_8 
REMARK    3  A    between atoms: N1_8  and  C3_10 
ROOT
HETATM    1  C3  UNL     1      29.423 -12.915   5.489  1.00  0.00     0.041 C 
HETATM    2  C4  UNL     1      30.911 -12.533   5.577  1.00  0.00     0.036 C 
HETATM    3  C5  UNL     1      31.818 -13.664   5.275  1.00  0.00    -0.012 C 
HETATM    4  C6  UNL     1      31.589 -14.135   3.871  1.00  0.00     0.009 C 
HETATM    5  C7  UNL     1      30.138 -14.575   3.771  1.00  0.00    -0.012 C 
HETATM    6  C8  UNL     1      29.932 -15.695   4.756  1.00  0.00     0.009 C 
HETATM    7  C9  UNL     1      30.164 -15.181   6.165  1.00  0.00    -0.012 C 
HETATM    8  C10 UNL     1      31.601 -14.749   6.299  1.00  0.00     0.009 C 
HETATM    9  C11 UNL     1      29.202 -14.050   6.461  1.00  0.00     0.036 C 
HETATM   10  C12 UNL     1      29.195 -13.433   4.100  1.00  0.00     0.036 C 
ENDROOT
BRANCH   1  11
HETATM   11  N1  UNL     1      28.724 -11.733   5.808  1.00  0.00    -0.305 N 
ATOM     12  H1  UNL     1      28.336 -11.622   6.745  1.00  0.00     0.173 HD
BRANCH  11  13
HETATM   13  S1  UNL     1      28.517 -10.522   4.699  1.00  0.00     0.295 S 
HETATM   14  O1  UNL     1      27.022 -10.300   4.484  1.00  0.00    -0.200 OA
HETATM   15  O2  UNL     1      29.167 -10.717   3.363  1.00  0.00    -0.200 OA
BRANCH  13  16
HETATM   16  C2  UNL     1      29.138  -8.980   5.328  1.00  0.00     0.357 C 
HETATM   17  C1  UNL     1      30.376  -8.622   4.549  1.00  0.00     0.110 C 
HETATM   18  F1  UNL     1      28.185  -8.025   5.217  1.00  0.00    -0.187 F 
HETATM   19  F2  UNL     1      29.471  -9.200   6.671  1.00  0.00    -0.187 F 
ENDBRANCH  13  16
ENDBRANCH  11  13
ENDBRANCH   1  11
TORSDOF 3
ENDMDL
MODEL 5
REMARK VINA RESULT: -6.538168266      4.250      5.167
REMARK  3 active torsions:
REMARK  status: ('A' for Active; 'I' for Inactive)
REMARK    1  A    between atoms: C2_2  and  S1_5 
REMARK    2  A    between atoms: S1_5  and  N1_8 
REMARK    3  A    between atoms: N1_8  and  C3_10 
ROOT
HETATM    1  C3  UNL     1      29.259 -14.953   4.789  1.00  0.00     0.041 C 
HETATM    2  C4  UNL     1      29.960 -16.322   4.752  1.00  0.00     0.036 C 
HETATM    3  C5  UNL     1      31.433 -16.222   4.864  1.00  0.00    -0.012 C 
HETATM    4  C6  UNL     1      31.799 -15.599   6.177  1.00  0.00     0.009 C 
HETATM    5  C7  UNL     1      31.167 -14.218   6.215  1.00  0.00    -0.012 C 
HETATM    6  C8  UNL     1      31.732 -13.425   5.066  1.00  0.00     0.009 C 
HETATM    7  C9  UNL     1      31.335 -14.078   3.756  1.00  0.00    -0.012 C 
HETATM    8  C10 UNL     1      31.959 -15.448   3.682  1.00  0.00     0.009 C 
HETATM    9  C11 UNL     1      29.826 -14.138   3.650  1.00  0.00     0.036 C 
HETATM   10  C12 UNL     1      29.659 -14.301   6.079  1.00  0.00     0.036 C 
ENDROOT
BRANCH   1  11
HETATM   11  N1  UNL     1      27.885 -15.243   4.667  1.00  0.00    -0.305 N 
ATOM     12  H1  UNL     1      27.598 -16.149   4.294  1.00  0.00     0.173 HD
BRANCH  11  13
HETATM   13  S1  UNL     1      26.726 -14.150   5.114  1.00  0.00     0.295 S 
HETATM   14  O1  UNL     1      25.459 -14.414   4.303  1.00  0.00    -0.200 OA
HETATM   15  O2  UNL     1      27.083 -12.700   4.981  1.00  0.00    -0.200 OA
BRANCH  13  16
HETATM   16  C2  UNL     1      26.258 -14.387   6.812  1.00  0.00     0.357 C 
HETATM   17  C1  UNL     1      24.757 -14.298   6.900  1.00  0.00     0.110 C 
HETATM   18  F1  UNL     1      26.713 -15.585   7.247  1.00  0.00    -0.187 F 
HETATM   19  F2  UNL     1      26.837 -13.339   7.537  1.00  0.00    -0.187 F 
ENDBRANCH  13  16
ENDBRANCH  11  13
ENDBRANCH   1  11
TORSDOF 3
ENDMDL
