MODEL 1
REMARK VINA RESULT: -7.861362047      0.000      0.000
REMARK  7 active torsions:
REMARK  status: ('A' for Active; 'I' for Inactive)
REMARK    1  A    between atoms: C3_4  and  C4_5 
REMARK    2  A    between atoms: C10_11  and  C11_12 
REMARK    3  A    between atoms: N2_20  and  C18_21 
REMARK    4  A    between atoms: C19_23  and  C20_24 
REMARK    5  A    between atoms: C20_24  and  O2_25 
REMARK    6  A    between atoms: C21_27  and  O3_28 
REMARK    7  A    between atoms: C22_30  and  O4_31 
ROOT
HETATM    1  N1  UNL     1     -10.722  -8.580 -17.390  1.00  0.00    -0.191 NA
HETATM    2  C1  UNL     1     -10.541  -7.570 -16.817  1.00  0.00     0.103 C 
HETATM    3  C2  UNL     1     -10.329  -6.338 -16.116  1.00  0.00     0.094 A 
HETATM    4  C3  UNL     1      -9.324  -5.491 -16.538  1.00  0.00     0.010 A 
HETATM    5  C10 UNL     1      -9.096  -4.310 -15.894  1.00  0.00     0.003 A 
HETATM    6  C17 UNL     1      -9.898  -3.974 -14.797  1.00  0.00     0.108 A 
HETATM    7  N2  UNL     1     -10.873  -4.786 -14.379  1.00  0.00    -0.316 N 
HETATM    8  C23 UNL     1     -11.089  -5.955 -15.028  1.00  0.00     0.126 A 
HETATM    9  S1  UNL     1     -12.264  -6.959 -14.543  1.00  0.00    -0.059 SA
ENDROOT
BRANCH   4  10
HETATM   10  C4  UNL     1      -8.530  -5.890 -17.683  1.00  0.00    -0.023 A 
HETATM   11  C5  UNL     1      -8.850  -5.623 -18.997  1.00  0.00     0.012 A 
HETATM   12  C6  UNL     1      -8.042  -6.038 -20.045  1.00  0.00     0.001 A 
HETATM   13  C7  UNL     1      -6.879  -6.740 -19.818  1.00  0.00     0.000 A 
HETATM   14  C8  UNL     1      -6.544  -7.017 -18.505  1.00  0.00     0.001 A 
HETATM   15  C9  UNL     1      -7.345  -6.605 -17.475  1.00  0.00     0.012 A 
ENDBRANCH   4  10
BRANCH   5  16
HETATM   16  C11 UNL     1      -8.032  -3.426 -16.344  1.00  0.00    -0.024 A 
HETATM   17  C12 UNL     1      -6.805  -3.526 -15.702  1.00  0.00     0.015 A 
HETATM   18  C13 UNL     1      -5.755  -2.714 -16.092  1.00  0.00     0.043 A 
HETATM   19  C14 UNL     1      -5.939  -1.812 -17.116  1.00  0.00     0.116 A 
HETATM   20  F1  UNL     1      -4.910  -1.028 -17.486  1.00  0.00    -0.206 F 
HETATM   21  C15 UNL     1      -7.157  -1.727 -17.741  1.00  0.00     0.043 A 
HETATM   22  C16 UNL     1      -8.225  -2.525 -17.372  1.00  0.00     0.015 A 
ENDBRANCH   5  16
BRANCH   7  23
HETATM   23  C18 UNL     1     -11.719  -4.480 -13.257  1.00  0.00     0.260 C 
HETATM   24  O1  UNL     1     -11.040  -3.802 -12.246  1.00  0.00    -0.353 OA
HETATM   25  C19 UNL     1     -12.072  -3.470 -11.372  1.00  0.00     0.179 C 
HETATM   26  C21 UNL     1     -13.260  -3.076 -12.185  1.00  0.00     0.182 C 
HETATM   27  C22 UNL     1     -12.829  -3.504 -13.593  1.00  0.00     0.198 C 
BRANCH  25  28
HETATM   28  C20 UNL     1     -11.631  -2.387 -10.397  1.00  0.00     0.198 C 
BRANCH  28  29
HETATM   29  O2  UNL     1     -10.642  -1.598 -10.930  1.00  0.00    -0.398 OA
ATOM     30  H2  UNL     1     -10.010  -1.335 -10.271  1.00  0.00     0.209 HD
ENDBRANCH  28  29
ENDBRANCH  25  28
BRANCH  26  31
HETATM   31  O3  UNL     1     -13.563  -1.726 -12.133  1.00  0.00    -0.390 OA
ATOM     32  H3  UNL     1     -14.466  -1.520 -12.346  1.00  0.00     0.210 HD
ENDBRANCH  26  31
BRANCH  27  33
HETATM   33  O4  UNL     1     -13.878  -4.113 -14.265  1.00  0.00    -0.388 OA
ATOM     34  H4  UNL     1     -14.660  -3.574 -14.275  1.00  0.00     0.210 HD
ENDBRANCH  27  33
ENDBRANCH   7  23
TORSDOF 7
ENDMDL
MODEL 2
REMARK VINA RESULT: -6.725263851      2.980      4.563
REMARK  7 active torsions:
REMARK  status: ('A' for Active; 'I' for Inactive)
REMARK    1  A    between atoms: C3_4  and  C4_5 
REMARK    2  A    between atoms: C10_11  and  C11_12 
REMARK    3  A    between atoms: N2_20  and  C18_21 
REMARK    4  A    between atoms: C19_23  and  C20_24 
REMARK    5  A    between atoms: C20_24  and  O2_25 
REMARK    6  A    between atoms: C21_27  and  O3_28 
REMARK    7  A    between atoms: C22_30  and  O4_31 
ROOT
HETATM    1  N1  UNL     1      -4.974  -2.964 -15.782  1.00  0.00    -0.191 NA
HETATM    2  C1  UNL     1      -6.063  -3.328 -16.034  1.00  0.00     0.103 C 
HETATM    3  C2  UNL     1      -7.391  -3.776 -16.335  1.00  0.00     0.094 A 
HETATM    4  C3  UNL     1      -7.779  -3.883 -17.655  1.00  0.00     0.010 A 
HETATM    5  C10 UNL     1      -9.035  -4.307 -17.976  1.00  0.00     0.003 A 
HETATM    6  C17 UNL     1      -9.923  -4.631 -16.944  1.00  0.00     0.108 A 
HETATM    7  N2  UNL     1      -9.558  -4.531 -15.662  1.00  0.00    -0.316 N 
HETATM    8  C23 UNL     1      -8.308  -4.109 -15.358  1.00  0.00     0.126 A 
HETATM    9  S1  UNL     1      -7.839  -3.979 -13.813  1.00  0.00    -0.059 SA
ENDROOT
BRANCH   4  10
HETATM   10  C4  UNL     1      -6.815  -3.538 -18.681  1.00  0.00    -0.023 A 
HETATM   11  C5  UNL     1      -5.931  -4.422 -19.262  1.00  0.00     0.012 A 
HETATM   12  C6  UNL     1      -5.033  -4.022 -20.240  1.00  0.00     0.001 A 
HETATM   13  C7  UNL     1      -4.983  -2.716 -20.674  1.00  0.00     0.000 A 
HETATM   14  C8  UNL     1      -5.862  -1.816 -20.100  1.00  0.00     0.001 A 
HETATM   15  C9  UNL     1      -6.747  -2.216 -19.137  1.00  0.00     0.012 A 
ENDBRANCH   4  10
BRANCH   5  16
HETATM   16  C11 UNL     1      -9.437  -4.412 -19.371  1.00  0.00    -0.024 A 
HETATM   17  C12 UNL     1     -10.043  -3.302 -19.946  1.00  0.00     0.015 A 
HETATM   18  C13 UNL     1     -10.440  -3.343 -21.270  1.00  0.00     0.043 A 
HETATM   19  C14 UNL     1     -10.229  -4.487 -22.007  1.00  0.00     0.116 A 
HETATM   20  F1  UNL     1     -10.621  -4.514 -23.294  1.00  0.00    -0.206 F 
HETATM   21  C15 UNL     1      -9.629  -5.574 -21.424  1.00  0.00     0.043 A 
HETATM   22  C16 UNL     1      -9.222  -5.563 -20.102  1.00  0.00     0.015 A 
ENDBRANCH   5  16
BRANCH   7  23
HETATM   23  C18 UNL     1     -10.438  -4.853 -14.571  1.00  0.00     0.260 C 
HETATM   24  O1  UNL     1     -11.131  -3.740 -14.099  1.00  0.00    -0.353 OA
HETATM   25  C19 UNL     1     -12.020  -4.311 -13.193  1.00  0.00     0.179 C 
HETATM   26  C21 UNL     1     -12.513  -5.595 -13.771  1.00  0.00     0.182 C 
HETATM   27  C22 UNL     1     -11.571  -5.777 -14.969  1.00  0.00     0.198 C 
BRANCH  25  28
HETATM   28  C20 UNL     1     -13.143  -3.343 -12.848  1.00  0.00     0.198 C 
BRANCH  28  29
HETATM   29  O2  UNL     1     -13.832  -3.743 -11.730  1.00  0.00    -0.398 OA
ATOM     30  H2  UNL     1     -14.730  -3.434 -11.742  1.00  0.00     0.209 HD
ENDBRANCH  28  29
ENDBRANCH  25  28
BRANCH  26  31
HETATM   31  O3  UNL     1     -13.839  -5.569 -14.166  1.00  0.00    -0.390 OA
ATOM     32  H3  UNL     1     -14.062  -6.213 -14.829  1.00  0.00     0.210 HD
ENDBRANCH  26  31
BRANCH  27  33
HETATM   33  O4  UNL     1     -11.159  -7.097 -15.074  1.00  0.00    -0.388 OA
ATOM     34  H4  UNL     1     -10.906  -7.326 -15.961  1.00  0.00     0.210 HD
ENDBRANCH  27  33
ENDBRANCH   7  23
TORSDOF 7
ENDMDL
MODEL 3
REMARK VINA RESULT: -6.672246387      3.505      5.662
REMARK  7 active torsions:
REMARK  status: ('A' for Active; 'I' for Inactive)
REMARK    1  A    between atoms: C3_4  and  C4_5 
REMARK    2  A    between atoms: C10_11  and  C11_12 
REMARK    3  A    between atoms: N2_20  and  C18_21 
REMARK    4  A    between atoms: C19_23  and  C20_24 
REMARK    5  A    between atoms: C20_24  and  O2_25 
REMARK    6  A    between atoms: C21_27  and  O3_28 
REMARK    7  A    between atoms: C22_30  and  O4_31 
ROOT
HETATM    1  N1  UNL     1      -6.261  -1.694 -16.440  1.00  0.00    -0.191 NA
HETATM    2  C1  UNL     1      -7.109  -2.424 -16.798  1.00  0.00     0.103 C 
HETATM    3  C2  UNL     1      -8.142  -3.320 -17.230  1.00  0.00     0.094 A 
HETATM    4  C3  UNL     1      -8.485  -3.352 -18.567  1.00  0.00     0.010 A 
HETATM    5  C10 UNL     1      -9.463  -4.193 -19.011  1.00  0.00     0.003 A 
HETATM    6  C17 UNL     1     -10.111  -5.022 -18.089  1.00  0.00     0.108 A 
HETATM    7  N2  UNL     1      -9.788  -4.999 -16.792  1.00  0.00    -0.316 N 
HETATM    8  C23 UNL     1      -8.815  -4.159 -16.365  1.00  0.00     0.126 A 
HETATM    9  S1  UNL     1      -8.402  -4.110 -14.799  1.00  0.00    -0.059 SA
ENDROOT
BRANCH   4  10
HETATM   10  C4  UNL     1      -7.775  -2.475 -19.476  1.00  0.00    -0.023 A 
HETATM   11  C5  UNL     1      -6.726  -2.858 -20.285  1.00  0.00     0.012 A 
HETATM   12  C6  UNL     1      -6.091  -1.963 -21.132  1.00  0.00     0.001 A 
HETATM   13  C7  UNL     1      -6.481  -0.644 -21.202  1.00  0.00     0.000 A 
HETATM   14  C8  UNL     1      -7.531  -0.243 -20.397  1.00  0.00     0.001 A 
HETATM   15  C9  UNL     1      -8.155  -1.130 -19.563  1.00  0.00     0.012 A 
ENDBRANCH   4  10
BRANCH   5  16
HETATM   16  C11 UNL     1      -9.821  -4.217 -20.421  1.00  0.00    -0.024 A 
HETATM   17  C12 UNL     1      -9.428  -5.325 -21.161  1.00  0.00     0.015 A 
HETATM   18  C13 UNL     1      -9.746  -5.403 -22.505  1.00  0.00     0.043 A 
HETATM   19  C14 UNL     1     -10.451  -4.379 -23.096  1.00  0.00     0.116 A 
HETATM   20  F1  UNL     1     -10.754  -4.468 -24.404  1.00  0.00    -0.206 F 
HETATM   21  C15 UNL     1     -10.833  -3.293 -22.351  1.00  0.00     0.043 A 
HETATM   22  C16 UNL     1     -10.528  -3.186 -21.006  1.00  0.00     0.015 A 
ENDBRANCH   5  16
BRANCH   7  23
HETATM   23  C18 UNL     1     -10.428  -5.832 -15.811  1.00  0.00     0.260 C 
HETATM   24  O1  UNL     1     -11.692  -5.363 -15.456  1.00  0.00    -0.353 OA
HETATM   25  C19 UNL     1     -12.172  -6.394 -14.653  1.00  0.00     0.179 C 
HETATM   26  C21 UNL     1     -11.746  -7.690 -15.256  1.00  0.00     0.182 C 
HETATM   27  C22 UNL     1     -10.747  -7.223 -16.322  1.00  0.00     0.198 C 
BRANCH  25  28
HETATM   28  C20 UNL     1     -13.680  -6.287 -14.475  1.00  0.00     0.198 C 
BRANCH  28  29
HETATM   29  O2  UNL     1     -14.184  -7.350 -13.767  1.00  0.00    -0.398 OA
ATOM     30  H2  UNL     1     -15.052  -7.166 -13.428  1.00  0.00     0.209 HD
ENDBRANCH  28  29
ENDBRANCH  25  28
BRANCH  26  31
HETATM   31  O3  UNL     1     -12.778  -8.426 -15.813  1.00  0.00    -0.390 OA
ATOM     32  H3  UNL     1     -12.987  -8.189 -16.709  1.00  0.00     0.210 HD
ENDBRANCH  26  31
BRANCH  27  33
HETATM   33  O4  UNL     1      -9.629  -8.043 -16.342  1.00  0.00    -0.388 OA
ATOM     34  H4  UNL     1      -9.248  -8.154 -15.479  1.00  0.00     0.210 HD
ENDBRANCH  27  33
ENDBRANCH   7  23
TORSDOF 7
ENDMDL
MODEL 4
REMARK VINA RESULT: -6.555496934      4.668      7.316
REMARK  7 active torsions:
REMARK  status: ('A' for Active; 'I' for Inactive)
REMARK    1  A    between atoms: C3_4  and  C4_5 
REMARK    2  A    between atoms: C10_11  and  C11_12 
REMARK    3  A    between atoms: N2_20  and  C18_21 
REMARK    4  A    between atoms: C19_23  and  C20_24 
REMARK    5  A    between atoms: C20_24  and  O2_25 
REMARK    6  A    between atoms: C21_27  and  O3_28 
REMARK    7  A    between atoms: C22_30  and  O4_31 
ROOT
HETATM    1  N1  UNL     1      -9.400  -2.820 -12.937  1.00  0.00    -0.191 NA
HETATM    2  C1  UNL     1      -8.652  -2.970 -13.832  1.00  0.00     0.103 C 
HETATM    3  C2  UNL     1      -7.740  -3.145 -14.923  1.00  0.00     0.094 A 
HETATM    4  C3  UNL     1      -8.023  -4.089 -15.890  1.00  0.00     0.010 A 
HETATM    5  C10 UNL     1      -7.176  -4.280 -16.942  1.00  0.00     0.003 A 
HETATM    6  C17 UNL     1      -6.015  -3.503 -17.023  1.00  0.00     0.108 A 
HETATM    7  N2  UNL     1      -5.729  -2.587 -16.093  1.00  0.00    -0.316 N 
HETATM    8  C23 UNL     1      -6.580  -2.407 -15.055  1.00  0.00     0.126 A 
HETATM    9  S1  UNL     1      -6.260  -1.304 -13.913  1.00  0.00    -0.059 SA
ENDROOT
BRANCH   4  10
HETATM   10  C4  UNL     1      -9.243  -4.859 -15.755  1.00  0.00    -0.023 A 
HETATM   11  C5  UNL     1      -9.311  -6.150 -15.274  1.00  0.00     0.012 A 
HETATM   12  C6  UNL     1     -10.516  -6.830 -15.174  1.00  0.00     0.001 A 
HETATM   13  C7  UNL     1     -11.702  -6.244 -15.554  1.00  0.00     0.000 A 
HETATM   14  C8  UNL     1     -11.651  -4.950 -16.040  1.00  0.00     0.001 A 
HETATM   15  C9  UNL     1     -10.460  -4.283 -16.137  1.00  0.00     0.012 A 
ENDBRANCH   4  10
BRANCH   5  16
HETATM   16  C11 UNL     1      -7.481  -5.280 -17.953  1.00  0.00    -0.024 A 
HETATM   17  C12 UNL     1      -6.867  -6.519 -17.831  1.00  0.00     0.015 A 
HETATM   18  C13 UNL     1      -7.124  -7.511 -18.761  1.00  0.00     0.043 A 
HETATM   19  C14 UNL     1      -7.991  -7.257 -19.801  1.00  0.00     0.116 A 
HETATM   20  F1  UNL     1      -8.232  -8.230 -20.698  1.00  0.00    -0.206 F 
HETATM   21  C15 UNL     1      -8.590  -6.028 -19.906  1.00  0.00     0.043 A 
HETATM   22  C16 UNL     1      -8.351  -5.017 -18.992  1.00  0.00     0.015 A 
ENDBRANCH   5  16
BRANCH   7  23
HETATM   23  C18 UNL     1      -4.548  -1.768 -16.138  1.00  0.00     0.260 C 
HETATM   24  O1  UNL     1      -3.384  -2.500 -15.912  1.00  0.00    -0.353 OA
HETATM   25  C19 UNL     1      -2.391  -1.558 -16.170  1.00  0.00     0.179 C 
HETATM   26  C21 UNL     1      -2.820  -0.741 -17.343  1.00  0.00     0.182 C 
HETATM   27  C22 UNL     1      -4.282  -1.176 -17.507  1.00  0.00     0.198 C 
BRANCH  25  28
HETATM   28  C20 UNL     1      -1.042  -2.232 -16.374  1.00  0.00     0.198 C 
BRANCH  28  29
HETATM   29  O2  UNL     1      -0.676  -2.976 -15.279  1.00  0.00    -0.398 OA
ATOM     30  H2  UNL     1      -0.816  -3.904 -15.424  1.00  0.00     0.209 HD
ENDBRANCH  28  29
ENDBRANCH  25  28
BRANCH  26  31
HETATM   31  O3  UNL     1      -2.087  -0.971 -18.495  1.00  0.00    -0.390 OA
ATOM     32  H3  UNL     1      -2.248  -0.345 -19.191  1.00  0.00     0.210 HD
ENDBRANCH  26  31
BRANCH  27  33
HETATM   33  O4  UNL     1      -5.093  -0.083 -17.773  1.00  0.00    -0.388 OA
ATOM     34  H4  UNL     1      -5.006   0.598 -17.117  1.00  0.00     0.210 HD
ENDBRANCH  27  33
ENDBRANCH   7  23
TORSDOF 7
ENDMDL
MODEL 5
REMARK VINA RESULT: -6.549976891      5.060      8.151
REMARK  7 active torsions:
REMARK  status: ('A' for Active; 'I' for Inactive)
REMARK    1  A    between atoms: C3_4  and  C4_5 
REMARK    2  A    between atoms: C10_11  and  C11_12 
REMARK    3  A    between atoms: N2_20  and  C18_21 
REMARK    4  A    between atoms: C19_23  and  C20_24 
REMARK    5  A    between atoms: C20_24  and  O2_25 
REMARK    6  A    between atoms: C21_27  and  O3_28 
REMARK    7  A    between atoms: C22_30  and  O4_31 
ROOT
HETATM    1  N1  UNL     1      -5.939  -2.224 -17.139  1.00  0.00    -0.191 NA
HETATM    2  C1  UNL     1      -6.730  -2.978 -17.573  1.00  0.00     0.103 C 
HETATM    3  C2  UNL     1      -7.695  -3.893 -18.108  1.00  0.00     0.094 A 
HETATM    4  C3  UNL     1      -8.611  -4.477 -17.256  1.00  0.00     0.010 A 
HETATM    5  C10 UNL     1      -9.543  -5.351 -17.733  1.00  0.00     0.003 A 
HETATM    6  C17 UNL     1      -9.554  -5.646 -19.101  1.00  0.00     0.108 A 
HETATM    7  N2  UNL     1      -8.673  -5.087 -19.936  1.00  0.00    -0.316 N 
HETATM    8  C23 UNL     1      -7.754  -4.220 -19.448  1.00  0.00     0.126 A 
HETATM    9  S1  UNL     1      -6.673  -3.528 -20.437  1.00  0.00    -0.059 SA
ENDROOT
BRANCH   4  10
HETATM   10  C4  UNL     1      -8.553  -4.130 -15.850  1.00  0.00    -0.023 A 
HETATM   11  C5  UNL     1      -9.279  -3.119 -15.256  1.00  0.00     0.012 A 
HETATM   12  C6  UNL     1      -9.173  -2.840 -13.902  1.00  0.00     0.001 A 
HETATM   13  C7  UNL     1      -8.332  -3.565 -13.086  1.00  0.00     0.000 A 
HETATM   14  C8  UNL     1      -7.597  -4.582 -13.666  1.00  0.00     0.001 A 
HETATM   15  C9  UNL     1      -7.705  -4.853 -15.003  1.00  0.00     0.012 A 
ENDBRANCH   4  10
BRANCH   5  16
HETATM   16  C11 UNL     1     -10.500  -5.966 -16.825  1.00  0.00    -0.024 A 
HETATM   17  C12 UNL     1     -11.441  -5.134 -16.233  1.00  0.00     0.015 A 
HETATM   18  C13 UNL     1     -12.380  -5.665 -15.366  1.00  0.00     0.043 A 
HETATM   19  C14 UNL     1     -12.371  -7.015 -15.100  1.00  0.00     0.116 A 
HETATM   20  F1  UNL     1     -13.289  -7.519 -14.254  1.00  0.00    -0.206 F 
HETATM   21  C15 UNL     1     -11.434  -7.822 -15.694  1.00  0.00     0.043 A 
HETATM   22  C16 UNL     1     -10.483  -7.321 -16.564  1.00  0.00     0.015 A 
ENDBRANCH   5  16
BRANCH   7  23
HETATM   23  C18 UNL     1      -8.649  -5.361 -21.347  1.00  0.00     0.260 C 
HETATM   24  O1  UNL     1      -8.110  -6.613 -21.637  1.00  0.00    -0.353 OA
HETATM   25  C19 UNL     1      -8.346  -6.724 -23.005  1.00  0.00     0.179 C 
HETATM   26  C21 UNL     1      -9.693  -6.151 -23.292  1.00  0.00     0.182 C 
HETATM   27  C22 UNL     1     -10.031  -5.470 -21.959  1.00  0.00     0.198 C 
BRANCH  25  28
HETATM   28  C20 UNL     1      -8.201  -8.167 -23.467  1.00  0.00     0.198 C 
BRANCH  28  29
HETATM   29  O2  UNL     1      -8.730  -9.047 -22.555  1.00  0.00    -0.398 OA
ATOM     30  H2  UNL     1      -9.452  -9.542 -22.924  1.00  0.00     0.209 HD
ENDBRANCH  28  29
ENDBRANCH  25  28
BRANCH  26  31
HETATM   31  O3  UNL     1     -10.649  -7.090 -23.641  1.00  0.00    -0.390 OA
ATOM     32  H3  UNL     1     -11.254  -6.799 -24.312  1.00  0.00     0.210 HD
ENDBRANCH  26  31
BRANCH  27  33
HETATM   33  O4  UNL     1     -10.609  -4.228 -22.173  1.00  0.00    -0.388 OA
ATOM     34  H4  UNL     1     -11.507  -4.191 -21.864  1.00  0.00     0.210 HD
ENDBRANCH  27  33
ENDBRANCH   7  23
TORSDOF 7
ENDMDL
