MODEL 1
REMARK VINA RESULT: -7.837281816      0.000      0.000
REMARK  4 active torsions:
REMARK  status: ('A' for Active; 'I' for Inactive)
REMARK    1  A    between atoms: N2_3  and  C2_5 
REMARK    2  A    between atoms: N3_6  and  C3_8 
REMARK    3  A    between atoms: C7_14  and  C8_15 
REMARK    4  A    between atoms: N6_17  and  C9_19 
ROOT
HETATM    1  C3  UNL     1      38.891 -16.488   1.158  1.00  0.00     0.049 A 
HETATM    2  C4  UNL     1      38.621 -17.829   1.350  1.00  0.00     0.047 A 
HETATM    3  C5  UNL     1      37.342 -18.345   1.225  1.00  0.00     0.090 A 
HETATM    4  N4  UNL     1      36.352 -17.492   0.907  1.00  0.00    -0.374 N 
ATOM      5  H4  UNL     1      35.407 -17.865   0.813  1.00  0.00     0.164 HD
HETATM    6  C6  UNL     1      36.539 -16.175   0.705  1.00  0.00     0.104 A 
HETATM    7  C7  UNL     1      37.827 -15.674   0.834  1.00  0.00     0.047 A 
ENDROOT
BRANCH   7   8
HETATM    8  C8  UNL     1      38.046 -14.267   0.619  1.00  0.00     0.130 C 
HETATM    9  N5  UNL     1      38.379 -13.801  -0.671  1.00  0.00    -0.082 NA
HETATM   10  N6  UNL     1      37.940 -13.441   1.595  1.00  0.00    -0.344 N 
ATOM     11  H6  UNL     1      37.699 -13.811   2.515  1.00  0.00     0.167 HD
BRANCH  10  12
HETATM   12  C9  UNL     1      38.139 -12.052   1.468  1.00  0.00     0.033 A 
HETATM   13  C10 UNL     1      39.388 -11.480   1.414  1.00  0.00     0.029 A 
HETATM   14  C11 UNL     1      39.526 -10.112   1.289  1.00  0.00     0.002 A 
HETATM   15  C12 UNL     1      38.432  -9.273   1.215  1.00  0.00     0.000 A 
HETATM   16  C13 UNL     1      37.174  -9.833   1.268  1.00  0.00     0.002 A 
HETATM   17  C14 UNL     1      37.044 -11.220   1.394  1.00  0.00     0.029 A 
ENDBRANCH  10  12
ENDBRANCH   7   8
BRANCH   1  18
HETATM   18  N3  UNL     1      40.165 -15.927   1.275  1.00  0.00    -0.351 N 
HETATM   19  C2  UNL     1      41.144 -16.038   0.485  1.00  0.00     0.181 C 
ATOM     20  H3  UNL     1      40.325 -15.355   2.104  1.00  0.00     0.166 HD
BRANCH  19  21
HETATM   21  N2  UNL     1      41.026 -16.810  -0.691  1.00  0.00    -0.350 N 
HETATM   22  C1  UNL     1      41.098 -16.357  -1.878  1.00  0.00     0.190 C 
HETATM   23  N1  UNL     1      41.305 -15.015  -2.245  1.00  0.00    -0.097 NA
ATOM     24  H2  UNL     1      40.872 -17.811  -0.579  1.00  0.00     0.167 HD
ENDBRANCH  19  21
ENDBRANCH   1  18
TORSDOF 4
ENDMDL
MODEL 2
REMARK VINA RESULT: -7.822980870      0.060      1.059
REMARK  4 active torsions:
REMARK  status: ('A' for Active; 'I' for Inactive)
REMARK    1  A    between atoms: N2_3  and  C2_5 
REMARK    2  A    between atoms: N3_6  and  C3_8 
REMARK    3  A    between atoms: C7_14  and  C8_15 
REMARK    4  A    between atoms: N6_17  and  C9_19 
ROOT
HETATM    1  C3  UNL     1      38.913 -16.452   1.152  1.00  0.00     0.049 A 
HETATM    2  C4  UNL     1      38.666 -17.797   1.348  1.00  0.00     0.047 A 
HETATM    3  C5  UNL     1      37.393 -18.331   1.241  1.00  0.00     0.090 A 
HETATM    4  N4  UNL     1      36.386 -17.493   0.936  1.00  0.00    -0.374 N 
ATOM      5  H4  UNL     1      35.446 -17.880   0.855  1.00  0.00     0.164 HD
HETATM    6  C6  UNL     1      36.551 -16.174   0.732  1.00  0.00     0.104 A 
HETATM    7  C7  UNL     1      37.833 -15.653   0.843  1.00  0.00     0.047 A 
ENDROOT
BRANCH   7   8
HETATM    8  C8  UNL     1      38.028 -14.243   0.626  1.00  0.00     0.130 C 
HETATM    9  N5  UNL     1      38.362 -13.775  -0.663  1.00  0.00    -0.082 NA
HETATM   10  N6  UNL     1      37.900 -13.417   1.598  1.00  0.00    -0.344 N 
ATOM     11  H6  UNL     1      37.658 -13.788   2.517  1.00  0.00     0.167 HD
BRANCH  10  12
HETATM   12  C9  UNL     1      38.074 -12.024   1.468  1.00  0.00     0.033 A 
HETATM   13  C10 UNL     1      37.019 -11.145   1.392  1.00  0.00     0.029 A 
HETATM   14  C11 UNL     1      37.247  -9.789   1.265  1.00  0.00     0.002 A 
HETATM   15  C12 UNL     1      38.523  -9.267   1.210  1.00  0.00     0.000 A 
HETATM   16  C13 UNL     1      39.590 -10.136   1.285  1.00  0.00     0.002 A 
HETATM   17  C14 UNL     1      39.350 -11.508   1.414  1.00  0.00     0.029 A 
ENDBRANCH  10  12
ENDBRANCH   7   8
BRANCH   1  18
HETATM   18  N3  UNL     1      40.180 -15.872   1.252  1.00  0.00    -0.351 N 
HETATM   19  C2  UNL     1      41.163 -16.000   0.470  1.00  0.00     0.181 C 
ATOM     20  H3  UNL     1      40.331 -15.267   2.060  1.00  0.00     0.166 HD
BRANCH  19  21
HETATM   21  N2  UNL     1      41.058 -16.816  -0.676  1.00  0.00    -0.350 N 
HETATM   22  C1  UNL     1      41.083 -16.402  -1.879  1.00  0.00     0.190 C 
HETATM   23  N1  UNL     1      41.217 -15.065  -2.295  1.00  0.00    -0.097 NA
ATOM     24  H2  UNL     1      40.955 -17.820  -0.528  1.00  0.00     0.167 HD
ENDBRANCH  19  21
ENDBRANCH   1  18
TORSDOF 4
ENDMDL
MODEL 3
REMARK VINA RESULT: -7.360737806      1.078      1.660
REMARK  4 active torsions:
REMARK  status: ('A' for Active; 'I' for Inactive)
REMARK    1  A    between atoms: N2_3  and  C2_5 
REMARK    2  A    between atoms: N3_6  and  C3_8 
REMARK    3  A    between atoms: C7_14  and  C8_15 
REMARK    4  A    between atoms: N6_17  and  C9_19 
ROOT
HETATM    1  C3  UNL     1      39.734 -16.020   0.352  1.00  0.00     0.049 A 
HETATM    2  C4  UNL     1      39.727 -17.386   0.559  1.00  0.00     0.047 A 
HETATM    3  C5  UNL     1      38.650 -18.034   1.139  1.00  0.00     0.090 A 
HETATM    4  N4  UNL     1      37.592 -17.287   1.501  1.00  0.00    -0.374 N 
ATOM      5  H4  UNL     1      36.794 -17.757   1.929  1.00  0.00     0.164 HD
HETATM    6  C6  UNL     1      37.527 -15.954   1.330  1.00  0.00     0.104 A 
HETATM    7  C7  UNL     1      38.615 -15.320   0.748  1.00  0.00     0.047 A 
ENDROOT
BRANCH   7   8
HETATM    8  C8  UNL     1      38.562 -13.893   0.555  1.00  0.00     0.130 C 
HETATM    9  N5  UNL     1      38.459 -13.369  -0.751  1.00  0.00    -0.082 NA
HETATM   10  N6  UNL     1      38.609 -13.103   1.564  1.00  0.00    -0.344 N 
ATOM     11  H6  UNL     1      38.684 -13.516   2.495  1.00  0.00     0.167 HD
BRANCH  10  12
HETATM   12  C9  UNL     1      38.563 -11.699   1.460  1.00  0.00     0.033 A 
HETATM   13  C10 UNL     1      37.384 -10.997   1.373  1.00  0.00     0.029 A 
HETATM   14  C11 UNL     1      37.396  -9.620   1.273  1.00  0.00     0.002 A 
HETATM   15  C12 UNL     1      38.574  -8.901   1.256  1.00  0.00     0.000 A 
HETATM   16  C13 UNL     1      39.764  -9.591   1.342  1.00  0.00     0.002 A 
HETATM   17  C14 UNL     1      39.742 -10.986   1.444  1.00  0.00     0.029 A 
ENDBRANCH  10  12
ENDBRANCH   7   8
BRANCH   1  18
HETATM   18  N3  UNL     1      40.799 -15.327  -0.228  1.00  0.00    -0.351 N 
HETATM   19  C2  UNL     1      41.042 -15.150  -1.455  1.00  0.00     0.181 C 
ATOM     20  H3  UNL     1      41.467 -14.911   0.422  1.00  0.00     0.166 HD
BRANCH  19  21
HETATM   21  N2  UNL     1      40.182 -15.687  -2.436  1.00  0.00    -0.350 N 
HETATM   22  C1  UNL     1      40.544 -16.112  -3.579  1.00  0.00     0.190 C 
HETATM   23  N1  UNL     1      41.858 -16.129  -4.081  1.00  0.00    -0.097 NA
ATOM     24  H2  UNL     1      39.189 -15.739  -2.209  1.00  0.00     0.167 HD
ENDBRANCH  19  21
ENDBRANCH   1  18
TORSDOF 4
ENDMDL
MODEL 4
REMARK VINA RESULT: -7.344661907      1.106      1.317
REMARK  4 active torsions:
REMARK  status: ('A' for Active; 'I' for Inactive)
REMARK    1  A    between atoms: N2_3  and  C2_5 
REMARK    2  A    between atoms: N3_6  and  C3_8 
REMARK    3  A    between atoms: C7_14  and  C8_15 
REMARK    4  A    between atoms: N6_17  and  C9_19 
ROOT
HETATM    1  C3  UNL     1      39.754 -15.990   0.352  1.00  0.00     0.049 A 
HETATM    2  C4  UNL     1      39.731 -17.355   0.561  1.00  0.00     0.047 A 
HETATM    3  C5  UNL     1      38.653 -17.987   1.156  1.00  0.00     0.090 A 
HETATM    4  N4  UNL     1      37.611 -17.225   1.531  1.00  0.00    -0.374 N 
ATOM      5  H4  UNL     1      36.812 -17.683   1.971  1.00  0.00     0.164 HD
HETATM    6  C6  UNL     1      37.562 -15.892   1.360  1.00  0.00     0.104 A 
HETATM    7  C7  UNL     1      38.651 -15.273   0.762  1.00  0.00     0.047 A 
ENDROOT
BRANCH   7   8
HETATM    8  C8  UNL     1      38.616 -13.846   0.568  1.00  0.00     0.130 C 
HETATM    9  N5  UNL     1      38.472 -13.322  -0.734  1.00  0.00    -0.082 NA
HETATM   10  N6  UNL     1      38.716 -13.056   1.574  1.00  0.00    -0.344 N 
ATOM     11  H6  UNL     1      38.819 -13.468   2.501  1.00  0.00     0.167 HD
BRANCH  10  12
HETATM   12  C9  UNL     1      38.691 -11.651   1.468  1.00  0.00     0.033 A 
HETATM   13  C10 UNL     1      39.832 -10.883   1.465  1.00  0.00     0.029 A 
HETATM   14  C11 UNL     1      39.750  -9.509   1.360  1.00  0.00     0.002 A 
HETATM   15  C12 UNL     1      38.537  -8.858   1.255  1.00  0.00     0.000 A 
HETATM   16  C13 UNL     1      37.385  -9.614   1.257  1.00  0.00     0.002 A 
HETATM   17  C14 UNL     1      37.478 -11.006   1.364  1.00  0.00     0.029 A 
ENDBRANCH  10  12
ENDBRANCH   7   8
BRANCH   1  18
HETATM   18  N3  UNL     1      40.822 -15.313  -0.244  1.00  0.00    -0.351 N 
HETATM   19  C2  UNL     1      41.050 -15.139  -1.473  1.00  0.00     0.181 C 
ATOM     20  H3  UNL     1      41.505 -14.907   0.397  1.00  0.00     0.166 HD
BRANCH  19  21
HETATM   21  N2  UNL     1      40.168 -15.663  -2.442  1.00  0.00    -0.350 N 
HETATM   22  C1  UNL     1      40.503 -16.068  -3.601  1.00  0.00     0.190 C 
HETATM   23  N1  UNL     1      41.804 -16.072  -4.135  1.00  0.00    -0.097 NA
ATOM     24  H2  UNL     1      39.180 -15.721  -2.193  1.00  0.00     0.167 HD
ENDBRANCH  19  21
ENDBRANCH   1  18
TORSDOF 4
ENDMDL
MODEL 5
REMARK VINA RESULT: -7.005070318      1.076      1.221
REMARK  4 active torsions:
REMARK  status: ('A' for Active; 'I' for Inactive)
REMARK    1  A    between atoms: N2_3  and  C2_5 
REMARK    2  A    between atoms: N3_6  and  C3_8 
REMARK    3  A    between atoms: C7_14  and  C8_15 
REMARK    4  A    between atoms: N6_17  and  C9_19 
ROOT
HETATM    1  C3  UNL     1      39.114 -17.151   0.431  1.00  0.00     0.049 A 
HETATM    2  C4  UNL     1      38.799 -18.437   0.037  1.00  0.00     0.047 A 
HETATM    3  C5  UNL     1      37.489 -18.874  -0.058  1.00  0.00     0.090 A 
HETATM    4  N4  UNL     1      36.514 -17.999   0.248  1.00  0.00    -0.374 N 
ATOM      5  H4  UNL     1      35.546 -18.314   0.181  1.00  0.00     0.164 HD
HETATM    6  C6  UNL     1      36.745 -16.733   0.639  1.00  0.00     0.104 A 
HETATM    7  C7  UNL     1      38.064 -16.310   0.730  1.00  0.00     0.047 A 
ENDROOT
BRANCH   7   8
HETATM    8  C8  UNL     1      38.329 -14.956   1.144  1.00  0.00     0.130 C 
HETATM    9  N5  UNL     1      39.151 -14.719   2.267  1.00  0.00    -0.082 NA
HETATM   10  N6  UNL     1      37.822 -13.972   0.496  1.00  0.00    -0.344 N 
ATOM     11  H6  UNL     1      37.233 -14.180  -0.310  1.00  0.00     0.167 HD
BRANCH  10  12
HETATM   12  C9  UNL     1      38.033 -12.621   0.837  1.00  0.00     0.033 A 
HETATM   13  C10 UNL     1      39.264 -12.015   0.751  1.00  0.00     0.029 A 
HETATM   14  C11 UNL     1      39.416 -10.687   1.097  1.00  0.00     0.002 A 
HETATM   15  C12 UNL     1      38.354  -9.924   1.538  1.00  0.00     0.000 A 
HETATM   16  C13 UNL     1      37.113 -10.518   1.629  1.00  0.00     0.002 A 
HETATM   17  C14 UNL     1      36.970 -11.864   1.276  1.00  0.00     0.029 A 
ENDBRANCH  10  12
ENDBRANCH   7   8
BRANCH   1  18
HETATM   18  N3  UNL     1      40.422 -16.670   0.542  1.00  0.00    -0.351 N 
HETATM   19  C2  UNL     1      41.222 -16.363  -0.385  1.00  0.00     0.181 C 
ATOM     20  H3  UNL     1      40.774 -16.553   1.492  1.00  0.00     0.166 HD
BRANCH  19  21
HETATM   21  N2  UNL     1      40.833 -16.491  -1.735  1.00  0.00    -0.350 N 
HETATM   22  C1  UNL     1      40.263 -15.587  -2.425  1.00  0.00     0.190 C 
HETATM   23  N1  UNL     1      39.914 -14.299  -1.981  1.00  0.00    -0.097 NA
ATOM     24  H2  UNL     1      41.024 -17.381  -2.194  1.00  0.00     0.167 HD
ENDBRANCH  19  21
ENDBRANCH   1  18
TORSDOF 4
ENDMDL
