MODEL 1
REMARK VINA RESULT: -4.776031444      0.000      0.000
REMARK  4 active torsions:
REMARK  status: ('A' for Active; 'I' for Inactive)
REMARK    1  A    between atoms: O1_2  and  C2_3 
REMARK    2  A    between atoms: C3_4  and  N1_5 
REMARK    3  A    between atoms: C6_14  and  N4_15 
REMARK    4  A    between atoms: N4_15  and  C7_17 
ROOT
HETATM    1  C2  UNL     1      12.190 -41.906   9.742  1.00  0.00     0.132 A 
HETATM    2  C3  UNL     1      13.228 -41.749  10.619  1.00  0.00     0.126 A 
HETATM    3  S1  UNL     1      12.455 -41.316  12.070  1.00  0.00    -0.055 SA
HETATM    4  C4  UNL     1      10.840 -41.341  11.545  1.00  0.00     0.117 A 
HETATM    5  C5  UNL     1       9.617 -41.060  12.296  1.00  0.00     0.109 C 
HETATM    6  N3  UNL     1       8.660 -40.824  12.891  1.00  0.00    -0.191 NA
HETATM    7  C6  UNL     1      10.939 -41.692  10.227  1.00  0.00     0.098 A 
ENDROOT
BRANCH   7   8
HETATM    8  N4  UNL     1       9.728 -41.823   9.411  1.00  0.00    -0.337 N 
ATOM      9  H4  UNL     1       9.418 -42.749   9.117  1.00  0.00     0.167 HD
BRANCH   8  10
HETATM   10  C7  UNL     1       9.054 -40.797   9.062  1.00  0.00     0.151 C 
HETATM   11 CL1  UNL     1       7.378 -40.700   9.541  1.00  0.00    -0.056 Cl
HETATM   12 BR1  UNL     1       9.900 -39.427   8.040  1.00  0.00    -0.017 Br
ENDBRANCH   8  10
ENDBRANCH   7   8
BRANCH   2  13
HETATM   13  N1  UNL     1      14.632 -41.923  10.322  1.00  0.00    -0.298 N 
HETATM   14  N2  UNL     1      15.104 -43.075  10.110  1.00  0.00    -0.344 N 
ATOM     15  H22 UNL     1      14.475 -43.878  10.153  1.00  0.00     0.176 HD
ATOM     16  H21 UNL     1      16.094 -43.198   9.900  1.00  0.00     0.176 HD
ATOM     17  H1  UNL     1      15.246 -41.110  10.283  1.00  0.00     0.187 HD
ENDBRANCH   2  13
BRANCH   1  18
HETATM   18  O1  UNL     1      12.434 -42.280   8.377  1.00  0.00    -0.351 OA
HETATM   19  C1  UNL     1      12.349 -41.238   7.401  1.00  0.00     0.210 C 
ENDBRANCH   1  18
TORSDOF 4
ENDMDL
MODEL 2
REMARK VINA RESULT: -4.774475789      2.998      4.064
REMARK  4 active torsions:
REMARK  status: ('A' for Active; 'I' for Inactive)
REMARK    1  A    between atoms: O1_2  and  C2_3 
REMARK    2  A    between atoms: C3_4  and  N1_5 
REMARK    3  A    between atoms: C6_14  and  N4_15 
REMARK    4  A    between atoms: N4_15  and  C7_17 
ROOT
HETATM    1  C2  UNL     1      11.210 -41.823   9.234  1.00  0.00     0.132 A 
HETATM    2  C3  UNL     1       9.928 -42.246   9.016  1.00  0.00     0.126 A 
HETATM    3  S1  UNL     1       9.224 -42.185  10.562  1.00  0.00    -0.055 SA
HETATM    4  C4  UNL     1      10.557 -41.629  11.455  1.00  0.00     0.117 A 
HETATM    5  C5  UNL     1      10.662 -41.347  12.886  1.00  0.00     0.109 C 
HETATM    6  N3  UNL     1      10.739 -41.139  14.016  1.00  0.00    -0.191 NA
HETATM    7  C6  UNL     1      11.540 -41.500  10.512  1.00  0.00     0.098 A 
ENDROOT
BRANCH   7   8
HETATM    8  N4  UNL     1      12.873 -41.031  10.904  1.00  0.00    -0.337 N 
ATOM      9  H4  UNL     1      12.985 -40.082  11.262  1.00  0.00     0.167 HD
BRANCH   8  10
HETATM   10  C7  UNL     1      13.895 -41.789  10.805  1.00  0.00     0.151 C 
HETATM   11 CL1  UNL     1      13.688 -43.502  11.067  1.00  0.00    -0.056 Cl
HETATM   12 BR1  UNL     1      15.588 -41.022  10.380  1.00  0.00    -0.017 Br
ENDBRANCH   8  10
ENDBRANCH   7   8
BRANCH   2  13
HETATM   13  N1  UNL     1       9.362 -42.638   7.744  1.00  0.00    -0.298 N 
HETATM   14  N2  UNL     1       8.944 -43.816   7.566  1.00  0.00    -0.344 N 
ATOM     15  H22 UNL     1       9.014 -44.483   8.335  1.00  0.00     0.176 HD
ATOM     16  H21 UNL     1       8.545 -44.093   6.668  1.00  0.00     0.176 HD
ATOM     17  H1  UNL     1       9.301 -41.959   6.987  1.00  0.00     0.187 HD
ENDBRANCH   2  13
BRANCH   1  18
HETATM   18  O1  UNL     1      12.147 -41.732   8.150  1.00  0.00    -0.351 OA
HETATM   19  C1  UNL     1      12.043 -40.582   7.307  1.00  0.00     0.210 C 
ENDBRANCH   1  18
TORSDOF 4
ENDMDL
MODEL 3
REMARK VINA RESULT: -4.436711181      3.168      4.174
REMARK  4 active torsions:
REMARK  status: ('A' for Active; 'I' for Inactive)
REMARK    1  A    between atoms: O1_2  and  C2_3 
REMARK    2  A    between atoms: C3_4  and  N1_5 
REMARK    3  A    between atoms: C6_14  and  N4_15 
REMARK    4  A    between atoms: N4_15  and  C7_17 
ROOT
HETATM    1  C2  UNL     1      11.271 -41.815   9.295  1.00  0.00     0.132 A 
HETATM    2  C3  UNL     1      10.001 -42.257   9.052  1.00  0.00     0.126 A 
HETATM    3  S1  UNL     1       9.263 -42.200  10.583  1.00  0.00    -0.055 SA
HETATM    4  C4  UNL     1      10.570 -41.621  11.501  1.00  0.00     0.117 A 
HETATM    5  C5  UNL     1      10.641 -41.330  12.932  1.00  0.00     0.109 C 
HETATM    6  N3  UNL     1      10.691 -41.116  14.063  1.00  0.00    -0.191 NA
HETATM    7  C6  UNL     1      11.570 -41.482  10.578  1.00  0.00     0.098 A 
ENDROOT
BRANCH   7   8
HETATM    8  N4  UNL     1      12.888 -40.992  10.995  1.00  0.00    -0.337 N 
ATOM      9  H4  UNL     1      12.957 -40.107  11.498  1.00  0.00     0.167 HD
BRANCH   8  10
HETATM   10  C7  UNL     1      13.949 -41.653  10.740  1.00  0.00     0.151 C 
HETATM   11 CL1  UNL     1      15.328 -40.797  10.098  1.00  0.00    -0.056 Cl
HETATM   12 BR1  UNL     1      13.982 -43.531  11.070  1.00  0.00    -0.017 Br
ENDBRANCH   8  10
ENDBRANCH   7   8
BRANCH   2  13
HETATM   13  N1  UNL     1       9.467 -42.664   7.771  1.00  0.00    -0.298 N 
HETATM   14  N2  UNL     1       8.942 -43.803   7.628  1.00  0.00    -0.344 N 
ATOM     15  H22 UNL     1       8.901 -44.429   8.433  1.00  0.00     0.176 HD
ATOM     16  H21 UNL     1       8.565 -44.089   6.724  1.00  0.00     0.176 HD
ATOM     17  H1  UNL     1       9.517 -42.026   6.977  1.00  0.00     0.187 HD
ENDBRANCH   2  13
BRANCH   1  18
HETATM   18  O1  UNL     1      12.230 -41.716   8.230  1.00  0.00    -0.351 OA
HETATM   19  C1  UNL     1      12.121 -40.576   7.373  1.00  0.00     0.210 C 
ENDBRANCH   1  18
TORSDOF 4
ENDMDL
MODEL 4
REMARK VINA RESULT: -4.388493135      1.151      1.152
REMARK  4 active torsions:
REMARK  status: ('A' for Active; 'I' for Inactive)
REMARK    1  A    between atoms: O1_2  and  C2_3 
REMARK    2  A    between atoms: C3_4  and  N1_5 
REMARK    3  A    between atoms: C6_14  and  N4_15 
REMARK    4  A    between atoms: N4_15  and  C7_17 
ROOT
HETATM    1  C2  UNL     1      12.224 -41.737   9.802  1.00  0.00     0.132 A 
HETATM    2  C3  UNL     1      13.447 -41.381  10.299  1.00  0.00     0.126 A 
HETATM    3  S1  UNL     1      13.133 -41.085  11.944  1.00  0.00    -0.055 SA
HETATM    4  C4  UNL     1      11.467 -41.415  11.974  1.00  0.00     0.117 A 
HETATM    5  C5  UNL     1      10.531 -41.359  13.096  1.00  0.00     0.109 C 
HETATM    6  N3  UNL     1       9.799 -41.300  13.983  1.00  0.00    -0.191 NA
HETATM    7  C6  UNL     1      11.187 -41.755  10.679  1.00  0.00     0.098 A 
ENDROOT
BRANCH   7   8
HETATM    8  N4  UNL     1       9.817 -42.116  10.297  1.00  0.00    -0.337 N 
ATOM      9  H4  UNL     1       9.508 -43.082  10.398  1.00  0.00     0.167 HD
BRANCH   8  10
HETATM   10  C7  UNL     1       9.007 -41.242   9.842  1.00  0.00     0.151 C 
HETATM   11 CL1  UNL     1       8.187 -40.197  10.974  1.00  0.00    -0.056 Cl
HETATM   12 BR1  UNL     1       8.730 -41.116   7.959  1.00  0.00    -0.017 Br
ENDBRANCH   8  10
ENDBRANCH   7   8
BRANCH   2  13
HETATM   13  N1  UNL     1      14.682 -41.294   9.551  1.00  0.00    -0.298 N 
HETATM   14  N2  UNL     1      15.793 -41.286  10.149  1.00  0.00    -0.344 N 
ATOM     15  H22 UNL     1      15.803 -41.341  11.168  1.00  0.00     0.176 HD
ATOM     16  H21 UNL     1      16.664 -41.225   9.621  1.00  0.00     0.176 HD
ATOM     17  H1  UNL     1      14.654 -41.239   8.533  1.00  0.00     0.187 HD
ENDBRANCH   2  13
BRANCH   1  18
HETATM   18  O1  UNL     1      12.066 -42.072   8.414  1.00  0.00    -0.351 OA
HETATM   19  C1  UNL     1      12.007 -40.980   7.493  1.00  0.00     0.210 C 
ENDBRANCH   1  18
TORSDOF 4
ENDMDL
MODEL 5
REMARK VINA RESULT: -4.322931061      1.367      1.369
REMARK  4 active torsions:
REMARK  status: ('A' for Active; 'I' for Inactive)
REMARK    1  A    between atoms: O1_2  and  C2_3 
REMARK    2  A    between atoms: C3_4  and  N1_5 
REMARK    3  A    between atoms: C6_14  and  N4_15 
REMARK    4  A    between atoms: N4_15  and  C7_17 
ROOT
HETATM    1  C2  UNL     1      12.428 -42.069   9.634  1.00  0.00     0.132 A 
HETATM    2  C3  UNL     1      13.551 -42.565  10.235  1.00  0.00     0.126 A 
HETATM    3  S1  UNL     1      13.220 -42.394  11.894  1.00  0.00    -0.055 SA
HETATM    4  C4  UNL     1      11.673 -41.699  11.800  1.00  0.00     0.117 A 
HETATM    5  C5  UNL     1      10.778 -41.282  12.878  1.00  0.00     0.109 C 
HETATM    6  N3  UNL     1      10.084 -40.944  13.733  1.00  0.00    -0.191 NA
HETATM    7  C6  UNL     1      11.444 -41.615  10.454  1.00  0.00     0.098 A 
ENDROOT
BRANCH   7   8
HETATM    8  N4  UNL     1      10.181 -41.055   9.961  1.00  0.00    -0.337 N 
ATOM      9  H4  UNL     1       9.983 -40.065  10.104  1.00  0.00     0.167 HD
BRANCH   8  10
HETATM   10  C7  UNL     1       9.328 -41.784   9.355  1.00  0.00     0.151 C 
HETATM   11 CL1  UNL     1       8.926 -43.338  10.041  1.00  0.00    -0.056 Cl
HETATM   12 BR1  UNL     1       8.534 -41.149   7.742  1.00  0.00    -0.017 Br
ENDBRANCH   8  10
ENDBRANCH   7   8
BRANCH   2  13
HETATM   13  N1  UNL     1      14.716 -43.098   9.563  1.00  0.00    -0.298 N 
HETATM   14  N2  UNL     1      15.743 -43.422  10.221  1.00  0.00    -0.344 N 
ATOM     15  H22 UNL     1      15.735 -43.301  11.234  1.00  0.00     0.176 HD
ATOM     16  H21 UNL     1      16.564 -43.798   9.746  1.00  0.00     0.176 HD
ATOM     17  H1  UNL     1      14.707 -43.212   8.550  1.00  0.00     0.187 HD
ENDBRANCH   2  13
BRANCH   1  18
HETATM   18  O1  UNL     1      12.315 -42.038   8.203  1.00  0.00    -0.351 OA
HETATM   19  C1  UNL     1      12.311 -40.746   7.587  1.00  0.00     0.210 C 
ENDBRANCH   1  18
TORSDOF 4
ENDMDL
