MODEL 1
REMARK VINA RESULT: -5.729041122      0.000      0.000
REMARK  4 active torsions:
REMARK  status: ('A' for Active; 'I' for Inactive)
REMARK    1  A    between atoms: C2_2  and  C4_5 
REMARK    2  A    between atoms: C4_5  and  C5_6 
REMARK    3  A    between atoms: C5_6  and  C6_7 
REMARK    4  A    between atoms: N2_16  and  O2_17 
ROOT
HETATM    1  C1  UNL     1       7.468 -41.038   8.627  1.00  0.00     0.030 C 
HETATM    2  C2  UNL     1       8.545 -40.529   9.139  1.00  0.00     0.013 C 
HETATM    3  C3  UNL     1       9.381 -39.605   8.408  1.00  0.00     0.094 C 
HETATM    4  N1  UNL     1      10.064 -38.857   7.822  1.00  0.00    -0.192 NA
ENDROOT
BRANCH   2   5
HETATM    5  C4  UNL     1       9.025 -40.850  10.532  1.00  0.00     0.055 C 
BRANCH   5   6
HETATM    6  C5  UNL     1       9.843 -42.106  10.397  1.00  0.00     0.067 C 
BRANCH   6   7
HETATM    7  C6  UNL     1      11.294 -41.856  10.452  1.00  0.00     0.066 A 
HETATM    8  C7  UNL     1      12.188 -41.734   9.402  1.00  0.00     0.096 A 
HETATM    9 CL1  UNL     1      11.696 -41.864   7.731  1.00  0.00    -0.079 Cl
HETATM   10  C8  UNL     1      13.482 -41.500   9.909  1.00  0.00     0.137 A 
HETATM   11  O1  UNL     1      14.647 -41.314   9.462  1.00  0.00    -0.287 OA
HETATM   12  C10 UNL     1      13.293 -41.494  11.264  1.00  0.00     0.142 A 
HETATM   13  C9  UNL     1      15.647 -41.122  10.248  1.00  0.00     0.186 A 
HETATM   14  S1  UNL     1      17.234 -40.863   9.853  1.00  0.00    -0.044 SA
HETATM   15  S2  UNL     1      14.907 -41.205  11.789  1.00  0.00    -0.030 SA
HETATM   16  N2  UNL     1      11.985 -41.707  11.592  1.00  0.00    -0.217 N 
BRANCH  16  17
HETATM   17  O2  UNL     1      11.541 -41.746  12.887  1.00  0.00    -0.282 OA
ATOM     18  H2  UNL     1      11.807 -42.317  13.597  1.00  0.00     0.245 HD
ENDBRANCH  16  17
ENDBRANCH   6   7
ENDBRANCH   5   6
ENDBRANCH   2   5
TORSDOF 4
ENDMDL
MODEL 2
REMARK VINA RESULT: -5.243965924      3.367      6.260
REMARK  4 active torsions:
REMARK  status: ('A' for Active; 'I' for Inactive)
REMARK    1  A    between atoms: C2_2  and  C4_5 
REMARK    2  A    between atoms: C4_5  and  C5_6 
REMARK    3  A    between atoms: C5_6  and  C6_7 
REMARK    4  A    between atoms: N2_16  and  O2_17 
ROOT
HETATM    1  C1  UNL     1      17.191 -41.347   9.838  1.00  0.00     0.030 C 
HETATM    2  C2  UNL     1      16.397 -41.817  10.749  1.00  0.00     0.013 C 
HETATM    3  C3  UNL     1      16.524 -43.163  11.259  1.00  0.00     0.094 C 
HETATM    4  N1  UNL     1      16.619 -44.252  11.676  1.00  0.00    -0.192 NA
ENDROOT
BRANCH   2   5
HETATM    5  C4  UNL     1      15.276 -41.012  11.358  1.00  0.00     0.055 C 
BRANCH   5   6
HETATM    6  C5  UNL     1      14.247 -42.020  11.794  1.00  0.00     0.067 C 
BRANCH   6   7
HETATM    7  C6  UNL     1      12.963 -41.875  11.085  1.00  0.00     0.066 A 
HETATM    8  C7  UNL     1      11.750 -41.432  11.583  1.00  0.00     0.096 A 
HETATM    9 CL1  UNL     1      11.540 -40.939  13.245  1.00  0.00    -0.079 Cl
HETATM   10  C8  UNL     1      10.783 -41.454  10.557  1.00  0.00     0.137 A 
HETATM   11  O1  UNL     1       9.561 -41.178  10.411  1.00  0.00    -0.287 OA
HETATM   12  C10 UNL     1      11.482 -41.919   9.476  1.00  0.00     0.142 A 
HETATM   13  C9  UNL     1       8.968 -41.324   9.279  1.00  0.00     0.186 A 
HETATM   14  S1  UNL     1       7.386 -41.018   8.897  1.00  0.00    -0.044 SA
HETATM   15  S2  UNL     1      10.234 -41.912   8.289  1.00  0.00    -0.030 SA
HETATM   16  N2  UNL     1      12.786 -42.172   9.790  1.00  0.00    -0.217 N 
BRANCH  16  17
HETATM   17  O2  UNL     1      13.691 -42.645   8.877  1.00  0.00    -0.282 OA
ATOM     18  H2  UNL     1      13.693 -42.558   7.931  1.00  0.00     0.245 HD
ENDBRANCH  16  17
ENDBRANCH   6   7
ENDBRANCH   5   6
ENDBRANCH   2   5
TORSDOF 4
ENDMDL
MODEL 3
REMARK VINA RESULT: -5.129439453      1.134      1.305
REMARK  4 active torsions:
REMARK  status: ('A' for Active; 'I' for Inactive)
REMARK    1  A    between atoms: C2_2  and  C4_5 
REMARK    2  A    between atoms: C4_5  and  C5_6 
REMARK    3  A    between atoms: C5_6  and  C6_7 
REMARK    4  A    between atoms: N2_16  and  O2_17 
ROOT
HETATM    1  C1  UNL     1       8.884 -43.518   7.970  1.00  0.00     0.030 C 
HETATM    2  C2  UNL     1       8.957 -42.573   8.855  1.00  0.00     0.013 C 
HETATM    3  C3  UNL     1       8.528 -41.223   8.574  1.00  0.00     0.094 C 
HETATM    4  N1  UNL     1       8.183 -40.127   8.355  1.00  0.00    -0.192 NA
ENDROOT
BRANCH   2   5
HETATM    5  C4  UNL     1       9.493 -42.791  10.247  1.00  0.00     0.055 C 
BRANCH   5   6
HETATM    6  C5  UNL     1      10.091 -41.474  10.660  1.00  0.00     0.067 C 
BRANCH   6   7
HETATM    7  C6  UNL     1      11.565 -41.487  10.666  1.00  0.00     0.066 A 
HETATM    8  C7  UNL     1      12.431 -41.516   9.586  1.00  0.00     0.096 A 
HETATM    9 CL1  UNL     1      11.870 -41.543   7.933  1.00  0.00    -0.079 Cl
HETATM   10  C8  UNL     1      13.762 -41.520  10.050  1.00  0.00     0.137 A 
HETATM   11  O1  UNL     1      14.926 -41.540   9.564  1.00  0.00    -0.287 OA
HETATM   12  C10 UNL     1      13.622 -41.492  11.411  1.00  0.00     0.142 A 
HETATM   13  C9  UNL     1      15.970 -41.535  10.316  1.00  0.00     0.186 A 
HETATM   14  S1  UNL     1      17.564 -41.559   9.869  1.00  0.00    -0.044 SA
HETATM   15  S2  UNL     1      15.278 -41.499  11.882  1.00  0.00    -0.030 SA
HETATM   16  N2  UNL     1      12.308 -41.472  11.782  1.00  0.00    -0.217 N 
BRANCH  16  17
HETATM   17  O2  UNL     1      11.907 -41.443  13.091  1.00  0.00    -0.282 OA
ATOM     18  H2  UNL     1      12.433 -41.442  13.882  1.00  0.00     0.245 HD
ENDBRANCH  16  17
ENDBRANCH   6   7
ENDBRANCH   5   6
ENDBRANCH   2   5
TORSDOF 4
ENDMDL
MODEL 4
REMARK VINA RESULT: -4.878353542      3.507      6.124
REMARK  4 active torsions:
REMARK  status: ('A' for Active; 'I' for Inactive)
REMARK    1  A    between atoms: C2_2  and  C4_5 
REMARK    2  A    between atoms: C4_5  and  C5_6 
REMARK    3  A    between atoms: C5_6  and  C6_7 
REMARK    4  A    between atoms: N2_16  and  O2_17 
ROOT
HETATM    1  C1  UNL     1      16.882 -43.930  11.407  1.00  0.00     0.030 C 
HETATM    2  C2  UNL     1      15.989 -43.063  11.042  1.00  0.00     0.013 C 
HETATM    3  C3  UNL     1      16.332 -41.869  10.306  1.00  0.00     0.094 C 
HETATM    4  N1  UNL     1      16.602 -40.899   9.710  1.00  0.00    -0.192 NA
ENDROOT
BRANCH   2   5
HETATM    5  C4  UNL     1      14.520 -43.218  11.350  1.00  0.00     0.055 C 
BRANCH   5   6
HETATM    6  C5  UNL     1      13.984 -41.817  11.466  1.00  0.00     0.067 C 
BRANCH   6   7
HETATM    7  C6  UNL     1      12.693 -41.636  10.779  1.00  0.00     0.066 A 
HETATM    8  C7  UNL     1      11.423 -41.596  11.328  1.00  0.00     0.096 A 
HETATM    9 CL1  UNL     1      11.134 -41.764  13.041  1.00  0.00    -0.079 Cl
HETATM   10  C8  UNL     1      10.472 -41.405  10.303  1.00  0.00     0.137 A 
HETATM   11  O1  UNL     1       9.221 -41.292  10.191  1.00  0.00    -0.287 OA
HETATM   12  C10 UNL     1      11.239 -41.339   9.171  1.00  0.00     0.142 A 
HETATM   13  C9  UNL     1       8.660 -41.119   9.047  1.00  0.00     0.186 A 
HETATM   14  S1  UNL     1       7.049 -40.952   8.703  1.00  0.00    -0.044 SA
HETATM   15  S2  UNL     1      10.007 -41.109   7.990  1.00  0.00    -0.030 SA
HETATM   16  N2  UNL     1      12.567 -41.477   9.453  1.00  0.00    -0.217 N 
BRANCH  16  17
HETATM   17  O2  UNL     1      13.539 -41.446   8.487  1.00  0.00    -0.282 OA
ATOM     18  H2  UNL     1      13.545 -40.987   7.656  1.00  0.00     0.245 HD
ENDBRANCH  16  17
ENDBRANCH   6   7
ENDBRANCH   5   6
ENDBRANCH   2   5
TORSDOF 4
ENDMDL
MODEL 5
REMARK VINA RESULT: -4.796682570      1.787      1.910
REMARK  4 active torsions:
REMARK  status: ('A' for Active; 'I' for Inactive)
REMARK    1  A    between atoms: C2_2  and  C4_5 
REMARK    2  A    between atoms: C4_5  and  C5_6 
REMARK    3  A    between atoms: C5_6  and  C6_7 
REMARK    4  A    between atoms: N2_16  and  O2_17 
ROOT
HETATM    1  C1  UNL     1       7.897 -40.823   9.112  1.00  0.00     0.030 C 
HETATM    2  C2  UNL     1       8.668 -41.822   9.410  1.00  0.00     0.013 C 
HETATM    3  C3  UNL     1       8.832 -42.955   8.530  1.00  0.00     0.094 C 
HETATM    4  N1  UNL     1       8.970 -43.878   7.824  1.00  0.00    -0.192 NA
ENDROOT
BRANCH   2   5
HETATM    5  C4  UNL     1       9.459 -41.895  10.692  1.00  0.00     0.055 C 
BRANCH   5   6
HETATM    6  C5  UNL     1      10.490 -40.804  10.593  1.00  0.00     0.067 C 
BRANCH   6   7
HETATM    7  C6  UNL     1      11.872 -41.309  10.661  1.00  0.00     0.066 A 
HETATM    8  C7  UNL     1      12.653 -41.824   9.640  1.00  0.00     0.096 A 
HETATM    9 CL1  UNL     1      12.078 -41.962   7.997  1.00  0.00    -0.079 Cl
HETATM   10  C8  UNL     1      13.915 -42.190  10.150  1.00  0.00     0.137 A 
HETATM   11  O1  UNL     1      14.993 -42.688   9.723  1.00  0.00    -0.287 OA
HETATM   12  C10 UNL     1      13.824 -41.868  11.477  1.00  0.00     0.142 A 
HETATM   13  C9  UNL     1      15.994 -42.896  10.504  1.00  0.00     0.186 A 
HETATM   14  S1  UNL     1      17.475 -43.535  10.132  1.00  0.00    -0.044 SA
HETATM   15  S2  UNL     1      15.391 -42.344  12.008  1.00  0.00    -0.030 SA
HETATM   16  N2  UNL     1      12.603 -41.342  11.785  1.00  0.00    -0.217 N 
BRANCH  16  17
HETATM   17  O2  UNL     1      12.265 -40.940  13.051  1.00  0.00    -0.282 OA
ATOM     18  H2  UNL     1      12.206 -41.452  13.848  1.00  0.00     0.245 HD
ENDBRANCH  16  17
ENDBRANCH   6   7
ENDBRANCH   5   6
ENDBRANCH   2   5
TORSDOF 4
ENDMDL
