MODEL 1
REMARK VINA RESULT: -9.534766009      0.000      0.000
REMARK  16 active torsions:
REMARK  status: ('A' for Active; 'I' for Inactive)
REMARK    1  A    between atoms: C2_2  and  C4_4 
REMARK    2  A    between atoms: C4_4  and  N1_5 
REMARK    3  A    between atoms: C4_4  and  C15_19 
REMARK       I    between atoms: N1_5  and  C5_7 
REMARK    4  A    between atoms: C5_7  and  C6_9 
REMARK    5  A    between atoms: C6_9  and  C7_10 
REMARK    6  A    between atoms: C6_9  and  C8_12 
REMARK       I    between atoms: C15_19  and  N2_21 
REMARK       I    between atoms: N3_26  and  C20_27 
REMARK    7  A    between atoms: C20_27  and  C21_29 
REMARK    8  A    between atoms: C22_30  and  C23_31 
REMARK    9  A    between atoms: C23_31  and  C24_32 
REMARK   10  A    between atoms: C24_32  and  C25_33 
REMARK       I    between atoms: C25_33  and  N4_35 
REMARK   11  A    between atoms: N4_35  and  C26_37 
REMARK   12  A    between atoms: C26_37  and  C27_38 
REMARK   13  A    between atoms: C26_37  and  C31_46 
REMARK   14  A    between atoms: C27_38  and  C28_39 
REMARK   15  A    between atoms: C28_39  and  C29_40 
REMARK   16  A    between atoms: C29_40  and  N5_41 
ROOT
HETATM    1  C15 UNL     1      44.062  -3.154   9.923  1.00  0.00     0.243 C 
HETATM    2  O2  UNL     1      44.519  -3.465   8.761  1.00  0.00    -0.271 OA
HETATM    3  N2  UNL     1      42.850  -3.656  10.393  1.00  0.00    -0.348 N 
HETATM    4  C16 UNL     1      42.190  -3.436  11.650  1.00  0.00     0.132 C 
HETATM    5  C17 UNL     1      41.840  -4.888  12.048  1.00  0.00     0.030 C 
HETATM    6  C18 UNL     1      40.427  -5.051  12.485  1.00  0.00     0.028 C 
HETATM    7  C19 UNL     1      40.171  -6.519  12.077  1.00  0.00     0.127 C 
HETATM    8  N3  UNL     1      40.737  -6.490  10.717  1.00  0.00    -0.342 N 
HETATM    9  C20 UNL     1      40.248  -7.192   9.564  1.00  0.00     0.243 C 
HETATM   10  O3  UNL     1      40.828  -6.962   8.495  1.00  0.00    -0.268 OA
HETATM   11  C32 UNL     1      41.898  -5.677  10.751  1.00  0.00     0.111 C 
HETATM   12  C33 UNL     1      41.963  -4.583   9.703  1.00  0.00     0.151 C 
ENDROOT
BRANCH   9  13
HETATM   13  C21 UNL     1      39.147  -8.092   9.726  1.00  0.00     0.070 C 
HETATM   14  C22 UNL     1      37.904  -7.773   9.832  1.00  0.00    -0.021 C 
BRANCH  14  15
HETATM   15  C23 UNL     1      37.266  -6.450   9.825  1.00  0.00     0.036 C 
BRANCH  15  16
HETATM   16  C24 UNL     1      35.863  -6.555  10.407  1.00  0.00     0.106 C 
BRANCH  16  17
HETATM   17  C25 UNL     1      35.901  -6.379  11.861  1.00  0.00     0.218 C 
HETATM   18  O4  UNL     1      36.843  -5.809  12.429  1.00  0.00    -0.274 OA
HETATM   19  N4  UNL     1      34.800  -6.886  12.652  1.00  0.00    -0.348 N 
ATOM     20  H4  UNL     1      34.035  -7.348  12.163  1.00  0.00     0.163 HD
BRANCH  19  21
HETATM   21  C26 UNL     1      34.717  -6.779  14.082  1.00  0.00     0.173 C 
BRANCH  21  22
HETATM   22  C27 UNL     1      33.974  -5.530  14.415  1.00  0.00     0.036 C 
BRANCH  22  23
HETATM   23  C28 UNL     1      34.310  -4.846  15.689  1.00  0.00     0.022 C 
BRANCH  23  24
HETATM   24  C29 UNL     1      34.936  -3.498  15.528  1.00  0.00     0.122 C 
BRANCH  24  25
HETATM   25  N5  UNL     1      36.128  -3.695  14.697  1.00  0.00    -0.367 N 
HETATM   26  C30 UNL     1      36.694  -2.664  14.213  1.00  0.00     0.196 C 
HETATM   27  N6  UNL     1      37.861  -2.776  13.391  1.00  0.00    -0.067 NA
HETATM   28  N7  UNL     1      36.200  -1.335  14.464  1.00  0.00    -0.067 NA
ATOM     29  H5  UNL     1      36.492  -4.629  14.513  1.00  0.00     0.161 HD
ENDBRANCH  24  25
ENDBRANCH  23  24
ENDBRANCH  22  23
ENDBRANCH  21  22
BRANCH  21  30
HETATM   30  C31 UNL     1      34.324  -7.986  14.784  1.00  0.00     0.254 C 
HETATM   31  N8  UNL     1      33.182  -8.759  14.501  1.00  0.00    -0.060 NA
HETATM   32  O5  UNL     1      35.077  -8.382  15.745  1.00  0.00    -0.275 OA
ENDBRANCH  21  30
ENDBRANCH  19  21
ENDBRANCH  16  17
ENDBRANCH  15  16
ENDBRANCH  14  15
ENDBRANCH   9  13
BRANCH   1  33
HETATM   33  C4  UNL     1      44.880  -2.235  10.767  1.00  0.00     0.180 C 
BRANCH  33  34
HETATM   34  C2  UNL     1      44.734  -0.822  10.316  1.00  0.00     0.009 C 
HETATM   35  C1  UNL     1      44.120   0.044  11.358  1.00  0.00     0.012 C 
HETATM   36  C3  UNL     1      46.060  -0.203   9.890  1.00  0.00     0.012 C 
ENDBRANCH  33  34
BRANCH  33  37
HETATM   37  N1  UNL     1      46.292  -2.599  10.731  1.00  0.00    -0.347 N 
HETATM   38  C5  UNL     1      47.138  -2.357  11.845  1.00  0.00     0.223 C 
HETATM   39  O1  UNL     1      46.615  -1.821  12.868  1.00  0.00    -0.273 OA
ATOM     40  H1  UNL     1      46.678  -3.033   9.893  1.00  0.00     0.163 HD
BRANCH  38  41
HETATM   41  C6  UNL     1      48.574  -2.684  11.886  1.00  0.00     0.092 C 
BRANCH  41  42
HETATM   42  C7  UNL     1      49.309  -1.611  12.724  1.00  0.00     0.100 C 
HETATM   43  S1  UNL     1      49.879  -2.324  14.279  1.00  0.00    -0.097 SA
ENDBRANCH  41  42
BRANCH  41  44
HETATM   44  C8  UNL     1      49.208  -2.757  10.511  1.00  0.00    -0.001 C 
HETATM   45  C9  UNL     1      50.625  -2.317  10.601  1.00  0.00     0.005 C 
HETATM   46  C10 UNL     1      51.362  -2.419   9.279  1.00  0.00     0.000 C 
HETATM   47  C11 UNL     1      50.516  -2.064   8.098  1.00  0.00     0.000 C 
HETATM   48  C12 UNL     1      49.454  -3.075   7.778  1.00  0.00     0.000 C 
HETATM   49  C13 UNL     1      49.545  -4.342   8.583  1.00  0.00     0.000 C 
HETATM   50  C14 UNL     1      49.040  -4.155   9.997  1.00  0.00     0.005 C 
ENDBRANCH  41  44
ENDBRANCH  38  41
ENDBRANCH  33  37
ENDBRANCH   1  33
TORSDOF 16
ENDMDL
MODEL 2
REMARK VINA RESULT: -9.383048799      1.912      2.668
REMARK  16 active torsions:
REMARK  status: ('A' for Active; 'I' for Inactive)
REMARK    1  A    between atoms: C2_2  and  C4_4 
REMARK    2  A    between atoms: C4_4  and  N1_5 
REMARK    3  A    between atoms: C4_4  and  C15_19 
REMARK       I    between atoms: N1_5  and  C5_7 
REMARK    4  A    between atoms: C5_7  and  C6_9 
REMARK    5  A    between atoms: C6_9  and  C7_10 
REMARK    6  A    between atoms: C6_9  and  C8_12 
REMARK       I    between atoms: C15_19  and  N2_21 
REMARK       I    between atoms: N3_26  and  C20_27 
REMARK    7  A    between atoms: C20_27  and  C21_29 
REMARK    8  A    between atoms: C22_30  and  C23_31 
REMARK    9  A    between atoms: C23_31  and  C24_32 
REMARK   10  A    between atoms: C24_32  and  C25_33 
REMARK       I    between atoms: C25_33  and  N4_35 
REMARK   11  A    between atoms: N4_35  and  C26_37 
REMARK   12  A    between atoms: C26_37  and  C27_38 
REMARK   13  A    between atoms: C26_37  and  C31_46 
REMARK   14  A    between atoms: C27_38  and  C28_39 
REMARK   15  A    between atoms: C28_39  and  C29_40 
REMARK   16  A    between atoms: C29_40  and  N5_41 
ROOT
HETATM    1  C15 UNL     1      44.117  -2.984   9.885  1.00  0.00     0.243 C 
HETATM    2  O2  UNL     1      44.524  -3.159   8.676  1.00  0.00    -0.271 OA
HETATM    3  N2  UNL     1      42.968  -3.606  10.368  1.00  0.00    -0.348 N 
HETATM    4  C16 UNL     1      42.369  -3.543  11.672  1.00  0.00     0.132 C 
HETATM    5  C17 UNL     1      42.134  -5.046  11.952  1.00  0.00     0.030 C 
HETATM    6  C18 UNL     1      40.762  -5.342  12.446  1.00  0.00     0.028 C 
HETATM    7  C19 UNL     1      40.576  -6.782  11.918  1.00  0.00     0.127 C 
HETATM    8  N3  UNL     1      41.060  -6.595  10.538  1.00  0.00    -0.342 N 
HETATM    9  C20 UNL     1      40.549  -7.223   9.353  1.00  0.00     0.243 C 
HETATM   10  O3  UNL     1      41.051  -6.860   8.281  1.00  0.00    -0.268 OA
HETATM   11  C32 UNL     1      42.167  -5.711  10.587  1.00  0.00     0.111 C 
HETATM   12  C33 UNL     1      42.102  -4.527   9.642  1.00  0.00     0.151 C 
ENDROOT
BRANCH   9  13
HETATM   13  C21 UNL     1      39.518  -8.207   9.488  1.00  0.00     0.070 C 
HETATM   14  C22 UNL     1      38.277  -7.986   9.750  1.00  0.00    -0.021 C 
BRANCH  14  15
HETATM   15  C23 UNL     1      37.574  -6.719   9.985  1.00  0.00     0.036 C 
BRANCH  15  16
HETATM   16  C24 UNL     1      37.196  -6.607  11.456  1.00  0.00     0.106 C 
BRANCH  16  17
HETATM   17  C25 UNL     1      37.035  -5.201  11.835  1.00  0.00     0.218 C 
HETATM   18  O4  UNL     1      36.437  -4.392  11.112  1.00  0.00    -0.274 OA
HETATM   19  N4  UNL     1      37.590  -4.751  13.093  1.00  0.00    -0.348 N 
ATOM     20  H4  UNL     1      38.075  -5.436  13.672  1.00  0.00     0.163 HD
BRANCH  19  21
HETATM   21  C26 UNL     1      37.502  -3.403  13.579  1.00  0.00     0.173 C 
BRANCH  21  22
HETATM   22  C27 UNL     1      36.312  -3.303  14.471  1.00  0.00     0.036 C 
BRANCH  22  23
HETATM   23  C28 UNL     1      35.912  -1.954  14.941  1.00  0.00     0.022 C 
BRANCH  23  24
HETATM   24  C29 UNL     1      35.917  -1.782  16.426  1.00  0.00     0.122 C 
BRANCH  24  25
HETATM   25  N5  UNL     1      37.057  -0.911  16.734  1.00  0.00    -0.367 N 
HETATM   26  C30 UNL     1      36.980  -0.172  17.766  1.00  0.00     0.196 C 
HETATM   27  N6  UNL     1      38.051   0.706  18.130  1.00  0.00    -0.067 NA
HETATM   28  N7  UNL     1      35.822  -0.176  18.621  1.00  0.00    -0.067 NA
ATOM     29  H5  UNL     1      37.886  -0.899  16.140  1.00  0.00     0.161 HD
ENDBRANCH  24  25
ENDBRANCH  23  24
ENDBRANCH  22  23
ENDBRANCH  21  22
BRANCH  21  30
HETATM   30  C31 UNL     1      38.739  -2.824  14.066  1.00  0.00     0.254 C 
HETATM   31  N8  UNL     1      39.670  -2.113  13.285  1.00  0.00    -0.060 NA
HETATM   32  O5  UNL     1      39.010  -2.973  15.312  1.00  0.00    -0.275 OA
ENDBRANCH  21  30
ENDBRANCH  19  21
ENDBRANCH  16  17
ENDBRANCH  15  16
ENDBRANCH  14  15
ENDBRANCH   9  13
BRANCH   1  33
HETATM   33  C4  UNL     1      44.923  -2.090  10.766  1.00  0.00     0.180 C 
BRANCH  33  34
HETATM   34  C2  UNL     1      44.777  -0.664  10.359  1.00  0.00     0.009 C 
HETATM   35  C1  UNL     1      44.077   0.150  11.388  1.00  0.00     0.012 C 
HETATM   36  C3  UNL     1      46.116  -0.005  10.045  1.00  0.00     0.012 C 
ENDBRANCH  33  34
BRANCH  33  37
HETATM   37  N1  UNL     1      46.336  -2.448  10.734  1.00  0.00    -0.347 N 
HETATM   38  C5  UNL     1      47.163  -2.267  11.873  1.00  0.00     0.223 C 
HETATM   39  O1  UNL     1      46.622  -1.789  12.915  1.00  0.00    -0.273 OA
ATOM     40  H1  UNL     1      46.737  -2.835   9.880  1.00  0.00     0.163 HD
BRANCH  38  41
HETATM   41  C6  UNL     1      48.599  -2.593  11.921  1.00  0.00     0.092 C 
BRANCH  41  42
HETATM   42  C7  UNL     1      49.330  -1.518  12.758  1.00  0.00     0.100 C 
HETATM   43  S1  UNL     1      49.907  -2.230  14.311  1.00  0.00    -0.097 SA
ENDBRANCH  41  42
BRANCH  41  44
HETATM   44  C8  UNL     1      49.238  -2.668  10.548  1.00  0.00    -0.001 C 
HETATM   45  C9  UNL     1      50.684  -2.344  10.663  1.00  0.00     0.005 C 
HETATM   46  C10 UNL     1      51.423  -2.458   9.342  1.00  0.00     0.000 C 
HETATM   47  C11 UNL     1      50.618  -1.999   8.169  1.00  0.00     0.000 C 
HETATM   48  C12 UNL     1      49.484  -2.912   7.807  1.00  0.00     0.000 C 
HETATM   49  C13 UNL     1      49.468  -4.209   8.569  1.00  0.00     0.000 C 
HETATM   50  C14 UNL     1      48.966  -4.031   9.984  1.00  0.00     0.005 C 
ENDBRANCH  41  44
ENDBRANCH  38  41
ENDBRANCH  33  37
ENDBRANCH   1  33
TORSDOF 16
ENDMDL
MODEL 3
REMARK VINA RESULT: -9.188486432      1.556      2.590
REMARK  16 active torsions:
REMARK  status: ('A' for Active; 'I' for Inactive)
REMARK    1  A    between atoms: C2_2  and  C4_4 
REMARK    2  A    between atoms: C4_4  and  N1_5 
REMARK    3  A    between atoms: C4_4  and  C15_19 
REMARK       I    between atoms: N1_5  and  C5_7 
REMARK    4  A    between atoms: C5_7  and  C6_9 
REMARK    5  A    between atoms: C6_9  and  C7_10 
REMARK    6  A    between atoms: C6_9  and  C8_12 
REMARK       I    between atoms: C15_19  and  N2_21 
REMARK       I    between atoms: N3_26  and  C20_27 
REMARK    7  A    between atoms: C20_27  and  C21_29 
REMARK    8  A    between atoms: C22_30  and  C23_31 
REMARK    9  A    between atoms: C23_31  and  C24_32 
REMARK   10  A    between atoms: C24_32  and  C25_33 
REMARK       I    between atoms: C25_33  and  N4_35 
REMARK   11  A    between atoms: N4_35  and  C26_37 
REMARK   12  A    between atoms: C26_37  and  C27_38 
REMARK   13  A    between atoms: C26_37  and  C31_46 
REMARK   14  A    between atoms: C27_38  and  C28_39 
REMARK   15  A    between atoms: C28_39  and  C29_40 
REMARK   16  A    between atoms: C29_40  and  N5_41 
ROOT
HETATM    1  C15 UNL     1      44.053  -3.092   9.966  1.00  0.00     0.243 C 
HETATM    2  O2  UNL     1      44.518  -3.413   8.809  1.00  0.00    -0.271 OA
HETATM    3  N2  UNL     1      42.835  -3.585  10.429  1.00  0.00    -0.348 N 
HETATM    4  C16 UNL     1      42.167  -3.353  11.679  1.00  0.00     0.132 C 
HETATM    5  C17 UNL     1      41.805  -4.802  12.083  1.00  0.00     0.030 C 
HETATM    6  C18 UNL     1      40.388  -4.954  12.510  1.00  0.00     0.028 C 
HETATM    7  C19 UNL     1      40.129  -6.423  12.109  1.00  0.00     0.127 C 
HETATM    8  N3  UNL     1      40.706  -6.407  10.753  1.00  0.00    -0.342 N 
HETATM    9  C20 UNL     1      40.222  -7.113   9.602  1.00  0.00     0.243 C 
HETATM   10  O3  UNL     1      40.812  -6.893   8.536  1.00  0.00    -0.268 OA
HETATM   11  C32 UNL     1      41.870  -5.599  10.791  1.00  0.00     0.111 C 
HETATM   12  C33 UNL     1      41.949  -4.512   9.737  1.00  0.00     0.151 C 
ENDROOT
BRANCH   9  13
HETATM   13  C21 UNL     1      39.115  -8.007   9.760  1.00  0.00     0.070 C 
HETATM   14  C22 UNL     1      37.879  -7.679   9.909  1.00  0.00    -0.021 C 
BRANCH  14  15
HETATM   15  C23 UNL     1      37.257  -6.350   9.966  1.00  0.00     0.036 C 
BRANCH  15  16
HETATM   16  C24 UNL     1      35.813  -6.479  10.432  1.00  0.00     0.106 C 
BRANCH  16  17
HETATM   17  C25 UNL     1      35.729  -6.301  11.884  1.00  0.00     0.218 C 
HETATM   18  O4  UNL     1      36.567  -5.639  12.513  1.00  0.00    -0.274 OA
HETATM   19  N4  UNL     1      34.631  -6.916  12.598  1.00  0.00    -0.348 N 
ATOM     20  H4  UNL     1      33.953  -7.453  12.058  1.00  0.00     0.163 HD
BRANCH  19  21
HETATM   21  C26 UNL     1      34.436  -6.819  14.017  1.00  0.00     0.173 C 
BRANCH  21  22
HETATM   22  C27 UNL     1      33.311  -5.874  14.271  1.00  0.00     0.036 C 
BRANCH  22  23
HETATM   23  C28 UNL     1      32.982  -5.556  15.683  1.00  0.00     0.022 C 
BRANCH  23  24
HETATM   24  C29 UNL     1      31.764  -6.244  16.211  1.00  0.00     0.122 C 
BRANCH  24  25
HETATM   25  N5  UNL     1      31.146  -6.922  15.066  1.00  0.00    -0.367 N 
HETATM   26  C30 UNL     1      29.981  -7.407  15.218  1.00  0.00     0.196 C 
HETATM   27  N6  UNL     1      29.314  -8.084  14.147  1.00  0.00    -0.067 NA
HETATM   28  N7  UNL     1      29.269  -7.303  16.465  1.00  0.00    -0.067 NA
ATOM     29  H5  UNL     1      31.636  -7.001  14.175  1.00  0.00     0.161 HD
ENDBRANCH  24  25
ENDBRANCH  23  24
ENDBRANCH  22  23
ENDBRANCH  21  22
BRANCH  21  30
HETATM   30  C31 UNL     1      34.414  -8.076  14.740  1.00  0.00     0.254 C 
HETATM   31  N8  UNL     1      33.439  -9.082  14.600  1.00  0.00    -0.060 NA
HETATM   32  O5  UNL     1      35.362  -8.291  15.579  1.00  0.00    -0.275 OA
ENDBRANCH  21  30
ENDBRANCH  19  21
ENDBRANCH  16  17
ENDBRANCH  15  16
ENDBRANCH  14  15
ENDBRANCH   9  13
BRANCH   1  33
HETATM   33  C4  UNL     1      44.870  -2.172  10.810  1.00  0.00     0.180 C 
BRANCH  33  34
HETATM   34  C2  UNL     1      44.703  -0.757  10.374  1.00  0.00     0.009 C 
HETATM   35  C1  UNL     1      44.093   0.093  11.432  1.00  0.00     0.012 C 
HETATM   36  C3  UNL     1      46.017  -0.120   9.936  1.00  0.00     0.012 C 
ENDBRANCH  33  34
BRANCH  33  37
HETATM   37  N1  UNL     1      46.285  -2.519  10.757  1.00  0.00    -0.347 N 
HETATM   38  C5  UNL     1      47.134  -2.300  11.873  1.00  0.00     0.223 C 
HETATM   39  O1  UNL     1      46.611  -1.799  12.914  1.00  0.00    -0.273 OA
ATOM     40  H1  UNL     1      46.671  -2.926   9.905  1.00  0.00     0.163 HD
BRANCH  38  41
HETATM   41  C6  UNL     1      48.573  -2.613  11.899  1.00  0.00     0.092 C 
BRANCH  41  42
HETATM   42  C7  UNL     1      49.306  -1.539  12.737  1.00  0.00     0.100 C 
HETATM   43  S1  UNL     1      49.761  -2.215  14.346  1.00  0.00    -0.097 SA
ENDBRANCH  41  42
BRANCH  41  44
HETATM   44  C8  UNL     1      49.195  -2.669  10.517  1.00  0.00    -0.001 C 
HETATM   45  C9  UNL     1      50.642  -2.342  10.617  1.00  0.00     0.005 C 
HETATM   46  C10 UNL     1      51.363  -2.438   9.286  1.00  0.00     0.000 C 
HETATM   47  C11 UNL     1      50.542  -1.965   8.129  1.00  0.00     0.000 C 
HETATM   48  C12 UNL     1      49.406  -2.875   7.770  1.00  0.00     0.000 C 
HETATM   49  C13 UNL     1      49.403  -4.183   8.515  1.00  0.00     0.000 C 
HETATM   50  C14 UNL     1      48.919  -4.025   9.939  1.00  0.00     0.005 C 
ENDBRANCH  41  44
ENDBRANCH  38  41
ENDBRANCH  33  37
ENDBRANCH   1  33
TORSDOF 16
ENDMDL
MODEL 4
REMARK VINA RESULT: -8.945740224      1.820      2.710
REMARK  16 active torsions:
REMARK  status: ('A' for Active; 'I' for Inactive)
REMARK    1  A    between atoms: C2_2  and  C4_4 
REMARK    2  A    between atoms: C4_4  and  N1_5 
REMARK    3  A    between atoms: C4_4  and  C15_19 
REMARK       I    between atoms: N1_5  and  C5_7 
REMARK    4  A    between atoms: C5_7  and  C6_9 
REMARK    5  A    between atoms: C6_9  and  C7_10 
REMARK    6  A    between atoms: C6_9  and  C8_12 
REMARK       I    between atoms: C15_19  and  N2_21 
REMARK       I    between atoms: N3_26  and  C20_27 
REMARK    7  A    between atoms: C20_27  and  C21_29 
REMARK    8  A    between atoms: C22_30  and  C23_31 
REMARK    9  A    between atoms: C23_31  and  C24_32 
REMARK   10  A    between atoms: C24_32  and  C25_33 
REMARK       I    between atoms: C25_33  and  N4_35 
REMARK   11  A    between atoms: N4_35  and  C26_37 
REMARK   12  A    between atoms: C26_37  and  C27_38 
REMARK   13  A    between atoms: C26_37  and  C31_46 
REMARK   14  A    between atoms: C27_38  and  C28_39 
REMARK   15  A    between atoms: C28_39  and  C29_40 
REMARK   16  A    between atoms: C29_40  and  N5_41 
ROOT
HETATM    1  C15 UNL     1      44.065  -2.869   9.825  1.00  0.00     0.243 C 
HETATM    2  O2  UNL     1      44.417  -2.982   8.592  1.00  0.00    -0.271 OA
HETATM    3  N2  UNL     1      42.952  -3.534  10.333  1.00  0.00    -0.348 N 
HETATM    4  C16 UNL     1      42.416  -3.542  11.666  1.00  0.00     0.132 C 
HETATM    5  C17 UNL     1      42.219  -5.060  11.887  1.00  0.00     0.030 C 
HETATM    6  C18 UNL     1      40.877  -5.403  12.431  1.00  0.00     0.028 C 
HETATM    7  C19 UNL     1      40.690  -6.821  11.846  1.00  0.00     0.127 C 
HETATM    8  N3  UNL     1      41.103  -6.563  10.455  1.00  0.00    -0.342 N 
HETATM    9  C20 UNL     1      40.547  -7.146   9.268  1.00  0.00     0.243 C 
HETATM   10  O3  UNL     1      40.991  -6.726   8.191  1.00  0.00    -0.268 OA
HETATM   11  C32 UNL     1      42.197  -5.661  10.492  1.00  0.00     0.111 C 
HETATM   12  C33 UNL     1      42.067  -4.437   9.607  1.00  0.00     0.151 C 
ENDROOT
BRANCH   9  13
HETATM   13  C21 UNL     1      39.540  -8.154   9.406  1.00  0.00     0.070 C 
HETATM   14  C22 UNL     1      38.295  -7.963   9.672  1.00  0.00    -0.021 C 
BRANCH  14  15
HETATM   15  C23 UNL     1      37.563  -6.713   9.911  1.00  0.00     0.036 C 
BRANCH  15  16
HETATM   16  C24 UNL     1      37.195  -6.607  11.385  1.00  0.00     0.106 C 
BRANCH  16  17
HETATM   17  C25 UNL     1      37.048  -5.202  11.772  1.00  0.00     0.218 C 
HETATM   18  O4  UNL     1      36.381  -4.402  11.101  1.00  0.00    -0.274 OA
HETATM   19  N4  UNL     1      37.700  -4.741  12.979  1.00  0.00    -0.348 N 
ATOM     20  H4  UNL     1      38.241  -5.418  13.517  1.00  0.00     0.163 HD
BRANCH  19  21
HETATM   21  C26 UNL     1      37.637  -3.392  13.467  1.00  0.00     0.173 C 
BRANCH  21  22
HETATM   22  C27 UNL     1      36.556  -3.316  14.492  1.00  0.00     0.036 C 
BRANCH  22  23
HETATM   23  C28 UNL     1      36.226  -1.981  15.049  1.00  0.00     0.022 C 
BRANCH  23  24
HETATM   24  C29 UNL     1      35.245  -1.999  16.177  1.00  0.00     0.122 C 
BRANCH  24  25
HETATM   25  N5  UNL     1      33.966  -2.433  15.603  1.00  0.00    -0.367 N 
HETATM   26  C30 UNL     1      33.416  -3.469  16.091  1.00  0.00     0.196 C 
HETATM   27  N6  UNL     1      32.169  -3.955  15.582  1.00  0.00    -0.067 NA
HETATM   28  N7  UNL     1      34.008  -4.208  17.175  1.00  0.00    -0.067 NA
ATOM     29  H5  UNL     1      33.533  -1.918  14.837  1.00  0.00     0.161 HD
ENDBRANCH  24  25
ENDBRANCH  23  24
ENDBRANCH  22  23
ENDBRANCH  21  22
BRANCH  21  30
HETATM   30  C31 UNL     1      38.908  -2.781  13.806  1.00  0.00     0.254 C 
HETATM   31  N8  UNL     1      39.392  -2.574  15.111  1.00  0.00    -0.060 NA
HETATM   32  O5  UNL     1      39.653  -2.394  12.835  1.00  0.00    -0.275 OA
ENDBRANCH  21  30
ENDBRANCH  19  21
ENDBRANCH  16  17
ENDBRANCH  15  16
ENDBRANCH  14  15
ENDBRANCH   9  13
BRANCH   1  33
HETATM   33  C4  UNL     1      44.899  -2.002  10.707  1.00  0.00     0.180 C 
BRANCH  33  34
HETATM   34  C2  UNL     1      44.808  -0.573  10.292  1.00  0.00     0.009 C 
HETATM   35  C1  UNL     1      44.171   0.279  11.331  1.00  0.00     0.012 C 
HETATM   36  C3  UNL     1      46.167   0.022   9.941  1.00  0.00     0.012 C 
ENDBRANCH  33  34
BRANCH  33  37
HETATM   37  N1  UNL     1      46.298  -2.412  10.686  1.00  0.00    -0.347 N 
HETATM   38  C5  UNL     1      47.114  -2.288  11.840  1.00  0.00     0.223 C 
HETATM   39  O1  UNL     1      46.576  -1.814  12.886  1.00  0.00    -0.273 OA
ATOM     40  H1  UNL     1      46.697  -2.794   9.828  1.00  0.00     0.163 HD
BRANCH  38  41
HETATM   41  C6  UNL     1      48.536  -2.668  11.900  1.00  0.00     0.092 C 
BRANCH  41  42
HETATM   42  C7  UNL     1      49.297  -1.634  12.762  1.00  0.00     0.100 C 
HETATM   43  S1  UNL     1      49.577  -2.294  14.417  1.00  0.00    -0.097 SA
ENDBRANCH  41  42
BRANCH  41  44
HETATM   44  C8  UNL     1      49.189  -2.748  10.534  1.00  0.00    -0.001 C 
HETATM   45  C9  UNL     1      50.615  -2.344  10.648  1.00  0.00     0.005 C 
HETATM   46  C10 UNL     1      51.369  -2.456   9.336  1.00  0.00     0.000 C 
HETATM   47  C11 UNL     1      50.549  -2.072   8.145  1.00  0.00     0.000 C 
HETATM   48  C12 UNL     1      49.468  -3.054   7.802  1.00  0.00     0.000 C 
HETATM   49  C13 UNL     1      49.515  -4.328   8.600  1.00  0.00     0.000 C 
HETATM   50  C14 UNL     1      48.994  -4.139  10.007  1.00  0.00     0.005 C 
ENDBRANCH  41  44
ENDBRANCH  38  41
ENDBRANCH  33  37
ENDBRANCH   1  33
TORSDOF 16
ENDMDL
MODEL 5
REMARK VINA RESULT: -8.796883428      1.689      2.753
REMARK  16 active torsions:
REMARK  status: ('A' for Active; 'I' for Inactive)
REMARK    1  A    between atoms: C2_2  and  C4_4 
REMARK    2  A    between atoms: C4_4  and  N1_5 
REMARK    3  A    between atoms: C4_4  and  C15_19 
REMARK       I    between atoms: N1_5  and  C5_7 
REMARK    4  A    between atoms: C5_7  and  C6_9 
REMARK    5  A    between atoms: C6_9  and  C7_10 
REMARK    6  A    between atoms: C6_9  and  C8_12 
REMARK       I    between atoms: C15_19  and  N2_21 
REMARK       I    between atoms: N3_26  and  C20_27 
REMARK    7  A    between atoms: C20_27  and  C21_29 
REMARK    8  A    between atoms: C22_30  and  C23_31 
REMARK    9  A    between atoms: C23_31  and  C24_32 
REMARK   10  A    between atoms: C24_32  and  C25_33 
REMARK       I    between atoms: C25_33  and  N4_35 
REMARK   11  A    between atoms: N4_35  and  C26_37 
REMARK   12  A    between atoms: C26_37  and  C27_38 
REMARK   13  A    between atoms: C26_37  and  C31_46 
REMARK   14  A    between atoms: C27_38  and  C28_39 
REMARK   15  A    between atoms: C28_39  and  C29_40 
REMARK   16  A    between atoms: C29_40  and  N5_41 
ROOT
HETATM    1  C15 UNL     1      44.001  -3.061   9.921  1.00  0.00     0.243 C 
HETATM    2  O2  UNL     1      44.412  -3.327   8.731  1.00  0.00    -0.271 OA
HETATM    3  N2  UNL     1      42.815  -3.594  10.423  1.00  0.00    -0.348 N 
HETATM    4  C16 UNL     1      42.206  -3.425  11.713  1.00  0.00     0.132 C 
HETATM    5  C17 UNL     1      41.889  -4.895  12.075  1.00  0.00     0.030 C 
HETATM    6  C18 UNL     1      40.498  -5.091  12.565  1.00  0.00     0.028 C 
HETATM    7  C19 UNL     1      40.243  -6.547  12.117  1.00  0.00     0.127 C 
HETATM    8  N3  UNL     1      40.751  -6.466  10.736  1.00  0.00    -0.342 N 
HETATM    9  C20 UNL     1      40.223  -7.134   9.582  1.00  0.00     0.243 C 
HETATM   10  O3  UNL     1      40.755  -6.860   8.498  1.00  0.00    -0.268 OA
HETATM   11  C32 UNL     1      41.903  -5.639  10.750  1.00  0.00     0.111 C 
HETATM   12  C33 UNL     1      41.911  -4.509   9.739  1.00  0.00     0.151 C 
ENDROOT
BRANCH   9  13
HETATM   13  C21 UNL     1      39.140  -8.054   9.758  1.00  0.00     0.070 C 
HETATM   14  C22 UNL     1      37.897  -7.755   9.917  1.00  0.00    -0.021 C 
BRANCH  14  15
HETATM   15  C23 UNL     1      37.243  -6.442   9.970  1.00  0.00     0.036 C 
BRANCH  15  16
HETATM   16  C24 UNL     1      37.002  -6.047  11.421  1.00  0.00     0.106 C 
BRANCH  16  17
HETATM   17  C25 UNL     1      35.625  -6.358  11.811  1.00  0.00     0.218 C 
HETATM   18  O4  UNL     1      34.742  -6.589  10.972  1.00  0.00    -0.274 OA
HETATM   19  N4  UNL     1      35.291  -6.397  13.218  1.00  0.00    -0.348 N 
ATOM     20  H4  UNL     1      36.035  -6.207  13.889  1.00  0.00     0.163 HD
BRANCH  19  21
HETATM   21  C26 UNL     1      33.982  -6.688  13.731  1.00  0.00     0.173 C 
BRANCH  21  22
HETATM   22  C27 UNL     1      34.013  -8.042  14.353  1.00  0.00     0.036 C 
BRANCH  22  23
HETATM   23  C28 UNL     1      34.696  -8.184  15.663  1.00  0.00     0.022 C 
BRANCH  23  24
HETATM   24  C29 UNL     1      34.935  -9.596  16.094  1.00  0.00     0.122 C 
BRANCH  24  25
HETATM   25  N5  UNL     1      36.018  -9.545  17.083  1.00  0.00    -0.367 N 
HETATM   26  C30 UNL     1      37.164  -9.969  16.733  1.00  0.00     0.196 C 
HETATM   27  N6  UNL     1      38.269  -9.953  17.643  1.00  0.00    -0.067 NA
HETATM   28  N7  UNL     1      37.417 -10.482  15.412  1.00  0.00    -0.067 NA
ATOM     29  H5  UNL     1      35.856  -9.181  18.022  1.00  0.00     0.161 HD
ENDBRANCH  24  25
ENDBRANCH  23  24
ENDBRANCH  22  23
ENDBRANCH  21  22
BRANCH  21  30
HETATM   30  C31 UNL     1      33.352  -5.627  14.493  1.00  0.00     0.254 C 
HETATM   31  N8  UNL     1      31.971  -5.512  14.745  1.00  0.00    -0.060 NA
HETATM   32  O5  UNL     1      34.114  -4.716  14.979  1.00  0.00    -0.275 OA
ENDBRANCH  21  30
ENDBRANCH  19  21
ENDBRANCH  16  17
ENDBRANCH  15  16
ENDBRANCH  14  15
ENDBRANCH   9  13
BRANCH   1  33
HETATM   33  C4  UNL     1      44.843  -2.161  10.762  1.00  0.00     0.180 C 
BRANCH  33  34
HETATM   34  C2  UNL     1      44.737  -0.747  10.302  1.00  0.00     0.009 C 
HETATM   35  C1  UNL     1      44.126   0.138  11.329  1.00  0.00     0.012 C 
HETATM   36  C3  UNL     1      46.085  -0.161   9.896  1.00  0.00     0.012 C 
ENDBRANCH  33  34
BRANCH  33  37
HETATM   37  N1  UNL     1      46.244  -2.564  10.731  1.00  0.00    -0.347 N 
HETATM   38  C5  UNL     1      47.092  -2.345  11.848  1.00  0.00     0.223 C 
HETATM   39  O1  UNL     1      46.581  -1.794  12.869  1.00  0.00    -0.273 OA
ATOM     40  H1  UNL     1      46.620  -3.010   9.895  1.00  0.00     0.163 HD
BRANCH  38  41
HETATM   41  C6  UNL     1      48.518  -2.713  11.895  1.00  0.00     0.092 C 
BRANCH  41  42
HETATM   42  C7  UNL     1      49.265  -1.711  12.807  1.00  0.00     0.100 C 
HETATM   43  S1  UNL     1      49.647  -2.482  14.391  1.00  0.00    -0.097 SA
ENDBRANCH  41  42
BRANCH  41  44
HETATM   44  C8  UNL     1      49.176  -2.723  10.530  1.00  0.00    -0.001 C 
HETATM   45  C9  UNL     1      50.615  -2.380  10.677  1.00  0.00     0.005 C 
HETATM   46  C10 UNL     1      51.372  -2.429   9.363  1.00  0.00     0.000 C 
HETATM   47  C11 UNL     1      50.575  -1.935   8.198  1.00  0.00     0.000 C 
HETATM   48  C12 UNL     1      49.461  -2.851   7.784  1.00  0.00     0.000 C 
HETATM   49  C13 UNL     1      49.457  -4.178   8.494  1.00  0.00     0.000 C 
HETATM   50  C14 UNL     1      48.934  -4.066   9.908  1.00  0.00     0.005 C 
ENDBRANCH  41  44
ENDBRANCH  38  41
ENDBRANCH  33  37
ENDBRANCH   1  33
TORSDOF 16
ENDMDL
