MODEL 1
REMARK VINA RESULT: -8.461164571      0.000      0.000
REMARK  7 active torsions:
REMARK  status: ('A' for Active; 'I' for Inactive)
REMARK    1  A    between atoms: O1_2  and  C2_3 
REMARK    2  A    between atoms: C2_3  and  C3_4 
REMARK    3  A    between atoms: C3_4  and  C4_5 
REMARK    4  A    between atoms: C4_5  and  C5_6 
REMARK    5  A    between atoms: C8_11  and  C9_12 
REMARK    6  A    between atoms: C11_17  and  C12_18 
REMARK    7  A    between atoms: C18_24  and  N2_25 
ROOT
HETATM    1  N2  UNL     1      -5.179  -7.164 -17.546  1.00  0.00    -0.329 NA
HETATM    2  C19 UNL     1      -4.223  -6.618 -18.210  1.00  0.00     0.269 C 
HETATM    3  N3  UNL     1      -3.359  -6.134 -18.736  1.00  0.00    -0.156 NA
ENDROOT
BRANCH   1   4
HETATM    4  C18 UNL     1      -6.095  -7.671 -16.937  1.00  0.00     0.141 A 
HETATM    5  C5  UNL     1      -6.493  -7.123 -15.727  1.00  0.00    -0.000 A 
HETATM    6  C6  UNL     1      -7.609  -7.685 -15.101  1.00  0.00     0.099 A 
HETATM    7  N1  UNL     1      -8.245  -8.687 -15.668  1.00  0.00    -0.364 N 
HETATM    8  C7  UNL     1      -7.891  -9.240 -16.845  1.00  0.00     0.060 A 
ATOM      9  H1  UNL     1      -9.058  -9.070 -15.186  1.00  0.00     0.165 HD
HETATM   10  C8  UNL     1      -8.683 -10.220 -17.347  1.00  0.00     0.076 A 
HETATM   11  C17 UNL     1      -6.792  -8.754 -17.522  1.00  0.00     0.034 A 
HETATM   12  C10 UNL     1      -8.313 -10.763 -18.606  1.00  0.00     0.026 A 
HETATM   13  C11 UNL     1      -7.194 -10.319 -19.286  1.00  0.00    -0.049 A 
HETATM   14  C16 UNL     1      -6.432  -9.300 -18.745  1.00  0.00     0.025 A 
BRANCH   5  15
HETATM   15  C4  UNL     1      -5.934  -5.936 -15.110  1.00  0.00     0.045 C 
BRANCH  15  16
HETATM   16  C3  UNL     1      -6.883  -5.061 -14.270  1.00  0.00     0.031 C 
BRANCH  16  17
HETATM   17  C2  UNL     1      -6.130  -4.996 -12.906  1.00  0.00     0.167 C 
BRANCH  17  18
HETATM   18  O1  UNL     1      -7.038  -5.027 -11.879  1.00  0.00    -0.396 OA
HETATM   19  C1  UNL     1      -7.657  -6.239 -11.768  1.00  0.00     0.201 C 
ENDBRANCH  17  18
ENDBRANCH  16  17
ENDBRANCH  15  16
ENDBRANCH   5  15
BRANCH  10  20
HETATM   20  C9  UNL     1      -9.913 -10.790 -16.741  1.00  0.00     0.419 C 
HETATM   21  F1  UNL     1      -9.940 -10.747 -15.371  1.00  0.00    -0.166 F 
HETATM   22  F2  UNL     1     -10.089 -12.101 -17.219  1.00  0.00    -0.166 F 
HETATM   23  F3  UNL     1     -11.073 -10.142 -17.261  1.00  0.00    -0.166 F 
ENDBRANCH  10  20
BRANCH  13  24
HETATM   24  C12 UNL     1      -6.709 -11.016 -20.491  1.00  0.00    -0.024 C 
HETATM   25  C13 UNL     1      -7.020 -10.030 -21.631  1.00  0.00     0.019 C 
HETATM   26  C14 UNL     1      -7.549 -12.291 -20.802  1.00  0.00     0.019 C 
HETATM   27  C15 UNL     1      -5.308 -11.364 -20.562  1.00  0.00     0.019 C 
ENDBRANCH  13  24
ENDBRANCH   1   4
TORSDOF 7
ENDMDL
MODEL 2
REMARK VINA RESULT: -8.442850139      3.491      6.770
REMARK  7 active torsions:
REMARK  status: ('A' for Active; 'I' for Inactive)
REMARK    1  A    between atoms: O1_2  and  C2_3 
REMARK    2  A    between atoms: C2_3  and  C3_4 
REMARK    3  A    between atoms: C3_4  and  C4_5 
REMARK    4  A    between atoms: C4_5  and  C5_6 
REMARK    5  A    between atoms: C8_11  and  C9_12 
REMARK    6  A    between atoms: C11_17  and  C12_18 
REMARK    7  A    between atoms: C18_24  and  N2_25 
ROOT
HETATM    1  N2  UNL     1      -6.056 -10.720 -20.668  1.00  0.00    -0.329 NA
HETATM    2  C19 UNL     1      -4.966 -10.413 -21.277  1.00  0.00     0.269 C 
HETATM    3  N3  UNL     1      -4.045 -10.099 -21.835  1.00  0.00    -0.156 NA
ENDROOT
BRANCH   1   4
HETATM    4  C18 UNL     1      -7.075 -11.031 -20.095  1.00  0.00     0.141 A 
HETATM    5  C5  UNL     1      -7.847 -12.069 -20.593  1.00  0.00    -0.000 A 
HETATM    6  C6  UNL     1      -8.968 -12.453 -19.852  1.00  0.00     0.099 A 
HETATM    7  N1  UNL     1      -9.249 -11.841 -18.722  1.00  0.00    -0.364 N 
HETATM    8  C7  UNL     1      -8.519 -10.834 -18.204  1.00  0.00     0.060 A 
ATOM      9  H1  UNL     1     -10.072 -12.149 -18.204  1.00  0.00     0.165 HD
HETATM   10  C8  UNL     1      -8.885 -10.345 -16.992  1.00  0.00     0.076 A 
HETATM   11  C17 UNL     1      -7.405 -10.384 -18.880  1.00  0.00     0.034 A 
HETATM   12  C10 UNL     1      -8.081  -9.309 -16.448  1.00  0.00     0.026 A 
HETATM   13  C11 UNL     1      -6.980  -8.815 -17.124  1.00  0.00    -0.049 A 
HETATM   14  C16 UNL     1      -6.633  -9.363 -18.345  1.00  0.00     0.025 A 
BRANCH   5  15
HETATM   15  C4  UNL     1      -7.527 -12.882 -21.750  1.00  0.00     0.045 C 
BRANCH  15  16
HETATM   16  C3  UNL     1      -8.449 -12.761 -22.978  1.00  0.00     0.031 C 
BRANCH  16  17
HETATM   17  C2  UNL     1      -7.790 -11.582 -23.755  1.00  0.00     0.167 C 
BRANCH  17  18
HETATM   18  O1  UNL     1      -6.499 -11.910 -24.079  1.00  0.00    -0.396 OA
HETATM   19  C1  UNL     1      -5.911 -10.977 -24.883  1.00  0.00     0.201 C 
ENDBRANCH  17  18
ENDBRANCH  16  17
ENDBRANCH  15  16
ENDBRANCH   5  15
BRANCH  10  20
HETATM   20  C9  UNL     1     -10.027 -10.778 -16.149  1.00  0.00     0.419 C 
HETATM   21  F1  UNL     1     -10.079 -12.129 -15.918  1.00  0.00    -0.166 F 
HETATM   22  F2  UNL     1     -11.221 -10.307 -16.724  1.00  0.00    -0.166 F 
HETATM   23  F3  UNL     1     -10.022 -10.083 -14.903  1.00  0.00    -0.166 F 
ENDBRANCH  10  20
BRANCH  13  24
HETATM   24  C12 UNL     1      -6.268  -7.616 -16.647  1.00  0.00    -0.024 C 
HETATM   25  C13 UNL     1      -7.124  -7.133 -15.463  1.00  0.00     0.019 C 
HETATM   26  C14 UNL     1      -6.312  -6.461 -17.692  1.00  0.00     0.019 C 
HETATM   27  C15 UNL     1      -4.905  -7.766 -16.190  1.00  0.00     0.019 C 
ENDBRANCH  13  24
ENDBRANCH   1   4
TORSDOF 7
ENDMDL
MODEL 3
REMARK VINA RESULT: -8.429374479      1.180      1.447
REMARK  7 active torsions:
REMARK  status: ('A' for Active; 'I' for Inactive)
REMARK    1  A    between atoms: O1_2  and  C2_3 
REMARK    2  A    between atoms: C2_3  and  C3_4 
REMARK    3  A    between atoms: C3_4  and  C4_5 
REMARK    4  A    between atoms: C4_5  and  C5_6 
REMARK    5  A    between atoms: C8_11  and  C9_12 
REMARK    6  A    between atoms: C11_17  and  C12_18 
REMARK    7  A    between atoms: C18_24  and  N2_25 
ROOT
HETATM    1  N2  UNL     1      -5.178  -7.192 -17.305  1.00  0.00    -0.329 NA
HETATM    2  C19 UNL     1      -4.219  -6.610 -17.934  1.00  0.00     0.269 C 
HETATM    3  N3  UNL     1      -3.347  -6.149 -18.466  1.00  0.00    -0.156 NA
ENDROOT
BRANCH   1   4
HETATM    4  C18 UNL     1      -6.089  -7.720 -16.708  1.00  0.00     0.141 A 
HETATM    5  C5  UNL     1      -6.466  -7.228 -15.468  1.00  0.00    -0.000 A 
HETATM    6  C6  UNL     1      -7.579  -7.809 -14.854  1.00  0.00     0.099 A 
HETATM    7  N1  UNL     1      -8.231  -8.778 -15.460  1.00  0.00    -0.364 N 
HETATM    8  C7  UNL     1      -7.898  -9.276 -16.667  1.00  0.00     0.060 A 
ATOM      9  H1  UNL     1      -9.041  -9.177 -14.985  1.00  0.00     0.165 HD
HETATM   10  C8  UNL     1      -8.705 -10.226 -17.203  1.00  0.00     0.076 A 
HETATM   11  C17 UNL     1      -6.804  -8.768 -17.334  1.00  0.00     0.034 A 
HETATM   12  C10 UNL     1      -8.357 -10.711 -18.492  1.00  0.00     0.026 A 
HETATM   13  C11 UNL     1      -7.243 -10.244 -19.165  1.00  0.00    -0.049 A 
HETATM   14  C16 UNL     1      -6.465  -9.259 -18.587  1.00  0.00     0.025 A 
BRANCH   5  15
HETATM   15  C4  UNL     1      -5.889  -6.076 -14.803  1.00  0.00     0.045 C 
BRANCH  15  16
HETATM   16  C3  UNL     1      -6.833  -4.907 -14.463  1.00  0.00     0.031 C 
BRANCH  16  17
HETATM   17  C2  UNL     1      -6.921  -4.163 -15.830  1.00  0.00     0.167 C 
BRANCH  17  18
HETATM   18  O1  UNL     1      -8.056  -4.552 -16.493  1.00  0.00    -0.396 OA
HETATM   19  C1  UNL     1      -9.171  -4.467 -15.710  1.00  0.00     0.201 C 
ENDBRANCH  17  18
ENDBRANCH  16  17
ENDBRANCH  15  16
ENDBRANCH   5  15
BRANCH  10  20
HETATM   20  C9  UNL     1      -9.932 -10.813 -16.609  1.00  0.00     0.419 C 
HETATM   21  F1  UNL     1      -9.941 -10.833 -15.238  1.00  0.00    -0.166 F 
HETATM   22  F2  UNL     1     -10.125 -12.100 -17.144  1.00  0.00    -0.166 F 
HETATM   23  F3  UNL     1     -11.094 -10.134 -17.083  1.00  0.00    -0.166 F 
ENDBRANCH  10  20
BRANCH  13  24
HETATM   24  C12 UNL     1      -6.780 -10.887 -20.409  1.00  0.00    -0.024 C 
HETATM   25  C13 UNL     1      -7.110  -9.851 -21.497  1.00  0.00     0.019 C 
HETATM   26  C14 UNL     1      -7.627 -12.147 -20.761  1.00  0.00     0.019 C 
HETATM   27  C15 UNL     1      -5.381 -11.231 -20.520  1.00  0.00     0.019 C 
ENDBRANCH  13  24
ENDBRANCH   1   4
TORSDOF 7
ENDMDL
MODEL 4
REMARK VINA RESULT: -8.356930438      2.822      6.247
REMARK  7 active torsions:
REMARK  status: ('A' for Active; 'I' for Inactive)
REMARK    1  A    between atoms: O1_2  and  C2_3 
REMARK    2  A    between atoms: C2_3  and  C3_4 
REMARK    3  A    between atoms: C3_4  and  C4_5 
REMARK    4  A    between atoms: C4_5  and  C5_6 
REMARK    5  A    between atoms: C8_11  and  C9_12 
REMARK    6  A    between atoms: C11_17  and  C12_18 
REMARK    7  A    between atoms: C18_24  and  N2_25 
ROOT
HETATM    1  N2  UNL     1      -5.602  -7.905 -18.768  1.00  0.00    -0.329 NA
HETATM    2  C19 UNL     1      -4.648  -7.049 -18.866  1.00  0.00     0.269 C 
HETATM    3  N3  UNL     1      -3.777  -6.348 -18.961  1.00  0.00    -0.156 NA
ENDROOT
BRANCH   1   4
HETATM    4  C18 UNL     1      -6.511  -8.698 -18.662  1.00  0.00     0.141 A 
HETATM    5  C5  UNL     1      -6.691  -9.663 -19.642  1.00  0.00    -0.000 A 
HETATM    6  C6  UNL     1      -7.696 -10.611 -19.435  1.00  0.00     0.099 A 
HETATM    7  N1  UNL     1      -8.421 -10.572 -18.338  1.00  0.00    -0.364 N 
HETATM    8  C7  UNL     1      -8.270  -9.654 -17.363  1.00  0.00     0.060 A 
ATOM      9  H1  UNL     1      -9.143 -11.282 -18.218  1.00  0.00     0.165 HD
HETATM   10  C8  UNL     1      -9.040  -9.779 -16.253  1.00  0.00     0.076 A 
HETATM   11  C17 UNL     1      -7.310  -8.673 -17.495  1.00  0.00     0.034 A 
HETATM   12  C10 UNL     1      -8.839  -8.823 -15.221  1.00  0.00     0.026 A 
HETATM   13  C11 UNL     1      -7.908  -7.808 -15.346  1.00  0.00    -0.049 A 
HETATM   14  C16 UNL     1      -7.130  -7.737 -16.487  1.00  0.00     0.025 A 
BRANCH   5  15
HETATM   15  C4  UNL     1      -5.846  -9.857 -20.804  1.00  0.00     0.045 C 
BRANCH  15  16
HETATM   16  C3  UNL     1      -5.903 -11.230 -21.499  1.00  0.00     0.031 C 
BRANCH  16  17
HETATM   17  C2  UNL     1      -6.327 -10.836 -22.946  1.00  0.00     0.167 C 
BRANCH  17  18
HETATM   18  O1  UNL     1      -7.687 -10.958 -23.076  1.00  0.00    -0.396 OA
HETATM   19  C1  UNL     1      -8.116 -12.238 -22.873  1.00  0.00     0.201 C 
ENDBRANCH  17  18
ENDBRANCH  16  17
ENDBRANCH  15  16
ENDBRANCH   5  15
BRANCH  10  20
HETATM   20  C9  UNL     1     -10.066 -10.814 -15.974  1.00  0.00     0.419 C 
HETATM   21  F1  UNL     1      -9.592 -12.101 -16.002  1.00  0.00    -0.166 F 
HETATM   22  F2  UNL     1     -11.140 -10.641 -16.865  1.00  0.00    -0.166 F 
HETATM   23  F3  UNL     1     -10.698 -10.568 -14.718  1.00  0.00    -0.166 F 
ENDBRANCH  10  20
BRANCH  13  24
HETATM   24  C12 UNL     1      -7.841  -6.712 -14.362  1.00  0.00    -0.024 C 
HETATM   25  C13 UNL     1      -8.838  -5.674 -14.906  1.00  0.00     0.019 C 
HETATM   26  C14 UNL     1      -6.452  -6.004 -14.377  1.00  0.00     0.019 C 
HETATM   27  C15 UNL     1      -8.191  -7.002 -12.990  1.00  0.00     0.019 C 
ENDBRANCH  13  24
ENDBRANCH   1   4
TORSDOF 7
ENDMDL
MODEL 5
REMARK VINA RESULT: -8.356152532      4.012      7.627
REMARK  7 active torsions:
REMARK  status: ('A' for Active; 'I' for Inactive)
REMARK    1  A    between atoms: O1_2  and  C2_3 
REMARK    2  A    between atoms: C2_3  and  C3_4 
REMARK    3  A    between atoms: C3_4  and  C4_5 
REMARK    4  A    between atoms: C4_5  and  C5_6 
REMARK    5  A    between atoms: C8_11  and  C9_12 
REMARK    6  A    between atoms: C11_17  and  C12_18 
REMARK    7  A    between atoms: C18_24  and  N2_25 
ROOT
HETATM    1  N2  UNL     1      -8.906 -10.371 -17.128  1.00  0.00    -0.329 NA
HETATM    2  C19 UNL     1      -9.921 -10.838 -16.492  1.00  0.00     0.269 C 
HETATM    3  N3  UNL     1     -10.779 -11.301 -15.938  1.00  0.00    -0.156 NA
ENDROOT
BRANCH   1   4
HETATM    4  C18 UNL     1      -7.964  -9.915 -17.736  1.00  0.00     0.141 A 
HETATM    5  C5  UNL     1      -7.499 -10.573 -18.865  1.00  0.00    -0.000 A 
HETATM    6  C6  UNL     1      -6.468  -9.967 -19.587  1.00  0.00     0.099 A 
HETATM    7  N1  UNL     1      -5.984  -8.809 -19.193  1.00  0.00    -0.364 N 
HETATM    8  C7  UNL     1      -6.414  -8.137 -18.106  1.00  0.00     0.060 A 
ATOM      9  H1  UNL     1      -5.234  -8.392 -19.745  1.00  0.00     0.165 HD
HETATM   10  C8  UNL     1      -5.873  -6.918 -17.861  1.00  0.00     0.076 A 
HETATM   11  C17 UNL     1      -7.419  -8.674 -17.330  1.00  0.00     0.034 A 
HETATM   12  C10 UNL     1      -6.367  -6.212 -16.732  1.00  0.00     0.026 A 
HETATM   13  C11 UNL     1      -7.348  -6.745 -15.916  1.00  0.00    -0.049 A 
HETATM   14  C16 UNL     1      -7.886  -7.981 -16.222  1.00  0.00     0.025 A 
BRANCH   5  15
HETATM   15  C4  UNL     1      -8.073 -11.774 -19.440  1.00  0.00     0.045 C 
BRANCH  15  16
HETATM   16  C3  UNL     1      -7.618 -12.167 -20.858  1.00  0.00     0.031 C 
BRANCH  16  17
HETATM   17  C2  UNL     1      -7.712 -13.722 -20.802  1.00  0.00     0.167 C 
BRANCH  17  18
HETATM   18  O1  UNL     1      -6.510 -14.269 -21.174  1.00  0.00    -0.396 OA
HETATM   19  C1  UNL     1      -5.741 -13.397 -21.889  1.00  0.00     0.201 C 
ENDBRANCH  17  18
ENDBRANCH  16  17
ENDBRANCH  15  16
ENDBRANCH   5  15
BRANCH  10  20
HETATM   20  C9  UNL     1      -4.827  -6.216 -18.647  1.00  0.00     0.419 C 
HETATM   21  F1  UNL     1      -3.602  -6.833 -18.635  1.00  0.00    -0.166 F 
HETATM   22  F2  UNL     1      -4.739  -4.885 -18.199  1.00  0.00    -0.166 F 
HETATM   23  F3  UNL     1      -5.254  -6.032 -19.996  1.00  0.00    -0.166 F 
ENDBRANCH  10  20
BRANCH  13  24
HETATM   24  C12 UNL     1      -7.716  -6.097 -14.644  1.00  0.00    -0.024 C 
HETATM   25  C13 UNL     1      -8.700  -4.993 -15.070  1.00  0.00     0.019 C 
HETATM   26  C14 UNL     1      -6.506  -5.353 -14.001  1.00  0.00     0.019 C 
HETATM   27  C15 UNL     1      -8.351  -6.902 -13.625  1.00  0.00     0.019 C 
ENDBRANCH  13  24
ENDBRANCH   1   4
TORSDOF 7
ENDMDL
