MODEL 1
REMARK VINA RESULT: -6.014188346      0.000      0.000
REMARK  3 active torsions:
REMARK  status: ('A' for Active; 'I' for Inactive)
REMARK    1  A    between atoms: O1_1  and  N1_3 
REMARK    2  A    between atoms: N1_3  and  N2_5 
REMARK    3  A    between atoms: C1_9  and  S1_10 
ROOT
HETATM    1  N2  UNL     1     -13.600   1.051 -22.319  1.00  0.00    -0.147 N 
HETATM    2  N3  UNL     1     -13.306   2.092 -23.088  1.00  0.00     0.005 NA
HETATM    3  N4  UNL     1     -12.151   1.857 -23.686  1.00  0.00    -0.267 N 
ATOM      4  H4  UNL     1     -11.689   2.494 -24.334  1.00  0.00     0.185 HD
HETATM    5  C1  UNL     1     -11.671   0.651 -23.314  1.00  0.00     0.205 A 
HETATM    6  C2  UNL     1     -12.610   0.148 -22.439  1.00  0.00     0.183 A 
HETATM    7  S2  UNL     1     -12.537  -1.292 -21.680  1.00  0.00    -0.054 SA
ENDROOT
BRANCH   1   8
HETATM    8  N1  UNL     1     -14.743   0.924 -21.526  1.00  0.00    -0.189 N 
ATOM      9  H1  UNL     1     -15.214   0.022 -21.447  1.00  0.00     0.217 HD
BRANCH   8  10
HETATM   10  O1  UNL     1     -15.186   1.919 -20.915  1.00  0.00    -0.273 OA
ATOM     11  H1  UNL     1     -15.430   1.838 -20.000  1.00  0.00     0.246 HD
ENDBRANCH   8  10
ENDBRANCH   1   8
BRANCH   5  12
HETATM   12  S1  UNL     1     -10.199  -0.153 -23.794  1.00  0.00     0.159 S 
HETATM   13  O2  UNL     1      -9.232  -0.063 -22.636  1.00  0.00    -0.590 OA
HETATM   14  O3  UNL     1     -10.430  -1.580 -24.185  1.00  0.00    -0.590 OA
HETATM   15  O4  UNL     1      -9.520   0.637 -25.097  1.00  0.00    -0.590 OA
ENDBRANCH   5  12
TORSDOF 3
ENDMDL
MODEL 2
REMARK VINA RESULT: -6.001318091      0.140      1.295
REMARK  3 active torsions:
REMARK  status: ('A' for Active; 'I' for Inactive)
REMARK    1  A    between atoms: O1_1  and  N1_3 
REMARK    2  A    between atoms: N1_3  and  N2_5 
REMARK    3  A    between atoms: C1_9  and  S1_10 
ROOT
HETATM    1  N2  UNL     1     -13.679   1.117 -22.280  1.00  0.00    -0.147 N 
HETATM    2  N3  UNL     1     -13.394   2.165 -23.041  1.00  0.00     0.005 NA
HETATM    3  N4  UNL     1     -12.236   1.944 -23.640  1.00  0.00    -0.267 N 
ATOM      4  H4  UNL     1     -11.779   2.590 -24.284  1.00  0.00     0.185 HD
HETATM    5  C1  UNL     1     -11.747   0.740 -23.278  1.00  0.00     0.205 A 
HETATM    6  C2  UNL     1     -12.682   0.223 -22.407  1.00  0.00     0.183 A 
HETATM    7  S2  UNL     1     -12.598  -1.222 -21.658  1.00  0.00    -0.054 SA
ENDROOT
BRANCH   1   8
HETATM    8  N1  UNL     1     -14.822   0.974 -21.488  1.00  0.00    -0.189 N 
ATOM      9  H1  UNL     1     -15.330   0.090 -21.477  1.00  0.00     0.217 HD
BRANCH   8  10
HETATM   10  O1  UNL     1     -15.217   1.934 -20.794  1.00  0.00    -0.273 OA
ATOM     11  H1  UNL     1     -16.106   2.254 -20.897  1.00  0.00     0.246 HD
ENDBRANCH   8  10
ENDBRANCH   1   8
BRANCH   5  12
HETATM   12  S1  UNL     1     -10.268  -0.049 -23.763  1.00  0.00     0.159 S 
HETATM   13  O2  UNL     1      -9.786   0.624 -25.027  1.00  0.00    -0.590 OA
HETATM   14  O3  UNL     1      -9.217   0.004 -22.697  1.00  0.00    -0.590 OA
HETATM   15  O4  UNL     1     -10.570  -1.652 -24.113  1.00  0.00    -0.590 OA
ENDBRANCH   5  12
TORSDOF 3
ENDMDL
MODEL 3
REMARK VINA RESULT: -5.924071815      3.173      3.682
REMARK  3 active torsions:
REMARK  status: ('A' for Active; 'I' for Inactive)
REMARK    1  A    between atoms: O1_1  and  N1_3 
REMARK    2  A    between atoms: N1_3  and  N2_5 
REMARK    3  A    between atoms: C1_9  and  S1_10 
ROOT
HETATM    1  N2  UNL     1     -12.841  -1.678 -20.894  1.00  0.00    -0.147 N 
HETATM    2  N3  UNL     1     -12.628  -2.736 -20.124  1.00  0.00     0.005 NA
HETATM    3  N4  UNL     1     -11.438  -3.233 -20.417  1.00  0.00    -0.267 N 
ATOM      4  H4  UNL     1     -11.021  -4.051 -19.973  1.00  0.00     0.185 HD
HETATM    5  C1  UNL     1     -10.854  -2.501 -21.388  1.00  0.00     0.205 A 
HETATM    6  C2  UNL     1     -11.765  -1.509 -21.683  1.00  0.00     0.183 A 
HETATM    7  S2  UNL     1     -11.574  -0.333 -22.794  1.00  0.00    -0.054 SA
ENDROOT
BRANCH   1   8
HETATM    8  N1  UNL     1     -13.989  -0.882 -20.881  1.00  0.00    -0.189 N 
ATOM      9  H1  UNL     1     -14.071  -0.089 -21.517  1.00  0.00     0.217 HD
BRANCH   8  10
HETATM   10  O1  UNL     1     -14.916  -1.145 -20.086  1.00  0.00    -0.273 OA
ATOM     11  H1  UNL     1     -15.413  -0.437 -19.692  1.00  0.00     0.246 HD
ENDBRANCH   8  10
ENDBRANCH   1   8
BRANCH   5  12
HETATM   12  S1  UNL     1      -9.297  -2.706 -22.148  1.00  0.00     0.159 S 
HETATM   13  O2  UNL     1      -8.716  -4.010 -21.653  1.00  0.00    -0.590 OA
HETATM   14  O3  UNL     1      -9.386  -2.696 -23.644  1.00  0.00    -0.590 OA
HETATM   15  O4  UNL     1      -8.273  -1.474 -21.684  1.00  0.00    -0.590 OA
ENDBRANCH   5  12
TORSDOF 3
ENDMDL
MODEL 4
REMARK VINA RESULT: -5.874368746      3.141      3.829
REMARK  3 active torsions:
REMARK  status: ('A' for Active; 'I' for Inactive)
REMARK    1  A    between atoms: O1_1  and  N1_3 
REMARK    2  A    between atoms: N1_3  and  N2_5 
REMARK    3  A    between atoms: C1_9  and  S1_10 
ROOT
HETATM    1  N2  UNL     1     -12.913  -1.652 -20.901  1.00  0.00    -0.147 N 
HETATM    2  N3  UNL     1     -12.698  -2.711 -20.132  1.00  0.00     0.005 NA
HETATM    3  N4  UNL     1     -11.495  -3.188 -20.405  1.00  0.00    -0.267 N 
ATOM      4  H4  UNL     1     -11.074  -4.002 -19.957  1.00  0.00     0.185 HD
HETATM    5  C1  UNL     1     -10.904  -2.442 -21.362  1.00  0.00     0.205 A 
HETATM    6  C2  UNL     1     -11.825  -1.462 -21.668  1.00  0.00     0.183 A 
HETATM    7  S2  UNL     1     -11.631  -0.277 -22.770  1.00  0.00    -0.054 SA
ENDROOT
BRANCH   1   8
HETATM    8  N1  UNL     1     -14.073  -0.873 -20.904  1.00  0.00    -0.189 N 
ATOM      9  H1  UNL     1     -14.178  -0.113 -21.576  1.00  0.00     0.217 HD
BRANCH   8  10
HETATM   10  O1  UNL     1     -14.981  -1.112 -20.081  1.00  0.00    -0.273 OA
ATOM     11  H1  UNL     1     -15.878  -0.876 -20.289  1.00  0.00     0.246 HD
ENDBRANCH   8  10
ENDBRANCH   1   8
BRANCH   5  12
HETATM   12  S1  UNL     1      -9.330  -2.619 -22.093  1.00  0.00     0.159 S 
HETATM   13  O2  UNL     1      -9.522  -2.617 -23.592  1.00  0.00    -0.590 OA
HETATM   14  O3  UNL     1      -8.382  -1.536 -21.676  1.00  0.00    -0.590 OA
HETATM   15  O4  UNL     1      -8.665  -4.084 -21.658  1.00  0.00    -0.590 OA
ENDBRANCH   5  12
TORSDOF 3
ENDMDL
MODEL 5
REMARK VINA RESULT: -5.874045648      3.267      3.729
REMARK  3 active torsions:
REMARK  status: ('A' for Active; 'I' for Inactive)
REMARK    1  A    between atoms: O1_1  and  N1_3 
REMARK    2  A    between atoms: N1_3  and  N2_5 
REMARK    3  A    between atoms: C1_9  and  S1_10 
ROOT
HETATM    1  N2  UNL     1     -12.850  -1.744 -20.851  1.00  0.00    -0.147 N 
HETATM    2  N3  UNL     1     -12.680  -2.787 -20.050  1.00  0.00     0.005 NA
HETATM    3  N4  UNL     1     -11.488  -3.307 -20.289  1.00  0.00    -0.267 N 
ATOM      4  H4  UNL     1     -11.100  -4.121 -19.812  1.00  0.00     0.185 HD
HETATM    5  C1  UNL     1     -10.860  -2.606 -21.255  1.00  0.00     0.205 A 
HETATM    6  C2  UNL     1     -11.744  -1.608 -21.605  1.00  0.00     0.183 A 
HETATM    7  S2  UNL     1     -11.497  -0.461 -22.735  1.00  0.00    -0.054 SA
ENDROOT
BRANCH   1   8
HETATM    8  N1  UNL     1     -13.986  -0.931 -20.896  1.00  0.00    -0.189 N 
ATOM      9  H1  UNL     1     -14.033  -0.152 -21.553  1.00  0.00     0.217 HD
BRANCH   8  10
HETATM   10  O1  UNL     1     -14.943  -1.162 -20.128  1.00  0.00    -0.273 OA
ATOM     11  H1  UNL     1     -14.968  -0.754 -19.271  1.00  0.00     0.246 HD
ENDBRANCH   8  10
ENDBRANCH   1   8
BRANCH   5  12
HETATM   12  S1  UNL     1      -9.280  -2.851 -21.955  1.00  0.00     0.159 S 
HETATM   13  O2  UNL     1      -8.400  -1.708 -21.504  1.00  0.00    -0.590 OA
HETATM   14  O3  UNL     1      -8.683  -4.169 -21.567  1.00  0.00    -0.590 OA
HETATM   15  O4  UNL     1      -9.383  -2.799 -23.619  1.00  0.00    -0.590 OA
ENDBRANCH   5  12
TORSDOF 3
ENDMDL
