MODEL 1
REMARK VINA RESULT: -6.255924726      0.000      0.000
REMARK  3 active torsions:
REMARK  status: ('A' for Active; 'I' for Inactive)
REMARK    1  A    between atoms: C2_2  and  C3_3 
REMARK    2  A    between atoms: C3_3  and  C4_4 
REMARK    3  A    between atoms: C4_4  and  N1_5 
REMARK       I    between atoms: N1_5  and  C5_7 
REMARK       I    between atoms: C5_7  and  N2_9 
ROOT
HETATM    1  N1  UNL     1      -3.844  -4.932  17.295  1.00  0.00    -0.343 N 
ATOM      2  H1  UNL     1      -4.577  -4.224  17.338  1.00  0.00     0.164 HD
HETATM    3  C5  UNL     1      -4.265  -6.279  17.403  1.00  0.00     0.318 C 
HETATM    4  O1  UNL     1      -3.376  -7.166  17.348  1.00  0.00    -0.247 OA
HETATM    5  N2  UNL     1      -5.635  -6.626  17.566  1.00  0.00    -0.334 N 
HETATM    6  C6  UNL     1      -6.881  -5.895  17.666  1.00  0.00     0.129 C 
HETATM    7  C7  UNL     1      -7.686  -7.159  17.500  1.00  0.00     0.040 C 
HETATM    8  C8  UNL     1      -6.368  -7.868  17.702  1.00  0.00     0.129 C 
ENDROOT
BRANCH   1   9
HETATM    9  C4  UNL     1      -2.515  -4.456  17.135  1.00  0.00     0.128 C 
BRANCH   9  10
HETATM   10  C3  UNL     1      -2.397  -3.581  15.911  1.00  0.00     0.046 C 
BRANCH  10  11
HETATM   11  C2  UNL     1      -3.655  -2.776  15.713  1.00  0.00    -0.035 C 
HETATM   12  C1  UNL     1      -3.655  -1.487  16.018  1.00  0.00     0.007 C 
ENDBRANCH  10  11
ENDBRANCH   9  10
ENDBRANCH   1   9
TORSDOF 3
ENDMDL
MODEL 2
REMARK VINA RESULT: -6.086465910      1.040      4.861
REMARK  3 active torsions:
REMARK  status: ('A' for Active; 'I' for Inactive)
REMARK    1  A    between atoms: C2_2  and  C3_3 
REMARK    2  A    between atoms: C3_3  and  C4_4 
REMARK    3  A    between atoms: C4_4  and  N1_5 
REMARK       I    between atoms: N1_5  and  C5_7 
REMARK       I    between atoms: C5_7  and  N2_9 
ROOT
HETATM    1  N1  UNL     1      -4.556  -5.758  17.349  1.00  0.00    -0.343 N 
ATOM      2  H1  UNL     1      -5.379  -5.160  17.423  1.00  0.00     0.164 HD
HETATM    3  C5  UNL     1      -3.416  -5.187  16.735  1.00  0.00     0.318 C 
HETATM    4  O1  UNL     1      -2.391  -5.908  16.640  1.00  0.00    -0.247 OA
HETATM    5  N2  UNL     1      -3.418  -3.851  16.244  1.00  0.00    -0.334 N 
HETATM    6  C6  UNL     1      -4.384  -2.773  16.189  1.00  0.00     0.129 C 
HETATM    7  C7  UNL     1      -3.318  -1.782  15.794  1.00  0.00     0.040 C 
HETATM    8  C8  UNL     1      -2.448  -2.999  15.588  1.00  0.00     0.129 C 
ENDROOT
BRANCH   1   9
HETATM    9  C4  UNL     1      -4.683  -7.073  17.873  1.00  0.00     0.128 C 
BRANCH   9  10
HETATM   10  C3  UNL     1      -6.091  -7.589  17.707  1.00  0.00     0.046 C 
BRANCH  10  11
HETATM   11  C2  UNL     1      -7.074  -6.448  17.677  1.00  0.00    -0.035 C 
HETATM   12  C1  UNL     1      -8.372  -6.710  17.675  1.00  0.00     0.007 C 
ENDBRANCH  10  11
ENDBRANCH   9  10
ENDBRANCH   1   9
TORSDOF 3
ENDMDL
MODEL 3
REMARK VINA RESULT: -5.857602161      1.707      5.171
REMARK  3 active torsions:
REMARK  status: ('A' for Active; 'I' for Inactive)
REMARK    1  A    between atoms: C2_2  and  C3_3 
REMARK    2  A    between atoms: C3_3  and  C4_4 
REMARK    3  A    between atoms: C4_4  and  N1_5 
REMARK       I    between atoms: N1_5  and  C5_7 
REMARK       I    between atoms: C5_7  and  N2_9 
ROOT
HETATM    1  N1  UNL     1      -4.432  -5.578  17.094  1.00  0.00    -0.343 N 
ATOM      2  H1  UNL     1      -4.682  -5.259  16.158  1.00  0.00     0.164 HD
HETATM    3  C5  UNL     1      -3.065  -5.483  17.447  1.00  0.00     0.318 C 
HETATM    4  O1  UNL     1      -2.739  -5.867  18.598  1.00  0.00    -0.247 OA
HETATM    5  N2  UNL     1      -2.090  -4.973  16.542  1.00  0.00    -0.334 N 
HETATM    6  C6  UNL     1      -2.107  -4.459  15.189  1.00  0.00     0.129 C 
HETATM    7  C7  UNL     1      -0.698  -3.939  15.324  1.00  0.00     0.040 C 
HETATM    8  C8  UNL     1      -0.660  -4.753  16.596  1.00  0.00     0.129 C 
ENDROOT
BRANCH   1   9
HETATM    9  C4  UNL     1      -5.495  -6.068  17.899  1.00  0.00     0.128 C 
BRANCH   9  10
HETATM   10  C3  UNL     1      -5.744  -7.533  17.634  1.00  0.00     0.046 C 
BRANCH  10  11
HETATM   11  C2  UNL     1      -7.189  -7.769  17.279  1.00  0.00    -0.035 C 
HETATM   12  C1  UNL     1      -8.094  -6.858  17.604  1.00  0.00     0.007 C 
ENDBRANCH  10  11
ENDBRANCH   9  10
ENDBRANCH   1   9
TORSDOF 3
ENDMDL
MODEL 4
REMARK VINA RESULT: -5.672390406      0.888      4.966
REMARK  3 active torsions:
REMARK  status: ('A' for Active; 'I' for Inactive)
REMARK    1  A    between atoms: C2_2  and  C3_3 
REMARK    2  A    between atoms: C3_3  and  C4_4 
REMARK    3  A    between atoms: C4_4  and  N1_5 
REMARK       I    between atoms: N1_5  and  C5_7 
REMARK       I    between atoms: C5_7  and  N2_9 
ROOT
HETATM    1  N1  UNL     1      -5.555  -6.517  17.270  1.00  0.00    -0.343 N 
ATOM      2  H1  UNL     1      -6.236  -5.857  16.897  1.00  0.00     0.164 HD
HETATM    3  C5  UNL     1      -4.205  -6.091  17.276  1.00  0.00     0.318 C 
HETATM    4  O1  UNL     1      -3.351  -6.890  17.735  1.00  0.00    -0.247 OA
HETATM    5  N2  UNL     1      -3.820  -4.811  16.785  1.00  0.00    -0.334 N 
HETATM    6  C6  UNL     1      -4.510  -3.677  16.207  1.00  0.00     0.129 C 
HETATM    7  C7  UNL     1      -3.285  -2.808  16.346  1.00  0.00     0.040 C 
HETATM    8  C8  UNL     1      -2.566  -4.099  16.656  1.00  0.00     0.129 C 
ENDROOT
BRANCH   1   9
HETATM    9  C4  UNL     1      -6.065  -7.763  17.724  1.00  0.00     0.128 C 
BRANCH   9  10
HETATM   10  C3  UNL     1      -7.534  -7.895  17.406  1.00  0.00     0.046 C 
BRANCH  10  11
HETATM   11  C2  UNL     1      -8.258  -6.607  17.699  1.00  0.00    -0.035 C 
HETATM   12  C1  UNL     1      -9.525  -6.647  18.085  1.00  0.00     0.007 C 
ENDBRANCH  10  11
ENDBRANCH   9  10
ENDBRANCH   1   9
TORSDOF 3
ENDMDL
MODEL 5
REMARK VINA RESULT: -5.590318024      1.372      1.519
REMARK  3 active torsions:
REMARK  status: ('A' for Active; 'I' for Inactive)
REMARK    1  A    between atoms: C2_2  and  C3_3 
REMARK    2  A    between atoms: C3_3  and  C4_4 
REMARK    3  A    between atoms: C4_4  and  N1_5 
REMARK       I    between atoms: N1_5  and  C5_7 
REMARK       I    between atoms: C5_7  and  N2_9 
ROOT
HETATM    1  N1  UNL     1      -5.379  -5.459  16.855  1.00  0.00    -0.343 N 
ATOM      2  H1  UNL     1      -6.133  -4.946  16.398  1.00  0.00     0.164 HD
HETATM    3  C5  UNL     1      -5.686  -6.768  17.296  1.00  0.00     0.318 C 
HETATM    4  O1  UNL     1      -4.768  -7.417  17.857  1.00  0.00    -0.247 OA
HETATM    5  N2  UNL     1      -6.978  -7.337  17.115  1.00  0.00    -0.334 N 
HETATM    6  C6  UNL     1      -8.228  -6.896  16.531  1.00  0.00     0.129 C 
HETATM    7  C7  UNL     1      -8.791  -8.294  16.577  1.00  0.00     0.040 C 
HETATM    8  C8  UNL     1      -7.593  -8.608  17.440  1.00  0.00     0.129 C 
ENDROOT
BRANCH   1   9
HETATM    9  C4  UNL     1      -4.138  -4.779  16.978  1.00  0.00     0.128 C 
BRANCH   9  10
HETATM   10  C3  UNL     1      -3.911  -3.847  15.813  1.00  0.00     0.046 C 
BRANCH  10  11
HETATM   11  C2  UNL     1      -4.158  -2.419  16.221  1.00  0.00    -0.035 C 
HETATM   12  C1  UNL     1      -3.386  -1.461  15.731  1.00  0.00     0.007 C 
ENDBRANCH  10  11
ENDBRANCH   9  10
ENDBRANCH   1   9
TORSDOF 3
ENDMDL
