MODEL 1
REMARK VINA RESULT: -7.931900576      0.000      0.000
REMARK  4 active torsions:
REMARK  status: ('A' for Active; 'I' for Inactive)
REMARK    1  A    between atoms: C4_4  and  C5_5 
REMARK    2  A    between atoms: N2_7  and  O1_8 
REMARK    3  A    between atoms: C10_20  and  O2_21 
REMARK    4  A    between atoms: C13_25  and  O3_26 
ROOT
HETATM    1  C5  UNL     1      12.144  17.685  39.020  1.00  0.00     0.197 C 
HETATM    2  N1  UNL     1      13.050  18.064  40.088  1.00  0.00    -0.116 NA
HETATM    3  N2  UNL     1      12.287  17.943  41.266  1.00  0.00    -0.070 NA
HETATM    4  C6  UNL     1      12.031  16.521  41.453  1.00  0.00     0.182 C 
HETATM    5  C7  UNL     1      13.199  15.828  42.045  1.00  0.00     0.083 C 
HETATM    6  C8  UNL     1      12.858  14.811  43.099  1.00  0.00     0.127 C 
HETATM    7  N3  UNL     1      11.789  15.320  43.944  1.00  0.00    -0.364 N 
ATOM      8  H3  UNL     1      11.857  15.297  44.961  1.00  0.00     0.162 HD
HETATM    9  C9  UNL     1      10.646  15.852  43.290  1.00  0.00     0.186 C 
HETATM   10  N4  UNL     1       9.371  15.752  43.949  1.00  0.00    -0.064 NA
HETATM   11  N5  UNL     1      10.791  16.394  42.151  1.00  0.00    -0.331 N 
ATOM     12  H5  UNL     1       9.957  16.769  41.700  1.00  0.00     0.165 HD
HETATM   13  S1  UNL     1      11.769  16.009  39.694  1.00  0.00    -0.090 SA
ENDROOT
BRANCH   1  14
HETATM   14  C4  UNL     1      12.689  17.678  37.691  1.00  0.00     0.007 A 
HETATM   15  C3  UNL     1      13.650  16.689  37.407  1.00  0.00     0.022 A 
HETATM   16  C2  UNL     1      14.248  16.552  36.185  1.00  0.00    -0.028 A 
HETATM   17  C1  UNL     1      15.256  15.461  36.007  1.00  0.00     0.051 C 
HETATM   18  C13 UNL     1      13.925  17.397  35.154  1.00  0.00     0.080 A 
HETATM   19  C11 UNL     1      12.995  18.371  35.391  1.00  0.00     0.005 A 
HETATM   20  C10 UNL     1      12.389  18.503  36.647  1.00  0.00     0.083 A 
HETATM   21  C12 UNL     1      12.619  19.309  34.292  1.00  0.00     0.054 C 
BRANCH  18  22
HETATM   22  O3  UNL     1      14.551  17.228  33.930  1.00  0.00    -0.360 OA
ATOM     23  H3  UNL     1      14.502  16.381  33.502  1.00  0.00     0.217 HD
ENDBRANCH  18  22
BRANCH  20  24
HETATM   24  O2  UNL     1      11.461  19.507  36.816  1.00  0.00    -0.359 OA
ATOM     25  H2  UNL     1      11.754  20.406  36.915  1.00  0.00     0.217 HD
ENDBRANCH  20  24
ENDBRANCH   1  14
BRANCH   3  26
HETATM   26  O1  UNL     1      11.172  18.656  41.106  1.00  0.00    -0.294 OA
ATOM     27  H1  UNL     1      10.797  18.425  40.263  1.00  0.00     0.238 HD
ENDBRANCH   3  26
TORSDOF 4
ENDMDL
MODEL 2
REMARK VINA RESULT: -7.878825081      3.559      7.003
REMARK  4 active torsions:
REMARK  status: ('A' for Active; 'I' for Inactive)
REMARK    1  A    between atoms: C4_4  and  C5_5 
REMARK    2  A    between atoms: N2_7  and  O1_8 
REMARK    3  A    between atoms: C10_20  and  O2_21 
REMARK    4  A    between atoms: C13_25  and  O3_26 
ROOT
HETATM    1  C5  UNL     1      14.184  15.501  40.589  1.00  0.00     0.197 C 
HETATM    2  N1  UNL     1      15.195  16.322  39.947  1.00  0.00    -0.116 NA
HETATM    3  N2  UNL     1      15.962  15.418  39.186  1.00  0.00    -0.070 NA
HETATM    4  C6  UNL     1      15.100  14.942  38.112  1.00  0.00     0.182 C 
HETATM    5  C7  UNL     1      15.014  15.923  37.004  1.00  0.00     0.083 C 
HETATM    6  C8  UNL     1      15.056  15.321  35.627  1.00  0.00     0.127 C 
HETATM    7  N3  UNL     1      16.033  14.244  35.592  1.00  0.00    -0.364 N 
ATOM      8  H3  UNL     1      16.739  14.190  34.859  1.00  0.00     0.162 HD
HETATM    9  C9  UNL     1      15.962  13.272  36.625  1.00  0.00     0.186 C 
HETATM   10  N4  UNL     1      16.383  11.928  36.332  1.00  0.00    -0.064 NA
HETATM   11  N5  UNL     1      15.530  13.624  37.766  1.00  0.00    -0.331 N 
ATOM     12  H5  UNL     1      15.486  12.910  38.492  1.00  0.00     0.165 HD
HETATM   13  S1  UNL     1      13.493  14.816  39.021  1.00  0.00    -0.090 SA
ENDROOT
BRANCH   1  14
HETATM   14  C4  UNL     1      13.224  16.189  41.405  1.00  0.00     0.007 A 
HETATM   15  C3  UNL     1      12.524  15.414  42.349  1.00  0.00     0.022 A 
HETATM   16  C2  UNL     1      11.589  15.931  43.202  1.00  0.00    -0.028 A 
HETATM   17  C1  UNL     1      10.914  15.005  44.161  1.00  0.00     0.051 C 
HETATM   18  C13 UNL     1      11.285  17.269  43.171  1.00  0.00     0.080 A 
HETATM   19  C11 UNL     1      11.943  18.055  42.266  1.00  0.00     0.005 A 
HETATM   20  C10 UNL     1      12.899  17.514  41.397  1.00  0.00     0.083 A 
HETATM   21  C12 UNL     1      11.637  19.516  42.204  1.00  0.00     0.054 C 
BRANCH  18  22
HETATM   22  O3  UNL     1      10.332  17.758  44.049  1.00  0.00    -0.360 OA
ATOM     23  H3  UNL     1       9.727  18.425  43.745  1.00  0.00     0.217 HD
ENDBRANCH  18  22
BRANCH  20  24
HETATM   24  O2  UNL     1      13.523  18.364  40.510  1.00  0.00    -0.359 OA
ATOM     25  H2  UNL     1      14.390  18.150  40.184  1.00  0.00     0.217 HD
ENDBRANCH  20  24
ENDBRANCH   1  14
BRANCH   3  26
HETATM   26  O1  UNL     1      16.367  14.441  39.998  1.00  0.00    -0.294 OA
ATOM     27  H1  UNL     1      17.318  14.438  39.999  1.00  0.00     0.238 HD
ENDBRANCH   3  26
TORSDOF 4
ENDMDL
MODEL 3
REMARK VINA RESULT: -7.669837361      3.638      7.311
REMARK  4 active torsions:
REMARK  status: ('A' for Active; 'I' for Inactive)
REMARK    1  A    between atoms: C4_4  and  C5_5 
REMARK    2  A    between atoms: N2_7  and  O1_8 
REMARK    3  A    between atoms: C10_20  and  O2_21 
REMARK    4  A    between atoms: C13_25  and  O3_26 
ROOT
HETATM    1  C5  UNL     1      14.157  15.522  40.630  1.00  0.00     0.197 C 
HETATM    2  N1  UNL     1      15.000  16.505  39.974  1.00  0.00    -0.116 NA
HETATM    3  N2  UNL     1      15.825  15.754  39.114  1.00  0.00    -0.070 NA
HETATM    4  C6  UNL     1      14.960  15.217  38.071  1.00  0.00     0.182 C 
HETATM    5  C7  UNL     1      14.665  16.230  37.030  1.00  0.00     0.083 C 
HETATM    6  C8  UNL     1      14.689  15.707  35.620  1.00  0.00     0.127 C 
HETATM    7  N3  UNL     1      15.797  14.779  35.461  1.00  0.00    -0.364 N 
ATOM      8  H3  UNL     1      16.450  14.858  34.682  1.00  0.00     0.162 HD
HETATM    9  C9  UNL     1      15.931  13.757  36.437  1.00  0.00     0.186 C 
HETATM   10  N4  UNL     1      16.507  12.500  36.040  1.00  0.00    -0.064 NA
HETATM   11  N5  UNL     1      15.538  13.990  37.622  1.00  0.00    -0.331 N 
ATOM     12  H5  UNL     1      15.642  13.241  38.307  1.00  0.00     0.165 HD
HETATM   13  S1  UNL     1      13.454  14.826  39.072  1.00  0.00    -0.090 SA
ENDROOT
BRANCH   1  14
HETATM   14  C4  UNL     1      13.173  16.031  41.544  1.00  0.00     0.007 A 
HETATM   15  C3  UNL     1      12.883  17.406  41.461  1.00  0.00     0.022 A 
HETATM   16  C2  UNL     1      11.963  18.030  42.258  1.00  0.00    -0.028 A 
HETATM   17  C1  UNL     1      11.744  19.497  42.073  1.00  0.00     0.051 C 
HETATM   18  C13 UNL     1      11.263  17.319  43.198  1.00  0.00     0.080 A 
HETATM   19  C11 UNL     1      11.517  15.979  43.310  1.00  0.00     0.005 A 
HETATM   20  C10 UNL     1      12.462  15.351  42.489  1.00  0.00     0.083 A 
HETATM   21  C12 UNL     1      10.773  15.174  44.325  1.00  0.00     0.054 C 
BRANCH  18  22
HETATM   22  O3  UNL     1      10.339  17.983  43.988  1.00  0.00    -0.360 OA
ATOM     23  H3  UNL     1      10.008  18.825  43.698  1.00  0.00     0.217 HD
ENDBRANCH  18  22
BRANCH  20  24
HETATM   24  O2  UNL     1      12.669  13.999  42.657  1.00  0.00    -0.359 OA
ATOM     25  H2  UNL     1      12.961  13.669  43.498  1.00  0.00     0.217 HD
ENDBRANCH  20  24
ENDBRANCH   1  14
BRANCH   3  26
HETATM   26  O1  UNL     1      16.415  14.804  39.840  1.00  0.00    -0.294 OA
ATOM     27  H1  UNL     1      16.031  13.970  39.596  1.00  0.00     0.238 HD
ENDBRANCH   3  26
TORSDOF 4
ENDMDL
MODEL 4
REMARK VINA RESULT: -7.607743778      1.018      2.134
REMARK  4 active torsions:
REMARK  status: ('A' for Active; 'I' for Inactive)
REMARK    1  A    between atoms: C4_4  and  C5_5 
REMARK    2  A    between atoms: N2_7  and  O1_8 
REMARK    3  A    between atoms: C10_20  and  O2_21 
REMARK    4  A    between atoms: C13_25  and  O3_26 
ROOT
HETATM    1  C5  UNL     1      12.538  17.523  38.929  1.00  0.00     0.197 C 
HETATM    2  N1  UNL     1      13.474  17.802  40.003  1.00  0.00    -0.116 NA
HETATM    3  N2  UNL     1      12.681  17.852  41.167  1.00  0.00    -0.070 NA
HETATM    4  C6  UNL     1      12.202  16.496  41.403  1.00  0.00     0.182 C 
HETATM    5  C7  UNL     1      13.238  15.656  42.051  1.00  0.00     0.083 C 
HETATM    6  C8  UNL     1      12.724  14.751  43.136  1.00  0.00     0.127 C 
HETATM    7  N3  UNL     1      11.733  15.456  43.934  1.00  0.00    -0.364 N 
ATOM      8  H3  UNL     1      11.779  15.466  44.952  1.00  0.00     0.162 HD
HETATM    9  C9  UNL     1      10.699  16.130  43.233  1.00  0.00     0.186 C 
HETATM   10  N4  UNL     1       9.413  16.258  43.865  1.00  0.00    -0.064 NA
HETATM   11  N5  UNL     1      10.947  16.594  42.077  1.00  0.00    -0.331 N 
ATOM     12  H5  UNL     1      10.189  17.073  41.591  1.00  0.00     0.165 HD
HETATM   13  S1  UNL     1      11.894  15.956  39.661  1.00  0.00    -0.090 SA
ENDROOT
BRANCH   1  14
HETATM   14  C4  UNL     1      13.097  17.374  37.615  1.00  0.00     0.007 A 
HETATM   15  C3  UNL     1      12.674  18.296  36.639  1.00  0.00     0.022 A 
HETATM   16  C2  UNL     1      13.127  18.285  35.349  1.00  0.00    -0.028 A 
HETATM   17  C1  UNL     1      12.602  19.318  34.404  1.00  0.00     0.051 C 
HETATM   18  C13 UNL     1      14.041  17.348  34.941  1.00  0.00     0.080 A 
HETATM   19  C11 UNL     1      14.476  16.433  35.861  1.00  0.00     0.005 A 
HETATM   20  C10 UNL     1      14.004  16.454  37.180  1.00  0.00     0.083 A 
HETATM   21  C12 UNL     1      15.471  15.398  35.451  1.00  0.00     0.054 C 
BRANCH  18  22
HETATM   22  O3  UNL     1      14.478  17.367  33.626  1.00  0.00    -0.360 OA
ATOM     23  H3  UNL     1      14.159  16.702  33.027  1.00  0.00     0.217 HD
ENDBRANCH  18  22
BRANCH  20  24
HETATM   24  O2  UNL     1      14.484  15.502  38.053  1.00  0.00    -0.359 OA
ATOM     25  H2  UNL     1      14.710  14.638  37.730  1.00  0.00     0.217 HD
ENDBRANCH  20  24
ENDBRANCH   1  14
BRANCH   3  26
HETATM   26  O1  UNL     1      11.693  18.722  40.951  1.00  0.00    -0.294 OA
ATOM     27  H1  UNL     1      11.758  19.405  41.608  1.00  0.00     0.238 HD
ENDBRANCH   3  26
TORSDOF 4
ENDMDL
MODEL 5
REMARK VINA RESULT: -7.405307700      2.210      3.297
REMARK  4 active torsions:
REMARK  status: ('A' for Active; 'I' for Inactive)
REMARK    1  A    between atoms: C4_4  and  C5_5 
REMARK    2  A    between atoms: N2_7  and  O1_8 
REMARK    3  A    between atoms: C10_20  and  O2_21 
REMARK    4  A    between atoms: C13_25  and  O3_26 
ROOT
HETATM    1  C5  UNL     1      13.373  16.651  39.476  1.00  0.00     0.197 C 
HETATM    2  N1  UNL     1      12.553  15.593  40.038  1.00  0.00    -0.116 NA
HETATM    3  N2  UNL     1      12.170  16.069  41.307  1.00  0.00    -0.070 NA
HETATM    4  C6  UNL     1      11.265  17.188  41.075  1.00  0.00     0.182 C 
HETATM    5  C7  UNL     1       9.895  16.726  40.750  1.00  0.00     0.083 C 
HETATM    6  C8  UNL     1       8.794  17.516  41.400  1.00  0.00     0.127 C 
HETATM    7  N3  UNL     1       9.164  17.836  42.770  1.00  0.00    -0.364 N 
ATOM      8  H3  UNL     1       8.527  17.665  43.547  1.00  0.00     0.162 HD
HETATM    9  C9  UNL     1      10.452  18.398  42.978  1.00  0.00     0.186 C 
HETATM   10  N4  UNL     1      10.636  19.303  44.081  1.00  0.00    -0.064 NA
HETATM   11  N5  UNL     1      11.391  18.081  42.184  1.00  0.00    -0.331 N 
ATOM     12  H5  UNL     1      12.307  18.496  42.351  1.00  0.00     0.165 HD
HETATM   13  S1  UNL     1      12.079  17.961  39.604  1.00  0.00    -0.090 SA
ENDROOT
BRANCH   1  14
HETATM   14  C4  UNL     1      13.867  16.439  38.144  1.00  0.00     0.007 A 
HETATM   15  C3  UNL     1      13.379  17.301  37.144  1.00  0.00     0.022 A 
HETATM   16  C2  UNL     1      13.766  17.228  35.834  1.00  0.00    -0.028 A 
HETATM   17  C1  UNL     1      13.176  18.201  34.865  1.00  0.00     0.051 C 
HETATM   18  C13 UNL     1      14.675  16.283  35.430  1.00  0.00     0.080 A 
HETATM   19  C11 UNL     1      15.172  15.426  36.374  1.00  0.00     0.005 A 
HETATM   20  C10 UNL     1      14.768  15.511  37.712  1.00  0.00     0.083 A 
HETATM   21  C12 UNL     1      16.163  14.385  35.969  1.00  0.00     0.054 C 
BRANCH  18  22
HETATM   22  O3  UNL     1      15.044  16.238  34.096  1.00  0.00    -0.360 OA
ATOM     23  H3  UNL     1      15.454  15.450  33.760  1.00  0.00     0.217 HD
ENDBRANCH  18  22
BRANCH  20  24
HETATM   24  O2  UNL     1      15.308  14.615  38.609  1.00  0.00    -0.359 OA
ATOM     25  H2  UNL     1      16.221  14.694  38.860  1.00  0.00     0.217 HD
ENDBRANCH  20  24
ENDBRANCH   1  14
BRANCH   3  26
HETATM   26  O1  UNL     1      13.276  16.423  41.962  1.00  0.00    -0.294 OA
ATOM     27  H1  UNL     1      13.484  15.731  42.579  1.00  0.00     0.238 HD
ENDBRANCH   3  26
TORSDOF 4
ENDMDL
