MODEL 1
REMARK VINA RESULT: -6.487519302      0.000      0.000
REMARK  12 active torsions:
REMARK  status: ('A' for Active; 'I' for Inactive)
REMARK    1  A    between atoms: C2_2  and  N1_3 
REMARK       I    between atoms: N1_3  and  C3_5 
REMARK    2  A    between atoms: C3_5  and  C4_7 
REMARK    3  A    between atoms: C5_10  and  C6_11 
REMARK    4  A    between atoms: C6_11  and  C7_12 
REMARK    5  A    between atoms: C7_12  and  C8_13 
REMARK    6  A    between atoms: C8_13  and  C9_14 
REMARK    7  A    between atoms: C9_14  and  C10_15 
REMARK    8  A    between atoms: C10_15  and  N3_16 
REMARK    9  A    between atoms: C16_28  and  C17_29 
REMARK       I    between atoms: C17_29  and  N5_31 
REMARK   10  A    between atoms: C21_38  and  C22_39 
REMARK   11  A    between atoms: C22_39  and  C23_40 
REMARK   12  A    between atoms: C27_47  and  C28_48 
ROOT
HETATM    1  C4  UNL     1      -9.378  26.150   2.639  1.00  0.00     0.093 C 
HETATM    2  N2  UNL     1      -9.452  27.299   3.544  1.00  0.00    -0.344 N 
ATOM      3  H2  UNL     1     -10.191  27.927   3.228  1.00  0.00     0.167 HD
HETATM    4  C5  UNL     1      -8.871  27.821   4.668  1.00  0.00     0.084 C 
HETATM    5  N4  UNL     1      -7.747  28.493   4.770  1.00  0.00    -0.317 N 
ATOM      6  H4  UNL     1      -7.466  28.795   5.703  1.00  0.00     0.170 HD
HETATM    7  C11 UNL     1      -6.891  28.834   3.692  1.00  0.00     0.223 C 
HETATM    8  O2  UNL     1      -5.754  28.313   3.606  1.00  0.00    -0.273 OA
HETATM    9  C12 UNL     1      -7.406  29.832   2.677  1.00  0.00     0.103 C 
HETATM   10  C13 UNL     1      -6.350  30.235   1.714  1.00  0.00     0.009 C 
HETATM   11  C14 UNL     1      -6.033  29.232   0.642  1.00  0.00     0.003 C 
HETATM   12  C15 UNL     1      -6.888  29.399  -0.572  1.00  0.00     0.035 C 
HETATM   13  C16 UNL     1      -6.142  28.919  -1.827  1.00  0.00     0.176 C 
HETATM   14  N6  UNL     1      -5.309  27.797  -1.514  1.00  0.00    -0.346 N 
ATOM     15  H6  UNL     1      -4.390  28.013  -1.129  1.00  0.00     0.163 HD
HETATM   16  C20 UNL     1      -5.611  26.413  -1.676  1.00  0.00     0.241 C 
HETATM   17  O4  UNL     1      -4.649  25.591  -1.868  1.00  0.00    -0.271 OA
HETATM   18  C21 UNL     1      -6.971  25.808  -1.640  1.00  0.00     0.177 C 
HETATM   19  N7  UNL     1      -7.299  25.234  -0.364  1.00  0.00    -0.347 N 
ATOM     20  H7  UNL     1      -7.182  24.221  -0.353  1.00  0.00     0.163 HD
HETATM   21  C26 UNL     1      -7.731  25.722   0.840  1.00  0.00     0.229 C 
HETATM   22  O5  UNL     1      -6.915  25.629   1.836  1.00  0.00    -0.273 OA
HETATM   23  C27 UNL     1      -9.062  26.391   1.238  1.00  0.00     0.147 C 
ENDROOT
BRANCH   4  24
HETATM   24  C6  UNL     1      -9.661  27.753   6.001  1.00  0.00     0.076 C 
BRANCH  24  25
HETATM   25  C7  UNL     1      -9.614  26.351   6.464  1.00  0.00     0.007 C 
BRANCH  25  26
HETATM   26  C8  UNL     1      -8.265  25.830   6.913  1.00  0.00     0.002 C 
BRANCH  26  27
HETATM   27  C9  UNL     1      -8.051  24.524   6.163  1.00  0.00     0.027 C 
BRANCH  27  28
HETATM   28  C10 UNL     1      -6.938  24.558   5.157  1.00  0.00     0.229 C 
BRANCH  28  29
HETATM   29  N3  UNL     1      -7.131  23.600   4.103  1.00  0.00    -0.079 N 
ATOM     30  H33 UNL     1      -6.349  23.608   3.449  1.00  0.00     0.274 HD
ATOM     31  H32 UNL     1      -7.041  22.645   4.451  1.00  0.00     0.274 HD
ATOM     32  H31 UNL     1      -8.020  23.734   3.619  1.00  0.00     0.274 HD
ENDBRANCH  28  29
ENDBRANCH  27  28
ENDBRANCH  26  27
ENDBRANCH  25  26
ENDBRANCH  24  25
ENDBRANCH   4  24
BRANCH   1  33
HETATM   33  C3  UNL     1     -10.293  25.113   3.137  1.00  0.00     0.265 C 
HETATM   34  N1  UNL     1     -11.606  25.364   3.620  1.00  0.00    -0.356 N 
ATOM     35  H1  UNL     1     -11.965  26.319   3.627  1.00  0.00     0.162 HD
HETATM   36  O1  UNL     1      -9.949  23.869   3.210  1.00  0.00    -0.266 OA
BRANCH  34  37
HETATM   37  C2  UNL     1     -12.443  24.281   4.104  1.00  0.00     0.118 C 
HETATM   38  C1  UNL     1     -12.261  24.085   5.590  1.00  0.00     0.026 C 
ENDBRANCH  34  37
ENDBRANCH   1  33
BRANCH  23  39
HETATM   39  C28 UNL     1     -10.061  26.128   0.177  1.00  0.00     0.135 C 
HETATM   40 CL1  UNL     1     -11.610  26.910   0.287  1.00  0.00    -0.129 Cl
ENDBRANCH  23  39
BRANCH  18  41
HETATM   41  C22 UNL     1      -7.165  24.923  -2.805  1.00  0.00     0.038 C 
BRANCH  41  42
HETATM   42  C23 UNL     1      -7.941  25.249  -3.995  1.00  0.00    -0.020 C 
HETATM   43  C24 UNL     1      -7.569  24.132  -5.044  1.00  0.00     0.009 C 
HETATM   44  C25 UNL     1      -7.473  26.510  -4.759  1.00  0.00     0.009 C 
ENDBRANCH  41  42
ENDBRANCH  18  41
BRANCH  13  45
HETATM   45  C17 UNL     1      -5.301  30.076  -2.265  1.00  0.00     0.241 C 
HETATM   46  O3  UNL     1      -4.151  30.253  -1.777  1.00  0.00    -0.271 OA
HETATM   47  N5  UNL     1      -5.746  31.010  -3.220  1.00  0.00    -0.359 N 
HETATM   48  C18 UNL     1      -4.968  32.188  -3.544  1.00  0.00     0.152 C 
HETATM   49  C19 UNL     1      -6.997  30.843  -3.980  1.00  0.00     0.152 C 
ENDBRANCH  13  45
TORSDOF 12
ENDMDL
MODEL 2
REMARK VINA RESULT: -6.126295572      3.278      8.519
REMARK  12 active torsions:
REMARK  status: ('A' for Active; 'I' for Inactive)
REMARK    1  A    between atoms: C2_2  and  N1_3 
REMARK       I    between atoms: N1_3  and  C3_5 
REMARK    2  A    between atoms: C3_5  and  C4_7 
REMARK    3  A    between atoms: C5_10  and  C6_11 
REMARK    4  A    between atoms: C6_11  and  C7_12 
REMARK    5  A    between atoms: C7_12  and  C8_13 
REMARK    6  A    between atoms: C8_13  and  C9_14 
REMARK    7  A    between atoms: C9_14  and  C10_15 
REMARK    8  A    between atoms: C10_15  and  N3_16 
REMARK    9  A    between atoms: C16_28  and  C17_29 
REMARK       I    between atoms: C17_29  and  N5_31 
REMARK   10  A    between atoms: C21_38  and  C22_39 
REMARK   11  A    between atoms: C22_39  and  C23_40 
REMARK   12  A    between atoms: C27_47  and  C28_48 
ROOT
HETATM    1  C4  UNL     1      -6.505  27.419  -3.964  1.00  0.00     0.093 C 
HETATM    2  N2  UNL     1      -7.500  26.347  -3.889  1.00  0.00    -0.344 N 
ATOM      3  H2  UNL     1      -8.429  26.743  -4.036  1.00  0.00     0.167 HD
HETATM    4  C5  UNL     1      -7.615  24.998  -3.691  1.00  0.00     0.084 C 
HETATM    5  N4  UNL     1      -7.601  24.334  -2.557  1.00  0.00    -0.317 N 
ATOM      6  H4  UNL     1      -7.689  23.320  -2.609  1.00  0.00     0.170 HD
HETATM    7  C11 UNL     1      -7.475  24.911  -1.267  1.00  0.00     0.223 C 
HETATM    8  O2  UNL     1      -6.441  24.707  -0.589  1.00  0.00    -0.273 OA
HETATM    9  C12 UNL     1      -8.622  25.763  -0.766  1.00  0.00     0.103 C 
HETATM   10  C13 UNL     1      -8.441  26.148   0.657  1.00  0.00     0.009 C 
HETATM   11  C14 UNL     1      -7.448  27.246   0.910  1.00  0.00     0.003 C 
HETATM   12  C15 UNL     1      -8.067  28.604   0.855  1.00  0.00     0.035 C 
HETATM   13  C16 UNL     1      -7.303  29.583   1.760  1.00  0.00     0.176 C 
HETATM   14  N6  UNL     1      -5.903  29.279   1.754  1.00  0.00    -0.346 N 
ATOM     15  H6  UNL     1      -5.599  28.548   2.397  1.00  0.00     0.163 HD
HETATM   16  C20 UNL     1      -4.883  29.876   0.957  1.00  0.00     0.241 C 
HETATM   17  O4  UNL     1      -3.686  29.905   1.408  1.00  0.00    -0.271 OA
HETATM   18  C21 UNL     1      -5.073  30.483  -0.390  1.00  0.00     0.177 C 
HETATM   19  N7  UNL     1      -4.720  29.596  -1.463  1.00  0.00    -0.347 N 
ATOM     20  H7  UNL     1      -3.794  29.794  -1.842  1.00  0.00     0.163 HD
HETATM   21  C26 UNL     1      -5.330  28.548  -2.100  1.00  0.00     0.229 C 
HETATM   22  O5  UNL     1      -4.800  27.381  -1.945  1.00  0.00    -0.273 OA
HETATM   23  C27 UNL     1      -6.583  28.505  -2.997  1.00  0.00     0.147 C 
ENDROOT
BRANCH   4  24
HETATM   24  C6  UNL     1      -7.933  24.100  -4.916  1.00  0.00     0.076 C 
BRANCH  24  25
HETATM   25  C7  UNL     1      -6.772  23.209  -5.115  1.00  0.00     0.007 C 
BRANCH  25  26
HETATM   26  C8  UNL     1      -5.817  23.578  -6.231  1.00  0.00     0.002 C 
BRANCH  26  27
HETATM   27  C9  UNL     1      -4.573  22.730  -6.014  1.00  0.00     0.027 C 
BRANCH  27  28
HETATM   28  C10 UNL     1      -3.370  23.495  -5.547  1.00  0.00     0.229 C 
BRANCH  28  29
HETATM   29  N3  UNL     1      -3.728  24.618  -4.725  1.00  0.00    -0.079 N 
ATOM     30  H33 UNL     1      -2.981  24.849  -4.070  1.00  0.00     0.274 HD
ATOM     31  H32 UNL     1      -3.741  25.483  -5.267  1.00  0.00     0.274 HD
ATOM     32  H31 UNL     1      -4.614  24.473  -4.239  1.00  0.00     0.274 HD
ENDBRANCH  28  29
ENDBRANCH  27  28
ENDBRANCH  26  27
ENDBRANCH  25  26
ENDBRANCH  24  25
ENDBRANCH   4  24
BRANCH   1  33
HETATM   33  C3  UNL     1      -6.083  27.557  -5.365  1.00  0.00     0.265 C 
HETATM   34  N1  UNL     1      -6.834  28.227  -6.368  1.00  0.00    -0.356 N 
ATOM     35  H1  UNL     1      -7.727  28.656  -6.126  1.00  0.00     0.162 HD
HETATM   36  O1  UNL     1      -4.988  27.033  -5.809  1.00  0.00    -0.266 OA
BRANCH  34  37
HETATM   37  C2  UNL     1      -6.348  28.311  -7.734  1.00  0.00     0.118 C 
HETATM   38  C1  UNL     1      -5.797  29.686  -8.025  1.00  0.00     0.026 C 
ENDBRANCH  34  37
ENDBRANCH   1  33
BRANCH  23  39
HETATM   39  C28 UNL     1      -6.906  29.884  -3.427  1.00  0.00     0.135 C 
HETATM   40 CL1  UNL     1      -5.681  30.800  -4.254  1.00  0.00    -0.129 Cl
ENDBRANCH  23  39
BRANCH  18  41
HETATM   41  C22 UNL     1      -4.448  31.820  -0.437  1.00  0.00     0.038 C 
BRANCH  41  42
HETATM   42  C23 UNL     1      -3.550  32.297  -1.481  1.00  0.00    -0.020 C 
HETATM   43  C24 UNL     1      -2.152  32.468  -0.772  1.00  0.00     0.009 C 
HETATM   44  C25 UNL     1      -3.800  33.750  -1.950  1.00  0.00     0.009 C 
ENDBRANCH  41  42
ENDBRANCH  18  41
BRANCH  13  45
HETATM   45  C17 UNL     1      -7.863  29.388   3.133  1.00  0.00     0.241 C 
HETATM   46  O3  UNL     1      -7.320  28.585   3.939  1.00  0.00    -0.271 OA
HETATM   47  N5  UNL     1      -9.010  30.072   3.581  1.00  0.00    -0.359 N 
HETATM   48  C18 UNL     1      -9.607  29.783   4.867  1.00  0.00     0.152 C 
HETATM   49  C19 UNL     1      -9.655  31.146   2.806  1.00  0.00     0.152 C 
ENDBRANCH  13  45
TORSDOF 12
ENDMDL
MODEL 3
REMARK VINA RESULT: -6.084107833      3.445      9.092
REMARK  12 active torsions:
REMARK  status: ('A' for Active; 'I' for Inactive)
REMARK    1  A    between atoms: C2_2  and  N1_3 
REMARK       I    between atoms: N1_3  and  C3_5 
REMARK    2  A    between atoms: C3_5  and  C4_7 
REMARK    3  A    between atoms: C5_10  and  C6_11 
REMARK    4  A    between atoms: C6_11  and  C7_12 
REMARK    5  A    between atoms: C7_12  and  C8_13 
REMARK    6  A    between atoms: C8_13  and  C9_14 
REMARK    7  A    between atoms: C9_14  and  C10_15 
REMARK    8  A    between atoms: C10_15  and  N3_16 
REMARK    9  A    between atoms: C16_28  and  C17_29 
REMARK       I    between atoms: C17_29  and  N5_31 
REMARK   10  A    between atoms: C21_38  and  C22_39 
REMARK   11  A    between atoms: C22_39  and  C23_40 
REMARK   12  A    between atoms: C27_47  and  C28_48 
ROOT
HETATM    1  C4  UNL     1      -5.946  28.518  -4.505  1.00  0.00     0.093 C 
HETATM    2  N2  UNL     1      -6.305  27.108  -4.664  1.00  0.00    -0.344 N 
ATOM      3  H2  UNL     1      -7.281  27.042  -4.956  1.00  0.00     0.167 HD
HETATM    4  C5  UNL     1      -5.784  25.847  -4.556  1.00  0.00     0.084 C 
HETATM    5  N4  UNL     1      -5.608  25.125  -3.472  1.00  0.00    -0.317 N 
ATOM      6  H4  UNL     1      -5.190  24.202  -3.588  1.00  0.00     0.170 HD
HETATM    7  C11 UNL     1      -5.951  25.522  -2.154  1.00  0.00     0.223 C 
HETATM    8  O2  UNL     1      -5.048  25.735  -1.311  1.00  0.00    -0.273 OA
HETATM    9  C12 UNL     1      -7.421  25.671  -1.827  1.00  0.00     0.103 C 
HETATM   10  C13 UNL     1      -7.642  25.909  -0.378  1.00  0.00     0.009 C 
HETATM   11  C14 UNL     1      -7.342  27.299   0.104  1.00  0.00     0.003 C 
HETATM   12  C15 UNL     1      -8.522  28.209   0.005  1.00  0.00     0.035 C 
HETATM   13  C16 UNL     1      -8.452  29.304   1.080  1.00  0.00     0.176 C 
HETATM   14  N6  UNL     1      -7.092  29.689   1.312  1.00  0.00    -0.346 N 
ATOM     15  H6  UNL     1      -6.565  29.106   1.963  1.00  0.00     0.163 HD
HETATM   16  C20 UNL     1      -6.386  30.788   0.743  1.00  0.00     0.241 C 
HETATM   17  O4  UNL     1      -5.423  31.311   1.405  1.00  0.00    -0.271 OA
HETATM   18  C21 UNL     1      -6.659  31.406  -0.584  1.00  0.00     0.177 C 
HETATM   19  N7  UNL     1      -5.782  30.932  -1.618  1.00  0.00    -0.347 N 
ATOM     20  H7  UNL     1      -5.023  31.584  -1.813  1.00  0.00     0.163 HD
HETATM   21  C26 UNL     1      -5.722  29.812  -2.406  1.00  0.00     0.229 C 
HETATM   22  O5  UNL     1      -4.724  29.016  -2.215  1.00  0.00    -0.273 OA
HETATM   23  C27 UNL     1      -6.666  29.309  -3.516  1.00  0.00     0.147 C 
ENDROOT
BRANCH   4  24
HETATM   24  C6  UNL     1      -5.463  25.071  -5.861  1.00  0.00     0.076 C 
BRANCH  24  25
HETATM   25  C7  UNL     1      -5.575  23.632  -5.550  1.00  0.00     0.007 C 
BRANCH  25  26
HETATM   26  C8  UNL     1      -4.453  22.743  -6.043  1.00  0.00     0.002 C 
BRANCH  26  27
HETATM   27  C9  UNL     1      -3.162  23.416  -5.601  1.00  0.00     0.027 C 
BRANCH  27  28
HETATM   28  C10 UNL     1      -1.912  22.772  -6.124  1.00  0.00     0.229 C 
BRANCH  28  29
HETATM   29  N3  UNL     1      -0.725  23.373  -5.580  1.00  0.00    -0.079 N 
ATOM     30  H33 UNL     1       0.102  23.105  -6.114  1.00  0.00     0.274 HD
ATOM     31  H32 UNL     1      -0.709  24.379  -5.751  1.00  0.00     0.274 HD
ATOM     32  H31 UNL     1      -0.608  23.165  -4.588  1.00  0.00     0.274 HD
ENDBRANCH  28  29
ENDBRANCH  27  28
ENDBRANCH  26  27
ENDBRANCH  25  26
ENDBRANCH  24  25
ENDBRANCH   4  24
BRANCH   1  33
HETATM   33  C3  UNL     1      -5.457  29.017  -5.797  1.00  0.00     0.265 C 
HETATM   34  N1  UNL     1      -5.930  28.572  -7.062  1.00  0.00    -0.356 N 
ATOM     35  H1  UNL     1      -6.664  27.865  -7.104  1.00  0.00     0.162 HD
HETATM   36  O1  UNL     1      -4.508  29.890  -5.883  1.00  0.00    -0.266 OA
BRANCH  34  37
HETATM   37  C2  UNL     1      -5.384  29.111  -8.295  1.00  0.00     0.118 C 
HETATM   38  C1  UNL     1      -5.793  28.266  -9.477  1.00  0.00     0.026 C 
ENDBRANCH  34  37
ENDBRANCH   1  33
BRANCH  23  39
HETATM   39  C28 UNL     1      -7.549  30.423  -3.929  1.00  0.00     0.135 C 
HETATM   40 CL1  UNL     1      -6.814  31.906  -4.462  1.00  0.00    -0.129 Cl
ENDBRANCH  23  39
BRANCH  18  41
HETATM   41  C22 UNL     1      -6.752  32.874  -0.452  1.00  0.00     0.038 C 
BRANCH  41  42
HETATM   42  C23 UNL     1      -7.917  33.681  -0.791  1.00  0.00    -0.020 C 
HETATM   43  C24 UNL     1      -9.023  32.642  -1.221  1.00  0.00     0.009 C 
HETATM   44  C25 UNL     1      -7.790  34.503  -2.095  1.00  0.00     0.009 C 
ENDBRANCH  41  42
ENDBRANCH  18  41
BRANCH  13  45
HETATM   45  C17 UNL     1      -9.030  28.695   2.317  1.00  0.00     0.241 C 
HETATM   46  O3  UNL     1      -8.280  28.184   3.192  1.00  0.00    -0.271 OA
HETATM   47  N5  UNL     1     -10.418  28.656   2.558  1.00  0.00    -0.359 N 
HETATM   48  C18 UNL     1     -10.966  27.958   3.702  1.00  0.00     0.152 C 
HETATM   49  C19 UNL     1     -11.398  29.345   1.702  1.00  0.00     0.152 C 
ENDBRANCH  13  45
TORSDOF 12
ENDMDL
MODEL 4
REMARK VINA RESULT: -6.026706932      2.886      8.576
REMARK  12 active torsions:
REMARK  status: ('A' for Active; 'I' for Inactive)
REMARK    1  A    between atoms: C2_2  and  N1_3 
REMARK       I    between atoms: N1_3  and  C3_5 
REMARK    2  A    between atoms: C3_5  and  C4_7 
REMARK    3  A    between atoms: C5_10  and  C6_11 
REMARK    4  A    between atoms: C6_11  and  C7_12 
REMARK    5  A    between atoms: C7_12  and  C8_13 
REMARK    6  A    between atoms: C8_13  and  C9_14 
REMARK    7  A    between atoms: C9_14  and  C10_15 
REMARK    8  A    between atoms: C10_15  and  N3_16 
REMARK    9  A    between atoms: C16_28  and  C17_29 
REMARK       I    between atoms: C17_29  and  N5_31 
REMARK   10  A    between atoms: C21_38  and  C22_39 
REMARK   11  A    between atoms: C22_39  and  C23_40 
REMARK   12  A    between atoms: C27_47  and  C28_48 
ROOT
HETATM    1  C4  UNL     1      -6.285  28.616  -3.279  1.00  0.00     0.093 C 
HETATM    2  N2  UNL     1      -7.250  27.536  -3.491  1.00  0.00    -0.344 N 
ATOM      3  H2  UNL     1      -8.186  27.934  -3.570  1.00  0.00     0.167 HD
HETATM    4  C5  UNL     1      -7.331  26.175  -3.620  1.00  0.00     0.084 C 
HETATM    5  N4  UNL     1      -7.328  25.263  -2.674  1.00  0.00    -0.317 N 
ATOM      6  H4  UNL     1      -7.384  24.288  -2.967  1.00  0.00     0.170 HD
HETATM    7  C11 UNL     1      -7.252  25.521  -1.282  1.00  0.00     0.223 C 
HETATM    8  O2  UNL     1      -6.231  25.185  -0.638  1.00  0.00    -0.273 OA
HETATM    9  C12 UNL     1      -8.435  26.205  -0.631  1.00  0.00     0.103 C 
HETATM   10  C13 UNL     1      -8.303  26.247   0.848  1.00  0.00     0.009 C 
HETATM   11  C14 UNL     1      -7.349  27.275   1.384  1.00  0.00     0.003 C 
HETATM   12  C15 UNL     1      -8.005  28.594   1.631  1.00  0.00     0.035 C 
HETATM   13  C16 UNL     1      -7.293  29.347   2.765  1.00  0.00     0.176 C 
HETATM   14  N6  UNL     1      -5.885  29.085   2.732  1.00  0.00    -0.346 N 
ATOM     15  H6  UNL     1      -5.577  28.229   3.194  1.00  0.00     0.163 HD
HETATM   16  C20 UNL     1      -4.863  29.875   2.131  1.00  0.00     0.241 C 
HETATM   17  O4  UNL     1      -3.679  29.822   2.615  1.00  0.00    -0.271 OA
HETATM   18  C21 UNL     1      -5.035  30.779   0.961  1.00  0.00     0.177 C 
HETATM   19  N7  UNL     1      -4.629  30.179  -0.280  1.00  0.00    -0.347 N 
ATOM     20  H7  UNL     1      -3.700  30.481  -0.571  1.00  0.00     0.163 HD
HETATM   21  C26 UNL     1      -5.192  29.298  -1.165  1.00  0.00     0.229 C 
HETATM   22  O5  UNL     1      -4.632  28.140  -1.273  1.00  0.00    -0.273 OA
HETATM   23  C27 UNL     1      -6.420  29.441  -2.087  1.00  0.00     0.147 C 
ENDROOT
BRANCH   4  24
HETATM   24  C6  UNL     1      -7.591  25.586  -5.032  1.00  0.00     0.076 C 
BRANCH  24  25
HETATM   25  C7  UNL     1      -7.620  24.117  -4.891  1.00  0.00     0.007 C 
BRANCH  25  26
HETATM   26  C8  UNL     1      -6.761  23.327  -5.856  1.00  0.00     0.002 C 
BRANCH  26  27
HETATM   27  C9  UNL     1      -5.534  22.895  -5.066  1.00  0.00     0.027 C 
BRANCH  27  28
HETATM   28  C10 UNL     1      -4.249  23.521  -5.521  1.00  0.00     0.229 C 
BRANCH  28  29
HETATM   29  N3  UNL     1      -3.886  24.657  -4.719  1.00  0.00    -0.079 N 
ATOM     30  H33 UNL     1      -4.417  25.485  -4.988  1.00  0.00     0.274 HD
ATOM     31  H32 UNL     1      -4.221  24.555  -3.761  1.00  0.00     0.274 HD
ATOM     32  H31 UNL     1      -2.882  24.838  -4.741  1.00  0.00     0.274 HD
ENDBRANCH  28  29
ENDBRANCH  27  28
ENDBRANCH  26  27
ENDBRANCH  25  26
ENDBRANCH  24  25
ENDBRANCH   4  24
BRANCH   1  33
HETATM   33  C3  UNL     1      -5.831  29.091  -4.593  1.00  0.00     0.265 C 
HETATM   34  N1  UNL     1      -6.582  28.973  -5.795  1.00  0.00    -0.356 N 
ATOM     35  H1  UNL     1      -7.505  28.539  -5.770  1.00  0.00     0.162 HD
HETATM   36  O1  UNL     1      -4.669  29.630  -4.767  1.00  0.00    -0.266 OA
BRANCH  34  37
HETATM   37  C2  UNL     1      -6.054  29.461  -7.056  1.00  0.00     0.118 C 
HETATM   38  C1  UNL     1      -5.725  28.313  -7.981  1.00  0.00     0.026 C 
ENDBRANCH  34  37
ENDBRANCH   1  33
BRANCH  23  39
HETATM   39  C28 UNL     1      -6.770  30.875  -2.190  1.00  0.00     0.135 C 
HETATM   40 CL1  UNL     1      -7.985  31.508  -1.118  1.00  0.00    -0.129 Cl
ENDBRANCH  23  39
BRANCH  18  41
HETATM   41  C22 UNL     1      -4.448  32.103   1.250  1.00  0.00     0.038 C 
BRANCH  41  42
HETATM   42  C23 UNL     1      -5.165  33.371   1.215  1.00  0.00    -0.020 C 
HETATM   43  C24 UNL     1      -6.610  33.039   1.753  1.00  0.00     0.009 C 
HETATM   44  C25 UNL     1      -5.512  33.891  -0.200  1.00  0.00     0.009 C 
ENDBRANCH  41  42
ENDBRANCH  18  41
BRANCH  13  45
HETATM   45  C17 UNL     1      -7.883  28.821   4.034  1.00  0.00     0.241 C 
HETATM   46  O3  UNL     1      -7.346  27.853   4.638  1.00  0.00    -0.271 OA
HETATM   47  N5  UNL     1      -9.051  29.366   4.603  1.00  0.00    -0.359 N 
HETATM   48  C18 UNL     1      -9.674  28.769   5.765  1.00  0.00     0.152 C 
HETATM   49  C19 UNL     1      -9.694  30.589   4.093  1.00  0.00     0.152 C 
ENDBRANCH  13  45
TORSDOF 12
ENDMDL
MODEL 5
REMARK VINA RESULT: -5.884546904      2.896      8.636
REMARK  12 active torsions:
REMARK  status: ('A' for Active; 'I' for Inactive)
REMARK    1  A    between atoms: C2_2  and  N1_3 
REMARK       I    between atoms: N1_3  and  C3_5 
REMARK    2  A    between atoms: C3_5  and  C4_7 
REMARK    3  A    between atoms: C5_10  and  C6_11 
REMARK    4  A    between atoms: C6_11  and  C7_12 
REMARK    5  A    between atoms: C7_12  and  C8_13 
REMARK    6  A    between atoms: C8_13  and  C9_14 
REMARK    7  A    between atoms: C9_14  and  C10_15 
REMARK    8  A    between atoms: C10_15  and  N3_16 
REMARK    9  A    between atoms: C16_28  and  C17_29 
REMARK       I    between atoms: C17_29  and  N5_31 
REMARK   10  A    between atoms: C21_38  and  C22_39 
REMARK   11  A    between atoms: C22_39  and  C23_40 
REMARK   12  A    between atoms: C27_47  and  C28_48 
ROOT
HETATM    1  C4  UNL     1      -6.428  28.401  -3.196  1.00  0.00     0.093 C 
HETATM    2  N2  UNL     1      -7.396  27.310  -3.321  1.00  0.00    -0.344 N 
ATOM      3  H2  UNL     1      -8.338  27.701  -3.355  1.00  0.00     0.167 HD
HETATM    4  C5  UNL     1      -7.475  25.946  -3.408  1.00  0.00     0.084 C 
HETATM    5  N4  UNL     1      -7.409  25.060  -2.441  1.00  0.00    -0.317 N 
ATOM      6  H4  UNL     1      -7.476  24.077  -2.703  1.00  0.00     0.170 HD
HETATM    7  C11 UNL     1      -7.253  25.357  -1.062  1.00  0.00     0.223 C 
HETATM    8  O2  UNL     1      -6.193  25.043  -0.471  1.00  0.00    -0.273 OA
HETATM    9  C12 UNL     1      -8.400  26.051  -0.362  1.00  0.00     0.103 C 
HETATM   10  C13 UNL     1      -8.181  26.134   1.105  1.00  0.00     0.009 C 
HETATM   11  C14 UNL     1      -7.204  27.181   1.557  1.00  0.00     0.003 C 
HETATM   12  C15 UNL     1      -7.854  28.503   1.806  1.00  0.00     0.035 C 
HETATM   13  C16 UNL     1      -7.082  29.291   2.876  1.00  0.00     0.176 C 
HETATM   14  N6  UNL     1      -5.676  29.035   2.767  1.00  0.00    -0.346 N 
ATOM     15  H6  UNL     1      -5.336  28.194   3.232  1.00  0.00     0.163 HD
HETATM   16  C20 UNL     1      -4.697  29.814   2.085  1.00  0.00     0.241 C 
HETATM   17  O4  UNL     1      -3.486  29.781   2.499  1.00  0.00    -0.271 OA
HETATM   18  C21 UNL     1      -4.944  30.685   0.903  1.00  0.00     0.177 C 
HETATM   19  N7  UNL     1      -4.608  30.054  -0.343  1.00  0.00    -0.347 N 
ATOM     20  H7  UNL     1      -3.700  30.353  -0.697  1.00  0.00     0.163 HD
HETATM   21  C26 UNL     1      -5.216  29.146  -1.169  1.00  0.00     0.229 C 
HETATM   22  O5  UNL     1      -4.656  27.988  -1.279  1.00  0.00    -0.273 OA
HETATM   23  C27 UNL     1      -6.497  29.257  -2.020  1.00  0.00     0.147 C 
ENDROOT
BRANCH   4  24
HETATM   24  C6  UNL     1      -7.814  25.318  -4.786  1.00  0.00     0.076 C 
BRANCH  24  25
HETATM   25  C7  UNL     1      -6.812  24.263  -5.041  1.00  0.00     0.007 C 
BRANCH  25  26
HETATM   26  C8  UNL     1      -5.541  24.690  -5.744  1.00  0.00     0.002 C 
BRANCH  26  27
HETATM   27  C9  UNL     1      -4.499  23.636  -5.401  1.00  0.00     0.027 C 
BRANCH  27  28
HETATM   28  C10 UNL     1      -4.579  22.388  -6.228  1.00  0.00     0.229 C 
BRANCH  28  29
HETATM   29  N3  UNL     1      -3.293  21.986  -6.728  1.00  0.00    -0.079 N 
ATOM     30  H33 UNL     1      -2.599  22.723  -6.598  1.00  0.00     0.274 HD
ATOM     31  H32 UNL     1      -2.875  21.266  -6.137  1.00  0.00     0.274 HD
ATOM     32  H31 UNL     1      -3.335  21.686  -7.702  1.00  0.00     0.274 HD
ENDBRANCH  28  29
ENDBRANCH  27  28
ENDBRANCH  26  27
ENDBRANCH  25  26
ENDBRANCH  24  25
ENDBRANCH   4  24
BRANCH   1  33
HETATM   33  C3  UNL     1      -6.055  28.842  -4.547  1.00  0.00     0.265 C 
HETATM   34  N1  UNL     1      -6.873  28.684  -5.699  1.00  0.00    -0.356 N 
ATOM     35  H1  UNL     1      -7.789  28.243  -5.608  1.00  0.00     0.162 HD
HETATM   36  O1  UNL     1      -4.911  29.387  -4.802  1.00  0.00    -0.266 OA
BRANCH  34  37
HETATM   37  C2  UNL     1      -6.425  29.141  -7.002  1.00  0.00     0.118 C 
HETATM   38  C1  UNL     1      -5.803  28.008  -7.783  1.00  0.00     0.026 C 
ENDBRANCH  34  37
ENDBRANCH   1  33
BRANCH  23  39
HETATM   39  C28 UNL     1      -6.864  30.686  -2.140  1.00  0.00     0.135 C 
HETATM   40 CL1  UNL     1      -7.868  31.389  -0.907  1.00  0.00    -0.129 Cl
ENDBRANCH  23  39
BRANCH  18  41
HETATM   41  C22 UNL     1      -4.351  32.019   1.121  1.00  0.00     0.038 C 
BRANCH  41  42
HETATM   42  C23 UNL     1      -3.488  32.724   0.182  1.00  0.00    -0.020 C 
HETATM   43  C24 UNL     1      -2.019  32.415   0.666  1.00  0.00     0.009 C 
HETATM   44  C25 UNL     1      -3.500  34.266   0.309  1.00  0.00     0.009 C 
ENDBRANCH  41  42
ENDBRANCH  18  41
BRANCH  13  45
HETATM   45  C17 UNL     1      -7.592  28.796   4.191  1.00  0.00     0.241 C 
HETATM   46  O3  UNL     1      -7.041  27.818   4.766  1.00  0.00    -0.271 OA
HETATM   47  N5  UNL     1      -8.698  29.382   4.837  1.00  0.00    -0.359 N 
HETATM   48  C18 UNL     1      -9.252  28.816   6.049  1.00  0.00     0.152 C 
HETATM   49  C19 UNL     1      -9.341  30.619   4.360  1.00  0.00     0.152 C 
ENDBRANCH  13  45
TORSDOF 12
ENDMDL
