MODEL 1
REMARK VINA RESULT: -8.927465867      0.000      0.000
REMARK  15 active torsions:
REMARK  status: ('A' for Active; 'I' for Inactive)
REMARK    1  A    between atoms: C2_2  and  C3_3 
REMARK    2  A    between atoms: C3_3  and  C4_4 
REMARK    3  A    between atoms: C4_4  and  C5_5 
REMARK    4  A    between atoms: C6_8  and  N2_9 
REMARK    5  A    between atoms: N2_9  and  C7_11 
REMARK    6  A    between atoms: C7_11  and  C8_12 
REMARK    7  A    between atoms: C8_12  and  C9_13 
REMARK    8  A    between atoms: C8_12  and  N3_20 
REMARK    9  A    between atoms: C9_13  and  C10_14 
REMARK   10  A    between atoms: N3_20  and  S1_22 
REMARK   11  A    between atoms: S1_22  and  C16_25 
REMARK   12  A    between atoms: N4_32  and  N5_33 
REMARK   13  A    between atoms: C23_37  and  C24_38 
REMARK   14  A    between atoms: C24_38  and  C25_39 
REMARK   15  A    between atoms: C25_39  and  O3_40 
ROOT
HETATM    1  C5  UNL     1      -6.260  26.917  -0.948  1.00  0.00     0.074 A 
HETATM    2  N1  UNL     1      -6.005  26.330  -2.127  1.00  0.00    -0.188 N 
ATOM      3  H1  UNL     1      -5.422  26.714  -2.872  1.00  0.00     0.184 HD
HETATM    4  C6  UNL     1      -6.655  25.131  -2.161  1.00  0.00     0.700 A 
HETATM    5  N4  UNL     1      -7.304  25.019  -0.974  1.00  0.00    -0.091 N 
HETATM    6  C22 UNL     1      -7.084  26.090  -0.215  1.00  0.00     0.097 A 
HETATM    7  C23 UNL     1      -7.535  26.356   0.985  1.00  0.00     0.011 C 
ENDROOT
BRANCH   4   8
HETATM    8  N2  UNL     1      -6.585  24.365  -3.162  1.00  0.00    -0.222 N 
ATOM      9  H2  UNL     1      -5.771  23.752  -3.203  1.00  0.00     0.177 HD
BRANCH   8  10
HETATM   10  C7  UNL     1      -7.509  24.256  -4.240  1.00  0.00     0.164 C 
BRANCH  10  11
HETATM   11  C8  UNL     1      -6.939  24.926  -5.503  1.00  0.00     0.112 C 
BRANCH  11  12
HETATM   12  C9  UNL     1      -7.115  26.418  -5.377  1.00  0.00     0.032 C 
BRANCH  12  13
HETATM   13  C10 UNL     1      -5.954  27.221  -5.896  1.00  0.00    -0.013 C 
HETATM   14  C11 UNL     1      -5.828  28.474  -5.068  1.00  0.00     0.005 C 
HETATM   15  C12 UNL     1      -4.855  29.457  -5.674  1.00  0.00     0.000 C 
HETATM   16  C13 UNL     1      -5.318  29.780  -7.067  1.00  0.00     0.000 C 
HETATM   17  C14 UNL     1      -5.239  28.540  -7.897  1.00  0.00     0.000 C 
HETATM   18  C15 UNL     1      -6.229  27.540  -7.353  1.00  0.00     0.005 C 
ENDBRANCH  12  13
ENDBRANCH  11  12
BRANCH  11  19
HETATM   19  N3  UNL     1      -5.553  24.552  -5.565  1.00  0.00    -0.309 N 
ATOM     20  H3  UNL     1      -4.801  25.208  -5.353  1.00  0.00     0.172 HD
BRANCH  19  21
HETATM   21  S1  UNL     1      -5.251  22.941  -6.014  1.00  0.00     0.259 S 
HETATM   22  O1  UNL     1      -5.934  22.719  -7.355  1.00  0.00    -0.201 OA
HETATM   23  O2  UNL     1      -5.795  21.946  -5.028  1.00  0.00    -0.201 OA
BRANCH  21  24
HETATM   24  C16 UNL     1      -3.554  22.699  -6.234  1.00  0.00     0.079 A 
HETATM   25  C17 UNL     1      -3.115  21.703  -7.105  1.00  0.00     0.027 A 
HETATM   26  C18 UNL     1      -1.769  21.484  -7.298  1.00  0.00     0.025 A 
HETATM   27  C19 UNL     1      -0.807  22.229  -6.649  1.00  0.00     0.034 A 
HETATM   28 CL1  UNL     1       0.902  21.945  -6.898  1.00  0.00    -0.084 Cl
HETATM   29  C20 UNL     1      -1.256  23.212  -5.789  1.00  0.00     0.025 A 
HETATM   30  C21 UNL     1      -2.606  23.439  -5.590  1.00  0.00     0.027 A 
ENDBRANCH  21  24
ENDBRANCH  19  21
ENDBRANCH  11  19
ENDBRANCH  10  11
ENDBRANCH   8  10
ENDBRANCH   4   8
BRANCH   5  31
HETATM   31  N5  UNL     1      -8.061  23.899  -0.680  1.00  0.00    -0.324 N 
ATOM     32  H52 UNL     1      -8.130  23.026  -1.204  1.00  0.00     0.178 HD
ATOM     33  H51 UNL     1      -8.658  23.872   0.147  1.00  0.00     0.178 HD
ENDBRANCH   5  31
BRANCH   1  34
HETATM   34  C4  UNL     1      -5.774  28.108  -0.591  1.00  0.00     0.006 C 
BRANCH  34  35
HETATM   35  C3  UNL     1      -6.036  29.329  -1.383  1.00  0.00     0.029 C 
BRANCH  35  36
HETATM   36  C2  UNL     1      -4.757  29.961  -1.816  1.00  0.00    -0.001 C 
HETATM   37  C1  UNL     1      -4.917  31.465  -1.881  1.00  0.00     0.005 C 
ENDBRANCH  35  36
ENDBRANCH  34  35
ENDBRANCH   1  34
BRANCH   7  38
HETATM   38  C24 UNL     1      -8.405  25.552   1.837  1.00  0.00     0.067 C 
BRANCH  38  39
HETATM   39  C25 UNL     1      -7.598  25.063   3.026  1.00  0.00     0.064 C 
HETATM   40  C26 UNL     1      -7.735  25.989   4.195  1.00  0.00     0.057 C 
HETATM   41  C27 UNL     1      -8.275  25.291   5.429  1.00  0.00     0.116 C 
HETATM   42  N6  UNL     1      -7.589  24.079   5.757  1.00  0.00    -0.421 N 
HETATM   43  C28 UNL     1      -7.183  23.287   4.637  1.00  0.00     0.116 C 
ATOM     44  H6  UNL     1      -7.402  23.800   6.720  1.00  0.00     0.153 HD
HETATM   45  C29 UNL     1      -8.034  23.671   3.445  1.00  0.00     0.057 C 
BRANCH  39  46
HETATM   46  O3  UNL     1      -6.252  24.956   2.695  1.00  0.00    -0.389 OA
ATOM     47  H3  UNL     1      -5.761  25.689   3.049  1.00  0.00     0.210 HD
ENDBRANCH  39  46
ENDBRANCH  38  39
ENDBRANCH   7  38
TORSDOF 15
ENDMDL
MODEL 2
REMARK VINA RESULT: -8.702312928      1.715      2.612
REMARK  15 active torsions:
REMARK  status: ('A' for Active; 'I' for Inactive)
REMARK    1  A    between atoms: C2_2  and  C3_3 
REMARK    2  A    between atoms: C3_3  and  C4_4 
REMARK    3  A    between atoms: C4_4  and  C5_5 
REMARK    4  A    between atoms: C6_8  and  N2_9 
REMARK    5  A    between atoms: N2_9  and  C7_11 
REMARK    6  A    between atoms: C7_11  and  C8_12 
REMARK    7  A    between atoms: C8_12  and  C9_13 
REMARK    8  A    between atoms: C8_12  and  N3_20 
REMARK    9  A    between atoms: C9_13  and  C10_14 
REMARK   10  A    between atoms: N3_20  and  S1_22 
REMARK   11  A    between atoms: S1_22  and  C16_25 
REMARK   12  A    between atoms: N4_32  and  N5_33 
REMARK   13  A    between atoms: C23_37  and  C24_38 
REMARK   14  A    between atoms: C24_38  and  C25_39 
REMARK   15  A    between atoms: C25_39  and  O3_40 
ROOT
HETATM    1  C5  UNL     1      -7.111  27.675  -0.118  1.00  0.00     0.074 A 
HETATM    2  N1  UNL     1      -6.562  27.936  -1.314  1.00  0.00    -0.188 N 
ATOM      3  H1  UNL     1      -6.182  28.834  -1.613  1.00  0.00     0.184 HD
HETATM    4  C6  UNL     1      -6.597  26.795  -2.061  1.00  0.00     0.700 A 
HETATM    5  N4  UNL     1      -7.179  25.849  -1.282  1.00  0.00    -0.091 N 
HETATM    6  C22 UNL     1      -7.504  26.353  -0.093  1.00  0.00     0.097 A 
HETATM    7  C23 UNL     1      -8.082  25.764   0.922  1.00  0.00     0.011 C 
ENDROOT
BRANCH   4   8
HETATM    8  N2  UNL     1      -6.140  26.757  -3.238  1.00  0.00    -0.222 N 
ATOM      9  H2  UNL     1      -5.173  26.449  -3.335  1.00  0.00     0.177 HD
BRANCH   8  10
HETATM   10  C7  UNL     1      -6.817  27.094  -4.445  1.00  0.00     0.164 C 
BRANCH  10  11
HETATM   11  C8  UNL     1      -5.964  26.700  -5.664  1.00  0.00     0.112 C 
BRANCH  11  12
HETATM   12  C9  UNL     1      -5.417  27.955  -6.295  1.00  0.00     0.032 C 
BRANCH  12  13
HETATM   13  C10 UNL     1      -6.254  28.493  -7.422  1.00  0.00    -0.013 C 
HETATM   14  C11 UNL     1      -5.664  28.023  -8.727  1.00  0.00     0.005 C 
HETATM   15  C12 UNL     1      -6.287  28.720  -9.912  1.00  0.00     0.000 C 
HETATM   16  C13 UNL     1      -6.096  30.201  -9.741  1.00  0.00     0.000 C 
HETATM   17  C14 UNL     1      -6.863  30.646  -8.539  1.00  0.00     0.000 C 
HETATM   18  C15 UNL     1      -6.248  30.006  -7.318  1.00  0.00     0.005 C 
ENDBRANCH  12  13
ENDBRANCH  11  12
BRANCH  11  19
HETATM   19  N3  UNL     1      -4.918  25.850  -5.164  1.00  0.00    -0.309 N 
ATOM     20  H3  UNL     1      -4.019  26.218  -4.853  1.00  0.00     0.172 HD
BRANCH  19  21
HETATM   21  S1  UNL     1      -5.283  24.190  -5.127  1.00  0.00     0.259 S 
HETATM   22  O1  UNL     1      -6.493  23.981  -6.023  1.00  0.00    -0.201 OA
HETATM   23  O2  UNL     1      -5.615  23.694  -3.748  1.00  0.00    -0.201 OA
BRANCH  21  24
HETATM   24  C16 UNL     1      -3.968  23.284  -5.788  1.00  0.00     0.079 A 
HETATM   25  C17 UNL     1      -2.661  23.669  -5.497  1.00  0.00     0.027 A 
HETATM   26  C18 UNL     1      -1.592  22.970  -6.013  1.00  0.00     0.025 A 
HETATM   27  C19 UNL     1      -1.763  21.872  -6.830  1.00  0.00     0.034 A 
HETATM   28 CL1  UNL     1      -0.401  20.988  -7.482  1.00  0.00    -0.084 Cl
HETATM   29  C20 UNL     1      -3.063  21.501  -7.110  1.00  0.00     0.025 A 
HETATM   30  C21 UNL     1      -4.143  22.198  -6.596  1.00  0.00     0.027 A 
ENDBRANCH  21  24
ENDBRANCH  19  21
ENDBRANCH  11  19
ENDBRANCH  10  11
ENDBRANCH   8  10
ENDBRANCH   4   8
BRANCH   5  31
HETATM   31  N5  UNL     1      -7.360  24.558  -1.745  1.00  0.00    -0.324 N 
ATOM     32  H52 UNL     1      -7.323  24.219  -2.707  1.00  0.00     0.178 HD
ATOM     33  H51 UNL     1      -7.566  23.794  -1.101  1.00  0.00     0.178 HD
ENDBRANCH   5  31
BRANCH   1  34
HETATM   34  C4  UNL     1      -7.234  28.579   0.856  1.00  0.00     0.006 C 
BRANCH  34  35
HETATM   35  C3  UNL     1      -8.384  29.506   0.920  1.00  0.00     0.029 C 
BRANCH  35  36
HETATM   36  C2  UNL     1      -9.424  28.991   1.856  1.00  0.00    -0.001 C 
HETATM   37  C1  UNL     1     -10.626  28.498   1.078  1.00  0.00     0.005 C 
ENDBRANCH  35  36
ENDBRANCH  34  35
ENDBRANCH   1  34
BRANCH   7  38
HETATM   38  C24 UNL     1      -8.532  24.381   1.045  1.00  0.00     0.067 C 
BRANCH  38  39
HETATM   39  C25 UNL     1      -8.553  24.008   2.516  1.00  0.00     0.064 C 
HETATM   40  C26 UNL     1      -7.297  24.445   3.206  1.00  0.00     0.057 C 
HETATM   41  C27 UNL     1      -7.569  25.378   4.371  1.00  0.00     0.116 C 
HETATM   42  N6  UNL     1      -8.564  24.896   5.279  1.00  0.00    -0.421 N 
HETATM   43  C28 UNL     1      -9.663  24.212   4.672  1.00  0.00     0.116 C 
ATOM     44  H6  UNL     1      -8.495  25.031   6.288  1.00  0.00     0.153 HD
HETATM   45  C29 UNL     1      -9.745  24.631   3.219  1.00  0.00     0.057 C 
BRANCH  39  46
HETATM   46  O3  UNL     1      -8.694  22.634   2.672  1.00  0.00    -0.389 OA
ATOM     47  H3  UNL     1      -8.015  22.171   2.196  1.00  0.00     0.210 HD
ENDBRANCH  39  46
ENDBRANCH  38  39
ENDBRANCH   7  38
TORSDOF 15
ENDMDL
MODEL 3
REMARK VINA RESULT: -8.699864451      1.721      2.489
REMARK  15 active torsions:
REMARK  status: ('A' for Active; 'I' for Inactive)
REMARK    1  A    between atoms: C2_2  and  C3_3 
REMARK    2  A    between atoms: C3_3  and  C4_4 
REMARK    3  A    between atoms: C4_4  and  C5_5 
REMARK    4  A    between atoms: C6_8  and  N2_9 
REMARK    5  A    between atoms: N2_9  and  C7_11 
REMARK    6  A    between atoms: C7_11  and  C8_12 
REMARK    7  A    between atoms: C8_12  and  C9_13 
REMARK    8  A    between atoms: C8_12  and  N3_20 
REMARK    9  A    between atoms: C9_13  and  C10_14 
REMARK   10  A    between atoms: N3_20  and  S1_22 
REMARK   11  A    between atoms: S1_22  and  C16_25 
REMARK   12  A    between atoms: N4_32  and  N5_33 
REMARK   13  A    between atoms: C23_37  and  C24_38 
REMARK   14  A    between atoms: C24_38  and  C25_39 
REMARK   15  A    between atoms: C25_39  and  O3_40 
ROOT
HETATM    1  C5  UNL     1      -7.440  26.470   0.478  1.00  0.00     0.074 A 
HETATM    2  N1  UNL     1      -7.094  26.318  -0.810  1.00  0.00    -0.188 N 
ATOM      3  H1  UNL     1      -6.697  27.040  -1.410  1.00  0.00     0.184 HD
HETATM    4  C6  UNL     1      -7.365  25.033  -1.179  1.00  0.00     0.700 A 
HETATM    5  N4  UNL     1      -7.880  24.423  -0.081  1.00  0.00    -0.091 N 
HETATM    6  C22 UNL     1      -7.939  25.271   0.944  1.00  0.00     0.097 A 
HETATM    7  C23 UNL     1      -8.374  25.065   2.160  1.00  0.00     0.011 C 
ENDROOT
BRANCH   4   8
HETATM    8  N2  UNL     1      -7.133  24.615  -2.347  1.00  0.00    -0.222 N 
ATOM      9  H2  UNL     1      -7.776  23.911  -2.709  1.00  0.00     0.177 HD
BRANCH   8  10
HETATM   10  C7  UNL     1      -6.080  25.011  -3.220  1.00  0.00     0.164 C 
BRANCH  10  11
HETATM   11  C8  UNL     1      -6.386  24.570  -4.663  1.00  0.00     0.112 C 
BRANCH  11  12
HETATM   12  C9  UNL     1      -7.110  25.690  -5.365  1.00  0.00     0.032 C 
BRANCH  12  13
HETATM   13  C10 UNL     1      -6.411  27.020  -5.286  1.00  0.00    -0.013 C 
HETATM   14  C11 UNL     1      -7.376  28.038  -4.734  1.00  0.00     0.005 C 
HETATM   15  C12 UNL     1      -6.844  29.445  -4.858  1.00  0.00     0.000 C 
HETATM   16  C13 UNL     1      -6.553  29.714  -6.308  1.00  0.00     0.000 C 
HETATM   17  C14 UNL     1      -5.454  28.805  -6.751  1.00  0.00     0.000 C 
HETATM   18  C15 UNL     1      -5.954  27.384  -6.686  1.00  0.00     0.005 C 
ENDBRANCH  12  13
ENDBRANCH  11  12
BRANCH  11  19
HETATM   19  N3  UNL     1      -5.117  24.284  -5.273  1.00  0.00    -0.309 N 
ATOM     20  H3  UNL     1      -4.354  24.960  -5.286  1.00  0.00     0.172 HD
BRANCH  19  21
HETATM   21  S1  UNL     1      -4.975  22.741  -5.972  1.00  0.00     0.259 S 
HETATM   22  O1  UNL     1      -5.744  22.776  -7.284  1.00  0.00    -0.201 OA
HETATM   23  O2  UNL     1      -5.546  21.652  -5.109  1.00  0.00    -0.201 OA
BRANCH  21  24
HETATM   24  C16 UNL     1      -3.318  22.410  -6.335  1.00  0.00     0.079 A 
HETATM   25  C17 UNL     1      -2.323  23.188  -5.747  1.00  0.00     0.027 A 
HETATM   26  C18 UNL     1      -0.994  22.952  -6.019  1.00  0.00     0.025 A 
HETATM   27  C19 UNL     1      -0.592  21.947  -6.876  1.00  0.00     0.034 A 
HETATM   28 CL1  UNL     1       1.099  21.652  -7.219  1.00  0.00    -0.084 Cl
HETATM   29  C20 UNL     1      -1.588  21.184  -7.452  1.00  0.00     0.025 A 
HETATM   30  C21 UNL     1      -2.925  21.415  -7.183  1.00  0.00     0.027 A 
ENDBRANCH  21  24
ENDBRANCH  19  21
ENDBRANCH  11  19
ENDBRANCH  10  11
ENDBRANCH   8  10
ENDBRANCH   4   8
BRANCH   5  31
HETATM   31  N5  UNL     1      -8.255  23.092  -0.117  1.00  0.00    -0.324 N 
ATOM     32  H52 UNL     1      -7.699  22.284  -0.398  1.00  0.00     0.178 HD
ATOM     33  H51 UNL     1      -9.196  22.805   0.153  1.00  0.00     0.178 HD
ENDBRANCH   5  31
BRANCH   1  34
HETATM   34  C4  UNL     1      -7.304  27.613   1.153  1.00  0.00     0.006 C 
BRANCH  34  35
HETATM   35  C3  UNL     1      -8.253  28.735   0.989  1.00  0.00     0.029 C 
BRANCH  35  36
HETATM   36  C2  UNL     1      -9.455  28.540   1.850  1.00  0.00    -0.001 C 
HETATM   37  C1  UNL     1     -10.619  28.051   1.014  1.00  0.00     0.005 C 
ENDBRANCH  35  36
ENDBRANCH  34  35
ENDBRANCH   1  34
BRANCH   7  38
HETATM   38  C24 UNL     1      -8.917  23.842   2.745  1.00  0.00     0.067 C 
BRANCH  38  39
HETATM   39  C25 UNL     1      -9.516  24.179   4.098  1.00  0.00     0.064 C 
HETATM   40  C26 UNL     1      -9.165  25.573   4.518  1.00  0.00     0.057 C 
HETATM   41  C27 UNL     1     -10.391  26.428   4.776  1.00  0.00     0.116 C 
HETATM   42  N6  UNL     1     -11.355  25.814   5.637  1.00  0.00    -0.421 N 
HETATM   43  C28 UNL     1     -11.521  24.405   5.458  1.00  0.00     0.116 C 
ATOM     44  H6  UNL     1     -11.886  26.344   6.329  1.00  0.00     0.153 HD
HETATM   45  C29 UNL     1     -11.027  24.036   4.075  1.00  0.00     0.057 C 
BRANCH  39  46
HETATM   46  O3  UNL     1      -9.065  23.292   5.069  1.00  0.00    -0.389 OA
ATOM     47  H3  UNL     1      -8.119  23.205   5.029  1.00  0.00     0.210 HD
ENDBRANCH  39  46
ENDBRANCH  38  39
ENDBRANCH   7  38
TORSDOF 15
ENDMDL
MODEL 4
REMARK VINA RESULT: -8.633460916      4.154     10.214
REMARK  15 active torsions:
REMARK  status: ('A' for Active; 'I' for Inactive)
REMARK    1  A    between atoms: C2_2  and  C3_3 
REMARK    2  A    between atoms: C3_3  and  C4_4 
REMARK    3  A    between atoms: C4_4  and  C5_5 
REMARK    4  A    between atoms: C6_8  and  N2_9 
REMARK    5  A    between atoms: N2_9  and  C7_11 
REMARK    6  A    between atoms: C7_11  and  C8_12 
REMARK    7  A    between atoms: C8_12  and  C9_13 
REMARK    8  A    between atoms: C8_12  and  N3_20 
REMARK    9  A    between atoms: C9_13  and  C10_14 
REMARK   10  A    between atoms: N3_20  and  S1_22 
REMARK   11  A    between atoms: S1_22  and  C16_25 
REMARK   12  A    between atoms: N4_32  and  N5_33 
REMARK   13  A    between atoms: C23_37  and  C24_38 
REMARK   14  A    between atoms: C24_38  and  C25_39 
REMARK   15  A    between atoms: C25_39  and  O3_40 
ROOT
HETATM    1  C5  UNL     1      -6.271  24.234  -5.080  1.00  0.00     0.074 A 
HETATM    2  N1  UNL     1      -6.903  23.792  -3.981  1.00  0.00    -0.188 N 
ATOM      3  H1  UNL     1      -7.162  22.824  -3.791  1.00  0.00     0.184 HD
HETATM    4  C6  UNL     1      -7.138  24.857  -3.162  1.00  0.00     0.700 A 
HETATM    5  N4  UNL     1      -6.632  25.944  -3.799  1.00  0.00    -0.091 N 
HETATM    6  C22 UNL     1      -6.098  25.598  -4.969  1.00  0.00     0.097 A 
HETATM    7  C23 UNL     1      -5.521  26.354  -5.867  1.00  0.00     0.011 C 
ENDROOT
BRANCH   4   8
HETATM    8  N2  UNL     1      -7.722  24.725  -2.051  1.00  0.00    -0.222 N 
ATOM      9  H2  UNL     1      -8.737  24.823  -2.061  1.00  0.00     0.177 HD
BRANCH   8  10
HETATM   10  C7  UNL     1      -7.130  24.454  -0.784  1.00  0.00     0.164 C 
BRANCH  10  11
HETATM   11  C8  UNL     1      -7.902  25.179   0.333  1.00  0.00     0.112 C 
BRANCH  11  12
HETATM   12  C9  UNL     1      -9.086  25.883  -0.279  1.00  0.00     0.032 C 
BRANCH  12  13
HETATM   13  C10 UNL     1      -9.904  26.679   0.700  1.00  0.00    -0.013 C 
HETATM   14  C11 UNL     1     -11.320  26.761   0.190  1.00  0.00     0.005 C 
HETATM   15  C12 UNL     1     -12.147  27.750   0.976  1.00  0.00     0.000 C 
HETATM   16  C13 UNL     1     -11.473  29.091   0.903  1.00  0.00     0.000 C 
HETATM   17  C14 UNL     1     -10.153  29.000   1.595  1.00  0.00     0.000 C 
HETATM   18  C15 UNL     1      -9.272  28.052   0.819  1.00  0.00     0.005 C 
ENDBRANCH  12  13
ENDBRANCH  11  12
BRANCH  11  19
HETATM   19  N3  UNL     1      -8.304  24.164   1.266  1.00  0.00    -0.309 N 
ATOM     20  H3  UNL     1      -8.871  23.362   0.989  1.00  0.00     0.172 HD
BRANCH  19  21
HETATM   21  S1  UNL     1      -7.770  24.389   2.864  1.00  0.00     0.259 S 
HETATM   22  O1  UNL     1      -6.367  24.969   2.785  1.00  0.00    -0.201 OA
HETATM   23  O2  UNL     1      -7.717  23.110   3.650  1.00  0.00    -0.201 OA
BRANCH  21  24
HETATM   24  C16 UNL     1      -8.778  25.542   3.664  1.00  0.00     0.079 A 
HETATM   25  C17 UNL     1     -10.142  25.285   3.788  1.00  0.00     0.027 A 
HETATM   26  C18 UNL     1     -10.973  26.186   4.416  1.00  0.00     0.025 A 
HETATM   27  C19 UNL     1     -10.499  27.369   4.946  1.00  0.00     0.034 A 
HETATM   28 CL1  UNL     1     -11.559  28.510   5.743  1.00  0.00    -0.084 Cl
HETATM   29  C20 UNL     1      -9.146  27.611   4.817  1.00  0.00     0.025 A 
HETATM   30  C21 UNL     1      -8.305  26.710   4.187  1.00  0.00     0.027 A 
ENDBRANCH  21  24
ENDBRANCH  19  21
ENDBRANCH  11  19
ENDBRANCH  10  11
ENDBRANCH   8  10
ENDBRANCH   4   8
BRANCH   5  31
HETATM   31  N5  UNL     1      -6.700  27.201  -3.225  1.00  0.00    -0.324 N 
ATOM     32  H52 UNL     1      -7.030  27.455  -2.294  1.00  0.00     0.178 HD
ATOM     33  H51 UNL     1      -6.405  28.030  -3.742  1.00  0.00     0.178 HD
ENDBRANCH   5  31
BRANCH   1  34
HETATM   34  C4  UNL     1      -5.894  23.445  -6.087  1.00  0.00     0.006 C 
BRANCH  34  35
HETATM   35  C3  UNL     1      -4.970  22.307  -5.886  1.00  0.00     0.029 C 
BRANCH  35  36
HETATM   36  C2  UNL     1      -3.572  22.698  -6.226  1.00  0.00    -0.001 C 
HETATM   37  C1  UNL     1      -2.893  21.582  -6.992  1.00  0.00     0.005 C 
ENDBRANCH  35  36
ENDBRANCH  34  35
ENDBRANCH   1  34
BRANCH   7  38
HETATM   38  C24 UNL     1      -5.291  27.794  -5.842  1.00  0.00     0.067 C 
BRANCH  38  39
HETATM   39  C25 UNL     1      -6.201  28.447  -6.868  1.00  0.00     0.064 C 
HETATM   40  C26 UNL     1      -6.239  29.934  -6.694  1.00  0.00     0.057 C 
HETATM   41  C27 UNL     1      -5.807  30.676  -7.944  1.00  0.00     0.116 C 
HETATM   42  N6  UNL     1      -6.466  30.238  -9.136  1.00  0.00    -0.421 N 
HETATM   43  C28 UNL     1      -6.706  28.830  -9.217  1.00  0.00     0.116 C 
ATOM     44  H6  UNL     1      -6.745  30.883  -9.875  1.00  0.00     0.153 HD
HETATM   45  C29 UNL     1      -5.747  28.126  -8.280  1.00  0.00     0.057 C 
BRANCH  39  46
HETATM   46  O3  UNL     1      -7.495  27.950  -6.762  1.00  0.00    -0.389 OA
ATOM     47  H3  UNL     1      -7.510  27.015  -6.933  1.00  0.00     0.210 HD
ENDBRANCH  39  46
ENDBRANCH  38  39
ENDBRANCH   7  38
TORSDOF 15
ENDMDL
MODEL 5
REMARK VINA RESULT: -8.612913753      1.949      2.711
REMARK  15 active torsions:
REMARK  status: ('A' for Active; 'I' for Inactive)
REMARK    1  A    between atoms: C2_2  and  C3_3 
REMARK    2  A    between atoms: C3_3  and  C4_4 
REMARK    3  A    between atoms: C4_4  and  C5_5 
REMARK    4  A    between atoms: C6_8  and  N2_9 
REMARK    5  A    between atoms: N2_9  and  C7_11 
REMARK    6  A    between atoms: C7_11  and  C8_12 
REMARK    7  A    between atoms: C8_12  and  C9_13 
REMARK    8  A    between atoms: C8_12  and  N3_20 
REMARK    9  A    between atoms: C9_13  and  C10_14 
REMARK   10  A    between atoms: N3_20  and  S1_22 
REMARK   11  A    between atoms: S1_22  and  C16_25 
REMARK   12  A    between atoms: N4_32  and  N5_33 
REMARK   13  A    between atoms: C23_37  and  C24_38 
REMARK   14  A    between atoms: C24_38  and  C25_39 
REMARK   15  A    between atoms: C25_39  and  O3_40 
ROOT
HETATM    1  C5  UNL     1      -6.799  28.686  -0.479  1.00  0.00     0.074 A 
HETATM    2  N1  UNL     1      -6.176  28.760  -1.665  1.00  0.00    -0.188 N 
ATOM      3  H1  UNL     1      -5.541  29.502  -1.960  1.00  0.00     0.184 HD
HETATM    4  C6  UNL     1      -6.537  27.675  -2.409  1.00  0.00     0.700 A 
HETATM    5  N4  UNL     1      -7.389  26.953  -1.637  1.00  0.00    -0.091 N 
HETATM    6  C22 UNL     1      -7.569  27.542  -0.457  1.00  0.00     0.097 A 
HETATM    7  C23 UNL     1      -8.314  27.162   0.548  1.00  0.00     0.011 C 
ENDROOT
BRANCH   4   8
HETATM    8  N2  UNL     1      -6.091  27.492  -3.575  1.00  0.00    -0.222 N 
ATOM      9  H2  UNL     1      -5.130  27.157  -3.643  1.00  0.00     0.177 HD
BRANCH   8  10
HETATM   10  C7  UNL     1      -6.773  27.696  -4.809  1.00  0.00     0.164 C 
BRANCH  10  11
HETATM   11  C8  UNL     1      -6.056  26.948  -5.947  1.00  0.00     0.112 C 
BRANCH  11  12
HETATM   12  C9  UNL     1      -5.500  27.961  -6.915  1.00  0.00     0.032 C 
BRANCH  12  13
HETATM   13  C10 UNL     1      -6.547  28.712  -7.690  1.00  0.00    -0.013 C 
HETATM   14  C11 UNL     1      -6.447  28.317  -9.141  1.00  0.00     0.005 C 
HETATM   15  C12 UNL     1      -7.285  29.206 -10.028  1.00  0.00     0.000 C 
HETATM   16  C13 UNL     1      -6.839  30.627  -9.828  1.00  0.00     0.000 C 
HETATM   17  C14 UNL     1      -7.140  31.028  -8.421  1.00  0.00     0.000 C 
HETATM   18  C15 UNL     1      -6.290  30.194  -7.495  1.00  0.00     0.005 C 
ENDBRANCH  12  13
ENDBRANCH  11  12
BRANCH  11  19
HETATM   19  N3  UNL     1      -5.019  26.172  -5.326  1.00  0.00    -0.309 N 
ATOM     20  H3  UNL     1      -4.101  26.562  -5.110  1.00  0.00     0.172 HD
BRANCH  19  21
HETATM   21  S1  UNL     1      -5.425  24.559  -4.974  1.00  0.00     0.259 S 
HETATM   22  O1  UNL     1      -6.761  24.282  -5.645  1.00  0.00    -0.201 OA
HETATM   23  O2  UNL     1      -5.563  24.299  -3.501  1.00  0.00    -0.201 OA
BRANCH  21  24
HETATM   24  C16 UNL     1      -4.252  23.494  -5.662  1.00  0.00     0.079 A 
HETATM   25  C17 UNL     1      -2.897  23.736  -5.440  1.00  0.00     0.027 A 
HETATM   26  C18 UNL     1      -1.938  22.907  -5.979  1.00  0.00     0.025 A 
HETATM   27  C19 UNL     1      -2.270  21.814  -6.753  1.00  0.00     0.034 A 
HETATM   28 CL1  UNL     1      -1.047  20.765  -7.436  1.00  0.00    -0.084 Cl
HETATM   29  C20 UNL     1      -3.615  21.586  -6.966  1.00  0.00     0.025 A 
HETATM   30  C21 UNL     1      -4.584  22.413  -6.427  1.00  0.00     0.027 A 
ENDBRANCH  21  24
ENDBRANCH  19  21
ENDBRANCH  11  19
ENDBRANCH  10  11
ENDBRANCH   8  10
ENDBRANCH   4   8
BRANCH   5  31
HETATM   31  N5  UNL     1      -7.938  25.770  -2.099  1.00  0.00    -0.324 N 
ATOM     32  H52 UNL     1      -8.904  25.582  -2.367  1.00  0.00     0.178 HD
ATOM     33  H51 UNL     1      -7.365  24.932  -2.204  1.00  0.00     0.178 HD
ENDBRANCH   5  31
BRANCH   1  34
HETATM   34  C4  UNL     1      -6.664  29.595   0.489  1.00  0.00     0.006 C 
BRANCH  34  35
HETATM   35  C3  UNL     1      -7.050  31.010   0.291  1.00  0.00     0.029 C 
BRANCH  35  36
HETATM   36  C2  UNL     1      -8.516  31.127   0.048  1.00  0.00    -0.001 C 
HETATM   37  C1  UNL     1      -9.280  30.824   1.319  1.00  0.00     0.005 C 
ENDBRANCH  35  36
ENDBRANCH  34  35
ENDBRANCH   1  34
BRANCH   7  38
HETATM   38  C24 UNL     1      -9.159  25.977   0.668  1.00  0.00     0.067 C 
BRANCH  38  39
HETATM   39  C25 UNL     1      -8.354  24.875   1.333  1.00  0.00     0.064 C 
HETATM   40  C26 UNL     1      -7.064  25.400   1.885  1.00  0.00     0.057 C 
HETATM   41  C27 UNL     1      -6.928  25.154   3.375  1.00  0.00     0.116 C 
HETATM   42  N6  UNL     1      -7.192  23.804   3.767  1.00  0.00    -0.421 N 
HETATM   43  C28 UNL     1      -8.252  23.160   3.056  1.00  0.00     0.116 C 
ATOM     44  H6  UNL     1      -6.661  23.334   4.502  1.00  0.00     0.153 HD
HETATM   45  C29 UNL     1      -9.144  24.226   2.455  1.00  0.00     0.057 C 
BRANCH  39  46
HETATM   46  O3  UNL     1      -8.073  23.858   0.428  1.00  0.00    -0.389 OA
ATOM     47  H3  UNL     1      -8.569  23.076   0.639  1.00  0.00     0.210 HD
ENDBRANCH  39  46
ENDBRANCH  38  39
ENDBRANCH   7  38
TORSDOF 15
ENDMDL
