MODEL 1
REMARK VINA RESULT: -8.543574544      0.000      0.000
REMARK  12 active torsions:
REMARK  status: ('A' for Active; 'I' for Inactive)
REMARK    1  A    between atoms: N1_2  and  C3_4 
REMARK    2  A    between atoms: C3_4  and  C4_5 
REMARK    3  A    between atoms: C4_5  and  N2_6 
REMARK    4  A    between atoms: N2_6  and  C5_8 
REMARK    5  A    between atoms: C11_16  and  C12_17 
REMARK    6  A    between atoms: C12_17  and  N5_21 
REMARK    7  A    between atoms: C16_26  and  C17_27 
REMARK       I    between atoms: C17_27  and  N6_29 
REMARK    8  A    between atoms: N6_29  and  C18_31 
REMARK    9  A    between atoms: C18_31  and  C19_32 
REMARK   10  A    between atoms: C19_32  and  N7_33 
REMARK   11  A    between atoms: C24_40  and  N9_41 
REMARK   12  A    between atoms: C25_43  and  C26_44 
ROOT
HETATM    1  C5  UNL     1      -5.944  29.730  -2.591  1.00  0.00     0.043 A 
HETATM    2  C6  UNL     1      -5.969  31.091  -3.015  1.00  0.00     0.030 A 
HETATM    3  C7  UNL     1      -6.528  31.389  -4.218  1.00  0.00     0.005 A 
HETATM    4  C8  UNL     1      -7.051  30.408  -5.002  1.00  0.00     0.030 A 
HETATM    5  C9  UNL     1      -7.024  29.077  -4.577  1.00  0.00     0.046 A 
HETATM    6  N3  UNL     1      -7.572  28.155  -5.380  1.00  0.00    -0.364 N 
ATOM      7  H3  UNL     1      -7.977  28.431  -6.274  1.00  0.00     0.165 HD
HETATM    8  C10 UNL     1      -7.586  26.885  -5.010  1.00  0.00     0.106 A 
HETATM    9  C11 UNL     1      -7.048  26.447  -3.788  1.00  0.00     0.050 A 
HETATM   10  C24 UNL     1      -6.484  27.360  -2.926  1.00  0.00     0.062 A 
HETATM   11  C32 UNL     1      -6.468  28.717  -3.352  1.00  0.00     0.045 A 
ENDROOT
BRANCH   9  12
HETATM   12  C12 UNL     1      -6.862  25.009  -3.729  1.00  0.00     0.111 C 
HETATM   13  N4  UNL     1      -7.461  24.359  -2.855  1.00  0.00    -0.385 N 
ATOM     14  H42 UNL     1      -7.981  24.928  -2.188  1.00  0.00     0.157 HD
ATOM     15  H41 UNL     1      -7.330  23.348  -2.813  1.00  0.00     0.157 HD
BRANCH  12  16
HETATM   16  N5  UNL     1      -6.130  24.207  -4.667  1.00  0.00    -0.351 N 
HETATM   17  C13 UNL     1      -6.292  22.717  -4.569  1.00  0.00     0.162 C 
HETATM   18  C14 UNL     1      -6.641  22.371  -5.991  1.00  0.00     0.190 C 
HETATM   19  F1  UNL     1      -7.965  22.661  -6.260  1.00  0.00    -0.248 F 
HETATM   20  C15 UNL     1      -5.752  23.287  -6.769  1.00  0.00     0.073 C 
HETATM   21  C16 UNL     1      -5.272  24.361  -5.763  1.00  0.00     0.180 C 
BRANCH  21  22
HETATM   22  C17 UNL     1      -3.871  23.931  -5.433  1.00  0.00     0.240 C 
HETATM   23  O1  UNL     1      -3.262  24.344  -4.400  1.00  0.00    -0.271 OA
HETATM   24  N6  UNL     1      -3.174  23.032  -6.282  1.00  0.00    -0.358 N 
ATOM     25  H6  UNL     1      -3.604  22.664  -7.130  1.00  0.00     0.162 HD
BRANCH  24  26
HETATM   26  C18 UNL     1      -1.818  22.655  -5.895  1.00  0.00     0.152 C 
BRANCH  26  27
HETATM   27  C19 UNL     1      -1.410  21.341  -6.474  1.00  0.00     0.292 C 
BRANCH  27  28
HETATM   28  N7  UNL     1      -0.112  21.421  -7.064  1.00  0.00     0.093 N 
HETATM   29  C20 UNL     1       0.187  22.826  -7.375  1.00  0.00     0.291 C 
HETATM   30  C21 UNL     1       1.594  22.939  -7.861  1.00  0.00     0.144 C 
HETATM   31  N8  UNL     1       1.940  21.986  -8.867  1.00  0.00    -0.418 N 
HETATM   32  C22 UNL     1       1.511  20.642  -8.621  1.00  0.00     0.144 C 
ATOM     33  H8  UNL     1       2.459  22.245  -9.706  1.00  0.00     0.153 HD
HETATM   34  C23 UNL     1       0.030  20.669  -8.288  1.00  0.00     0.291 C 
ENDBRANCH  27  28
ENDBRANCH  26  27
ENDBRANCH  24  26
ENDBRANCH  21  22
ENDBRANCH  12  16
ENDBRANCH   9  12
BRANCH  10  35
HETATM   35  N9  UNL     1      -6.307  27.185  -1.676  1.00  0.00    -0.368 N 
HETATM   36  C25 UNL     1      -6.969  27.113  -0.489  1.00  0.00     0.066 C 
ATOM     37  H9  UNL     1      -5.310  27.051  -1.502  1.00  0.00     0.165 HD
BRANCH  36  38
HETATM   38  C26 UNL     1      -6.992  25.925   0.389  1.00  0.00     0.024 C 
HETATM   39  C27 UNL     1      -8.400  25.239   0.238  1.00  0.00     0.010 C 
HETATM   40  C28 UNL     1      -8.272  23.939   0.986  1.00  0.00     0.001 C 
HETATM   41  C29 UNL     1      -8.299  24.316   2.468  1.00  0.00     0.000 C 
HETATM   42  C30 UNL     1      -7.050  25.067   2.753  1.00  0.00     0.001 C 
HETATM   43  C31 UNL     1      -6.815  26.258   1.836  1.00  0.00     0.010 C 
ENDBRANCH  36  38
ENDBRANCH  10  35
BRANCH   1  44
HETATM   44  N2  UNL     1      -5.160  29.448  -1.463  1.00  0.00    -0.387 N 
ATOM     45  H2  UNL     1      -4.841  28.484  -1.366  1.00  0.00     0.159 HD
BRANCH  44  46
HETATM   46  C4  UNL     1      -4.754  30.358  -0.429  1.00  0.00     0.150 C 
BRANCH  46  47
HETATM   47  C3  UNL     1      -4.906  29.908   0.963  1.00  0.00     0.290 C 
BRANCH  47  48
HETATM   48  N1  UNL     1      -4.191  30.670   1.965  1.00  0.00     0.081 N 
HETATM   49  C1  UNL     1      -4.288  29.913   3.242  1.00  0.00     0.309 C 
HETATM   50  C2  UNL     1      -2.735  30.639   1.623  1.00  0.00     0.309 C 
ENDBRANCH  47  48
ENDBRANCH  46  47
ENDBRANCH  44  46
ENDBRANCH   1  44
TORSDOF 12
ENDMDL
MODEL 2
REMARK VINA RESULT: -8.404986911      1.067      1.413
REMARK  12 active torsions:
REMARK  status: ('A' for Active; 'I' for Inactive)
REMARK    1  A    between atoms: N1_2  and  C3_4 
REMARK    2  A    between atoms: C3_4  and  C4_5 
REMARK    3  A    between atoms: C4_5  and  N2_6 
REMARK    4  A    between atoms: N2_6  and  C5_8 
REMARK    5  A    between atoms: C11_16  and  C12_17 
REMARK    6  A    between atoms: C12_17  and  N5_21 
REMARK    7  A    between atoms: C16_26  and  C17_27 
REMARK       I    between atoms: C17_27  and  N6_29 
REMARK    8  A    between atoms: N6_29  and  C18_31 
REMARK    9  A    between atoms: C18_31  and  C19_32 
REMARK   10  A    between atoms: C19_32  and  N7_33 
REMARK   11  A    between atoms: C24_40  and  N9_41 
REMARK   12  A    between atoms: C25_43  and  C26_44 
ROOT
HETATM    1  C5  UNL     1      -5.663  29.591  -1.604  1.00  0.00     0.043 A 
HETATM    2  C6  UNL     1      -5.668  30.986  -1.900  1.00  0.00     0.030 A 
HETATM    3  C7  UNL     1      -6.135  31.394  -3.110  1.00  0.00     0.005 A 
HETATM    4  C8  UNL     1      -6.588  30.489  -4.020  1.00  0.00     0.030 A 
HETATM    5  C9  UNL     1      -6.582  29.124  -3.720  1.00  0.00     0.046 A 
HETATM    6  N3  UNL     1      -7.059  28.281  -4.645  1.00  0.00    -0.364 N 
ATOM      7  H3  UNL     1      -7.397  28.639  -5.538  1.00  0.00     0.165 HD
HETATM    8  C10 UNL     1      -7.090  26.982  -4.396  1.00  0.00     0.106 A 
HETATM    9  C11 UNL     1      -6.644  26.432  -3.182  1.00  0.00     0.050 A 
HETATM   10  C24 UNL     1      -6.155  27.262  -2.199  1.00  0.00     0.062 A 
HETATM   11  C32 UNL     1      -6.118  28.653  -2.494  1.00  0.00     0.045 A 
ENDROOT
BRANCH   9  12
HETATM   12  C12 UNL     1      -6.451  24.996  -3.243  1.00  0.00     0.111 C 
HETATM   13  N4  UNL     1      -6.860  24.292  -2.304  1.00  0.00    -0.385 N 
ATOM     14  H42 UNL     1      -7.234  24.818  -1.515  1.00  0.00     0.157 HD
ATOM     15  H41 UNL     1      -6.724  23.282  -2.346  1.00  0.00     0.157 HD
BRANCH  12  16
HETATM   16  N5  UNL     1      -5.924  24.255  -4.353  1.00  0.00    -0.351 N 
HETATM   17  C13 UNL     1      -6.231  22.785  -4.404  1.00  0.00     0.162 C 
HETATM   18  C14 UNL     1      -6.779  22.654  -5.799  1.00  0.00     0.190 C 
HETATM   19  F1  UNL     1      -8.087  23.095  -5.859  1.00  0.00    -0.248 F 
HETATM   20  C15 UNL     1      -5.897  23.575  -6.577  1.00  0.00     0.073 C 
HETATM   21  C16 UNL     1      -5.189  24.466  -5.526  1.00  0.00     0.180 C 
BRANCH  21  22
HETATM   22  C17 UNL     1      -3.814  23.871  -5.433  1.00  0.00     0.240 C 
HETATM   23  O1  UNL     1      -2.984  24.222  -4.539  1.00  0.00    -0.271 OA
HETATM   24  N6  UNL     1      -3.391  22.881  -6.356  1.00  0.00    -0.358 N 
ATOM     25  H6  UNL     1      -4.007  22.555  -7.102  1.00  0.00     0.162 HD
BRANCH  24  26
HETATM   26  C18 UNL     1      -2.042  22.345  -6.200  1.00  0.00     0.152 C 
BRANCH  26  27
HETATM   27  C19 UNL     1      -1.477  21.850  -7.490  1.00  0.00     0.292 C 
BRANCH  27  28
HETATM   28  N7  UNL     1      -0.109  22.234  -7.632  1.00  0.00     0.093 N 
HETATM   29  C20 UNL     1       0.702  21.034  -7.883  1.00  0.00     0.291 C 
HETATM   30  C21 UNL     1       2.109  21.438  -8.174  1.00  0.00     0.144 C 
HETATM   31  N8  UNL     1       2.649  22.377  -7.243  1.00  0.00    -0.418 N 
HETATM   32  C22 UNL     1       1.788  23.466  -6.892  1.00  0.00     0.144 C 
ATOM     33  H8  UNL     1       3.587  22.279  -6.854  1.00  0.00     0.153 HD
HETATM   34  C23 UNL     1       0.445  22.894  -6.474  1.00  0.00     0.291 C 
ENDBRANCH  27  28
ENDBRANCH  26  27
ENDBRANCH  24  26
ENDBRANCH  21  22
ENDBRANCH  12  16
ENDBRANCH   9  12
BRANCH  10  35
HETATM   35  N9  UNL     1      -6.073  26.972  -0.960  1.00  0.00    -0.368 N 
HETATM   36  C25 UNL     1      -6.819  26.824   0.169  1.00  0.00     0.066 C 
ATOM     37  H9  UNL     1      -5.097  26.782  -0.733  1.00  0.00     0.165 HD
BRANCH  36  38
HETATM   38  C26 UNL     1      -6.945  25.565   0.933  1.00  0.00     0.024 C 
HETATM   39  C27 UNL     1      -8.382  24.979   0.667  1.00  0.00     0.010 C 
HETATM   40  C28 UNL     1      -8.358  23.613   1.297  1.00  0.00     0.001 C 
HETATM   41  C29 UNL     1      -8.426  23.856   2.806  1.00  0.00     0.000 C 
HETATM   42  C30 UNL     1      -7.151  24.505   3.205  1.00  0.00     0.001 C 
HETATM   43  C31 UNL     1      -6.811  25.757   2.410  1.00  0.00     0.010 C 
ENDBRANCH  36  38
ENDBRANCH  10  35
BRANCH   1  44
HETATM   44  N2  UNL     1      -4.966  29.206  -0.450  1.00  0.00    -0.387 N 
ATOM     45  H2  UNL     1      -4.700  28.223  -0.392  1.00  0.00     0.159 HD
BRANCH  44  46
HETATM   46  C4  UNL     1      -4.582  30.036   0.658  1.00  0.00     0.150 C 
BRANCH  46  47
HETATM   47  C3  UNL     1      -5.300  29.839   1.927  1.00  0.00     0.290 C 
BRANCH  47  48
HETATM   48  N1  UNL     1      -6.742  29.953   1.871  1.00  0.00     0.081 N 
HETATM   49  C1  UNL     1      -7.266  29.518   3.195  1.00  0.00     0.309 C 
HETATM   50  C2  UNL     1      -7.092  31.405   1.791  1.00  0.00     0.309 C 
ENDBRANCH  47  48
ENDBRANCH  46  47
ENDBRANCH  44  46
ENDBRANCH   1  44
TORSDOF 12
ENDMDL
MODEL 3
REMARK VINA RESULT: -8.253805761      2.010      5.281
REMARK  12 active torsions:
REMARK  status: ('A' for Active; 'I' for Inactive)
REMARK    1  A    between atoms: N1_2  and  C3_4 
REMARK    2  A    between atoms: C3_4  and  C4_5 
REMARK    3  A    between atoms: C4_5  and  N2_6 
REMARK    4  A    between atoms: N2_6  and  C5_8 
REMARK    5  A    between atoms: C11_16  and  C12_17 
REMARK    6  A    between atoms: C12_17  and  N5_21 
REMARK    7  A    between atoms: C16_26  and  C17_27 
REMARK       I    between atoms: C17_27  and  N6_29 
REMARK    8  A    between atoms: N6_29  and  C18_31 
REMARK    9  A    between atoms: C18_31  and  C19_32 
REMARK   10  A    between atoms: C19_32  and  N7_33 
REMARK   11  A    between atoms: C24_40  and  N9_41 
REMARK   12  A    between atoms: C25_43  and  C26_44 
ROOT
HETATM    1  C5  UNL     1      -5.665  30.096  -2.423  1.00  0.00     0.043 A 
HETATM    2  C6  UNL     1      -5.377  30.941  -1.312  1.00  0.00     0.030 A 
HETATM    3  C7  UNL     1      -5.329  30.391  -0.069  1.00  0.00     0.005 A 
HETATM    4  C8  UNL     1      -5.553  29.061   0.111  1.00  0.00     0.030 A 
HETATM    5  C9  UNL     1      -5.833  28.240  -0.985  1.00  0.00     0.046 A 
HETATM    6  N3  UNL     1      -6.025  26.935  -0.752  1.00  0.00    -0.364 N 
ATOM      7  H3  UNL     1      -5.980  26.573   0.200  1.00  0.00     0.165 HD
HETATM    8  C10 UNL     1      -6.274  26.117  -1.762  1.00  0.00     0.106 A 
HETATM    9  C11 UNL     1      -6.342  26.557  -3.094  1.00  0.00     0.050 A 
HETATM   10  C24 UNL     1      -6.141  27.888  -3.383  1.00  0.00     0.062 A 
HETATM   11  C32 UNL     1      -5.890  28.751  -2.280  1.00  0.00     0.045 A 
ENDROOT
BRANCH   9  12
HETATM   12  C12 UNL     1      -6.948  25.587  -3.987  1.00  0.00     0.111 C 
HETATM   13  N4  UNL     1      -8.164  25.668  -4.230  1.00  0.00    -0.385 N 
ATOM     14  H42 UNL     1      -8.654  26.386  -3.696  1.00  0.00     0.157 HD
ATOM     15  H41 UNL     1      -8.591  24.986  -4.857  1.00  0.00     0.157 HD
BRANCH  12  16
HETATM   16  N5  UNL     1      -6.260  24.576  -4.738  1.00  0.00    -0.351 N 
HETATM   17  C13 UNL     1      -6.478  23.148  -4.326  1.00  0.00     0.162 C 
HETATM   18  C14 UNL     1      -6.858  22.524  -5.641  1.00  0.00     0.190 C 
HETATM   19  F1  UNL     1      -8.173  22.804  -5.959  1.00  0.00    -0.248 F 
HETATM   20  C15 UNL     1      -5.945  23.218  -6.599  1.00  0.00     0.073 C 
HETATM   21  C16 UNL     1      -5.410  24.460  -5.844  1.00  0.00     0.180 C 
BRANCH  21  22
HETATM   22  C17 UNL     1      -4.024  24.053  -5.438  1.00  0.00     0.240 C 
HETATM   23  O1  UNL     1      -3.470  24.495  -4.385  1.00  0.00    -0.271 OA
HETATM   24  N6  UNL     1      -3.276  23.144  -6.230  1.00  0.00    -0.358 N 
ATOM     25  H6  UNL     1      -3.661  22.752  -7.091  1.00  0.00     0.162 HD
BRANCH  24  26
HETATM   26  C18 UNL     1      -1.937  22.790  -5.769  1.00  0.00     0.152 C 
BRANCH  26  27
HETATM   27  C19 UNL     1      -1.486  21.470  -6.300  1.00  0.00     0.292 C 
BRANCH  27  28
HETATM   28  N7  UNL     1      -0.203  21.575  -6.916  1.00  0.00     0.093 N 
HETATM   29  C20 UNL     1       0.096  22.993  -7.162  1.00  0.00     0.291 C 
HETATM   30  C21 UNL     1       1.492  23.125  -7.674  1.00  0.00     0.144 C 
HETATM   31  N8  UNL     1       1.810  22.223  -8.736  1.00  0.00    -0.418 N 
HETATM   32  C22 UNL     1       1.381  20.871  -8.548  1.00  0.00     0.144 C 
ATOM     33  H8  UNL     1       2.310  22.523  -9.572  1.00  0.00     0.153 HD
HETATM   34  C23 UNL     1      -0.093  20.886  -8.180  1.00  0.00     0.291 C 
ENDBRANCH  27  28
ENDBRANCH  26  27
ENDBRANCH  24  26
ENDBRANCH  21  22
ENDBRANCH  12  16
ENDBRANCH   9  12
BRANCH  10  35
HETATM   35  N9  UNL     1      -5.808  28.356  -4.520  1.00  0.00    -0.368 N 
HETATM   36  C25 UNL     1      -5.608  28.003  -5.820  1.00  0.00     0.066 C 
ATOM     37  H9  UNL     1      -5.625  29.355  -4.422  1.00  0.00     0.165 HD
BRANCH  36  38
HETATM   38  C26 UNL     1      -6.370  28.545  -6.964  1.00  0.00     0.024 C 
HETATM   39  C27 UNL     1      -5.724  27.983  -8.285  1.00  0.00     0.010 C 
HETATM   40  C28 UNL     1      -6.671  28.401  -9.378  1.00  0.00     0.001 C 
HETATM   41  C29 UNL     1      -6.441  29.902  -9.567  1.00  0.00     0.000 C 
HETATM   42  C30 UNL     1      -6.925  30.579  -8.336  1.00  0.00     0.001 C 
HETATM   43  C31 UNL     1      -6.324  30.038  -7.048  1.00  0.00     0.010 C 
ENDBRANCH  36  38
ENDBRANCH  10  35
BRANCH   1  44
HETATM   44  N2  UNL     1      -5.929  30.741  -3.639  1.00  0.00    -0.387 N 
ATOM     45  H2  UNL     1      -5.425  30.391  -4.454  1.00  0.00     0.159 HD
BRANCH  44  46
HETATM   46  C4  UNL     1      -6.827  31.838  -3.871  1.00  0.00     0.150 C 
BRANCH  46  47
HETATM   47  C3  UNL     1      -8.197  31.509  -4.296  1.00  0.00     0.290 C 
BRANCH  47  48
HETATM   48  N1  UNL     1      -8.727  32.277  -5.402  1.00  0.00     0.081 N 
HETATM   49  C1  UNL     1      -9.899  33.035  -4.886  1.00  0.00     0.309 C 
HETATM   50  C2  UNL     1      -7.728  33.333  -5.757  1.00  0.00     0.309 C 
ENDBRANCH  47  48
ENDBRANCH  46  47
ENDBRANCH  44  46
ENDBRANCH   1  44
TORSDOF 12
ENDMDL
MODEL 4
REMARK VINA RESULT: -8.114127683      4.215      7.520
REMARK  12 active torsions:
REMARK  status: ('A' for Active; 'I' for Inactive)
REMARK    1  A    between atoms: N1_2  and  C3_4 
REMARK    2  A    between atoms: C3_4  and  C4_5 
REMARK    3  A    between atoms: C4_5  and  N2_6 
REMARK    4  A    between atoms: N2_6  and  C5_8 
REMARK    5  A    between atoms: C11_16  and  C12_17 
REMARK    6  A    between atoms: C12_17  and  N5_21 
REMARK    7  A    between atoms: C16_26  and  C17_27 
REMARK       I    between atoms: C17_27  and  N6_29 
REMARK    8  A    between atoms: N6_29  and  C18_31 
REMARK    9  A    between atoms: C18_31  and  C19_32 
REMARK   10  A    between atoms: C19_32  and  N7_33 
REMARK   11  A    between atoms: C24_40  and  N9_41 
REMARK   12  A    between atoms: C25_43  and  C26_44 
ROOT
HETATM    1  C5  UNL     1      -6.824  27.995  -0.960  1.00  0.00     0.043 A 
HETATM    2  C6  UNL     1      -6.918  28.218   0.444  1.00  0.00     0.030 A 
HETATM    3  C7  UNL     1      -6.600  29.446   0.933  1.00  0.00     0.005 A 
HETATM    4  C8  UNL     1      -6.199  30.443   0.098  1.00  0.00     0.030 A 
HETATM    5  C9  UNL     1      -6.112  30.216  -1.278  1.00  0.00     0.046 A 
HETATM    6  N3  UNL     1      -5.732  31.239  -2.055  1.00  0.00    -0.364 N 
ATOM      7  H3  UNL     1      -5.502  32.140  -1.638  1.00  0.00     0.165 HD
HETATM    8  C10 UNL     1      -5.654  31.075  -3.366  1.00  0.00     0.106 A 
HETATM    9  C11 UNL     1      -5.963  29.858  -3.997  1.00  0.00     0.050 A 
HETATM   10  C24 UNL     1      -6.367  28.782  -3.239  1.00  0.00     0.062 A 
HETATM   11  C32 UNL     1      -6.430  28.978  -1.832  1.00  0.00     0.045 A 
ENDROOT
BRANCH   9  12
HETATM   12  C12 UNL     1      -5.495  29.791  -5.369  1.00  0.00     0.111 C 
HETATM   13  N4  UNL     1      -4.510  29.082  -5.637  1.00  0.00    -0.385 N 
ATOM     14  H42 UNL     1      -4.058  28.665  -4.823  1.00  0.00     0.157 HD
ATOM     15  H41 UNL     1      -4.182  29.035  -6.601  1.00  0.00     0.157 HD
BRANCH  12  16
HETATM   16  N5  UNL     1      -6.131  30.379  -6.513  1.00  0.00    -0.351 N 
HETATM   17  C13 UNL     1      -7.495  30.975  -6.309  1.00  0.00     0.162 C 
HETATM   18  C14 UNL     1      -7.301  32.345  -6.898  1.00  0.00     0.190 C 
HETATM   19  F1  UNL     1      -6.629  33.171  -6.018  1.00  0.00    -0.248 F 
HETATM   20  C15 UNL     1      -6.440  32.063  -8.087  1.00  0.00     0.073 C 
HETATM   21  C16 UNL     1      -5.870  30.641  -7.863  1.00  0.00     0.180 C 
BRANCH  21  22
HETATM   22  C17 UNL     1      -6.708  29.782  -8.766  1.00  0.00     0.240 C 
HETATM   23  O1  UNL     1      -6.774  28.522  -8.632  1.00  0.00    -0.271 OA
HETATM   24  N6  UNL     1      -7.465  30.363  -9.816  1.00  0.00    -0.358 N 
ATOM     25  H6  UNL     1      -7.455  31.369  -9.982  1.00  0.00     0.162 HD
BRANCH  24  26
HETATM   26  C18 UNL     1      -8.261  29.466 -10.649  1.00  0.00     0.152 C 
BRANCH  26  27
HETATM   27  C19 UNL     1      -7.789  29.442 -12.065  1.00  0.00     0.292 C 
BRANCH  27  28
HETATM   28  N7  UNL     1      -7.884  28.129 -12.617  1.00  0.00     0.093 N 
HETATM   29  C20 UNL     1      -6.817  27.292 -12.050  1.00  0.00     0.291 C 
HETATM   30  C21 UNL     1      -6.993  25.883 -12.510  1.00  0.00     0.144 C 
HETATM   31  N8  UNL     1      -7.213  25.753 -13.915  1.00  0.00    -0.418 N 
HETATM   32  C22 UNL     1      -8.149  26.675 -14.483  1.00  0.00     0.144 C 
ATOM     33  H8  UNL     1      -6.735  25.049 -14.477  1.00  0.00     0.153 HD
HETATM   34  C23 UNL     1      -7.755  28.078 -14.054  1.00  0.00     0.291 C 
ENDBRANCH  27  28
ENDBRANCH  26  27
ENDBRANCH  24  26
ENDBRANCH  21  22
ENDBRANCH  12  16
ENDBRANCH   9  12
BRANCH  10  35
HETATM   35  N9  UNL     1      -7.018  27.776  -3.673  1.00  0.00    -0.368 N 
HETATM   36  C25 UNL     1      -7.546  27.234  -4.805  1.00  0.00     0.066 C 
ATOM     37  H9  UNL     1      -7.215  27.152  -2.890  1.00  0.00     0.165 HD
BRANCH  36  38
HETATM   38  C26 UNL     1      -7.148  25.930  -5.375  1.00  0.00     0.024 C 
HETATM   39  C27 UNL     1      -7.756  24.798  -4.465  1.00  0.00     0.010 C 
HETATM   40  C28 UNL     1      -7.492  23.522  -5.218  1.00  0.00     0.001 C 
HETATM   41  C29 UNL     1      -5.996  23.249  -5.049  1.00  0.00     0.000 C 
HETATM   42  C30 UNL     1      -5.269  24.310  -5.790  1.00  0.00     0.001 C 
HETATM   43  C31 UNL     1      -5.667  25.727  -5.404  1.00  0.00     0.010 C 
ENDBRANCH  36  38
ENDBRANCH  10  35
BRANCH   1  44
HETATM   44  N2  UNL     1      -6.937  26.664  -1.385  1.00  0.00    -0.387 N 
ATOM     45  H2  UNL     1      -7.162  26.523  -2.369  1.00  0.00     0.159 HD
BRANCH  44  46
HETATM   46  C4  UNL     1      -6.772  25.476  -0.594  1.00  0.00     0.150 C 
BRANCH  46  47
HETATM   47  C3  UNL     1      -7.970  24.658  -0.350  1.00  0.00     0.290 C 
BRANCH  47  48
HETATM   48  N1  UNL     1      -8.434  24.594   1.020  1.00  0.00     0.081 N 
HETATM   49  C1  UNL     1      -7.278  24.941   1.890  1.00  0.00     0.309 C 
HETATM   50  C2  UNL     1      -9.408  25.708   1.234  1.00  0.00     0.309 C 
ENDBRANCH  47  48
ENDBRANCH  46  47
ENDBRANCH  44  46
ENDBRANCH   1  44
TORSDOF 12
ENDMDL
MODEL 5
REMARK VINA RESULT: -8.081137364      2.160      3.428
REMARK  12 active torsions:
REMARK  status: ('A' for Active; 'I' for Inactive)
REMARK    1  A    between atoms: N1_2  and  C3_4 
REMARK    2  A    between atoms: C3_4  and  C4_5 
REMARK    3  A    between atoms: C4_5  and  N2_6 
REMARK    4  A    between atoms: N2_6  and  C5_8 
REMARK    5  A    between atoms: C11_16  and  C12_17 
REMARK    6  A    between atoms: C12_17  and  N5_21 
REMARK    7  A    between atoms: C16_26  and  C17_27 
REMARK       I    between atoms: C17_27  and  N6_29 
REMARK    8  A    between atoms: N6_29  and  C18_31 
REMARK    9  A    between atoms: C18_31  and  C19_32 
REMARK   10  A    between atoms: C19_32  and  N7_33 
REMARK   11  A    between atoms: C24_40  and  N9_41 
REMARK   12  A    between atoms: C25_43  and  C26_44 
ROOT
HETATM    1  C5  UNL     1      -4.967  31.085  -6.060  1.00  0.00     0.043 A 
HETATM    2  C6  UNL     1      -5.053  32.001  -7.149  1.00  0.00     0.030 A 
HETATM    3  C7  UNL     1      -5.742  31.629  -8.261  1.00  0.00     0.005 A 
HETATM    4  C8  UNL     1      -6.336  30.407  -8.333  1.00  0.00     0.030 A 
HETATM    5  C9  UNL     1      -6.248  29.517  -7.260  1.00  0.00     0.046 A 
HETATM    6  N3  UNL     1      -6.869  28.336  -7.378  1.00  0.00    -0.364 N 
ATOM      7  H3  UNL     1      -7.371  28.105  -8.235  1.00  0.00     0.165 HD
HETATM    8  C10 UNL     1      -6.828  27.469  -6.379  1.00  0.00     0.106 A 
HETATM    9  C11 UNL     1      -6.156  27.733  -5.174  1.00  0.00     0.050 A 
HETATM   10  C24 UNL     1      -5.512  28.938  -5.004  1.00  0.00     0.062 A 
HETATM   11  C32 UNL     1      -5.558  29.848  -6.096  1.00  0.00     0.045 A 
ENDROOT
BRANCH   9  12
HETATM   12  C12 UNL     1      -5.948  26.548  -4.363  1.00  0.00     0.111 C 
HETATM   13  N4  UNL     1      -6.028  26.641  -3.127  1.00  0.00    -0.385 N 
ATOM     14  H42 UNL     1      -6.156  27.593  -2.783  1.00  0.00     0.157 HD
ATOM     15  H41 UNL     1      -5.882  25.807  -2.557  1.00  0.00     0.157 HD
BRANCH  12  16
HETATM   16  N5  UNL     1      -5.768  25.209  -4.847  1.00  0.00    -0.351 N 
HETATM   17  C13 UNL     1      -6.152  24.089  -3.922  1.00  0.00     0.162 C 
HETATM   18  C14 UNL     1      -7.051  23.276  -4.813  1.00  0.00     0.190 C 
HETATM   19  F1  UNL     1      -8.305  23.848  -4.904  1.00  0.00    -0.248 F 
HETATM   20  C15 UNL     1      -6.356  23.363  -6.133  1.00  0.00     0.073 C 
HETATM   21  C16 UNL     1      -5.355  24.538  -6.004  1.00  0.00     0.180 C 
BRANCH  21  22
HETATM   22  C17 UNL     1      -4.034  23.851  -5.804  1.00  0.00     0.240 C 
HETATM   23  O1  UNL     1      -3.154  24.296  -5.006  1.00  0.00    -0.271 OA
HETATM   24  N6  UNL     1      -3.725  22.661  -6.512  1.00  0.00    -0.358 N 
ATOM     25  H6  UNL     1      -4.386  22.250  -7.171  1.00  0.00     0.162 HD
BRANCH  24  26
HETATM   26  C18 UNL     1      -2.424  22.047  -6.262  1.00  0.00     0.152 C 
BRANCH  26  27
HETATM   27  C19 UNL     1      -1.852  21.414  -7.487  1.00  0.00     0.292 C 
BRANCH  27  28
HETATM   28  N7  UNL     1      -0.504  21.834  -7.700  1.00  0.00     0.093 N 
HETATM   29  C20 UNL     1       0.312  20.664  -8.054  1.00  0.00     0.291 C 
HETATM   30  C21 UNL     1       1.689  21.110  -8.417  1.00  0.00     0.144 C 
HETATM   31  N8  UNL     1       2.271  22.021  -7.482  1.00  0.00    -0.418 N 
HETATM   32  C22 UNL     1       1.414  23.075  -7.031  1.00  0.00     0.144 C 
ATOM     33  H8  UNL     1       3.233  21.927  -7.158  1.00  0.00     0.153 HD
HETATM   34  C23 UNL     1       0.111  22.457  -6.552  1.00  0.00     0.291 C 
ENDBRANCH  27  28
ENDBRANCH  26  27
ENDBRANCH  24  26
ENDBRANCH  21  22
ENDBRANCH  12  16
ENDBRANCH   9  12
BRANCH  10  35
HETATM   35  N9  UNL     1      -5.199  29.457  -3.882  1.00  0.00    -0.368 N 
HETATM   36  C25 UNL     1      -5.732  29.941  -2.727  1.00  0.00     0.066 C 
ATOM     37  H9  UNL     1      -4.184  29.540  -3.833  1.00  0.00     0.165 HD
BRANCH  36  38
HETATM   38  C26 UNL     1      -5.468  29.386  -1.383  1.00  0.00     0.024 C 
HETATM   39  C27 UNL     1      -6.853  29.172  -0.667  1.00  0.00     0.010 C 
HETATM   40  C28 UNL     1      -6.518  28.417   0.591  1.00  0.00     0.001 C 
HETATM   41  C29 UNL     1      -5.872  29.443   1.524  1.00  0.00     0.000 C 
HETATM   42  C30 UNL     1      -4.568  29.824   0.924  1.00  0.00     0.001 C 
HETATM   43  C31 UNL     1      -4.658  30.298  -0.518  1.00  0.00     0.010 C 
ENDBRANCH  36  38
ENDBRANCH  10  35
BRANCH   1  44
HETATM   44  N2  UNL     1      -4.062  31.417  -5.042  1.00  0.00    -0.387 N 
ATOM     45  H2  UNL     1      -3.527  30.645  -4.644  1.00  0.00     0.159 HD
BRANCH  44  46
HETATM   46  C4  UNL     1      -3.803  32.719  -4.494  1.00  0.00     0.150 C 
BRANCH  46  47
HETATM   47  C3  UNL     1      -3.346  32.783  -3.096  1.00  0.00     0.290 C 
BRANCH  47  48
HETATM   48  N1  UNL     1      -2.014  32.279  -2.834  1.00  0.00     0.081 N 
HETATM   49  C1  UNL     1      -1.059  33.198  -3.510  1.00  0.00     0.309 C 
HETATM   50  C2  UNL     1      -1.729  32.453  -1.376  1.00  0.00     0.309 C 
ENDBRANCH  47  48
ENDBRANCH  46  47
ENDBRANCH  44  46
ENDBRANCH   1  44
TORSDOF 12
ENDMDL
