MODEL 1
REMARK VINA RESULT: -7.672930780      0.000      0.000
REMARK  6 active torsions:
REMARK  status: ('A' for Active; 'I' for Inactive)
REMARK    1  A    between atoms: C2_2  and  C3_3 
REMARK    2  A    between atoms: C3_3  and  C4_4 
REMARK    3  A    between atoms: C4_4  and  O1_5 
REMARK    4  A    between atoms: C4_4  and  C5_7 
REMARK    5  A    between atoms: C12_14  and  O2_15 
REMARK    6  A    between atoms: O2_15  and  S1_16 
ROOT
HETATM    1  C5  UNL     1      22.848  -8.926 -43.501  1.00  0.00     0.043 C 
HETATM    2  C6  UNL     1      22.786 -10.427 -43.332  1.00  0.00     0.026 C 
HETATM    3  C7  UNL     1      21.524  -8.430 -44.029  1.00  0.00     0.027 C 
HETATM    4  C8  UNL     1      21.478  -6.921 -44.124  1.00  0.00     0.026 C 
HETATM    5  C9  UNL     1      20.313  -6.413 -44.881  1.00  0.00    -0.003 C 
HETATM    6  C10 UNL     1      20.089  -7.394 -46.047  1.00  0.00     0.008 C 
HETATM    7  C11 UNL     1      19.156  -6.750 -47.083  1.00  0.00     0.034 C 
HETATM    8  C12 UNL     1      17.808  -6.652 -46.355  1.00  0.00     0.149 C 
HETATM    9  C13 UNL     1      18.043  -5.700 -45.211  1.00  0.00     0.016 C 
HETATM   10  C14 UNL     1      16.765  -5.242 -44.619  1.00  0.00     0.013 C 
HETATM   11  C15 UNL     1      19.022  -6.279 -44.176  1.00  0.00    -0.002 C 
HETATM   12  C16 UNL     1      18.999  -5.337 -43.020  1.00  0.00     0.032 C 
HETATM   13  C17 UNL     1      19.663  -5.826 -41.776  1.00  0.00     0.169 C 
HETATM   14  O6  UNL     1      20.741  -6.623 -41.937  1.00  0.00    -0.380 OA
HETATM   15  C18 UNL     1      21.712  -6.248 -42.796  1.00  0.00     0.068 C 
HETATM   16  C19 UNL     1      21.925  -4.787 -42.985  1.00  0.00     0.047 C 
HETATM   17  C20 UNL     1      23.029  -6.774 -42.200  1.00  0.00     0.117 C 
HETATM   18  C21 UNL     1      23.094  -8.233 -42.216  1.00  0.00     0.140 C 
HETATM   19  O7  UNL     1      23.339  -8.928 -41.241  1.00  0.00    -0.297 OA
ENDROOT
BRANCH   1  20
HETATM   20  C4  UNL     1      24.010  -8.642 -44.424  1.00  0.00     0.133 C 
BRANCH  20  21
HETATM   21  C3  UNL     1      25.053  -9.688 -44.144  1.00  0.00     0.032 C 
BRANCH  21  22
HETATM   22  C2  UNL     1      26.315  -9.048 -43.654  1.00  0.00    -0.002 C 
HETATM   23  C1  UNL     1      26.860  -9.720 -42.427  1.00  0.00     0.005 C 
ENDBRANCH  21  22
ENDBRANCH  20  21
BRANCH  20  24
HETATM   24  O1  UNL     1      23.643  -8.635 -45.752  1.00  0.00    -0.394 OA
ATOM     25  H1  UNL     1      23.838  -7.801 -46.164  1.00  0.00     0.210 HD
ENDBRANCH  20  24
ENDBRANCH   1  20
BRANCH   8  26
HETATM   26  O2  UNL     1      16.839  -6.110 -47.165  1.00  0.00    -0.251 OA
BRANCH  26  27
HETATM   27  S1  UNL     1      15.641  -7.186 -47.597  1.00  0.00     0.251 S 
HETATM   28  O3  UNL     1      14.278  -6.540 -47.638  1.00  0.00    -0.572 OA
HETATM   29  O4  UNL     1      15.873  -7.820 -48.930  1.00  0.00    -0.572 OA
HETATM   30  O5  UNL     1      15.661  -8.437 -46.455  1.00  0.00    -0.572 OA
ENDBRANCH  26  27
ENDBRANCH   8  26
TORSDOF 6
ENDMDL
MODEL 2
REMARK VINA RESULT: -7.528690651      1.130      1.495
REMARK  6 active torsions:
REMARK  status: ('A' for Active; 'I' for Inactive)
REMARK    1  A    between atoms: C2_2  and  C3_3 
REMARK    2  A    between atoms: C3_3  and  C4_4 
REMARK    3  A    between atoms: C4_4  and  O1_5 
REMARK    4  A    between atoms: C4_4  and  C5_7 
REMARK    5  A    between atoms: C12_14  and  O2_15 
REMARK    6  A    between atoms: O2_15  and  S1_16 
ROOT
HETATM    1  C5  UNL     1      22.729  -8.482 -42.939  1.00  0.00     0.043 C 
HETATM    2  C6  UNL     1      22.862  -9.951 -42.610  1.00  0.00     0.026 C 
HETATM    3  C7  UNL     1      21.277  -8.162 -43.204  1.00  0.00     0.027 C 
HETATM    4  C8  UNL     1      21.053  -6.684 -43.438  1.00  0.00     0.026 C 
HETATM    5  C9  UNL     1      19.708  -6.368 -43.964  1.00  0.00    -0.003 C 
HETATM    6  C10 UNL     1      19.345  -7.498 -44.945  1.00  0.00     0.008 C 
HETATM    7  C11 UNL     1      18.150  -7.063 -45.806  1.00  0.00     0.034 C 
HETATM    8  C12 UNL     1      16.986  -6.986 -44.808  1.00  0.00     0.149 C 
HETATM    9  C13 UNL     1      17.356  -5.886 -43.848  1.00  0.00     0.016 C 
HETATM   10  C14 UNL     1      16.193  -5.464 -43.035  1.00  0.00     0.013 C 
HETATM   11  C15 UNL     1      18.589  -6.254 -43.005  1.00  0.00    -0.002 C 
HETATM   12  C16 UNL     1      18.714  -5.184 -41.974  1.00  0.00     0.032 C 
HETATM   13  C17 UNL     1      19.675  -5.463 -40.867  1.00  0.00     0.169 C 
HETATM   14  O6  UNL     1      20.772  -6.184 -41.184  1.00  0.00    -0.380 OA
HETATM   15  C18 UNL     1      21.493  -5.838 -42.272  1.00  0.00     0.068 C 
HETATM   16  C19 UNL     1      21.505  -4.399 -42.650  1.00  0.00     0.047 C 
HETATM   17  C20 UNL     1      22.954  -6.180 -41.935  1.00  0.00     0.117 C 
HETATM   18  C21 UNL     1      23.168  -7.620 -41.818  1.00  0.00     0.140 C 
HETATM   19  O7  UNL     1      23.687  -8.170 -40.857  1.00  0.00    -0.297 OA
ENDROOT
BRANCH   1  20
HETATM   20  C4  UNL     1      23.630  -8.219 -44.122  1.00  0.00     0.133 C 
BRANCH  20  21
HETATM   21  C3  UNL     1      24.630  -9.341 -44.164  1.00  0.00     0.032 C 
BRANCH  21  22
HETATM   22  C2  UNL     1      25.993  -8.840 -43.804  1.00  0.00    -0.002 C 
HETATM   23  C1  UNL     1      26.600  -9.600 -42.659  1.00  0.00     0.005 C 
ENDBRANCH  21  22
ENDBRANCH  20  21
BRANCH  20  24
HETATM   24  O1  UNL     1      22.934  -8.115 -45.307  1.00  0.00    -0.394 OA
ATOM     25  H1  UNL     1      22.442  -7.304 -45.352  1.00  0.00     0.210 HD
ENDBRANCH  20  24
ENDBRANCH   1  20
BRANCH   8  26
HETATM   26  O2  UNL     1      15.815  -6.626 -45.433  1.00  0.00    -0.251 OA
BRANCH  26  27
HETATM   27  S1  UNL     1      14.994  -7.906 -46.117  1.00  0.00     0.251 S 
HETATM   28  O3  UNL     1      15.628  -9.236 -45.787  1.00  0.00    -0.572 OA
HETATM   29  O4  UNL     1      13.562  -7.979 -45.696  1.00  0.00    -0.572 OA
HETATM   30  O5  UNL     1      14.996  -7.659 -47.793  1.00  0.00    -0.572 OA
ENDBRANCH  26  27
ENDBRANCH   8  26
TORSDOF 6
ENDMDL
MODEL 3
REMARK VINA RESULT: -7.359805353      2.792      7.508
REMARK  6 active torsions:
REMARK  status: ('A' for Active; 'I' for Inactive)
REMARK    1  A    between atoms: C2_2  and  C3_3 
REMARK    2  A    between atoms: C3_3  and  C4_4 
REMARK    3  A    between atoms: C4_4  and  O1_5 
REMARK    4  A    between atoms: C4_4  and  C5_7 
REMARK    5  A    between atoms: C12_14  and  O2_15 
REMARK    6  A    between atoms: O2_15  and  S1_16 
ROOT
HETATM    1  C5  UNL     1      18.575  -6.393 -45.941  1.00  0.00     0.043 C 
HETATM    2  C6  UNL     1      18.857  -5.982 -47.367  1.00  0.00     0.026 C 
HETATM    3  C7  UNL     1      19.865  -6.823 -45.284  1.00  0.00     0.027 C 
HETATM    4  C8  UNL     1      19.677  -7.149 -43.818  1.00  0.00     0.026 C 
HETATM    5  C9  UNL     1      20.843  -7.825 -43.210  1.00  0.00    -0.003 C 
HETATM    6  C10 UNL     1      21.398  -8.783 -44.280  1.00  0.00     0.008 C 
HETATM    7  C11 UNL     1      22.359  -9.784 -43.619  1.00  0.00     0.034 C 
HETATM    8  C12 UNL     1      23.547  -8.917 -43.178  1.00  0.00     0.149 C 
HETATM    9  C13 UNL     1      22.989  -7.976 -42.141  1.00  0.00     0.016 C 
HETATM   10  C14 UNL     1      24.070  -7.309 -41.381  1.00  0.00     0.013 C 
HETATM   11  C15 UNL     1      21.973  -6.994 -42.747  1.00  0.00    -0.002 C 
HETATM   12  C16 UNL     1      21.666  -6.008 -41.671  1.00  0.00     0.032 C 
HETATM   13  C17 UNL     1      20.911  -4.795 -42.104  1.00  0.00     0.169 C 
HETATM   14  O6  UNL     1      20.015  -4.962 -43.100  1.00  0.00    -0.380 OA
HETATM   15  C18 UNL     1      19.137  -5.985 -43.029  1.00  0.00     0.068 C 
HETATM   16  C19 UNL     1      18.719  -6.428 -41.671  1.00  0.00     0.047 C 
HETATM   17  C20 UNL     1      17.849  -5.482 -43.704  1.00  0.00     0.117 C 
HETATM   18  C21 UNL     1      18.027  -5.275 -45.139  1.00  0.00     0.140 C 
HETATM   19  O7  UNL     1      17.756  -4.241 -45.731  1.00  0.00    -0.297 OA
ENDROOT
BRANCH   1  20
HETATM   20  C4  UNL     1      17.536  -7.488 -46.002  1.00  0.00     0.133 C 
BRANCH  20  21
HETATM   21  C3  UNL     1      16.204  -6.813 -46.175  1.00  0.00     0.032 C 
BRANCH  21  22
HETATM   22  C2  UNL     1      15.542  -7.278 -47.434  1.00  0.00    -0.002 C 
HETATM   23  C1  UNL     1      15.356  -6.169 -48.429  1.00  0.00     0.005 C 
ENDBRANCH  21  22
ENDBRANCH  20  21
BRANCH  20  24
HETATM   24  O1  UNL     1      17.779  -8.395 -47.010  1.00  0.00    -0.394 OA
ATOM     25  H1  UNL     1      18.710  -8.549 -47.124  1.00  0.00     0.210 HD
ENDBRANCH  20  24
ENDBRANCH   1  20
BRANCH   8  26
HETATM   26  O2  UNL     1      24.525  -9.675 -42.579  1.00  0.00    -0.251 OA
BRANCH  26  27
HETATM   27  S1  UNL     1      25.871  -9.914 -43.534  1.00  0.00     0.251 S 
HETATM   28  O3  UNL     1      25.514 -10.145 -44.982  1.00  0.00    -0.572 OA
HETATM   29  O4  UNL     1      26.833  -8.771 -43.490  1.00  0.00    -0.572 OA
HETATM   30  O5  UNL     1      26.689 -11.261 -42.912  1.00  0.00    -0.572 OA
ENDBRANCH  26  27
ENDBRANCH   8  26
TORSDOF 6
ENDMDL
MODEL 4
REMARK VINA RESULT: -7.342737152      2.738      7.489
REMARK  6 active torsions:
REMARK  status: ('A' for Active; 'I' for Inactive)
REMARK    1  A    between atoms: C2_2  and  C3_3 
REMARK    2  A    between atoms: C3_3  and  C4_4 
REMARK    3  A    between atoms: C4_4  and  O1_5 
REMARK    4  A    between atoms: C4_4  and  C5_7 
REMARK    5  A    between atoms: C12_14  and  O2_15 
REMARK    6  A    between atoms: O2_15  and  S1_16 
ROOT
HETATM    1  C5  UNL     1      18.194  -6.340 -45.985  1.00  0.00     0.043 C 
HETATM    2  C6  UNL     1      18.447  -5.806 -47.376  1.00  0.00     0.026 C 
HETATM    3  C7  UNL     1      19.511  -6.713 -45.349  1.00  0.00     0.027 C 
HETATM    4  C8  UNL     1      19.344  -7.158 -43.912  1.00  0.00     0.026 C 
HETATM    5  C9  UNL     1      20.558  -7.783 -43.344  1.00  0.00    -0.003 C 
HETATM    6  C10 UNL     1      21.192  -8.614 -44.474  1.00  0.00     0.008 C 
HETATM    7  C11 UNL     1      22.227  -9.580 -43.879  1.00  0.00     0.034 C 
HETATM    8  C12 UNL     1      23.340  -8.656 -43.364  1.00  0.00     0.149 C 
HETATM    9  C13 UNL     1      22.705  -7.841 -42.268  1.00  0.00     0.016 C 
HETATM   10  C14 UNL     1      23.727  -7.147 -41.451  1.00  0.00     0.013 C 
HETATM   11  C15 UNL     1      21.617  -6.900 -42.812  1.00  0.00    -0.002 C 
HETATM   12  C16 UNL     1      21.228  -6.022 -41.670  1.00  0.00     0.032 C 
HETATM   13  C17 UNL     1      20.380  -4.845 -42.022  1.00  0.00     0.169 C 
HETATM   14  O6  UNL     1      19.505  -5.009 -43.036  1.00  0.00    -0.380 OA
HETATM   15  C18 UNL     1      18.710  -6.101 -43.046  1.00  0.00     0.068 C 
HETATM   16  C19 UNL     1      18.324  -6.673 -41.728  1.00  0.00     0.047 C 
HETATM   17  C20 UNL     1      17.390  -5.654 -43.696  1.00  0.00     0.117 C 
HETATM   18  C21 UNL     1      17.556  -5.330 -45.111  1.00  0.00     0.140 C 
HETATM   19  O7  UNL     1      17.205  -4.281 -45.629  1.00  0.00    -0.297 OA
ENDROOT
BRANCH   1  20
HETATM   20  C4  UNL     1      17.245  -7.506 -46.135  1.00  0.00     0.133 C 
BRANCH  20  21
HETATM   21  C3  UNL     1      15.964  -6.955 -46.695  1.00  0.00     0.032 C 
BRANCH  21  22
HETATM   22  C2  UNL     1      14.786  -7.567 -46.004  1.00  0.00    -0.002 C 
HETATM   23  C1  UNL     1      13.678  -6.579 -45.772  1.00  0.00     0.005 C 
ENDBRANCH  21  22
ENDBRANCH  20  21
BRANCH  20  24
HETATM   24  O1  UNL     1      17.757  -8.508 -46.931  1.00  0.00    -0.394 OA
ATOM     25  H1  UNL     1      18.697  -8.424 -47.036  1.00  0.00     0.210 HD
ENDBRANCH  20  24
ENDBRANCH   1  20
BRANCH   8  26
HETATM   26  O2  UNL     1      24.373  -9.377 -42.813  1.00  0.00    -0.251 OA
BRANCH  26  27
HETATM   27  S1  UNL     1      25.549  -9.817 -43.910  1.00  0.00     0.251 S 
HETATM   28  O3  UNL     1      25.991 -11.249 -43.733  1.00  0.00    -0.572 OA
HETATM   29  O4  UNL     1      25.115  -9.659 -45.331  1.00  0.00    -0.572 OA
HETATM   30  O5  UNL     1      26.860  -8.768 -43.683  1.00  0.00    -0.572 OA
ENDBRANCH  26  27
ENDBRANCH   8  26
TORSDOF 6
ENDMDL
MODEL 5
REMARK VINA RESULT: -7.128657959      3.488      7.903
REMARK  6 active torsions:
REMARK  status: ('A' for Active; 'I' for Inactive)
REMARK    1  A    between atoms: C2_2  and  C3_3 
REMARK    2  A    between atoms: C3_3  and  C4_4 
REMARK    3  A    between atoms: C4_4  and  O1_5 
REMARK    4  A    between atoms: C4_4  and  C5_7 
REMARK    5  A    between atoms: C12_14  and  O2_15 
REMARK    6  A    between atoms: O2_15  and  S1_16 
ROOT
HETATM    1  C5  UNL     1      16.592  -7.729 -45.443  1.00  0.00     0.043 C 
HETATM    2  C6  UNL     1      16.352  -9.219 -45.392  1.00  0.00     0.026 C 
HETATM    3  C7  UNL     1      17.814  -7.393 -44.622  1.00  0.00     0.027 C 
HETATM    4  C8  UNL     1      18.177  -5.927 -44.713  1.00  0.00     0.026 C 
HETATM    5  C9  UNL     1      19.192  -5.508 -43.722  1.00  0.00    -0.003 C 
HETATM    6  C10 UNL     1      18.879  -6.277 -42.425  1.00  0.00     0.008 C 
HETATM    7  C11 UNL     1      19.636  -5.633 -41.255  1.00  0.00     0.034 C 
HETATM    8  C12 UNL     1      21.112  -5.921 -41.567  1.00  0.00     0.149 C 
HETATM    9  C13 UNL     1      21.402  -5.174 -42.842  1.00  0.00     0.016 C 
HETATM   10  C14 UNL     1      22.858  -5.077 -43.091  1.00  0.00     0.013 C 
HETATM   11  C15 UNL     1      20.616  -5.747 -44.033  1.00  0.00    -0.002 C 
HETATM   12  C16 UNL     1      21.149  -5.059 -45.244  1.00  0.00     0.032 C 
HETATM   13  C17 UNL     1      20.733  -5.643 -46.553  1.00  0.00     0.169 C 
HETATM   14  O6  UNL     1      19.498  -6.185 -46.611  1.00  0.00    -0.380 OA
HETATM   15  C18 UNL     1      18.451  -5.483 -46.127  1.00  0.00     0.068 C 
HETATM   16  C19 UNL     1      18.536  -3.999 -46.198  1.00  0.00     0.047 C 
HETATM   17  C20 UNL     1      17.247  -5.862 -47.007  1.00  0.00     0.117 C 
HETATM   18  C21 UNL     1      16.849  -7.255 -46.822  1.00  0.00     0.140 C 
HETATM   19  O7  UNL     1      16.711  -8.064 -47.728  1.00  0.00    -0.297 OA
ENDROOT
BRANCH   1  20
HETATM   20  C4  UNL     1      15.329  -7.069 -44.942  1.00  0.00     0.133 C 
BRANCH  20  21
HETATM   21  C3  UNL     1      14.177  -7.802 -45.570  1.00  0.00     0.032 C 
BRANCH  21  22
HETATM   22  C2  UNL     1      13.330  -6.860 -46.367  1.00  0.00    -0.002 C 
HETATM   23  C1  UNL     1      12.093  -6.436 -45.629  1.00  0.00     0.005 C 
ENDBRANCH  21  22
ENDBRANCH  20  21
BRANCH  20  24
HETATM   24  O1  UNL     1      15.241  -7.068 -43.567  1.00  0.00    -0.394 OA
ATOM     25  H1  UNL     1      15.082  -6.194 -43.228  1.00  0.00     0.210 HD
ENDBRANCH  20  24
ENDBRANCH   1  20
BRANCH   8  26
HETATM   26  O2  UNL     1      21.937  -5.423 -40.587  1.00  0.00    -0.251 OA
BRANCH  26  27
HETATM   27  S1  UNL     1      21.319  -4.091 -39.797  1.00  0.00     0.251 S 
HETATM   28  O3  UNL     1      19.865  -4.264 -39.432  1.00  0.00    -0.572 OA
HETATM   29  O4  UNL     1      22.056  -3.759 -38.540  1.00  0.00    -0.572 OA
HETATM   30  O5  UNL     1      21.507  -2.765 -40.834  1.00  0.00    -0.572 OA
ENDBRANCH  26  27
ENDBRANCH   8  26
TORSDOF 6
ENDMDL
