MODEL 1
REMARK VINA RESULT: -7.069123483      0.000      0.000
REMARK  10 active torsions:
REMARK  status: ('A' for Active; 'I' for Inactive)
REMARK    1  A    between atoms: C2_2  and  C4_4 
REMARK    2  A    between atoms: C4_4  and  N1_5 
REMARK    3  A    between atoms: C4_4  and  C5_9 
REMARK       I    between atoms: C5_9  and  N2_11 
REMARK    4  A    between atoms: N2_11  and  C6_13 
REMARK    5  A    between atoms: C6_13  and  C7_14 
REMARK    6  A    between atoms: C6_13  and  N7_25 
REMARK    7  A    between atoms: C6_13  and  C16_42 
REMARK    8  A    between atoms: C7_14  and  S1_15 
REMARK    9  A    between atoms: S1_15  and  C8_16 
REMARK       I    between atoms: N7_25  and  C10_27 
REMARK       I    between atoms: C10_27  and  N9_31 
REMARK   10  A    between atoms: N9_31  and  N10_33 
REMARK       I    between atoms: N10_33  and  C11_35 
REMARK       I    between atoms: C11_35  and  N11_37 
ROOT
HETATM    1  C6  UNL     1      29.169  62.031   7.553  1.00  0.00     0.221 C 
ENDROOT
BRANCH   1   2
HETATM    2  N2  UNL     1      29.180  61.804   8.972  1.00  0.00    -0.323 N 
HETATM    3  C5  UNL     1      28.011  61.901   9.739  1.00  0.00     0.251 C 
HETATM    4  O1  UNL     1      26.902  62.195   9.224  1.00  0.00    -0.271 OA
ATOM      5  H2  UNL     1      30.059  61.565   9.431  1.00  0.00     0.165 HD
BRANCH   3   6
HETATM    6  C4  UNL     1      27.996  61.664  11.211  1.00  0.00     0.278 C 
BRANCH   6   7
HETATM    7  C2  UNL     1      29.403  61.971  11.762  1.00  0.00     0.017 C 
HETATM    8  C1  UNL     1      29.451  63.365  12.342  1.00  0.00     0.012 C 
HETATM    9  C3  UNL     1      29.807  60.979  12.812  1.00  0.00     0.012 C 
ENDBRANCH   6   7
BRANCH   6  10
HETATM   10  N1  UNL     1      27.121  62.589  11.858  1.00  0.00    -0.066 N 
ATOM     11  H13 UNL     1      26.244  62.740  11.360  1.00  0.00     0.275 HD
ATOM     12  H12 UNL     1      26.710  62.230  12.720  1.00  0.00     0.275 HD
ATOM     13  H11 UNL     1      27.670  63.438  11.988  1.00  0.00     0.275 HD
ENDBRANCH   6  10
ENDBRANCH   3   6
ENDBRANCH   1   2
BRANCH   1  14
HETATM   14  C7  UNL     1      30.517  61.869   6.926  1.00  0.00     0.148 C 
BRANCH  14  15
HETATM   15  S1  UNL     1      31.883  61.441   7.945  1.00  0.00    -0.086 SA
BRANCH  15  16
HETATM   16  C8  UNL     1      32.766  59.963   7.615  1.00  0.00     0.178 A 
HETATM   17  N3  UNL     1      32.765  59.155   6.549  1.00  0.00    -0.263 N 
HETATM   18  N4  UNL     1      33.584  58.166   6.781  1.00  0.00    -0.226 N 
ATOM     19  H3  UNL     1      32.218  59.288   5.699  1.00  0.00     0.190 HD
HETATM   20  N5  UNL     1      34.110  58.325   7.976  1.00  0.00    -0.224 N 
ATOM     21  H4  UNL     1      33.783  57.397   6.141  1.00  0.00     0.210 HD
HETATM   22  N6  UNL     1      33.634  59.421   8.526  1.00  0.00    -0.259 N 
ATOM     23  H5  UNL     1      34.784  57.695   8.410  1.00  0.00     0.210 HD
HETATM   24  C9  UNL     1      33.985  59.914   9.836  1.00  0.00     0.181 C 
ENDBRANCH  15  16
ENDBRANCH  14  15
ENDBRANCH   1  14
BRANCH   1  25
HETATM   25  N7  UNL     1      28.759  63.416   7.281  1.00  0.00    -0.187 N 
HETATM   26  C10 UNL     1      29.309  64.552   7.907  1.00  0.00     0.688 C 
HETATM   27  N8  UNL     1      30.198  64.480   8.872  1.00  0.00    -0.234 N 
HETATM   28  N9  UNL     1      28.873  65.831   7.486  1.00  0.00    -0.129 N 
ATOM     29  H82 UNL     1      30.513  63.558   9.174  1.00  0.00     0.174 HD
ATOM     30  H81 UNL     1      30.596  65.302   9.325  1.00  0.00     0.174 HD
ATOM     31  H9  UNL     1      27.882  66.049   7.595  1.00  0.00     0.205 HD
ATOM     32  H7  UNL     1      28.025  63.565   6.589  1.00  0.00     0.181 HD
BRANCH  28  33
HETATM   33  N10 UNL     1      29.686  66.811   6.940  1.00  0.00    -0.237 N 
HETATM   34  C11 UNL     1      30.505  67.627   7.762  1.00  0.00     0.337 C 
HETATM   35  O2  UNL     1      30.458  67.412   9.017  1.00  0.00    -0.245 OA
HETATM   36  N11 UNL     1      31.354  68.647   7.269  1.00  0.00    -0.333 N 
HETATM   37  C12 UNL     1      32.203  69.494   8.106  1.00  0.00     0.127 C 
HETATM   38  C15 UNL     1      31.530  69.024   5.881  1.00  0.00     0.127 C 
HETATM   39  C13 UNL     1      32.146  70.808   7.321  1.00  0.00     0.022 C 
HETATM   40  C14 UNL     1      32.330  70.290   5.908  1.00  0.00     0.022 C 
ATOM     41  H10 UNL     1      29.695  66.948   5.930  1.00  0.00     0.192 HD
ENDBRANCH  28  33
ENDBRANCH   1  25
BRANCH   1  42
HETATM   42  C16 UNL     1      28.203  61.160   6.851  1.00  0.00     0.226 C 
HETATM   43  O3  UNL     1      28.190  59.912   6.871  1.00  0.00    -0.645 OA
HETATM   44  O4  UNL     1      27.215  61.778   6.101  1.00  0.00    -0.645 OA
ENDBRANCH   1  42
TORSDOF 10
ENDMDL
MODEL 2
REMARK VINA RESULT: -7.041369192      2.809      7.650
REMARK  10 active torsions:
REMARK  status: ('A' for Active; 'I' for Inactive)
REMARK    1  A    between atoms: C2_2  and  C4_4 
REMARK    2  A    between atoms: C4_4  and  N1_5 
REMARK    3  A    between atoms: C4_4  and  C5_9 
REMARK       I    between atoms: C5_9  and  N2_11 
REMARK    4  A    between atoms: N2_11  and  C6_13 
REMARK    5  A    between atoms: C6_13  and  C7_14 
REMARK    6  A    between atoms: C6_13  and  N7_25 
REMARK    7  A    between atoms: C6_13  and  C16_42 
REMARK    8  A    between atoms: C7_14  and  S1_15 
REMARK    9  A    between atoms: S1_15  and  C8_16 
REMARK       I    between atoms: N7_25  and  C10_27 
REMARK       I    between atoms: C10_27  and  N9_31 
REMARK   10  A    between atoms: N9_31  and  N10_33 
REMARK       I    between atoms: N10_33  and  C11_35 
REMARK       I    between atoms: C11_35  and  N11_37 
ROOT
HETATM    1  C6  UNL     1      28.947  62.419   8.970  1.00  0.00     0.221 C 
ENDROOT
BRANCH   1   2
HETATM    2  N2  UNL     1      29.907  61.588   8.298  1.00  0.00    -0.323 N 
HETATM    3  C5  UNL     1      31.262  61.940   8.229  1.00  0.00     0.251 C 
HETATM    4  O1  UNL     1      31.699  62.999   8.748  1.00  0.00    -0.271 OA
ATOM      5  H2  UNL     1      29.595  60.721   7.861  1.00  0.00     0.165 HD
BRANCH   3   6
HETATM    6  C4  UNL     1      32.278  61.091   7.543  1.00  0.00     0.278 C 
BRANCH   6   7
HETATM    7  C2  UNL     1      33.555  61.933   7.350  1.00  0.00     0.017 C 
HETATM    8  C1  UNL     1      34.785  61.068   7.490  1.00  0.00     0.012 C 
HETATM    9  C3  UNL     1      33.568  62.607   6.010  1.00  0.00     0.012 C 
ENDBRANCH   6   7
BRANCH   6  10
HETATM   10  N1  UNL     1      32.662  59.998   8.378  1.00  0.00    -0.066 N 
ATOM     11  H13 UNL     1      33.670  59.839   8.405  1.00  0.00     0.275 HD
ATOM     12  H12 UNL     1      32.542  60.181   9.373  1.00  0.00     0.275 HD
ATOM     13  H11 UNL     1      32.130  59.196   8.040  1.00  0.00     0.275 HD
ENDBRANCH   6  10
ENDBRANCH   3   6
ENDBRANCH   1   2
BRANCH   1  14
HETATM   14  C7  UNL     1      28.678  63.700   8.249  1.00  0.00     0.148 C 
BRANCH  14  15
HETATM   15  S1  UNL     1      29.065  65.220   9.042  1.00  0.00    -0.086 SA
BRANCH  15  16
HETATM   16  C8  UNL     1      29.808  66.506   8.112  1.00  0.00     0.178 A 
HETATM   17  N3  UNL     1      29.573  66.945   6.870  1.00  0.00    -0.263 N 
HETATM   18  N4  UNL     1      30.398  67.922   6.615  1.00  0.00    -0.226 N 
ATOM     19  H3  UNL     1      28.868  66.578   6.230  1.00  0.00     0.190 HD
HETATM   20  N5  UNL     1      31.159  68.118   7.671  1.00  0.00    -0.224 N 
ATOM     21  H4  UNL     1      30.446  68.447   5.742  1.00  0.00     0.210 HD
HETATM   22  N6  UNL     1      30.829  67.267   8.617  1.00  0.00    -0.259 N 
ATOM     23  H5  UNL     1      31.892  68.823   7.744  1.00  0.00     0.210 HD
HETATM   24  C9  UNL     1      31.451  67.187   9.917  1.00  0.00     0.181 C 
ENDBRANCH  15  16
ENDBRANCH  14  15
ENDBRANCH   1  14
BRANCH   1  25
HETATM   25  N7  UNL     1      29.467  62.799  10.291  1.00  0.00    -0.187 N 
HETATM   26  C10 UNL     1      29.361  62.008  11.452  1.00  0.00     0.688 C 
HETATM   27  N8  UNL     1      28.703  60.871  11.488  1.00  0.00    -0.234 N 
HETATM   28  N9  UNL     1      29.980  62.466  12.640  1.00  0.00    -0.129 N 
ATOM     29  H82 UNL     1      28.257  60.541  10.632  1.00  0.00     0.174 HD
ATOM     30  H81 UNL     1      28.626  60.299  12.328  1.00  0.00     0.174 HD
ATOM     31  H9  UNL     1      29.664  63.358  13.021  1.00  0.00     0.205 HD
ATOM     32  H7  UNL     1      29.939  63.700  10.373  1.00  0.00     0.181 HD
BRANCH  28  33
HETATM   33  N10 UNL     1      30.982  61.798  13.325  1.00  0.00    -0.237 N 
HETATM   34  C11 UNL     1      31.956  61.030  12.636  1.00  0.00     0.337 C 
HETATM   35  O2  UNL     1      31.866  60.990  11.366  1.00  0.00    -0.245 OA
HETATM   36  N11 UNL     1      33.001  60.322  13.276  1.00  0.00    -0.333 N 
HETATM   37  C12 UNL     1      34.011  59.527  12.578  1.00  0.00     0.127 C 
HETATM   38  C15 UNL     1      33.252  60.259  14.702  1.00  0.00     0.127 C 
HETATM   39  C13 UNL     1      34.234  58.403  13.593  1.00  0.00     0.022 C 
HETATM   40  C14 UNL     1      34.303  59.205  14.878  1.00  0.00     0.022 C 
ATOM     41  H10 UNL     1      31.019  61.859  14.342  1.00  0.00     0.192 HD
ENDBRANCH  28  33
ENDBRANCH   1  25
BRANCH   1  42
HETATM   42  C16 UNL     1      27.666  61.720   9.208  1.00  0.00     0.226 C 
HETATM   43  O3  UNL     1      26.627  62.232   9.673  1.00  0.00    -0.645 OA
HETATM   44  O4  UNL     1      27.603  60.374   8.885  1.00  0.00    -0.645 OA
ENDBRANCH   1  42
TORSDOF 10
ENDMDL
MODEL 3
REMARK VINA RESULT: -7.003865593      2.865      7.984
REMARK  10 active torsions:
REMARK  status: ('A' for Active; 'I' for Inactive)
REMARK    1  A    between atoms: C2_2  and  C4_4 
REMARK    2  A    between atoms: C4_4  and  N1_5 
REMARK    3  A    between atoms: C4_4  and  C5_9 
REMARK       I    between atoms: C5_9  and  N2_11 
REMARK    4  A    between atoms: N2_11  and  C6_13 
REMARK    5  A    between atoms: C6_13  and  C7_14 
REMARK    6  A    between atoms: C6_13  and  N7_25 
REMARK    7  A    between atoms: C6_13  and  C16_42 
REMARK    8  A    between atoms: C7_14  and  S1_15 
REMARK    9  A    between atoms: S1_15  and  C8_16 
REMARK       I    between atoms: N7_25  and  C10_27 
REMARK       I    between atoms: C10_27  and  N9_31 
REMARK   10  A    between atoms: N9_31  and  N10_33 
REMARK       I    between atoms: N10_33  and  C11_35 
REMARK       I    between atoms: C11_35  and  N11_37 
ROOT
HETATM    1  C6  UNL     1      29.293  63.864  10.347  1.00  0.00     0.221 C 
ENDROOT
BRANCH   1   2
HETATM    2  N2  UNL     1      29.644  63.402   9.034  1.00  0.00    -0.323 N 
HETATM    3  C5  UNL     1      30.981  63.245   8.643  1.00  0.00     0.251 C 
HETATM    4  O1  UNL     1      31.934  63.506   9.422  1.00  0.00    -0.271 OA
ATOM      5  H2  UNL     1      28.902  63.181   8.370  1.00  0.00     0.165 HD
BRANCH   3   6
HETATM    6  C4  UNL     1      31.370  62.760   7.288  1.00  0.00     0.278 C 
BRANCH   6   7
HETATM    7  C2  UNL     1      32.810  62.217   7.368  1.00  0.00     0.017 C 
HETATM    8  C1  UNL     1      32.800  60.718   7.558  1.00  0.00     0.012 C 
HETATM    9  C3  UNL     1      33.592  62.558   6.135  1.00  0.00     0.012 C 
ENDBRANCH   6   7
BRANCH   6  10
HETATM   10  N1  UNL     1      30.562  61.647   6.904  1.00  0.00    -0.066 N 
ATOM     11  H13 UNL     1      30.913  61.149   6.086  1.00  0.00     0.275 HD
ATOM     12  H12 UNL     1      30.610  60.863   7.553  1.00  0.00     0.275 HD
ATOM     13  H11 UNL     1      29.621  62.022   6.782  1.00  0.00     0.275 HD
ENDBRANCH   6  10
ENDBRANCH   3   6
ENDBRANCH   1   2
BRANCH   1  14
HETATM   14  C7  UNL     1      29.739  65.267  10.610  1.00  0.00     0.148 C 
BRANCH  14  15
HETATM   15  S1  UNL     1      29.078  66.567   9.630  1.00  0.00    -0.086 SA
BRANCH  15  16
HETATM   16  C8  UNL     1      29.928  67.061   8.179  1.00  0.00     0.178 A 
HETATM   17  N3  UNL     1      29.630  66.902   6.885  1.00  0.00    -0.263 N 
HETATM   18  N4  UNL     1      30.585  67.433   6.173  1.00  0.00    -0.226 N 
ATOM     19  H3  UNL     1      28.797  66.442   6.516  1.00  0.00     0.190 HD
HETATM   20  N5  UNL     1      31.491  67.932   6.987  1.00  0.00    -0.224 N 
ATOM     21  H4  UNL     1      30.623  67.458   5.154  1.00  0.00     0.210 HD
HETATM   22  N6  UNL     1      31.125  67.724   8.233  1.00  0.00    -0.259 N 
ATOM     23  H5  UNL     1      32.345  68.405   6.697  1.00  0.00     0.210 HD
HETATM   24  C9  UNL     1      31.874  68.133   9.398  1.00  0.00     0.181 C 
ENDBRANCH  15  16
ENDBRANCH  14  15
ENDBRANCH   1  14
BRANCH   1  25
HETATM   25  N7  UNL     1      29.963  63.031  11.356  1.00  0.00    -0.187 N 
HETATM   26  C10 UNL     1      29.567  61.726  11.708  1.00  0.00     0.688 C 
HETATM   27  N8  UNL     1      28.492  61.146  11.222  1.00  0.00    -0.234 N 
HETATM   28  N9  UNL     1      30.355  61.009  12.640  1.00  0.00    -0.129 N 
ATOM     29  H82 UNL     1      27.925  61.662  10.550  1.00  0.00     0.174 HD
ATOM     30  H81 UNL     1      28.205  60.202  11.477  1.00  0.00     0.174 HD
ATOM     31  H9  UNL     1      30.456  61.407  13.575  1.00  0.00     0.205 HD
ATOM     32  H7  UNL     1      30.772  63.426  11.835  1.00  0.00     0.181 HD
BRANCH  28  33
HETATM   33  N10 UNL     1      31.001  59.811  12.384  1.00  0.00    -0.237 N 
HETATM   34  C11 UNL     1      32.327  59.786  11.881  1.00  0.00     0.337 C 
HETATM   35  O2  UNL     1      32.890  60.912  11.682  1.00  0.00    -0.245 OA
HETATM   36  N11 UNL     1      33.042  58.598  11.594  1.00  0.00    -0.333 N 
HETATM   37  C12 UNL     1      34.409  58.559  11.075  1.00  0.00     0.127 C 
HETATM   38  C15 UNL     1      32.560  57.242  11.761  1.00  0.00     0.127 C 
HETATM   39  C13 UNL     1      34.335  57.316  10.185  1.00  0.00     0.022 C 
HETATM   40  C14 UNL     1      33.583  56.369  11.100  1.00  0.00     0.022 C 
ATOM     41  H10 UNL     1      30.516  58.932  12.560  1.00  0.00     0.192 HD
ENDBRANCH  28  33
ENDBRANCH   1  25
BRANCH   1  42
HETATM   42  C16 UNL     1      27.843  63.761  10.613  1.00  0.00     0.226 C 
HETATM   43  O3  UNL     1      27.266  64.082  11.672  1.00  0.00    -0.645 OA
HETATM   44  O4  UNL     1      27.041  63.266   9.597  1.00  0.00    -0.645 OA
ENDBRANCH   1  42
TORSDOF 10
ENDMDL
MODEL 4
REMARK VINA RESULT: -6.982402173      4.362      8.277
REMARK  10 active torsions:
REMARK  status: ('A' for Active; 'I' for Inactive)
REMARK    1  A    between atoms: C2_2  and  C4_4 
REMARK    2  A    between atoms: C4_4  and  N1_5 
REMARK    3  A    between atoms: C4_4  and  C5_9 
REMARK       I    between atoms: C5_9  and  N2_11 
REMARK    4  A    between atoms: N2_11  and  C6_13 
REMARK    5  A    between atoms: C6_13  and  C7_14 
REMARK    6  A    between atoms: C6_13  and  N7_25 
REMARK    7  A    between atoms: C6_13  and  C16_42 
REMARK    8  A    between atoms: C7_14  and  S1_15 
REMARK    9  A    between atoms: S1_15  and  C8_16 
REMARK       I    between atoms: N7_25  and  C10_27 
REMARK       I    between atoms: C10_27  and  N9_31 
REMARK   10  A    between atoms: N9_31  and  N10_33 
REMARK       I    between atoms: N10_33  and  C11_35 
REMARK       I    between atoms: C11_35  and  N11_37 
ROOT
HETATM    1  C6  UNL     1      32.641  61.422  10.041  1.00  0.00     0.221 C 
ENDROOT
BRANCH   1   2
HETATM    2  N2  UNL     1      32.853  60.013  10.222  1.00  0.00    -0.323 N 
HETATM    3  C5  UNL     1      34.008  59.377   9.744  1.00  0.00     0.251 C 
HETATM    4  O1  UNL     1      34.908  60.009   9.133  1.00  0.00    -0.271 OA
ATOM      5  H2  UNL     1      32.147  59.462  10.710  1.00  0.00     0.165 HD
BRANCH   3   6
HETATM    6  C4  UNL     1      34.254  57.918   9.926  1.00  0.00     0.278 C 
BRANCH   6   7
HETATM    7  C2  UNL     1      33.314  57.408  11.037  1.00  0.00     0.017 C 
HETATM    8  C1  UNL     1      33.035  55.935  10.858  1.00  0.00     0.012 C 
HETATM    9  C3  UNL     1      33.900  57.643  12.397  1.00  0.00     0.012 C 
ENDBRANCH   6   7
BRANCH   6  10
HETATM   10  N1  UNL     1      33.882  57.198   8.750  1.00  0.00    -0.066 N 
ATOM     11  H13 UNL     1      34.221  56.236   8.735  1.00  0.00     0.275 HD
ATOM     12  H12 UNL     1      32.888  56.976   8.703  1.00  0.00     0.275 HD
ATOM     13  H11 UNL     1      34.215  57.761   7.968  1.00  0.00     0.275 HD
ENDBRANCH   6  10
ENDBRANCH   3   6
ENDBRANCH   1   2
BRANCH   1  14
HETATM   14  C7  UNL     1      32.763  61.852   8.614  1.00  0.00     0.148 C 
BRANCH  14  15
HETATM   15  S1  UNL     1      31.842  60.996   7.387  1.00  0.00    -0.086 SA
BRANCH  15  16
HETATM   16  C8  UNL     1      30.269  61.610   6.915  1.00  0.00     0.178 A 
HETATM   17  N3  UNL     1      29.713  62.818   7.062  1.00  0.00    -0.263 N 
HETATM   18  N4  UNL     1      28.511  62.783   6.558  1.00  0.00    -0.226 N 
ATOM     19  H3  UNL     1      30.155  63.629   7.495  1.00  0.00     0.190 HD
HETATM   20  N5  UNL     1      28.285  61.574   6.090  1.00  0.00    -0.224 N 
ATOM     21  H4  UNL     1      27.855  63.564   6.532  1.00  0.00     0.210 HD
HETATM   22  N6  UNL     1      29.342  60.819   6.289  1.00  0.00    -0.259 N 
ATOM     23  H5  UNL     1      27.421  61.270   5.641  1.00  0.00     0.210 HD
HETATM   24  C9  UNL     1      29.457  59.432   5.906  1.00  0.00     0.181 C 
ENDBRANCH  15  16
ENDBRANCH  14  15
ENDBRANCH   1  14
BRANCH   1  25
HETATM   25  N7  UNL     1      33.668  62.172  10.778  1.00  0.00    -0.187 N 
HETATM   26  C10 UNL     1      33.917  62.043  12.159  1.00  0.00     0.688 C 
HETATM   27  N8  UNL     1      33.189  61.289  12.952  1.00  0.00    -0.234 N 
HETATM   28  N9  UNL     1      34.994  62.770  12.722  1.00  0.00    -0.129 N 
ATOM     29  H82 UNL     1      32.414  60.765  12.546  1.00  0.00     0.174 HD
ATOM     30  H81 UNL     1      33.369  61.197  13.951  1.00  0.00     0.174 HD
ATOM     31  H9  UNL     1      34.958  63.788  12.657  1.00  0.00     0.205 HD
ATOM     32  H7  UNL     1      34.242  62.832  10.253  1.00  0.00     0.181 HD
BRANCH  28  33
HETATM   33  N10 UNL     1      36.091  62.209  13.353  1.00  0.00    -0.237 N 
HETATM   34  C11 UNL     1      36.723  61.051  12.834  1.00  0.00     0.337 C 
HETATM   35  O2  UNL     1      36.237  60.559  11.764  1.00  0.00    -0.245 OA
HETATM   36  N11 UNL     1      37.844  60.426  13.432  1.00  0.00    -0.333 N 
HETATM   37  C12 UNL     1      38.505  59.231  12.906  1.00  0.00     0.127 C 
HETATM   38  C15 UNL     1      38.522  60.848  14.641  1.00  0.00     0.127 C 
HETATM   39  C13 UNL     1      38.927  58.548  14.210  1.00  0.00     0.022 C 
HETATM   40  C14 UNL     1      39.470  59.737  14.978  1.00  0.00     0.022 C 
ATOM     41  H10 UNL     1      36.451  62.636  14.206  1.00  0.00     0.192 HD
ENDBRANCH  28  33
ENDBRANCH   1  25
BRANCH   1  42
HETATM   42  C16 UNL     1      31.335  61.868  10.569  1.00  0.00     0.226 C 
HETATM   43  O3  UNL     1      30.626  61.250  11.390  1.00  0.00    -0.645 OA
HETATM   44  O4  UNL     1      30.845  63.083  10.119  1.00  0.00    -0.645 OA
ENDBRANCH   1  42
TORSDOF 10
ENDMDL
MODEL 5
REMARK VINA RESULT: -6.916534727      4.121      8.125
REMARK  10 active torsions:
REMARK  status: ('A' for Active; 'I' for Inactive)
REMARK    1  A    between atoms: C2_2  and  C4_4 
REMARK    2  A    between atoms: C4_4  and  N1_5 
REMARK    3  A    between atoms: C4_4  and  C5_9 
REMARK       I    between atoms: C5_9  and  N2_11 
REMARK    4  A    between atoms: N2_11  and  C6_13 
REMARK    5  A    between atoms: C6_13  and  C7_14 
REMARK    6  A    between atoms: C6_13  and  N7_25 
REMARK    7  A    between atoms: C6_13  and  C16_42 
REMARK    8  A    between atoms: C7_14  and  S1_15 
REMARK    9  A    between atoms: S1_15  and  C8_16 
REMARK       I    between atoms: N7_25  and  C10_27 
REMARK       I    between atoms: C10_27  and  N9_31 
REMARK   10  A    between atoms: N9_31  and  N10_33 
REMARK       I    between atoms: N10_33  and  C11_35 
REMARK       I    between atoms: C11_35  and  N11_37 
ROOT
HETATM    1  C6  UNL     1      34.099  60.216   8.268  1.00  0.00     0.221 C 
ENDROOT
BRANCH   1   2
HETATM    2  N2  UNL     1      33.869  61.423   9.011  1.00  0.00    -0.323 N 
HETATM    3  C5  UNL     1      32.575  61.842   9.350  1.00  0.00     0.251 C 
HETATM    4  O1  UNL     1      31.557  61.183   9.017  1.00  0.00    -0.271 OA
ATOM      5  H2  UNL     1      34.668  61.989   9.299  1.00  0.00     0.165 HD
BRANCH   3   6
HETATM    6  C4  UNL     1      32.312  63.088  10.127  1.00  0.00     0.278 C 
BRANCH   6   7
HETATM    7  C2  UNL     1      31.060  63.766   9.536  1.00  0.00     0.017 C 
HETATM    8  C1  UNL     1      30.426  64.684  10.553  1.00  0.00     0.012 C 
HETATM    9  C3  UNL     1      31.395  64.546   8.300  1.00  0.00     0.012 C 
ENDBRANCH   6   7
BRANCH   6  10
HETATM   10  N1  UNL     1      31.975  62.773  11.478  1.00  0.00    -0.066 N 
ATOM     11  H13 UNL     1      32.757  62.865  12.128  1.00  0.00     0.275 HD
ATOM     12  H12 UNL     1      31.369  63.463  11.920  1.00  0.00     0.275 HD
ATOM     13  H11 UNL     1      31.576  61.835  11.449  1.00  0.00     0.275 HD
ENDBRANCH   6  10
ENDBRANCH   3   6
ENDBRANCH   1   2
BRANCH   1  14
HETATM   14  C7  UNL     1      33.430  60.218   6.931  1.00  0.00     0.148 C 
BRANCH  14  15
HETATM   15  S1  UNL     1      32.309  58.923   6.539  1.00  0.00    -0.086 SA
BRANCH  15  16
HETATM   16  C8  UNL     1      30.656  59.322   6.117  1.00  0.00     0.178 A 
HETATM   17  N3  UNL     1      30.019  60.497   6.057  1.00  0.00    -0.263 N 
HETATM   18  N4  UNL     1      28.782  60.279   5.705  1.00  0.00    -0.226 N 
ATOM     19  H3  UNL     1      30.431  61.409   6.254  1.00  0.00     0.190 HD
HETATM   20  N5  UNL     1      28.613  58.985   5.537  1.00  0.00    -0.224 N 
ATOM     21  H4  UNL     1      28.065  60.993   5.580  1.00  0.00     0.210 HD
HETATM   22  N6  UNL     1      29.743  58.357   5.780  1.00  0.00    -0.259 N 
ATOM     23  H5  UNL     1      27.740  58.537   5.261  1.00  0.00     0.210 HD
HETATM   24  C9  UNL     1      29.934  56.928   5.698  1.00  0.00     0.181 C 
ENDBRANCH  15  16
ENDBRANCH  14  15
ENDBRANCH   1  14
BRANCH   1  25
HETATM   25  N7  UNL     1      33.534  59.074   9.001  1.00  0.00    -0.187 N 
HETATM   26  C10 UNL     1      34.154  58.438  10.095  1.00  0.00     0.688 C 
HETATM   27  N8  UNL     1      35.356  58.755  10.522  1.00  0.00    -0.234 N 
HETATM   28  N9  UNL     1      33.456  57.400  10.757  1.00  0.00    -0.129 N 
ATOM     29  H82 UNL     1      35.858  59.503  10.045  1.00  0.00     0.174 HD
ATOM     30  H81 UNL     1      35.805  58.294  11.313  1.00  0.00     0.174 HD
ATOM     31  H9  UNL     1      33.208  56.576  10.208  1.00  0.00     0.205 HD
ATOM     32  H7  UNL     1      32.628  58.716   8.697  1.00  0.00     0.181 HD
BRANCH  28  33
HETATM   33  N10 UNL     1      33.082  57.414  12.090  1.00  0.00    -0.237 N 
HETATM   34  C11 UNL     1      32.323  58.485  12.628  1.00  0.00     0.337 C 
HETATM   35  O2  UNL     1      32.002  59.423  11.827  1.00  0.00    -0.245 OA
HETATM   36  N11 UNL     1      31.912  58.563  13.980  1.00  0.00    -0.333 N 
HETATM   37  C12 UNL     1      31.130  59.661  14.547  1.00  0.00     0.127 C 
HETATM   38  C15 UNL     1      32.186  57.591  15.020  1.00  0.00     0.127 C 
HETATM   39  C13 UNL     1      31.713  59.719  15.961  1.00  0.00     0.022 C 
HETATM   40  C14 UNL     1      31.756  58.242  16.300  1.00  0.00     0.022 C 
ATOM     41  H10 UNL     1      33.357  56.641  12.696  1.00  0.00     0.192 HD
ENDBRANCH  28  33
ENDBRANCH   1  25
BRANCH   1  42
HETATM   42  C16 UNL     1      35.537  59.930   8.088  1.00  0.00     0.226 C 
HETATM   43  O3  UNL     1      36.482  60.584   8.575  1.00  0.00    -0.645 OA
HETATM   44  O4  UNL     1      35.879  58.835   7.311  1.00  0.00    -0.645 OA
ENDBRANCH   1  42
TORSDOF 10
ENDMDL
