MODEL 1
REMARK VINA RESULT: -6.537929111      0.000      0.000
REMARK  14 active torsions:
REMARK  status: ('A' for Active; 'I' for Inactive)
REMARK    1  A    between atoms: O1_2  and  N1_3 
REMARK    2  A    between atoms: N1_3  and  C2_5 
REMARK    3  A    between atoms: C3_8  and  N3_9 
REMARK    4  A    between atoms: N3_9  and  C4_11 
REMARK    5  A    between atoms: C4_11  and  C5_12 
REMARK    6  A    between atoms: C5_12  and  C6_13 
REMARK    7  A    between atoms: C6_13  and  C7_14 
REMARK    8  A    between atoms: C7_14  and  C8_15 
REMARK    9  A    between atoms: C8_15  and  C9_16 
REMARK   10  A    between atoms: C9_16  and  O2_17 
REMARK   11  A    between atoms: C11_22  and  N5_23 
REMARK       I    between atoms: N5_23  and  C12_25 
REMARK   12  A    between atoms: C13_32  and  N9_33 
REMARK   13  A    between atoms: C15_35  and  N10_36 
REMARK   14  A    between atoms: C17_41  and  N11_42 
ROOT
HETATM    1  C2  UNL     1      33.276  61.131   8.938  1.00  0.00     0.170 A 
HETATM    2  N2  UNL     1      33.419  59.954   8.286  1.00  0.00    -0.173 N 
ATOM      3  H2  UNL     1      34.148  59.309   8.589  1.00  0.00     0.186 HD
HETATM    4  C3  UNL     1      32.633  59.606   7.256  1.00  0.00     0.680 A 
HETATM    5  N4  UNL     1      31.647  60.441   6.824  1.00  0.00    -0.186 N 
ATOM      6  H4  UNL     1      31.057  60.164   6.040  1.00  0.00     0.184 HD
HETATM    7  C10 UNL     1      31.446  61.629   7.422  1.00  0.00     0.124 A 
HETATM    8  C11 UNL     1      30.452  62.483   6.992  1.00  0.00     0.153 A 
HETATM    9  N8  UNL     1      30.329  63.651   7.657  1.00  0.00    -0.174 N 
ATOM     10  H8  UNL     1      29.604  64.308   7.368  1.00  0.00     0.186 HD
HETATM   11  C13 UNL     1      31.137  63.981   8.696  1.00  0.00     0.682 A 
HETATM   12  N12 UNL     1      32.105  63.141   9.110  1.00  0.00    -0.185 N 
ATOM     13  H12 UNL     1      32.704  63.399   9.894  1.00  0.00     0.184 HD
HETATM   14  C19 UNL     1      32.277  61.971   8.495  1.00  0.00     0.126 A 
ENDROOT
BRANCH  11  15
HETATM   15  N9  UNL     1      30.975  65.229   9.377  1.00  0.00    -0.214 N 
HETATM   16  C14 UNL     1      30.139  66.270   8.815  1.00  0.00     0.174 C 
HETATM   17  C15 UNL     1      29.408  66.946   9.969  1.00  0.00     0.204 C 
HETATM   18  C16 UNL     1      30.360  67.567  10.956  1.00  0.00     0.069 C 
HETATM   19  C17 UNL     1      31.749  67.024  10.836  1.00  0.00     0.204 C 
HETATM   20  C18 UNL     1      31.626  65.508  10.637  1.00  0.00     0.174 C 
BRANCH  17  21
HETATM   21  N10 UNL     1      28.633  65.914  10.633  1.00  0.00    -0.073 N 
ATOM     22 3H10 UNL     1      27.935  66.286  11.276  1.00  0.00     0.274 HD
ATOM     23 2H10 UNL     1      27.987  65.431  10.009  1.00  0.00     0.274 HD
ATOM     24 1H10 UNL     1      29.302  65.288  11.082  1.00  0.00     0.274 HD
ENDBRANCH  17  21
BRANCH  19  25
HETATM   25  N11 UNL     1      32.527  67.255  12.030  1.00  0.00    -0.073 N 
ATOM     26 3H11 UNL     1      31.980  67.745  12.739  1.00  0.00     0.274 HD
ATOM     27 2H11 UNL     1      32.699  66.385  12.534  1.00  0.00     0.274 HD
ATOM     28 1H11 UNL     1      33.398  67.745  11.831  1.00  0.00     0.274 HD
ENDBRANCH  19  25
ENDBRANCH  11  15
BRANCH   8  29
HETATM   29  N5  UNL     1      29.717  62.133   6.013  1.00  0.00    -0.315 N 
HETATM   30  C12 UNL     1      28.361  61.811   6.065  1.00  0.00     0.187 C 
HETATM   31  N6  UNL     1      27.964  60.784   6.718  1.00  0.00    -0.373 N 
HETATM   32  N7  UNL     1      27.420  62.621   5.393  1.00  0.00    -0.064 NA
ATOM     33  H62 UNL     1      28.643  60.199   7.204  1.00  0.00     0.158 HD
ATOM     34  H61 UNL     1      26.972  60.548   6.756  1.00  0.00     0.158 HD
ATOM     35  H5  UNL     1      30.166  62.085   5.098  1.00  0.00     0.170 HD
ENDBRANCH   8  29
BRANCH   1  36
HETATM   36  N1  UNL     1      34.032  61.463   9.929  1.00  0.00    -0.248 N 
ATOM     37  H1  UNL     1      34.978  61.811   9.766  1.00  0.00     0.196 HD
BRANCH  36  38
HETATM   38  O1  UNL     1      33.542  61.339  11.207  1.00  0.00    -0.284 OA
HETATM   39  C1  UNL     1      33.636  62.344  12.174  1.00  0.00     0.237 C 
ENDBRANCH  36  38
ENDBRANCH   1  36
BRANCH   4  40
HETATM   40  N3  UNL     1      32.799  58.474   6.661  1.00  0.00    -0.226 N 
ATOM     41  H3  UNL     1      32.097  58.134   6.005  1.00  0.00     0.177 HD
BRANCH  40  42
HETATM   42  C4  UNL     1      33.978  57.694   6.925  1.00  0.00     0.138 C 
BRANCH  42  43
HETATM   43  C5  UNL     1      33.638  56.235   7.191  1.00  0.00     0.020 C 
BRANCH  43  44
HETATM   44  C6  UNL     1      32.927  56.190   8.522  1.00  0.00     0.002 C 
BRANCH  44  45
HETATM   45  C7  UNL     1      33.793  56.576   9.679  1.00  0.00     0.002 C 
BRANCH  45  46
HETATM   46  C8  UNL     1      33.136  56.187  10.985  1.00  0.00     0.026 C 
BRANCH  46  47
HETATM   47  C9  UNL     1      32.784  57.405  11.805  1.00  0.00     0.164 C 
BRANCH  47  48
HETATM   48  O2  UNL     1      32.873  58.579  11.053  1.00  0.00    -0.401 OA
ATOM     49  H2  UNL     1      33.772  58.872  10.962  1.00  0.00     0.209 HD
ENDBRANCH  47  48
ENDBRANCH  46  47
ENDBRANCH  45  46
ENDBRANCH  44  45
ENDBRANCH  43  44
ENDBRANCH  42  43
ENDBRANCH  40  42
ENDBRANCH   4  40
TORSDOF 14
ENDMDL
MODEL 2
REMARK VINA RESULT: -6.239343460      1.923      2.333
REMARK  14 active torsions:
REMARK  status: ('A' for Active; 'I' for Inactive)
REMARK    1  A    between atoms: O1_2  and  N1_3 
REMARK    2  A    between atoms: N1_3  and  C2_5 
REMARK    3  A    between atoms: C3_8  and  N3_9 
REMARK    4  A    between atoms: N3_9  and  C4_11 
REMARK    5  A    between atoms: C4_11  and  C5_12 
REMARK    6  A    between atoms: C5_12  and  C6_13 
REMARK    7  A    between atoms: C6_13  and  C7_14 
REMARK    8  A    between atoms: C7_14  and  C8_15 
REMARK    9  A    between atoms: C8_15  and  C9_16 
REMARK   10  A    between atoms: C9_16  and  O2_17 
REMARK   11  A    between atoms: C11_22  and  N5_23 
REMARK       I    between atoms: N5_23  and  C12_25 
REMARK   12  A    between atoms: C13_32  and  N9_33 
REMARK   13  A    between atoms: C15_35  and  N10_36 
REMARK   14  A    between atoms: C17_41  and  N11_42 
ROOT
HETATM    1  C2  UNL     1      33.267  61.042   9.032  1.00  0.00     0.170 A 
HETATM    2  N2  UNL     1      33.459  59.914   8.309  1.00  0.00    -0.173 N 
ATOM      3  H2  UNL     1      34.205  59.275   8.583  1.00  0.00     0.186 HD
HETATM    4  C3  UNL     1      32.702  59.606   7.245  1.00  0.00     0.680 A 
HETATM    5  N4  UNL     1      31.695  60.434   6.850  1.00  0.00    -0.186 N 
ATOM      6  H4  UNL     1      31.126  60.188   6.040  1.00  0.00     0.184 HD
HETATM    7  C10 UNL     1      31.444  61.575   7.519  1.00  0.00     0.124 A 
HETATM    8  C11 UNL     1      30.429  62.421   7.125  1.00  0.00     0.153 A 
HETATM    9  N8  UNL     1      30.256  63.540   7.861  1.00  0.00    -0.174 N 
ATOM     10  H8  UNL     1      29.513  64.190   7.602  1.00  0.00     0.186 HD
HETATM   11  C13 UNL     1      31.036  63.829   8.933  1.00  0.00     0.682 A 
HETATM   12  N12 UNL     1      32.026  62.996   9.309  1.00  0.00    -0.185 N 
ATOM     13  H12 UNL     1      32.604  63.224  10.118  1.00  0.00     0.184 HD
HETATM   14  C19 UNL     1      32.247  61.875   8.625  1.00  0.00     0.126 A 
ENDROOT
BRANCH  11  15
HETATM   15  N9  UNL     1      30.822  65.026   9.688  1.00  0.00    -0.214 N 
HETATM   16  C14 UNL     1      31.293  66.302   9.192  1.00  0.00     0.174 C 
HETATM   17  C15 UNL     1      30.245  67.350   9.549  1.00  0.00     0.204 C 
HETATM   18  C16 UNL     1      30.033  67.455  11.035  1.00  0.00     0.069 C 
HETATM   19  C17 UNL     1      30.538  66.256  11.775  1.00  0.00     0.204 C 
HETATM   20  C18 UNL     1      30.137  65.019  10.960  1.00  0.00     0.174 C 
BRANCH  17  21
HETATM   21  N10 UNL     1      29.007  66.933   8.915  1.00  0.00    -0.073 N 
ATOM     22 3H10 UNL     1      28.293  66.639   9.581  1.00  0.00     0.274 HD
ATOM     23 2H10 UNL     1      28.486  67.707   8.502  1.00  0.00     0.274 HD
ATOM     24 1H10 UNL     1      29.253  66.208   8.241  1.00  0.00     0.274 HD
ENDBRANCH  17  21
BRANCH  19  25
HETATM   25  N11 UNL     1      29.946  66.138  13.086  1.00  0.00    -0.073 N 
ATOM     26 3H11 UNL     1      29.603  67.039  13.420  1.00  0.00     0.274 HD
ATOM     27 2H11 UNL     1      29.060  65.633  13.048  1.00  0.00     0.274 HD
ATOM     28 1H11 UNL     1      30.584  65.713  13.758  1.00  0.00     0.274 HD
ENDBRANCH  19  25
ENDBRANCH  11  15
BRANCH   8  29
HETATM   29  N5  UNL     1      29.721  62.110   6.114  1.00  0.00    -0.315 N 
HETATM   30  C12 UNL     1      28.360  61.803   6.114  1.00  0.00     0.187 C 
HETATM   31  N6  UNL     1      27.931  60.762   6.723  1.00  0.00    -0.373 N 
HETATM   32  N7  UNL     1      27.450  62.645   5.438  1.00  0.00    -0.064 NA
ATOM     33  H62 UNL     1      28.588  60.154   7.211  1.00  0.00     0.158 HD
ATOM     34  H61 UNL     1      26.935  60.538   6.723  1.00  0.00     0.158 HD
ATOM     35  H5  UNL     1      30.198  62.083   5.212  1.00  0.00     0.170 HD
ENDBRANCH   8  29
BRANCH   1  36
HETATM   36  N1  UNL     1      33.997  61.334  10.054  1.00  0.00    -0.248 N 
ATOM     37  H1  UNL     1      33.687  62.034  10.729  1.00  0.00     0.196 HD
BRANCH  36  38
HETATM   38  O1  UNL     1      35.200  60.688  10.216  1.00  0.00    -0.284 OA
HETATM   39  C1  UNL     1      35.474  59.818  11.275  1.00  0.00     0.237 C 
ENDBRANCH  36  38
ENDBRANCH   1  36
BRANCH   4  40
HETATM   40  N3  UNL     1      32.915  58.521   6.583  1.00  0.00    -0.226 N 
ATOM     41  H3  UNL     1      32.242  58.206   5.886  1.00  0.00     0.177 HD
BRANCH  40  42
HETATM   42  C4  UNL     1      34.107  57.754   6.831  1.00  0.00     0.138 C 
BRANCH  42  43
HETATM   43  C5  UNL     1      33.781  56.331   7.258  1.00  0.00     0.020 C 
BRANCH  43  44
HETATM   44  C6  UNL     1      32.277  56.219   7.288  1.00  0.00     0.002 C 
BRANCH  44  45
HETATM   45  C7  UNL     1      31.765  54.887   6.841  1.00  0.00     0.002 C 
BRANCH  45  46
HETATM   46  C8  UNL     1      30.283  54.961   6.543  1.00  0.00     0.026 C 
BRANCH  46  47
HETATM   47  C9  UNL     1      29.925  56.261   5.865  1.00  0.00     0.164 C 
BRANCH  47  48
HETATM   48  O2  UNL     1      28.543  56.406   5.720  1.00  0.00    -0.401 OA
ATOM     49  H2  UNL     1      28.133  55.598   5.433  1.00  0.00     0.209 HD
ENDBRANCH  47  48
ENDBRANCH  46  47
ENDBRANCH  45  46
ENDBRANCH  44  45
ENDBRANCH  43  44
ENDBRANCH  42  43
ENDBRANCH  40  42
ENDBRANCH   4  40
TORSDOF 14
ENDMDL
MODEL 3
REMARK VINA RESULT: -6.180371921      1.969      4.442
REMARK  14 active torsions:
REMARK  status: ('A' for Active; 'I' for Inactive)
REMARK    1  A    between atoms: O1_2  and  N1_3 
REMARK    2  A    between atoms: N1_3  and  C2_5 
REMARK    3  A    between atoms: C3_8  and  N3_9 
REMARK    4  A    between atoms: N3_9  and  C4_11 
REMARK    5  A    between atoms: C4_11  and  C5_12 
REMARK    6  A    between atoms: C5_12  and  C6_13 
REMARK    7  A    between atoms: C6_13  and  C7_14 
REMARK    8  A    between atoms: C7_14  and  C8_15 
REMARK    9  A    between atoms: C8_15  and  C9_16 
REMARK   10  A    between atoms: C9_16  and  O2_17 
REMARK   11  A    between atoms: C11_22  and  N5_23 
REMARK       I    between atoms: N5_23  and  C12_25 
REMARK   12  A    between atoms: C13_32  and  N9_33 
REMARK   13  A    between atoms: C15_35  and  N10_36 
REMARK   14  A    between atoms: C17_41  and  N11_42 
ROOT
HETATM    1  C2  UNL     1      32.212  60.357   7.421  1.00  0.00     0.170 A 
HETATM    2  N2  UNL     1      32.928  59.212   7.510  1.00  0.00    -0.173 N 
ATOM      3  H2  UNL     1      32.846  58.521   6.764  1.00  0.00     0.186 HD
HETATM    4  C3  UNL     1      33.744  58.955   8.544  1.00  0.00     0.680 A 
HETATM    5  N4  UNL     1      33.881  59.855   9.558  1.00  0.00    -0.186 N 
ATOM      6  H4  UNL     1      34.504  59.647  10.338  1.00  0.00     0.184 HD
HETATM    7  C10 UNL     1      33.199  61.015   9.540  1.00  0.00     0.124 A 
HETATM    8  C11 UNL     1      33.330  61.932  10.562  1.00  0.00     0.153 A 
HETATM    9  N8  UNL     1      32.606  63.066  10.452  1.00  0.00    -0.174 N 
ATOM     10  H8  UNL     1      32.676  63.769  11.188  1.00  0.00     0.186 HD
HETATM   11  C13 UNL     1      31.787  63.302   9.396  1.00  0.00     0.682 A 
HETATM   12  N12 UNL     1      31.666  62.401   8.402  1.00  0.00    -0.185 N 
ATOM     13  H12 UNL     1      31.049  62.591   7.613  1.00  0.00     0.184 HD
HETATM   14  C19 UNL     1      32.355  61.262   8.452  1.00  0.00     0.126 A 
ENDROOT
BRANCH  11  15
HETATM   15  N9  UNL     1      31.035  64.517   9.315  1.00  0.00    -0.214 N 
HETATM   16  C14 UNL     1      30.303  65.007  10.465  1.00  0.00     0.174 C 
HETATM   17  C15 UNL     1      30.431  66.526  10.480  1.00  0.00     0.204 C 
HETATM   18  C16 UNL     1      29.859  67.154   9.237  1.00  0.00     0.069 C 
HETATM   19  C17 UNL     1      29.708  66.175   8.115  1.00  0.00     0.204 C 
HETATM   20  C18 UNL     1      30.970  65.302   8.103  1.00  0.00     0.174 C 
BRANCH  17  21
HETATM   21  N10 UNL     1      31.849  66.823  10.560  1.00  0.00    -0.073 N 
ATOM     22 3H10 UNL     1      32.044  67.779  10.857  1.00  0.00     0.274 HD
ATOM     23 2H10 UNL     1      32.317  66.351  11.334  1.00  0.00     0.274 HD
ATOM     24 1H10 UNL     1      32.249  66.595   9.649  1.00  0.00     0.274 HD
ENDBRANCH  17  21
BRANCH  19  25
HETATM   25  N11 UNL     1      29.609  66.832   6.832  1.00  0.00    -0.073 N 
ATOM     26 3H11 UNL     1      29.242  67.778   6.929  1.00  0.00     0.274 HD
ATOM     27 2H11 UNL     1      30.532  67.054   6.459  1.00  0.00     0.274 HD
ATOM     28 1H11 UNL     1      29.061  66.289   6.166  1.00  0.00     0.274 HD
ENDBRANCH  19  25
ENDBRANCH  11  15
BRANCH   8  29
HETATM   29  N5  UNL     1      34.109  61.669  11.533  1.00  0.00    -0.315 N 
HETATM   30  C12 UNL     1      34.214  62.378  12.730  1.00  0.00     0.187 C 
HETATM   31  N6  UNL     1      34.634  63.588  12.732  1.00  0.00    -0.373 N 
HETATM   32  N7  UNL     1      33.856  61.759  13.947  1.00  0.00    -0.064 NA
ATOM     33  H62 UNL     1      34.892  64.035  11.853  1.00  0.00     0.158 HD
ATOM     34  H61 UNL     1      34.710  64.106  13.607  1.00  0.00     0.158 HD
ATOM     35  H5  UNL     1      34.718  60.858  11.425  1.00  0.00     0.170 HD
ENDBRANCH   8  29
BRANCH   1  36
HETATM   36  N1  UNL     1      31.429  60.601   6.426  1.00  0.00    -0.248 N 
ATOM     37  H1  UNL     1      31.800  60.982   5.555  1.00  0.00     0.196 HD
BRANCH  36  38
HETATM   38  O1  UNL     1      30.086  60.340   6.561  1.00  0.00    -0.284 OA
HETATM   39  C1  UNL     1      29.415  59.345   5.843  1.00  0.00     0.237 C 
ENDBRANCH  36  38
ENDBRANCH   1  36
BRANCH   4  40
HETATM   40  N3  UNL     1      34.411  57.853   8.591  1.00  0.00    -0.226 N 
ATOM     41  H3  UNL     1      35.408  57.850   8.379  1.00  0.00     0.177 HD
BRANCH  40  42
HETATM   42  C4  UNL     1      33.744  56.628   8.944  1.00  0.00     0.138 C 
BRANCH  42  43
HETATM   43  C5  UNL     1      34.100  56.181  10.353  1.00  0.00     0.020 C 
BRANCH  43  44
HETATM   44  C6  UNL     1      32.820  56.201  11.152  1.00  0.00     0.002 C 
BRANCH  44  45
HETATM   45  C7  UNL     1      32.584  57.490  11.875  1.00  0.00     0.002 C 
BRANCH  45  46
HETATM   46  C8  UNL     1      33.062  57.390  13.306  1.00  0.00     0.026 C 
BRANCH  46  47
HETATM   47  C9  UNL     1      34.347  58.157  13.509  1.00  0.00     0.164 C 
BRANCH  47  48
HETATM   48  O2  UNL     1      34.643  58.970  12.412  1.00  0.00    -0.401 OA
ATOM     49  H2  UNL     1      35.324  59.601  12.615  1.00  0.00     0.209 HD
ENDBRANCH  47  48
ENDBRANCH  46  47
ENDBRANCH  45  46
ENDBRANCH  44  45
ENDBRANCH  43  44
ENDBRANCH  42  43
ENDBRANCH  40  42
ENDBRANCH   4  40
TORSDOF 14
ENDMDL
MODEL 4
REMARK VINA RESULT: -6.059020612      1.819      4.060
REMARK  14 active torsions:
REMARK  status: ('A' for Active; 'I' for Inactive)
REMARK    1  A    between atoms: O1_2  and  N1_3 
REMARK    2  A    between atoms: N1_3  and  C2_5 
REMARK    3  A    between atoms: C3_8  and  N3_9 
REMARK    4  A    between atoms: N3_9  and  C4_11 
REMARK    5  A    between atoms: C4_11  and  C5_12 
REMARK    6  A    between atoms: C5_12  and  C6_13 
REMARK    7  A    between atoms: C6_13  and  C7_14 
REMARK    8  A    between atoms: C7_14  and  C8_15 
REMARK    9  A    between atoms: C8_15  and  C9_16 
REMARK   10  A    between atoms: C9_16  and  O2_17 
REMARK   11  A    between atoms: C11_22  and  N5_23 
REMARK       I    between atoms: N5_23  and  C12_25 
REMARK   12  A    between atoms: C13_32  and  N9_33 
REMARK   13  A    between atoms: C15_35  and  N10_36 
REMARK   14  A    between atoms: C17_41  and  N11_42 
ROOT
HETATM    1  C2  UNL     1      30.618  60.111   6.444  1.00  0.00     0.170 A 
HETATM    2  N2  UNL     1      31.267  58.953   6.183  1.00  0.00    -0.173 N 
ATOM      3  H2  UNL     1      30.806  58.250   5.605  1.00  0.00     0.186 HD
HETATM    4  C3  UNL     1      32.496  58.698   6.656  1.00  0.00     0.680 A 
HETATM    5  N4  UNL     1      33.144  59.613   7.430  1.00  0.00    -0.186 N 
ATOM      6  H4  UNL     1      34.078  59.407   7.783  1.00  0.00     0.184 HD
HETATM    7  C10 UNL     1      32.561  60.788   7.733  1.00  0.00     0.124 A 
HETATM    8  C11 UNL     1      33.208  61.720   8.517  1.00  0.00     0.153 A 
HETATM    9  N8  UNL     1      32.541  62.868   8.765  1.00  0.00    -0.174 N 
ATOM     10  H8  UNL     1      32.987  63.583   9.340  1.00  0.00     0.186 HD
HETATM   11  C13 UNL     1      31.297  63.102   8.274  1.00  0.00     0.682 A 
HETATM   12  N12 UNL     1      30.674  62.185   7.510  1.00  0.00    -0.185 N 
ATOM     13  H12 UNL     1      29.740  62.374   7.146  1.00  0.00     0.184 HD
HETATM   14  C19 UNL     1      31.279  61.032   7.229  1.00  0.00     0.126 A 
ENDROOT
BRANCH  11  15
HETATM   15  N9  UNL     1      30.622  64.332   8.559  1.00  0.00    -0.214 N 
HETATM   16  C14 UNL     1      29.717  64.430   9.685  1.00  0.00     0.174 C 
HETATM   17  C15 UNL     1      29.903  65.810  10.306  1.00  0.00     0.204 C 
HETATM   18  C16 UNL     1      29.589  66.914   9.333  1.00  0.00     0.069 C 
HETATM   19  C17 UNL     1      29.601  66.450   7.910  1.00  0.00     0.204 C 
HETATM   20  C18 UNL     1      30.807  65.515   7.751  1.00  0.00     0.174 C 
BRANCH  17  21
HETATM   21  N10 UNL     1      31.295  65.903  10.706  1.00  0.00    -0.073 N 
ATOM     22 3H10 UNL     1      31.929  66.060   9.923  1.00  0.00     0.274 HD
ATOM     23 2H10 UNL     1      31.510  66.758  11.218  1.00  0.00     0.274 HD
ATOM     24 1H10 UNL     1      31.506  65.054  11.232  1.00  0.00     0.274 HD
ENDBRANCH  17  21
BRANCH  19  25
HETATM   25  N11 UNL     1      29.760  67.545   6.983  1.00  0.00    -0.073 N 
ATOM     26 3H11 UNL     1      30.047  68.398   7.464  1.00  0.00     0.274 HD
ATOM     27 2H11 UNL     1      30.579  67.412   6.390  1.00  0.00     0.274 HD
ATOM     28 1H11 UNL     1      28.921  67.700   6.426  1.00  0.00     0.274 HD
ENDBRANCH  19  25
ENDBRANCH  11  15
BRANCH   8  29
HETATM   29  N5  UNL     1      34.374  61.459   8.955  1.00  0.00    -0.315 N 
HETATM   30  C12 UNL     1      34.690  60.638  10.038  1.00  0.00     0.187 C 
HETATM   31  N6  UNL     1      34.326  60.958  11.223  1.00  0.00    -0.373 N 
HETATM   32  N7  UNL     1      35.416  59.446   9.827  1.00  0.00    -0.064 NA
ATOM     33  H62 UNL     1      33.801  61.819  11.376  1.00  0.00     0.158 HD
ATOM     34  H61 UNL     1      34.557  60.358  12.014  1.00  0.00     0.158 HD
ATOM     35  H5  UNL     1      35.156  61.894   8.466  1.00  0.00     0.170 HD
ENDBRANCH   8  29
BRANCH   1  36
HETATM   36  N1  UNL     1      29.436  60.354   5.988  1.00  0.00    -0.248 N 
ATOM     37  H1  UNL     1      29.313  60.844   5.102  1.00  0.00     0.196 HD
BRANCH  36  38
HETATM   38  O1  UNL     1      28.347  59.941   6.718  1.00  0.00    -0.284 OA
HETATM   39  C1  UNL     1      27.406  60.817   7.268  1.00  0.00     0.237 C 
ENDBRANCH  36  38
ENDBRANCH   1  36
BRANCH   4  40
HETATM   40  N3  UNL     1      33.082  57.582   6.384  1.00  0.00    -0.226 N 
ATOM     41  H3  UNL     1      32.938  57.137   5.478  1.00  0.00     0.177 HD
BRANCH  40  42
HETATM   42  C4  UNL     1      33.940  56.967   7.361  1.00  0.00     0.138 C 
BRANCH  42  43
HETATM   43  C5  UNL     1      33.148  56.147   8.367  1.00  0.00     0.020 C 
BRANCH  43  44
HETATM   44  C6  UNL     1      33.767  56.399   9.720  1.00  0.00     0.002 C 
BRANCH  44  45
HETATM   45  C7  UNL     1      32.791  56.324  10.851  1.00  0.00     0.002 C 
BRANCH  45  46
HETATM   46  C8  UNL     1      33.305  57.093  12.047  1.00  0.00     0.026 C 
BRANCH  46  47
HETATM   47  C9  UNL     1      32.365  58.212  12.424  1.00  0.00     0.164 C 
BRANCH  47  48
HETATM   48  O2  UNL     1      31.032  57.795  12.413  1.00  0.00    -0.401 OA
ATOM     49  H2  UNL     1      30.436  58.512  12.596  1.00  0.00     0.209 HD
ENDBRANCH  47  48
ENDBRANCH  46  47
ENDBRANCH  45  46
ENDBRANCH  44  45
ENDBRANCH  43  44
ENDBRANCH  42  43
ENDBRANCH  40  42
ENDBRANCH   4  40
TORSDOF 14
ENDMDL
MODEL 5
REMARK VINA RESULT: -6.055135247      2.271      4.341
REMARK  14 active torsions:
REMARK  status: ('A' for Active; 'I' for Inactive)
REMARK    1  A    between atoms: O1_2  and  N1_3 
REMARK    2  A    between atoms: N1_3  and  C2_5 
REMARK    3  A    between atoms: C3_8  and  N3_9 
REMARK    4  A    between atoms: N3_9  and  C4_11 
REMARK    5  A    between atoms: C4_11  and  C5_12 
REMARK    6  A    between atoms: C5_12  and  C6_13 
REMARK    7  A    between atoms: C6_13  and  C7_14 
REMARK    8  A    between atoms: C7_14  and  C8_15 
REMARK    9  A    between atoms: C8_15  and  C9_16 
REMARK   10  A    between atoms: C9_16  and  O2_17 
REMARK   11  A    between atoms: C11_22  and  N5_23 
REMARK       I    between atoms: N5_23  and  C12_25 
REMARK   12  A    between atoms: C13_32  and  N9_33 
REMARK   13  A    between atoms: C15_35  and  N10_36 
REMARK   14  A    between atoms: C17_41  and  N11_42 
ROOT
HETATM    1  C2  UNL     1      32.441  60.012   7.254  1.00  0.00     0.170 A 
HETATM    2  N2  UNL     1      33.301  59.032   7.614  1.00  0.00    -0.173 N 
ATOM      3  H2  UNL     1      33.406  58.221   7.004  1.00  0.00     0.186 HD
HETATM    4  C3  UNL     1      34.020  59.088   8.745  1.00  0.00     0.680 A 
HETATM    5  N4  UNL     1      33.907  60.156   9.585  1.00  0.00    -0.186 N 
ATOM      6  H4  UNL     1      34.459  60.186  10.441  1.00  0.00     0.184 HD
HETATM    7  C10 UNL     1      33.071  61.169   9.294  1.00  0.00     0.124 A 
HETATM    8  C11 UNL     1      32.948  62.253  10.137  1.00  0.00     0.153 A 
HETATM    9  N8  UNL     1      32.085  63.219   9.758  1.00  0.00    -0.174 N 
ATOM     10  H8  UNL     1      31.967  64.038  10.356  1.00  0.00     0.186 HD
HETATM   11  C13 UNL     1      31.368  63.138   8.608  1.00  0.00     0.682 A 
HETATM   12  N12 UNL     1      31.495  62.076   7.791  1.00  0.00    -0.185 N 
ATOM     13  H12 UNL     1      30.951  62.027   6.929  1.00  0.00     0.184 HD
HETATM   14  C19 UNL     1      32.331  61.089   8.109  1.00  0.00     0.126 A 
ENDROOT
BRANCH  11  15
HETATM   15  N9  UNL     1      30.462  64.183   8.240  1.00  0.00    -0.214 N 
HETATM   16  C14 UNL     1      29.061  63.894   8.010  1.00  0.00     0.174 C 
HETATM   17  C15 UNL     1      28.254  65.063   8.564  1.00  0.00     0.204 C 
HETATM   18  C16 UNL     1      28.599  66.361   7.887  1.00  0.00     0.069 C 
HETATM   19  C17 UNL     1      29.913  66.306   7.172  1.00  0.00     0.204 C 
HETATM   20  C18 UNL     1      30.892  65.554   8.082  1.00  0.00     0.174 C 
BRANCH  17  21
HETATM   21  N10 UNL     1      28.574  65.157   9.977  1.00  0.00    -0.073 N 
ATOM     22 3H10 UNL     1      28.045  65.882  10.462  1.00  0.00     0.274 HD
ATOM     23 2H10 UNL     1      28.233  64.365  10.521  1.00  0.00     0.274 HD
ATOM     24 1H10 UNL     1      29.584  65.284  10.041  1.00  0.00     0.274 HD
ENDBRANCH  17  21
BRANCH  19  25
HETATM   25  N11 UNL     1      30.454  67.622   6.927  1.00  0.00    -0.073 N 
ATOM     26 3H11 UNL     1      29.806  68.193   6.384  1.00  0.00     0.274 HD
ATOM     27 2H11 UNL     1      30.478  68.177   7.783  1.00  0.00     0.274 HD
ATOM     28 1H11 UNL     1      31.372  67.584   6.485  1.00  0.00     0.274 HD
ENDBRANCH  19  25
ENDBRANCH  11  15
BRANCH   8  29
HETATM   29  N5  UNL     1      33.640  62.288  11.205  1.00  0.00    -0.315 N 
HETATM   30  C12 UNL     1      33.415  61.547  12.366  1.00  0.00     0.187 C 
HETATM   31  N6  UNL     1      32.353  61.733  13.058  1.00  0.00    -0.373 N 
HETATM   32  N7  UNL     1      34.363  60.587  12.781  1.00  0.00    -0.064 NA
ATOM     33  H62 UNL     1      31.668  62.426  12.758  1.00  0.00     0.158 HD
ATOM     34  H61 UNL     1      32.189  61.191  13.907  1.00  0.00     0.158 HD
ATOM     35  H5  UNL     1      34.439  62.922  11.213  1.00  0.00     0.170 HD
ENDBRANCH   8  29
BRANCH   1  36
HETATM   36  N1  UNL     1      31.751  59.955   6.166  1.00  0.00    -0.248 N 
ATOM     37  H1  UNL     1      31.877  60.655   5.434  1.00  0.00     0.196 HD
BRANCH  36  38
HETATM   38  O1  UNL     1      30.843  58.934   6.010  1.00  0.00    -0.284 OA
HETATM   39  C1  UNL     1      29.478  59.140   5.791  1.00  0.00     0.237 C 
ENDBRANCH  36  38
ENDBRANCH   1  36
BRANCH   4  40
HETATM   40  N3  UNL     1      34.830  58.134   9.053  1.00  0.00    -0.226 N 
ATOM     41  H3  UNL     1      35.530  57.821   8.381  1.00  0.00     0.177 HD
BRANCH  40  42
HETATM   42  C4  UNL     1      34.743  57.510  10.346  1.00  0.00     0.138 C 
BRANCH  42  43
HETATM   43  C5  UNL     1      33.937  56.221  10.295  1.00  0.00     0.020 C 
BRANCH  43  44
HETATM   44  C6  UNL     1      32.943  56.283  11.429  1.00  0.00     0.002 C 
BRANCH  44  45
HETATM   45  C7  UNL     1      32.550  57.677  11.807  1.00  0.00     0.002 C 
BRANCH  45  46
HETATM   46  C8  UNL     1      32.306  57.773  13.297  1.00  0.00     0.026 C 
BRANCH  46  47
HETATM   47  C9  UNL     1      31.005  58.478  13.595  1.00  0.00     0.164 C 
BRANCH  47  48
HETATM   48  O2  UNL     1      30.525  59.170  12.480  1.00  0.00    -0.401 OA
ATOM     49  H2  UNL     1      30.349  58.586  11.752  1.00  0.00     0.209 HD
ENDBRANCH  47  48
ENDBRANCH  46  47
ENDBRANCH  45  46
ENDBRANCH  44  45
ENDBRANCH  43  44
ENDBRANCH  42  43
ENDBRANCH  40  42
ENDBRANCH   4  40
TORSDOF 14
ENDMDL
