MODEL 1
REMARK VINA RESULT: -6.195633872      0.000      0.000
REMARK  9 active torsions:
REMARK  status: ('A' for Active; 'I' for Inactive)
REMARK    1  A    between atoms: C6_6  and  C7_7 
REMARK    2  A    between atoms: C7_7  and  C8_8 
REMARK    3  A    between atoms: C8_8  and  C9_9 
REMARK    4  A    between atoms: C9_9  and  N1_10 
REMARK    5  A    between atoms: N1_10  and  C10_12 
REMARK    6  A    between atoms: C13_17  and  N3_18 
REMARK    7  A    between atoms: N3_18  and  C14_20 
REMARK    8  A    between atoms: C14_20  and  C15_21 
REMARK    9  A    between atoms: C15_21  and  O1_22 
ROOT
HETATM    1  C10 UNL     1      13.540  27.422  14.300  1.00  0.00     0.118 A 
HETATM    2  C11 UNL     1      12.575  27.497  13.318  1.00  0.00     0.066 A 
HETATM    3  C12 UNL     1      11.673  26.449  13.174  1.00  0.00     0.110 A 
HETATM    4  N2  UNL     1      11.751  25.379  13.984  1.00  0.00    -0.202 N 
ATOM      5  H2  UNL     1      11.088  24.612  13.874  1.00  0.00     0.183 HD
HETATM    6  C13 UNL     1      12.694  25.310  14.938  1.00  0.00     0.679 A 
HETATM    7  N4  UNL     1      13.567  26.322  15.081  1.00  0.00    -0.177 N 
ATOM      8  H4  UNL     1      14.279  26.255  15.809  1.00  0.00     0.185 HD
ENDROOT
BRANCH   1   9
HETATM    9  N1  UNL     1      14.419  28.335  14.515  1.00  0.00    -0.376 N 
ATOM     10  H1  UNL     1      14.074  29.256  14.788  1.00  0.00     0.161 HD
BRANCH   9  11
HETATM   11  C9  UNL     1      15.831  28.177  14.408  1.00  0.00     0.121 C 
BRANCH  11  12
HETATM   12  C8  UNL     1      16.173  27.762  12.969  1.00  0.00     0.024 C 
BRANCH  12  13
HETATM   13  C7  UNL     1      16.943  26.479  13.061  1.00  0.00     0.040 C 
BRANCH  13  14
HETATM   14  C6  UNL     1      16.130  25.274  12.924  1.00  0.00    -0.058 A 
HETATM   15  C5  UNL     1      15.207  25.095  11.922  1.00  0.00     0.007 A 
HETATM   16  C4  UNL     1      14.479  23.937  11.855  1.00  0.00     0.001 A 
HETATM   17  C3  UNL     1      14.643  22.915  12.781  1.00  0.00     0.007 A 
HETATM   18  C2  UNL     1      15.573  23.105  13.784  1.00  0.00    -0.061 A 
HETATM   19  C1  UNL     1      15.760  22.018  14.786  1.00  0.00     0.048 C 
HETATM   20  C16 UNL     1      16.322  24.263  13.877  1.00  0.00     0.013 A 
ENDBRANCH  13  14
ENDBRANCH  12  13
ENDBRANCH  11  12
ENDBRANCH   9  11
ENDBRANCH   1   9
BRANCH   6  21
HETATM   21  N3  UNL     1      12.739  24.268  15.697  1.00  0.00    -0.224 N 
ATOM     22  H3  UNL     1      13.391  24.264  16.480  1.00  0.00     0.177 HD
BRANCH  21  23
HETATM   23  C14 UNL     1      11.908  23.110  15.486  1.00  0.00     0.164 C 
BRANCH  23  24
HETATM   24  C15 UNL     1      10.903  23.082  16.645  1.00  0.00     0.184 C 
BRANCH  24  25
HETATM   25  O1  UNL     1      11.661  23.347  17.802  1.00  0.00    -0.399 OA
ATOM     26  H1  UNL     1      11.945  24.250  17.715  1.00  0.00     0.209 HD
ENDBRANCH  24  25
ENDBRANCH  23  24
ENDBRANCH  21  23
ENDBRANCH   6  21
TORSDOF 9
ENDMDL
MODEL 2
REMARK VINA RESULT: -6.017566332      0.997      1.774
REMARK  9 active torsions:
REMARK  status: ('A' for Active; 'I' for Inactive)
REMARK    1  A    between atoms: C6_6  and  C7_7 
REMARK    2  A    between atoms: C7_7  and  C8_8 
REMARK    3  A    between atoms: C8_8  and  C9_9 
REMARK    4  A    between atoms: C9_9  and  N1_10 
REMARK    5  A    between atoms: N1_10  and  C10_12 
REMARK    6  A    between atoms: C13_17  and  N3_18 
REMARK    7  A    between atoms: N3_18  and  C14_20 
REMARK    8  A    between atoms: C14_20  and  C15_21 
REMARK    9  A    between atoms: C15_21  and  O1_22 
ROOT
HETATM    1  C10 UNL     1      13.019  26.857  14.324  1.00  0.00     0.118 A 
HETATM    2  C11 UNL     1      12.367  26.526  13.155  1.00  0.00     0.066 A 
HETATM    3  C12 UNL     1      11.707  25.305  13.071  1.00  0.00     0.110 A 
HETATM    4  N2  UNL     1      11.712  24.465  14.121  1.00  0.00    -0.202 N 
ATOM      5  H2  UNL     1      11.227  23.570  14.054  1.00  0.00     0.183 HD
HETATM    6  C13 UNL     1      12.349  24.792  15.257  1.00  0.00     0.679 A 
HETATM    7  N4  UNL     1      12.987  25.972  15.342  1.00  0.00    -0.177 N 
ATOM      8  H4  UNL     1      13.468  26.207  16.210  1.00  0.00     0.185 HD
ENDROOT
BRANCH   1   9
HETATM    9  N1  UNL     1      13.657  27.959  14.503  1.00  0.00    -0.376 N 
ATOM     10  H1  UNL     1      13.481  28.461  15.373  1.00  0.00     0.161 HD
BRANCH   9  11
HETATM   11  C9  UNL     1      14.588  28.542  13.594  1.00  0.00     0.121 C 
BRANCH  11  12
HETATM   12  C8  UNL     1      15.967  27.907  13.829  1.00  0.00     0.024 C 
BRANCH  12  13
HETATM   13  C7  UNL     1      16.280  27.092  12.611  1.00  0.00     0.040 C 
BRANCH  13  14
HETATM   14  C6  UNL     1      15.884  25.690  12.703  1.00  0.00    -0.058 A 
HETATM   15  C5  UNL     1      16.081  24.921  13.824  1.00  0.00     0.007 A 
HETATM   16  C4  UNL     1      15.684  23.611  13.841  1.00  0.00     0.001 A 
HETATM   17  C3  UNL     1      15.076  23.017  12.743  1.00  0.00     0.007 A 
HETATM   18  C2  UNL     1      14.883  23.798  11.621  1.00  0.00    -0.061 A 
HETATM   19  C1  UNL     1      14.231  23.175  10.433  1.00  0.00     0.048 C 
HETATM   20  C16 UNL     1      15.273  25.123  11.575  1.00  0.00     0.013 A 
ENDBRANCH  13  14
ENDBRANCH  12  13
ENDBRANCH  11  12
ENDBRANCH   9  11
ENDBRANCH   1   9
BRANCH   6  21
HETATM   21  N3  UNL     1      12.332  23.962  16.243  1.00  0.00    -0.224 N 
ATOM     22  H3  UNL     1      13.221  23.647  16.629  1.00  0.00     0.177 HD
BRANCH  21  23
HETATM   23  C14 UNL     1      11.113  23.459  16.823  1.00  0.00     0.164 C 
BRANCH  23  24
HETATM   24  C15 UNL     1      10.312  24.686  17.280  1.00  0.00     0.184 C 
BRANCH  24  25
HETATM   25  O1  UNL     1      10.992  25.173  18.413  1.00  0.00    -0.399 OA
ATOM     26  H1  UNL     1      11.902  25.245  18.149  1.00  0.00     0.209 HD
ENDBRANCH  24  25
ENDBRANCH  23  24
ENDBRANCH  21  23
ENDBRANCH   6  21
TORSDOF 9
ENDMDL
MODEL 3
REMARK VINA RESULT: -5.974379173      1.146      1.433
REMARK  9 active torsions:
REMARK  status: ('A' for Active; 'I' for Inactive)
REMARK    1  A    between atoms: C6_6  and  C7_7 
REMARK    2  A    between atoms: C7_7  and  C8_8 
REMARK    3  A    between atoms: C8_8  and  C9_9 
REMARK    4  A    between atoms: C9_9  and  N1_10 
REMARK    5  A    between atoms: N1_10  and  C10_12 
REMARK    6  A    between atoms: C13_17  and  N3_18 
REMARK    7  A    between atoms: N3_18  and  C14_20 
REMARK    8  A    between atoms: C14_20  and  C15_21 
REMARK    9  A    between atoms: C15_21  and  O1_22 
ROOT
HETATM    1  C10 UNL     1      14.142  27.358  14.671  1.00  0.00     0.118 A 
HETATM    2  C11 UNL     1      13.266  27.949  13.785  1.00  0.00     0.066 A 
HETATM    3  C12 UNL     1      11.899  27.793  13.979  1.00  0.00     0.110 A 
HETATM    4  N2  UNL     1      11.445  27.073  15.021  1.00  0.00    -0.202 N 
ATOM      5  H2  UNL     1      10.441  26.962  15.159  1.00  0.00     0.183 HD
HETATM    6  C13 UNL     1      12.303  26.499  15.881  1.00  0.00     0.679 A 
HETATM    7  N4  UNL     1      13.626  26.648  15.696  1.00  0.00    -0.177 N 
ATOM      8  H4  UNL     1      14.265  26.205  16.356  1.00  0.00     0.185 HD
ENDROOT
BRANCH   1   9
HETATM    9  N1  UNL     1      15.421  27.441  14.580  1.00  0.00    -0.376 N 
ATOM     10  H1  UNL     1      15.957  27.308  15.438  1.00  0.00     0.161 HD
BRANCH   9  11
HETATM   11  C9  UNL     1      16.159  27.702  13.388  1.00  0.00     0.121 C 
BRANCH  11  12
HETATM   12  C8  UNL     1      16.689  26.370  12.836  1.00  0.00     0.024 C 
BRANCH  12  13
HETATM   13  C7  UNL     1      15.616  25.812  11.950  1.00  0.00     0.040 C 
BRANCH  13  14
HETATM   14  C6  UNL     1      15.372  24.383  12.120  1.00  0.00    -0.058 A 
HETATM   15  C5  UNL     1      14.902  23.572  11.115  1.00  0.00     0.007 A 
HETATM   16  C4  UNL     1      14.695  22.239  11.346  1.00  0.00     0.001 A 
HETATM   17  C3  UNL     1      14.950  21.662  12.583  1.00  0.00     0.007 A 
HETATM   18  C2  UNL     1      15.423  22.485  13.585  1.00  0.00    -0.061 A 
HETATM   19  C1  UNL     1      15.702  21.881  14.920  1.00  0.00     0.048 C 
HETATM   20  C16 UNL     1      15.641  23.835  13.383  1.00  0.00     0.013 A 
ENDBRANCH  13  14
ENDBRANCH  12  13
ENDBRANCH  11  12
ENDBRANCH   9  11
ENDBRANCH   1   9
BRANCH   6  21
HETATM   21  N3  UNL     1      11.832  25.816  16.867  1.00  0.00    -0.224 N 
ATOM     22  H3  UNL     1      12.344  25.817  17.749  1.00  0.00     0.177 HD
BRANCH  21  23
HETATM   23  C14 UNL     1      10.615  25.050  16.780  1.00  0.00     0.164 C 
BRANCH  23  24
HETATM   24  C15 UNL     1      11.035  23.590  16.573  1.00  0.00     0.184 C 
BRANCH  24  25
HETATM   25  O1  UNL     1      11.610  23.191  17.796  1.00  0.00    -0.399 OA
ATOM     26  H1  UNL     1      11.493  22.249  17.833  1.00  0.00     0.209 HD
ENDBRANCH  24  25
ENDBRANCH  23  24
ENDBRANCH  21  23
ENDBRANCH   6  21
TORSDOF 9
ENDMDL
MODEL 4
REMARK VINA RESULT: -5.960858187      1.604      2.667
REMARK  9 active torsions:
REMARK  status: ('A' for Active; 'I' for Inactive)
REMARK    1  A    between atoms: C6_6  and  C7_7 
REMARK    2  A    between atoms: C7_7  and  C8_8 
REMARK    3  A    between atoms: C8_8  and  C9_9 
REMARK    4  A    between atoms: C9_9  and  N1_10 
REMARK    5  A    between atoms: N1_10  and  C10_12 
REMARK    6  A    between atoms: C13_17  and  N3_18 
REMARK    7  A    between atoms: N3_18  and  C14_20 
REMARK    8  A    between atoms: C14_20  and  C15_21 
REMARK    9  A    between atoms: C15_21  and  O1_22 
ROOT
HETATM    1  C10 UNL     1      15.035  27.087  14.850  1.00  0.00     0.118 A 
HETATM    2  C11 UNL     1      14.529  27.974  13.923  1.00  0.00     0.066 A 
HETATM    3  C12 UNL     1      13.161  28.221  13.900  1.00  0.00     0.110 A 
HETATM    4  N2  UNL     1      12.351  27.598  14.774  1.00  0.00    -0.202 N 
ATOM      5  H2  UNL     1      11.348  27.782  14.752  1.00  0.00     0.183 HD
HETATM    6  C13 UNL     1      12.849  26.734  15.674  1.00  0.00     0.679 A 
HETATM    7  N4  UNL     1      14.171  26.493  15.699  1.00  0.00    -0.177 N 
ATOM      8  H4  UNL     1      14.536  25.835  16.388  1.00  0.00     0.185 HD
ENDROOT
BRANCH   1   9
HETATM    9  N1  UNL     1      16.282  26.790  14.953  1.00  0.00    -0.376 N 
ATOM     10  H1  UNL     1      16.725  26.958  15.857  1.00  0.00     0.161 HD
BRANCH   9  11
HETATM   11  C9  UNL     1      17.100  26.248  13.919  1.00  0.00     0.121 C 
BRANCH  11  12
HETATM   12  C8  UNL     1      16.362  25.062  13.279  1.00  0.00     0.024 C 
BRANCH  12  13
HETATM   13  C7  UNL     1      16.700  23.851  14.096  1.00  0.00     0.040 C 
BRANCH  13  14
HETATM   14  C6  UNL     1      15.732  22.764  13.997  1.00  0.00    -0.058 A 
HETATM   15  C5  UNL     1      15.755  21.655  14.808  1.00  0.00     0.007 A 
HETATM   16  C4  UNL     1      14.814  20.672  14.659  1.00  0.00     0.001 A 
HETATM   17  C3  UNL     1      13.814  20.755  13.698  1.00  0.00     0.007 A 
HETATM   18  C2  UNL     1      13.800  21.873  12.888  1.00  0.00    -0.061 A 
HETATM   19  C1  UNL     1      12.734  21.978  11.851  1.00  0.00     0.048 C 
HETATM   20  C16 UNL     1      14.737  22.882  13.015  1.00  0.00     0.013 A 
ENDBRANCH  13  14
ENDBRANCH  12  13
ENDBRANCH  11  12
ENDBRANCH   9  11
ENDBRANCH   1   9
BRANCH   6  21
HETATM   21  N3  UNL     1      12.042  26.156  16.496  1.00  0.00    -0.224 N 
ATOM     22  H3  UNL     1      12.234  26.222  17.495  1.00  0.00     0.177 HD
BRANCH  21  23
HETATM   23  C14 UNL     1      10.881  25.419  16.066  1.00  0.00     0.164 C 
BRANCH  23  24
HETATM   24  C15 UNL     1      10.404  24.614  17.282  1.00  0.00     0.184 C 
BRANCH  24  25
HETATM   25  O1  UNL     1      11.006  25.232  18.396  1.00  0.00    -0.399 OA
ATOM     26  H1  UNL     1      10.374  25.873  18.700  1.00  0.00     0.209 HD
ENDBRANCH  24  25
ENDBRANCH  23  24
ENDBRANCH  21  23
ENDBRANCH   6  21
TORSDOF 9
ENDMDL
MODEL 5
REMARK VINA RESULT: -5.832227743      2.202      3.933
REMARK  9 active torsions:
REMARK  status: ('A' for Active; 'I' for Inactive)
REMARK    1  A    between atoms: C6_6  and  C7_7 
REMARK    2  A    between atoms: C7_7  and  C8_8 
REMARK    3  A    between atoms: C8_8  and  C9_9 
REMARK    4  A    between atoms: C9_9  and  N1_10 
REMARK    5  A    between atoms: N1_10  and  C10_12 
REMARK    6  A    between atoms: C13_17  and  N3_18 
REMARK    7  A    between atoms: N3_18  and  C14_20 
REMARK    8  A    between atoms: C14_20  and  C15_21 
REMARK    9  A    between atoms: C15_21  and  O1_22 
ROOT
HETATM    1  C10 UNL     1      16.075  25.657  13.229  1.00  0.00     0.118 A 
HETATM    2  C11 UNL     1      15.441  25.432  12.026  1.00  0.00     0.066 A 
HETATM    3  C12 UNL     1      14.621  24.318  11.891  1.00  0.00     0.110 A 
HETATM    4  N2  UNL     1      14.456  23.475  12.926  1.00  0.00    -0.202 N 
ATOM      5  H2  UNL     1      13.854  22.659  12.822  1.00  0.00     0.183 HD
HETATM    6  C13 UNL     1      15.077  23.698  14.096  1.00  0.00     0.679 A 
HETATM    7  N4  UNL     1      15.870  24.775  14.230  1.00  0.00    -0.177 N 
ATOM      8  H4  UNL     1      16.337  24.932  15.124  1.00  0.00     0.185 HD
ENDROOT
BRANCH   1   9
HETATM    9  N1  UNL     1      16.852  26.656  13.456  1.00  0.00    -0.376 N 
ATOM     10  H1  UNL     1      17.808  26.445  13.741  1.00  0.00     0.161 HD
BRANCH   9  11
HETATM   11  C9  UNL     1      16.497  28.032  13.345  1.00  0.00     0.121 C 
BRANCH  11  12
HETATM   12  C8  UNL     1      15.558  28.394  14.506  1.00  0.00     0.024 C 
BRANCH  12  13
HETATM   13  C7  UNL     1      14.289  28.902  13.893  1.00  0.00     0.040 C 
BRANCH  13  14
HETATM   14  C6  UNL     1      13.261  27.884  13.699  1.00  0.00    -0.058 A 
HETATM   15  C5  UNL     1      12.485  27.799  12.569  1.00  0.00     0.007 A 
HETATM   16  C4  UNL     1      11.538  26.816  12.455  1.00  0.00     0.001 A 
HETATM   17  C3  UNL     1      11.327  25.882  13.461  1.00  0.00     0.007 A 
HETATM   18  C2  UNL     1      12.112  25.976  14.593  1.00  0.00    -0.061 A 
HETATM   19  C1  UNL     1      11.899  24.981  15.682  1.00  0.00     0.048 C 
HETATM   20  C16 UNL     1      13.076  26.957  14.736  1.00  0.00     0.013 A 
ENDBRANCH  13  14
ENDBRANCH  12  13
ENDBRANCH  11  12
ENDBRANCH   9  11
ENDBRANCH   1   9
BRANCH   6  21
HETATM   21  N3  UNL     1      14.896  22.869  15.066  1.00  0.00    -0.224 N 
ATOM     22  H3  UNL     1      14.180  23.081  15.760  1.00  0.00     0.177 HD
BRANCH  21  23
HETATM   23  C14 UNL     1      15.661  21.657  15.213  1.00  0.00     0.164 C 
BRANCH  23  24
HETATM   24  C15 UNL     1      14.908  20.572  14.432  1.00  0.00     0.184 C 
BRANCH  24  25
HETATM   25  O1  UNL     1      15.568  20.483  13.190  1.00  0.00    -0.399 OA
ATOM     26  H1  UNL     1      16.369  20.004  13.365  1.00  0.00     0.209 HD
ENDBRANCH  24  25
ENDBRANCH  23  24
ENDBRANCH  21  23
ENDBRANCH   6  21
TORSDOF 9
ENDMDL
