MODEL 1
REMARK VINA RESULT: -6.803710114      0.000      0.000
REMARK  15 active torsions:
REMARK  status: ('A' for Active; 'I' for Inactive)
REMARK    1  A    between atoms: N1_2  and  C2_5 
REMARK    2  A    between atoms: C3_6  and  N2_7 
REMARK    3  A    between atoms: C5_12  and  N3_13 
REMARK    4  A    between atoms: N3_13  and  N4_14 
REMARK    5  A    between atoms: C6_17  and  O1_18 
REMARK    6  A    between atoms: O1_18  and  C7_19 
REMARK    7  A    between atoms: C8_21  and  O3_22 
REMARK    8  A    between atoms: O3_22  and  C9_23 
REMARK    9  A    between atoms: C10_24  and  N5_25 
REMARK   10  A    between atoms: C12_30  and  N6_31 
REMARK   11  A    between atoms: C13_35  and  O4_36 
REMARK   12  A    between atoms: C14_38  and  N7_39 
REMARK   13  A    between atoms: C16_43  and  N8_44 
REMARK   14  A    between atoms: C18_49  and  N9_50 
REMARK   15  A    between atoms: C19_54  and  O5_55 
ROOT
HETATM    1  C7  UNL     1       8.686  86.619  32.037  1.00  0.00     0.294 C 
HETATM    2  O2  UNL     1       9.566  85.494  32.296  1.00  0.00    -0.327 OA
HETATM    3  C8  UNL     1       9.151  84.926  33.473  1.00  0.00     0.293 C 
HETATM    4  C16 UNL     1       8.804  85.911  34.549  1.00  0.00     0.240 C 
HETATM    5  C17 UNL     1       9.203  87.310  34.286  1.00  0.00     0.075 C 
HETATM    6  C18 UNL     1       9.311  87.699  32.826  1.00  0.00     0.240 C 
ENDROOT
BRANCH   1   7
HETATM    7  O1  UNL     1       8.725  86.872  30.670  1.00  0.00    -0.349 OA
BRANCH   7   8
HETATM    8  C6  UNL     1       7.654  86.314  29.980  1.00  0.00     0.176 C 
HETATM    9  C5  UNL     1       7.860  85.010  29.346  1.00  0.00     0.132 C 
HETATM   10  C4  UNL     1       7.438  83.919  30.321  1.00  0.00     0.060 C 
HETATM   11  C3  UNL     1       5.904  83.971  30.314  1.00  0.00     0.218 C 
HETATM   12  C2  UNL     1       5.422  85.359  30.650  1.00  0.00     0.246 C 
HETATM   13  C19 UNL     1       6.513  86.307  30.999  1.00  0.00     0.181 C 
BRANCH   9  14
HETATM   14  N3  UNL     1       9.146  84.681  28.843  1.00  0.00    -0.141 NA
BRANCH  14  15
HETATM   15  N4  UNL     1      10.022  84.241  29.826  1.00  0.00    -0.348 N 
ATOM     16  H42 UNL     1      10.118  84.711  30.726  1.00  0.00     0.172 HD
ATOM     17  H41 UNL     1      10.547  83.410  29.553  1.00  0.00     0.172 HD
ENDBRANCH  14  15
ENDBRANCH   9  14
BRANCH  11  18
HETATM   18  N2  UNL     1       5.407  82.953  31.184  1.00  0.00    -0.073 N 
ATOM     19  H23 UNL     1       6.156  82.590  31.773  1.00  0.00     0.274 HD
ATOM     20  H22 UNL     1       4.804  83.358  31.899  1.00  0.00     0.274 HD
ATOM     21  H21 UNL     1       4.929  82.191  30.703  1.00  0.00     0.274 HD
ENDBRANCH  11  18
BRANCH  12  22
HETATM   22  N1  UNL     1       4.527  85.874  29.627  1.00  0.00    -0.070 N 
HETATM   23  C1  UNL     1       4.248  84.846  28.641  1.00  0.00     0.267 C 
ATOM     24  H12 UNL     1       4.890  86.726  29.197  1.00  0.00     0.277 HD
ATOM     25  H11 UNL     1       3.672  86.261  30.027  1.00  0.00     0.277 HD
ENDBRANCH  12  22
BRANCH  13  26
HETATM   26  O5  UNL     1       5.989  87.597  31.010  1.00  0.00    -0.391 OA
ATOM     27  H5  UNL     1       6.631  88.178  31.404  1.00  0.00     0.210 HD
ENDBRANCH  13  26
ENDBRANCH   7   8
ENDBRANCH   1   7
BRANCH   6  28
HETATM   28  N9  UNL     1       8.884  89.035  32.587  1.00  0.00    -0.070 N 
ATOM     29  H93 UNL     1       9.250  89.347  31.688  1.00  0.00     0.274 HD
ATOM     30  H92 UNL     1       7.881  89.038  32.400  1.00  0.00     0.274 HD
ATOM     31  H91 UNL     1       9.093  89.740  33.295  1.00  0.00     0.274 HD
ENDBRANCH   6  28
BRANCH   3  32
HETATM   32  O3  UNL     1      10.099  84.005  33.905  1.00  0.00    -0.349 OA
BRANCH  32  33
HETATM   33  C9  UNL     1      11.152  84.545  34.612  1.00  0.00     0.188 C 
HETATM   34  C10 UNL     1      11.472  83.738  35.865  1.00  0.00     0.216 C 
HETATM   35  C11 UNL     1      11.940  82.357  35.560  1.00  0.00     0.070 C 
HETATM   36  C12 UNL     1      11.945  81.984  34.108  1.00  0.00     0.216 C 
HETATM   37  C13 UNL     1      12.581  83.026  33.225  1.00  0.00     0.181 C 
HETATM   38  C14 UNL     1      12.387  84.427  33.743  1.00  0.00     0.246 C 
BRANCH  34  39
HETATM   39  N5  UNL     1      12.589  84.446  36.508  1.00  0.00    -0.072 N 
ATOM     40  H53 UNL     1      12.747  85.385  36.142  1.00  0.00     0.274 HD
ATOM     41  H52 UNL     1      12.399  84.724  37.471  1.00  0.00     0.274 HD
ATOM     42  H51 UNL     1      13.394  83.826  36.411  1.00  0.00     0.274 HD
ENDBRANCH  34  39
BRANCH  36  43
HETATM   43  N6  UNL     1      12.761  80.769  33.984  1.00  0.00    -0.072 N 
ATOM     44  H63 UNL     1      13.737  80.912  34.242  1.00  0.00     0.274 HD
ATOM     45  H62 UNL     1      12.543  80.065  34.690  1.00  0.00     0.274 HD
ATOM     46  H61 UNL     1      12.642  80.430  33.030  1.00  0.00     0.274 HD
ENDBRANCH  36  43
BRANCH  37  47
HETATM   47  O4  UNL     1      13.928  82.825  33.013  1.00  0.00    -0.391 OA
ATOM     48  H4  UNL     1      14.442  83.623  33.044  1.00  0.00     0.210 HD
ENDBRANCH  37  47
BRANCH  38  49
HETATM   49  N7  UNL     1      12.414  85.439  32.708  1.00  0.00    -0.070 N 
HETATM   50  C15 UNL     1      12.814  86.677  33.306  1.00  0.00     0.267 C 
ATOM     51  H72 UNL     1      13.000  85.176  31.916  1.00  0.00     0.277 HD
ATOM     52  H71 UNL     1      11.529  85.512  32.206  1.00  0.00     0.277 HD
ENDBRANCH  38  49
ENDBRANCH  32  33
ENDBRANCH   3  32
BRANCH   4  53
HETATM   53  N8  UNL     1       7.391  85.862  34.914  1.00  0.00    -0.070 N 
ATOM     54  H83 UNL     1       7.090  84.904  35.093  1.00  0.00     0.274 HD
ATOM     55  H82 UNL     1       7.237  86.258  35.842  1.00  0.00     0.274 HD
ATOM     56  H81 UNL     1       6.794  86.312  34.220  1.00  0.00     0.274 HD
ENDBRANCH   4  53
TORSDOF 15
ENDMDL
MODEL 2
REMARK VINA RESULT: -6.697948968      2.366      4.747
REMARK  15 active torsions:
REMARK  status: ('A' for Active; 'I' for Inactive)
REMARK    1  A    between atoms: N1_2  and  C2_5 
REMARK    2  A    between atoms: C3_6  and  N2_7 
REMARK    3  A    between atoms: C5_12  and  N3_13 
REMARK    4  A    between atoms: N3_13  and  N4_14 
REMARK    5  A    between atoms: C6_17  and  O1_18 
REMARK    6  A    between atoms: O1_18  and  C7_19 
REMARK    7  A    between atoms: C8_21  and  O3_22 
REMARK    8  A    between atoms: O3_22  and  C9_23 
REMARK    9  A    between atoms: C10_24  and  N5_25 
REMARK   10  A    between atoms: C12_30  and  N6_31 
REMARK   11  A    between atoms: C13_35  and  O4_36 
REMARK   12  A    between atoms: C14_38  and  N7_39 
REMARK   13  A    between atoms: C16_43  and  N8_44 
REMARK   14  A    between atoms: C18_49  and  N9_50 
REMARK   15  A    between atoms: C19_54  and  O5_55 
ROOT
HETATM    1  C7  UNL     1      10.371  82.373  32.617  1.00  0.00     0.294 C 
HETATM    2  O2  UNL     1      10.299  83.682  33.239  1.00  0.00    -0.327 OA
HETATM    3  C8  UNL     1      11.573  84.189  33.248  1.00  0.00     0.293 C 
HETATM    4  C16 UNL     1      12.633  83.198  33.630  1.00  0.00     0.240 C 
HETATM    5  C17 UNL     1      12.140  81.922  34.189  1.00  0.00     0.075 C 
HETATM    6  C18 UNL     1      10.752  81.504  33.750  1.00  0.00     0.240 C 
ENDROOT
BRANCH   1   7
HETATM    7  O1  UNL     1       9.103  82.076  32.126  1.00  0.00    -0.349 OA
BRANCH   7   8
HETATM    8  C6  UNL     1       8.198  83.119  32.284  1.00  0.00     0.176 C 
HETATM    9  C5  UNL     1       7.661  83.741  31.072  1.00  0.00     0.132 C 
HETATM   10  C4  UNL     1       6.360  83.042  30.697  1.00  0.00     0.060 C 
HETATM   11  C3  UNL     1       5.340  83.552  31.724  1.00  0.00     0.218 C 
HETATM   12  C2  UNL     1       5.831  83.296  33.127  1.00  0.00     0.246 C 
HETATM   13  C19 UNL     1       7.109  82.538  33.187  1.00  0.00     0.181 C 
BRANCH   9  14
HETATM   14  N3  UNL     1       8.475  83.813  29.911  1.00  0.00    -0.141 NA
BRANCH  14  15
HETATM   15  N4  UNL     1       9.697  84.433  30.138  1.00  0.00    -0.348 N 
ATOM     16  H42 UNL     1       9.774  85.340  30.598  1.00  0.00     0.172 HD
ATOM     17  H41 UNL     1      10.491  83.891  29.799  1.00  0.00     0.172 HD
ENDBRANCH  14  15
ENDBRANCH   9  14
BRANCH  11  18
HETATM   18  N2  UNL     1       4.069  82.971  31.435  1.00  0.00    -0.073 N 
ATOM     19  H23 UNL     1       3.321  83.643  31.606  1.00  0.00     0.274 HD
ATOM     20  H22 UNL     1       3.956  82.840  30.430  1.00  0.00     0.274 HD
ATOM     21  H21 UNL     1       3.885  82.099  31.931  1.00  0.00     0.274 HD
ENDBRANCH  11  18
BRANCH  12  22
HETATM   22  N1  UNL     1       5.856  84.517  33.913  1.00  0.00    -0.070 N 
HETATM   23  C1  UNL     1       4.643  84.630  34.703  1.00  0.00     0.267 C 
ATOM     24  H12 UNL     1       6.011  85.341  33.332  1.00  0.00     0.277 HD
ATOM     25  H11 UNL     1       6.694  84.581  34.491  1.00  0.00     0.277 HD
ENDBRANCH  12  22
BRANCH  13  26
HETATM   26  O5  UNL     1       7.601  82.608  34.489  1.00  0.00    -0.391 OA
ATOM     27  H5  UNL     1       8.419  83.092  34.474  1.00  0.00     0.210 HD
ENDBRANCH  13  26
ENDBRANCH   7   8
ENDBRANCH   1   7
BRANCH   6  28
HETATM   28  N9  UNL     1      10.635  80.096  33.581  1.00  0.00    -0.070 N 
ATOM     29  H93 UNL     1      10.836  79.858  32.610  1.00  0.00     0.274 HD
ATOM     30  H92 UNL     1      11.411  79.637  34.058  1.00  0.00     0.274 HD
ATOM     31  H91 UNL     1       9.761  79.650  33.860  1.00  0.00     0.274 HD
ENDBRANCH   6  28
BRANCH   3  32
HETATM   32  O3  UNL     1      11.617  85.324  34.050  1.00  0.00    -0.349 OA
BRANCH  32  33
HETATM   33  C9  UNL     1      10.419  85.664  34.641  1.00  0.00     0.188 C 
HETATM   34  C10 UNL     1      10.592  86.038  36.109  1.00  0.00     0.216 C 
HETATM   35  C11 UNL     1      11.425  87.259  36.301  1.00  0.00     0.070 C 
HETATM   36  C12 UNL     1      11.995  87.853  35.048  1.00  0.00     0.216 C 
HETATM   37  C13 UNL     1      10.984  88.001  33.941  1.00  0.00     0.181 C 
HETATM   38  C14 UNL     1       9.927  86.928  33.969  1.00  0.00     0.246 C 
BRANCH  34  39
HETATM   39  N5  UNL     1       9.239  86.350  36.592  1.00  0.00    -0.072 N 
ATOM     40  H53 UNL     1       9.193  86.533  37.595  1.00  0.00     0.274 HD
ATOM     41  H52 UNL     1       8.895  87.261  36.289  1.00  0.00     0.274 HD
ATOM     42  H51 UNL     1       8.657  85.569  36.289  1.00  0.00     0.274 HD
ENDBRANCH  34  39
BRANCH  36  43
HETATM   43  N6  UNL     1      12.452  89.206  35.390  1.00  0.00    -0.072 N 
ATOM     44  H63 UNL     1      12.578  89.806  34.575  1.00  0.00     0.274 HD
ATOM     45  H62 UNL     1      11.736  89.767  35.853  1.00  0.00     0.274 HD
ATOM     46  H61 UNL     1      13.300  89.100  35.947  1.00  0.00     0.274 HD
ENDBRANCH  36  43
BRANCH  37  47
HETATM   47  O4  UNL     1      10.357  89.228  33.927  1.00  0.00    -0.391 OA
ATOM     48  H4  UNL     1       9.755  89.340  33.200  1.00  0.00     0.210 HD
ENDBRANCH  37  47
BRANCH  38  49
HETATM   49  N7  UNL     1       9.342  86.655  32.674  1.00  0.00    -0.070 N 
HETATM   50  C15 UNL     1       7.970  87.066  32.709  1.00  0.00     0.267 C 
ATOM     51  H72 UNL     1       9.862  87.084  31.909  1.00  0.00     0.277 HD
ATOM     52  H71 UNL     1       9.454  85.683  32.388  1.00  0.00     0.277 HD
ENDBRANCH  38  49
ENDBRANCH  32  33
ENDBRANCH   3  32
BRANCH   4  53
HETATM   53  N8  UNL     1      13.565  82.931  32.540  1.00  0.00    -0.070 N 
ATOM     54  H83 UNL     1      13.382  82.023  32.112  1.00  0.00     0.274 HD
ATOM     55  H82 UNL     1      13.374  83.531  31.737  1.00  0.00     0.274 HD
ATOM     56  H81 UNL     1      14.539  83.010  32.832  1.00  0.00     0.274 HD
ENDBRANCH   4  53
TORSDOF 15
ENDMDL
MODEL 3
REMARK VINA RESULT: -6.689166107      2.259      4.425
REMARK  15 active torsions:
REMARK  status: ('A' for Active; 'I' for Inactive)
REMARK    1  A    between atoms: N1_2  and  C2_5 
REMARK    2  A    between atoms: C3_6  and  N2_7 
REMARK    3  A    between atoms: C5_12  and  N3_13 
REMARK    4  A    between atoms: N3_13  and  N4_14 
REMARK    5  A    between atoms: C6_17  and  O1_18 
REMARK    6  A    between atoms: O1_18  and  C7_19 
REMARK    7  A    between atoms: C8_21  and  O3_22 
REMARK    8  A    between atoms: O3_22  and  C9_23 
REMARK    9  A    between atoms: C10_24  and  N5_25 
REMARK   10  A    between atoms: C12_30  and  N6_31 
REMARK   11  A    between atoms: C13_35  and  O4_36 
REMARK   12  A    between atoms: C14_38  and  N7_39 
REMARK   13  A    between atoms: C16_43  and  N8_44 
REMARK   14  A    between atoms: C18_49  and  N9_50 
REMARK   15  A    between atoms: C19_54  and  O5_55 
ROOT
HETATM    1  C7  UNL     1       9.930  82.584  31.848  1.00  0.00     0.294 C 
HETATM    2  O2  UNL     1       9.977  83.871  32.519  1.00  0.00    -0.327 OA
HETATM    3  C8  UNL     1      11.301  84.166  32.720  1.00  0.00     0.293 C 
HETATM    4  C16 UNL     1      12.131  83.009  33.188  1.00  0.00     0.240 C 
HETATM    5  C17 UNL     1      11.375  81.813  33.614  1.00  0.00     0.075 C 
HETATM    6  C18 UNL     1      10.013  81.635  32.976  1.00  0.00     0.240 C 
ENDROOT
BRANCH   1   7
HETATM    7  O1  UNL     1       8.712  82.508  31.180  1.00  0.00    -0.349 OA
BRANCH   7   8
HETATM    8  C6  UNL     1       7.966  83.677  31.269  1.00  0.00     0.176 C 
HETATM    9  C5  UNL     1       7.722  84.422  30.031  1.00  0.00     0.132 C 
HETATM   10  C4  UNL     1       6.401  83.958  29.431  1.00  0.00     0.060 C 
HETATM   11  C3  UNL     1       5.329  84.589  30.330  1.00  0.00     0.218 C 
HETATM   12  C2  UNL     1       5.554  84.205  31.770  1.00  0.00     0.246 C 
HETATM   13  C19 UNL     1       6.675  83.249  31.969  1.00  0.00     0.181 C 
BRANCH   9  14
HETATM   14  N3  UNL     1       8.705  84.403  29.008  1.00  0.00    -0.141 NA
BRANCH  14  15
HETATM   15  N4  UNL     1       9.946  84.858  29.432  1.00  0.00    -0.348 N 
ATOM     16  H42 UNL     1      10.320  85.767  29.160  1.00  0.00     0.172 HD
ATOM     17  H41 UNL     1      10.433  84.194  30.034  1.00  0.00     0.172 HD
ENDBRANCH  14  15
ENDBRANCH   9  14
BRANCH  11  18
HETATM   18  N2  UNL     1       4.041  84.233  29.825  1.00  0.00    -0.073 N 
ATOM     19  H23 UNL     1       4.096  84.012  28.831  1.00  0.00     0.274 HD
ATOM     20  H22 UNL     1       3.753  83.325  30.189  1.00  0.00     0.274 HD
ATOM     21  H21 UNL     1       3.318  84.932  29.996  1.00  0.00     0.274 HD
ENDBRANCH  11  18
BRANCH  12  22
HETATM   22  N1  UNL     1       5.649  85.377  32.624  1.00  0.00    -0.070 N 
HETATM   23  C1  UNL     1       4.360  85.662  33.228  1.00  0.00     0.267 C 
ATOM     24  H12 UNL     1       6.022  86.184  32.124  1.00  0.00     0.277 HD
ATOM     25  H11 UNL     1       6.385  85.280  33.324  1.00  0.00     0.277 HD
ENDBRANCH  12  22
BRANCH  13  26
HETATM   26  O5  UNL     1       6.968  83.190  33.329  1.00  0.00    -0.391 OA
ATOM     27  H5  UNL     1       7.763  83.687  33.487  1.00  0.00     0.210 HD
ENDBRANCH  13  26
ENDBRANCH   7   8
ENDBRANCH   1   7
BRANCH   6  28
HETATM   28  N9  UNL     1       9.704  80.268  32.725  1.00  0.00    -0.070 N 
ATOM     29  H93 UNL     1      10.499  79.826  32.263  1.00  0.00     0.274 HD
ATOM     30  H92 UNL     1       9.686  79.761  33.609  1.00  0.00     0.274 HD
ATOM     31  H91 UNL     1       8.854  80.057  32.201  1.00  0.00     0.274 HD
ENDBRANCH   6  28
BRANCH   3  32
HETATM   32  O3  UNL     1      11.409  85.257  33.575  1.00  0.00    -0.349 OA
BRANCH  32  33
HETATM   33  C9  UNL     1      12.618  85.363  34.230  1.00  0.00     0.188 C 
HETATM   34  C10 UNL     1      13.551  86.357  33.550  1.00  0.00     0.216 C 
HETATM   35  C11 UNL     1      13.028  87.752  33.574  1.00  0.00     0.070 C 
HETATM   36  C12 UNL     1      11.670  87.920  34.187  1.00  0.00     0.216 C 
HETATM   37  C13 UNL     1      11.518  87.214  35.509  1.00  0.00     0.181 C 
HETATM   38  C14 UNL     1      12.340  85.955  35.596  1.00  0.00     0.246 C 
BRANCH  34  39
HETATM   39  N5  UNL     1      14.786  86.339  34.348  1.00  0.00    -0.072 N 
ATOM     40  H53 UNL     1      15.088  85.403  34.619  1.00  0.00     0.274 HD
ATOM     41  H52 UNL     1      15.622  86.585  33.817  1.00  0.00     0.274 HD
ATOM     42  H51 UNL     1      14.606  86.957  35.139  1.00  0.00     0.274 HD
ENDBRANCH  34  39
BRANCH  36  43
HETATM   43  N6  UNL     1      11.498  89.355  34.450  1.00  0.00    -0.072 N 
ATOM     44  H63 UNL     1      12.242  89.928  34.053  1.00  0.00     0.274 HD
ATOM     45  H62 UNL     1      10.724  89.769  33.929  1.00  0.00     0.274 HD
ATOM     46  H61 UNL     1      11.404  89.461  35.460  1.00  0.00     0.274 HD
ENDBRANCH  36  43
BRANCH  37  47
HETATM   47  O4  UNL     1      11.819  88.005  36.596  1.00  0.00    -0.391 OA
ATOM     48  H4  UNL     1      12.058  87.512  37.372  1.00  0.00     0.210 HD
ENDBRANCH  37  47
BRANCH  38  49
HETATM   49  N7  UNL     1      11.801  84.970  36.510  1.00  0.00    -0.070 N 
HETATM   50  C15 UNL     1      12.766  83.922  36.655  1.00  0.00     0.267 C 
ATOM     51  H72 UNL     1      11.520  85.375  37.403  1.00  0.00     0.277 HD
ATOM     52  H71 UNL     1      10.885  84.626  36.221  1.00  0.00     0.277 HD
ENDBRANCH  38  49
ENDBRANCH  32  33
ENDBRANCH   3  32
BRANCH   4  53
HETATM   53  N8  UNL     1      13.153  82.627  32.217  1.00  0.00    -0.070 N 
ATOM     54  H83 UNL     1      12.739  82.145  31.419  1.00  0.00     0.274 HD
ATOM     55  H82 UNL     1      13.528  83.445  31.737  1.00  0.00     0.274 HD
ATOM     56  H81 UNL     1      13.899  82.072  32.636  1.00  0.00     0.274 HD
ENDBRANCH   4  53
TORSDOF 15
ENDMDL
MODEL 4
REMARK VINA RESULT: -6.655097077      1.972      3.325
REMARK  15 active torsions:
REMARK  status: ('A' for Active; 'I' for Inactive)
REMARK    1  A    between atoms: N1_2  and  C2_5 
REMARK    2  A    between atoms: C3_6  and  N2_7 
REMARK    3  A    between atoms: C5_12  and  N3_13 
REMARK    4  A    between atoms: N3_13  and  N4_14 
REMARK    5  A    between atoms: C6_17  and  O1_18 
REMARK    6  A    between atoms: O1_18  and  C7_19 
REMARK    7  A    between atoms: C8_21  and  O3_22 
REMARK    8  A    between atoms: O3_22  and  C9_23 
REMARK    9  A    between atoms: C10_24  and  N5_25 
REMARK   10  A    between atoms: C12_30  and  N6_31 
REMARK   11  A    between atoms: C13_35  and  O4_36 
REMARK   12  A    between atoms: C14_38  and  N7_39 
REMARK   13  A    between atoms: C16_43  and  N8_44 
REMARK   14  A    between atoms: C18_49  and  N9_50 
REMARK   15  A    between atoms: C19_54  and  O5_55 
ROOT
HETATM    1  C7  UNL     1      10.751  87.460  33.735  1.00  0.00     0.294 C 
HETATM    2  O2  UNL     1      10.838  86.012  33.792  1.00  0.00    -0.327 OA
HETATM    3  C8  UNL     1      10.997  85.675  35.111  1.00  0.00     0.293 C 
HETATM    4  C16 UNL     1      11.958  86.547  35.864  1.00  0.00     0.240 C 
HETATM    5  C17 UNL     1      12.779  87.454  35.034  1.00  0.00     0.075 C 
HETATM    6  C18 UNL     1      12.172  87.863  33.708  1.00  0.00     0.240 C 
ENDROOT
BRANCH   1   7
HETATM    7  O1  UNL     1      10.085  87.791  32.558  1.00  0.00    -0.349 OA
BRANCH   7   8
HETATM    8  C6  UNL     1       9.274  86.767  32.084  1.00  0.00     0.176 C 
HETATM    9  C5  UNL     1       7.883  86.736  32.542  1.00  0.00     0.132 C 
HETATM   10  C4  UNL     1       7.021  87.501  31.545  1.00  0.00     0.060 C 
HETATM   11  C3  UNL     1       6.916  86.567  30.332  1.00  0.00     0.218 C 
HETATM   12  C2  UNL     1       8.288  86.184  29.840  1.00  0.00     0.246 C 
HETATM   13  C19 UNL     1       9.397  86.863  30.562  1.00  0.00     0.181 C 
BRANCH   9  14
HETATM   14  N3  UNL     1       7.573  87.204  33.845  1.00  0.00    -0.141 NA
BRANCH  14  15
HETATM   15  N4  UNL     1       7.347  88.573  33.896  1.00  0.00    -0.348 N 
ATOM     16  H42 UNL     1       6.438  88.971  34.135  1.00  0.00     0.172 HD
ATOM     17  H41 UNL     1       8.174  89.125  33.671  1.00  0.00     0.172 HD
ENDBRANCH  14  15
ENDBRANCH   9  14
BRANCH  11  18
HETATM   18  N2  UNL     1       6.093  87.188  29.345  1.00  0.00    -0.073 N 
ATOM     19  H23 UNL     1       6.627  87.882  28.820  1.00  0.00     0.274 HD
ATOM     20  H22 UNL     1       5.877  86.532  28.595  1.00  0.00     0.274 HD
ATOM     21  H21 UNL     1       5.237  87.602  29.715  1.00  0.00     0.274 HD
ENDBRANCH  11  18
BRANCH  12  22
HETATM   22  N1  UNL     1       8.449  84.741  29.779  1.00  0.00    -0.070 N 
HETATM   23  C1  UNL     1       7.206  84.083  30.140  1.00  0.00     0.267 C 
ATOM     24  H12 UNL     1       9.231  84.420  30.351  1.00  0.00     0.277 HD
ATOM     25  H11 UNL     1       8.793  84.434  28.869  1.00  0.00     0.277 HD
ENDBRANCH  12  22
BRANCH  13  26
HETATM   26  O5  UNL     1      10.593  86.233  30.226  1.00  0.00    -0.391 OA
ATOM     27  H5  UNL     1      11.028  86.752  29.559  1.00  0.00     0.210 HD
ENDBRANCH  13  26
ENDBRANCH   7   8
ENDBRANCH   1   7
BRANCH   6  28
HETATM   28  N9  UNL     1      12.479  89.208  33.361  1.00  0.00    -0.070 N 
ATOM     29  H93 UNL     1      13.473  89.374  33.516  1.00  0.00     0.274 HD
ATOM     30  H92 UNL     1      12.420  89.314  32.348  1.00  0.00     0.274 HD
ATOM     31  H91 UNL     1      11.943  89.954  33.805  1.00  0.00     0.274 HD
ENDBRANCH   6  28
BRANCH   3  32
HETATM   32  O3  UNL     1      11.337  84.331  35.211  1.00  0.00    -0.349 OA
BRANCH  32  33
HETATM   33  C9  UNL     1      12.617  84.024  34.802  1.00  0.00     0.188 C 
HETATM   34  C10 UNL     1      13.394  83.270  35.875  1.00  0.00     0.216 C 
HETATM   35  C11 UNL     1      12.807  81.936  36.185  1.00  0.00     0.070 C 
HETATM   36  C12 UNL     1      11.540  81.604  35.455  1.00  0.00     0.216 C 
HETATM   37  C13 UNL     1      11.610  81.885  33.976  1.00  0.00     0.181 C 
HETATM   38  C14 UNL     1      12.502  83.053  33.645  1.00  0.00     0.246 C 
BRANCH  34  39
HETATM   39  N5  UNL     1      14.727  83.039  35.299  1.00  0.00    -0.072 N 
ATOM     40  H53 UNL     1      14.793  83.270  34.307  1.00  0.00     0.274 HD
ATOM     41  H52 UNL     1      15.435  83.699  35.622  1.00  0.00     0.274 HD
ATOM     42  H51 UNL     1      14.947  82.065  35.510  1.00  0.00     0.274 HD
ENDBRANCH  34  39
BRANCH  36  43
HETATM   43  N6  UNL     1      11.332  80.158  35.603  1.00  0.00    -0.072 N 
ATOM     44  H63 UNL     1      10.999  79.710  34.749  1.00  0.00     0.274 HD
ATOM     45  H62 UNL     1      12.202  79.633  35.693  1.00  0.00     0.274 HD
ATOM     46  H61 UNL     1      10.702  80.030  36.395  1.00  0.00     0.274 HD
ENDBRANCH  36  43
BRANCH  37  47
HETATM   47  O4  UNL     1      12.018  80.803  33.227  1.00  0.00    -0.391 OA
ATOM     48  H4  UNL     1      11.875  80.909  32.294  1.00  0.00     0.210 HD
ENDBRANCH  37  47
BRANCH  38  49
HETATM   49  N7  UNL     1      12.146  83.725  32.413  1.00  0.00    -0.070 N 
HETATM   50  C15 UNL     1      10.881  83.215  31.977  1.00  0.00     0.267 C 
ATOM     51  H72 UNL     1      12.152  84.741  32.503  1.00  0.00     0.277 HD
ATOM     52  H71 UNL     1      12.870  83.646  31.699  1.00  0.00     0.277 HD
ENDBRANCH  38  49
ENDBRANCH  32  33
ENDBRANCH   3  32
BRANCH   4  53
HETATM   53  N8  UNL     1      11.306  87.306  36.927  1.00  0.00    -0.070 N 
ATOM     54  H83 UNL     1      11.993  87.721  37.557  1.00  0.00     0.274 HD
ATOM     55  H82 UNL     1      10.882  88.160  36.563  1.00  0.00     0.274 HD
ATOM     56  H81 UNL     1      10.625  86.748  37.442  1.00  0.00     0.274 HD
ENDBRANCH   4  53
TORSDOF 15
ENDMDL
MODEL 5
REMARK VINA RESULT: -6.647126477      2.128      2.746
REMARK  15 active torsions:
REMARK  status: ('A' for Active; 'I' for Inactive)
REMARK    1  A    between atoms: N1_2  and  C2_5 
REMARK    2  A    between atoms: C3_6  and  N2_7 
REMARK    3  A    between atoms: C5_12  and  N3_13 
REMARK    4  A    between atoms: N3_13  and  N4_14 
REMARK    5  A    between atoms: C6_17  and  O1_18 
REMARK    6  A    between atoms: O1_18  and  C7_19 
REMARK    7  A    between atoms: C8_21  and  O3_22 
REMARK    8  A    between atoms: O3_22  and  C9_23 
REMARK    9  A    between atoms: C10_24  and  N5_25 
REMARK   10  A    between atoms: C12_30  and  N6_31 
REMARK   11  A    between atoms: C13_35  and  O4_36 
REMARK   12  A    between atoms: C14_38  and  N7_39 
REMARK   13  A    between atoms: C16_43  and  N8_44 
REMARK   14  A    between atoms: C18_49  and  N9_50 
REMARK   15  A    between atoms: C19_54  and  O5_55 
ROOT
HETATM    1  C7  UNL     1       8.336  84.617  30.913  1.00  0.00     0.294 C 
HETATM    2  O2  UNL     1       9.615  84.174  31.436  1.00  0.00    -0.327 OA
HETATM    3  C8  UNL     1       9.868  84.924  32.556  1.00  0.00     0.293 C 
HETATM    4  C16 UNL     1       9.543  86.382  32.414  1.00  0.00     0.240 C 
HETATM    5  C17 UNL     1       9.257  86.840  31.038  1.00  0.00     0.075 C 
HETATM    6  C18 UNL     1       8.715  85.787  30.094  1.00  0.00     0.240 C 
ENDROOT
BRANCH   1   7
HETATM    7  O1  UNL     1       7.818  83.579  30.145  1.00  0.00    -0.349 OA
BRANCH   7   8
HETATM    8  C6  UNL     1       6.729  82.951  30.739  1.00  0.00     0.176 C 
HETATM    9  C5  UNL     1       7.001  81.827  31.638  1.00  0.00     0.132 C 
HETATM   10  C4  UNL     1       7.115  82.356  33.062  1.00  0.00     0.060 C 
HETATM   11  C3  UNL     1       5.670  82.672  33.471  1.00  0.00     0.218 C 
HETATM   12  C2  UNL     1       5.035  83.615  32.480  1.00  0.00     0.246 C 
HETATM   13  C19 UNL     1       5.965  84.087  31.420  1.00  0.00     0.181 C 
BRANCH   9  14
HETATM   14  N3  UNL     1       8.121  80.994  31.385  1.00  0.00    -0.141 NA
BRANCH  14  15
HETATM   15  N4  UNL     1       9.244  81.348  32.120  1.00  0.00    -0.348 N 
ATOM     16  H42 UNL     1       9.184  81.734  33.062  1.00  0.00     0.172 HD
ATOM     17  H41 UNL     1      10.119  81.183  31.621  1.00  0.00     0.172 HD
ENDBRANCH  14  15
ENDBRANCH   9  14
BRANCH  11  18
HETATM   18  N2  UNL     1       5.668  83.151  34.817  1.00  0.00    -0.073 N 
ATOM     19  H23 UNL     1       5.429  84.142  34.843  1.00  0.00     0.274 HD
ATOM     20  H22 UNL     1       4.875  82.768  35.331  1.00  0.00     0.274 HD
ATOM     21  H21 UNL     1       6.538  82.979  35.321  1.00  0.00     0.274 HD
ENDBRANCH  11  18
BRANCH  12  22
HETATM   22  N1  UNL     1       3.795  83.075  31.951  1.00  0.00    -0.070 N 
HETATM   23  C1  UNL     1       2.676  83.480  32.782  1.00  0.00     0.267 C 
ATOM     24  H12 UNL     1       3.838  82.062  31.836  1.00  0.00     0.277 HD
ATOM     25  H11 UNL     1       3.655  83.331  30.973  1.00  0.00     0.277 HD
ENDBRANCH  12  22
BRANCH  13  26
HETATM   26  O5  UNL     1       5.216  84.708  30.423  1.00  0.00    -0.391 OA
ATOM     27  H5  UNL     1       5.751  85.383  30.022  1.00  0.00     0.210 HD
ENDBRANCH  13  26
ENDBRANCH   7   8
ENDBRANCH   1   7
BRANCH   6  28
HETATM   28  N9  UNL     1       7.749  86.312  29.190  1.00  0.00    -0.070 N 
ATOM     29  H93 UNL     1       6.815  86.119  29.550  1.00  0.00     0.274 HD
ATOM     30  H92 UNL     1       7.769  87.330  29.235  1.00  0.00     0.274 HD
ATOM     31  H91 UNL     1       7.797  86.020  28.214  1.00  0.00     0.274 HD
ENDBRANCH   6  28
BRANCH   3  32
HETATM   32  O3  UNL     1      11.184  84.728  32.960  1.00  0.00    -0.349 OA
BRANCH  32  33
HETATM   33  C9  UNL     1      11.438  85.031  34.280  1.00  0.00     0.188 C 
HETATM   34  C10 UNL     1      10.705  84.094  35.233  1.00  0.00     0.216 C 
HETATM   35  C11 UNL     1      11.159  82.679  35.116  1.00  0.00     0.070 C 
HETATM   36  C12 UNL     1      12.184  82.418  34.054  1.00  0.00     0.216 C 
HETATM   37  C13 UNL     1      13.327  83.400  34.069  1.00  0.00     0.181 C 
HETATM   38  C14 UNL     1      12.909  84.772  34.529  1.00  0.00     0.246 C 
BRANCH  34  39
HETATM   39  N5  UNL     1      11.059  84.556  36.583  1.00  0.00    -0.072 N 
ATOM     40  H53 UNL     1      11.893  84.110  36.965  1.00  0.00     0.274 HD
ATOM     41  H52 UNL     1      11.413  85.513  36.610  1.00  0.00     0.274 HD
ATOM     42  H51 UNL     1      10.221  84.412  37.146  1.00  0.00     0.274 HD
ENDBRANCH  34  39
BRANCH  36  43
HETATM   43  N6  UNL     1      12.758  81.095  34.335  1.00  0.00    -0.072 N 
ATOM     44  H63 UNL     1      12.919  80.930  35.328  1.00  0.00     0.274 HD
ATOM     45  H62 UNL     1      12.101  80.330  34.181  1.00  0.00     0.274 HD
ATOM     46  H61 UNL     1      13.605  81.015  33.772  1.00  0.00     0.274 HD
ENDBRANCH  36  43
BRANCH  37  47
HETATM   47  O4  UNL     1      14.396  82.992  34.836  1.00  0.00    -0.391 OA
ATOM     48  H4  UNL     1      14.972  83.702  35.094  1.00  0.00     0.210 HD
ENDBRANCH  37  47
BRANCH  38  49
HETATM   49  N7  UNL     1      13.738  85.838  34.006  1.00  0.00    -0.070 N 
HETATM   50  C15 UNL     1      13.275  87.075  34.559  1.00  0.00     0.267 C 
ATOM     51  H72 UNL     1      14.732  85.680  34.171  1.00  0.00     0.277 HD
ATOM     52  H71 UNL     1      13.768  85.849  32.986  1.00  0.00     0.277 HD
ENDBRANCH  38  49
ENDBRANCH  32  33
ENDBRANCH   3  32
BRANCH   4  53
HETATM   53  N8  UNL     1       8.468  86.802  33.308  1.00  0.00    -0.070 N 
ATOM     54  H83 UNL     1       7.557  86.697  32.861  1.00  0.00     0.274 HD
ATOM     55  H82 UNL     1       8.351  86.143  34.077  1.00  0.00     0.274 HD
ATOM     56  H81 UNL     1       8.600  87.752  33.655  1.00  0.00     0.274 HD
ENDBRANCH   4  53
TORSDOF 15
ENDMDL
