MODEL 1
REMARK VINA RESULT: -7.579991057      0.000      0.000
REMARK  12 active torsions:
REMARK  status: ('A' for Active; 'I' for Inactive)
REMARK    1  A    between atoms: O1_2  and  N1_3 
REMARK       I    between atoms: C2_5  and  N3_7 
REMARK    2  A    between atoms: N3_7  and  N4_9 
REMARK    3  A    between atoms: C5_15  and  N6_16 
REMARK    4  A    between atoms: N6_16  and  C6_18 
REMARK    5  A    between atoms: C6_18  and  C7_19 
REMARK    6  A    between atoms: C7_19  and  N7_20 
REMARK       I    between atoms: N7_20  and  C8_22 
REMARK    7  A    between atoms: C8_22  and  C9_24 
REMARK    8  A    between atoms: C9_24  and  O4_25 
REMARK    9  A    between atoms: C9_24  and  C10_27 
REMARK   10  A    between atoms: C10_27  and  N8_28 
REMARK   11  A    between atoms: N11_39  and  C13_40 
REMARK   12  A    between atoms: C13_40  and  C14_41 
ROOT
HETATM    1  N4  UNL     1       9.686  86.274  31.879  1.00  0.00    -0.163 N 
HETATM    2  C3  UNL     1      10.813  85.595  32.184  1.00  0.00     0.300 A 
HETATM    3  O2  UNL     1      11.109  84.482  31.696  1.00  0.00    -0.263 OA
HETATM    4  C4  UNL     1      11.672  86.174  33.085  1.00  0.00     0.150 A 
HETATM    5  N5  UNL     1      12.810  85.545  33.427  1.00  0.00    -0.184 N 
ATOM      6  H5  UNL     1      13.022  84.638  33.011  1.00  0.00     0.184 HD
HETATM    7  C5  UNL     1      13.681  86.085  34.308  1.00  0.00     0.680 A 
HETATM    8  N9  UNL     1      13.405  87.279  34.859  1.00  0.00    -0.175 N 
ATOM      9  H9  UNL     1      14.063  87.685  35.524  1.00  0.00     0.186 HD
HETATM   10  C11 UNL     1      12.263  87.964  34.549  1.00  0.00     0.144 A 
HETATM   11  N10 UNL     1      12.057  89.090  35.100  1.00  0.00    -0.383 N 
ATOM     12 1H10 UNL     1      11.206  89.601  34.869  1.00  0.00     0.157 HD
ATOM     13 2H10 UNL     1      12.718  89.492  35.764  1.00  0.00     0.157 HD
HETATM   14  C12 UNL     1      11.380  87.425  33.660  1.00  0.00     0.120 A 
HETATM   15  N11 UNL     1      10.243  88.096  33.343  1.00  0.00    -0.261 N 
HETATM   16  C15 UNL     1       9.447  87.441  32.436  1.00  0.00     0.356 A 
HETATM   17  O7  UNL     1       8.359  88.027  32.100  1.00  0.00    -0.244 OA
ENDROOT
BRANCH   7  18
HETATM   18  N6  UNL     1      14.763  85.462  34.619  1.00  0.00    -0.224 N 
ATOM     19  H6  UNL     1      15.552  85.996  34.987  1.00  0.00     0.177 HD
BRANCH  18  20
HETATM   20  C6  UNL     1      14.901  84.026  34.463  1.00  0.00     0.157 C 
BRANCH  20  21
HETATM   21  C7  UNL     1      14.284  83.291  35.638  1.00  0.00     0.143 C 
BRANCH  21  22
HETATM   22  N7  UNL     1      13.525  82.144  35.261  1.00  0.00    -0.357 N 
HETATM   23  C8  UNL     1      12.151  82.148  34.931  1.00  0.00     0.248 C 
HETATM   24  O3  UNL     1      11.467  83.221  34.950  1.00  0.00    -0.271 OA
ATOM     25  H7  UNL     1      14.013  81.250  35.227  1.00  0.00     0.162 HD
BRANCH  23  26
HETATM   26  C9  UNL     1      11.442  80.907  34.550  1.00  0.00     0.235 C 
BRANCH  26  27
HETATM   27  O4  UNL     1      12.300  79.995  33.961  1.00  0.00    -0.384 OA
ATOM     28  H4  UNL     1      12.633  79.372  34.595  1.00  0.00     0.210 HD
ENDBRANCH  26  27
BRANCH  26  29
HETATM   29  C10 UNL     1      10.275  81.184  33.627  1.00  0.00     0.271 C 
BRANCH  29  30
HETATM   30  N8  UNL     1      10.769  81.792  32.417  1.00  0.00    -0.076 N 
ATOM     31  H83 UNL     1      11.781  81.922  32.432  1.00  0.00     0.274 HD
ATOM     32  H82 UNL     1      10.718  81.161  31.617  1.00  0.00     0.274 HD
ATOM     33  H81 UNL     1      10.267  82.665  32.255  1.00  0.00     0.274 HD
ENDBRANCH  29  30
ENDBRANCH  26  29
ENDBRANCH  23  26
ENDBRANCH  21  22
ENDBRANCH  20  21
ENDBRANCH  18  20
ENDBRANCH   7  18
BRANCH   1  34
HETATM   34  N3  UNL     1       8.815  85.696  30.972  1.00  0.00    -0.258 N 
HETATM   35  C2  UNL     1       9.009  84.519  30.230  1.00  0.00     0.228 C 
HETATM   36  N1  UNL     1       8.593  83.402  30.695  1.00  0.00    -0.238 N 
HETATM   37  N2  UNL     1       9.649  84.549  28.972  1.00  0.00    -0.060 NA
ATOM     38  H1  UNL     1       8.735  82.556  30.143  1.00  0.00     0.197 HD
ATOM     39  H3  UNL     1       7.930  86.182  30.825  1.00  0.00     0.190 HD
BRANCH  36  40
HETATM   40  O1  UNL     1       7.959  83.298  31.917  1.00  0.00    -0.283 OA
HETATM   41  C1  UNL     1       6.997  82.294  32.186  1.00  0.00     0.237 C 
ENDBRANCH  36  40
ENDBRANCH   1  34
BRANCH  15  42
HETATM   42  C13 UNL     1       9.854  89.341  33.874  1.00  0.00     0.186 C 
BRANCH  42  43
HETATM   43  C14 UNL     1       8.766  89.302  34.910  1.00  0.00     0.215 C 
HETATM   44  O5  UNL     1       9.015  88.661  35.948  1.00  0.00    -0.643 OA
HETATM   45  O6  UNL     1       7.563  89.920  34.756  1.00  0.00    -0.643 OA
ENDBRANCH  42  43
ENDBRANCH  15  42
TORSDOF 12
ENDMDL
MODEL 2
REMARK VINA RESULT: -7.315786560      2.803      5.251
REMARK  12 active torsions:
REMARK  status: ('A' for Active; 'I' for Inactive)
REMARK    1  A    between atoms: O1_2  and  N1_3 
REMARK       I    between atoms: C2_5  and  N3_7 
REMARK    2  A    between atoms: N3_7  and  N4_9 
REMARK    3  A    between atoms: C5_15  and  N6_16 
REMARK    4  A    between atoms: N6_16  and  C6_18 
REMARK    5  A    between atoms: C6_18  and  C7_19 
REMARK    6  A    between atoms: C7_19  and  N7_20 
REMARK       I    between atoms: N7_20  and  C8_22 
REMARK    7  A    between atoms: C8_22  and  C9_24 
REMARK    8  A    between atoms: C9_24  and  O4_25 
REMARK    9  A    between atoms: C9_24  and  C10_27 
REMARK   10  A    between atoms: C10_27  and  N8_28 
REMARK   11  A    between atoms: N11_39  and  C13_40 
REMARK   12  A    between atoms: C13_40  and  C14_41 
ROOT
HETATM    1  N4  UNL     1       6.931  83.644  32.959  1.00  0.00    -0.163 N 
HETATM    2  C3  UNL     1       7.664  83.079  33.942  1.00  0.00     0.300 A 
HETATM    3  O2  UNL     1       7.224  82.840  35.088  1.00  0.00    -0.263 OA
HETATM    4  C4  UNL     1       8.966  82.755  33.650  1.00  0.00     0.150 A 
HETATM    5  N5  UNL     1       9.743  82.189  34.590  1.00  0.00    -0.184 N 
ATOM      6  H5  UNL     1       9.354  82.008  35.515  1.00  0.00     0.184 HD
HETATM    7  C5  UNL     1      11.028  81.856  34.338  1.00  0.00     0.680 A 
HETATM    8  N9  UNL     1      11.545  82.094  33.121  1.00  0.00    -0.175 N 
ATOM      9  H9  UNL     1      12.514  81.841  32.933  1.00  0.00     0.186 HD
HETATM   10  C11 UNL     1      10.801  82.667  32.127  1.00  0.00     0.144 A 
HETATM   11  N10 UNL     1      11.343  82.866  30.996  1.00  0.00    -0.383 N 
ATOM     12 1H10 UNL     1      10.788  83.294  30.255  1.00  0.00     0.157 HD
ATOM     13 2H10 UNL     1      12.313  82.613  30.812  1.00  0.00     0.157 HD
HETATM   14  C12 UNL     1       9.503  83.007  32.374  1.00  0.00     0.120 A 
HETATM   15  N11 UNL     1       8.753  83.576  31.395  1.00  0.00    -0.261 N 
HETATM   16  C15 UNL     1       7.467  83.864  31.778  1.00  0.00     0.356 A 
HETATM   17  O7  UNL     1       6.713  84.403  30.895  1.00  0.00    -0.244 OA
ENDROOT
BRANCH   7  18
HETATM   18  N6  UNL     1      11.752  81.315  35.255  1.00  0.00    -0.224 N 
ATOM     19  H6  UNL     1      11.503  80.386  35.597  1.00  0.00     0.177 HD
BRANCH  18  20
HETATM   20  C6  UNL     1      12.910  81.982  35.819  1.00  0.00     0.157 C 
BRANCH  20  21
HETATM   21  C7  UNL     1      12.508  83.261  36.529  1.00  0.00     0.143 C 
BRANCH  21  22
HETATM   22  N7  UNL     1      13.094  84.434  35.970  1.00  0.00    -0.357 N 
HETATM   23  C8  UNL     1      12.410  85.398  35.195  1.00  0.00     0.248 C 
HETATM   24  O3  UNL     1      11.171  85.279  34.930  1.00  0.00    -0.271 OA
ATOM     25  H7  UNL     1      14.086  84.591  36.143  1.00  0.00     0.162 HD
BRANCH  23  26
HETATM   26  C9  UNL     1      13.100  86.590  34.654  1.00  0.00     0.235 C 
BRANCH  26  27
HETATM   27  O4  UNL     1      12.914  87.694  35.465  1.00  0.00    -0.384 OA
ATOM     28  H4  UNL     1      13.563  88.366  35.291  1.00  0.00     0.210 HD
ENDBRANCH  26  27
BRANCH  26  29
HETATM   29  C10 UNL     1      12.654  86.909  33.242  1.00  0.00     0.271 C 
BRANCH  29  30
HETATM   30  N8  UNL     1      12.589  85.685  32.484  1.00  0.00    -0.076 N 
ATOM     31  H83 UNL     1      13.503  85.245  32.374  1.00  0.00     0.274 HD
ATOM     32  H82 UNL     1      12.130  84.933  32.999  1.00  0.00     0.274 HD
ATOM     33  H81 UNL     1      12.138  85.873  31.589  1.00  0.00     0.274 HD
ENDBRANCH  29  30
ENDBRANCH  26  29
ENDBRANCH  23  26
ENDBRANCH  21  22
ENDBRANCH  20  21
ENDBRANCH  18  20
ENDBRANCH   7  18
BRANCH   1  34
HETATM   34  N3  UNL     1       5.617  83.973  33.246  1.00  0.00    -0.258 N 
HETATM   35  C2  UNL     1       4.457  83.289  32.846  1.00  0.00     0.228 C 
HETATM   36  N1  UNL     1       3.955  82.394  33.611  1.00  0.00    -0.238 N 
HETATM   37  N2  UNL     1       3.830  83.578  31.615  1.00  0.00    -0.060 NA
ATOM     38  H1  UNL     1       3.109  81.910  33.311  1.00  0.00     0.197 HD
ATOM     39  H3  UNL     1       5.476  84.809  33.813  1.00  0.00     0.190 HD
BRANCH  36  40
HETATM   40  O1  UNL     1       4.514  82.060  34.828  1.00  0.00    -0.283 OA
HETATM   41  C1  UNL     1       3.766  82.068  36.030  1.00  0.00     0.237 C 
ENDBRANCH  36  40
ENDBRANCH   1  34
BRANCH  15  42
HETATM   42  C13 UNL     1       9.202  83.881  30.095  1.00  0.00     0.186 C 
BRANCH  42  43
HETATM   43  C14 UNL     1       9.515  85.328  29.833  1.00  0.00     0.215 C 
HETATM   44  O5  UNL     1       8.742  85.928  29.063  1.00  0.00    -0.643 OA
HETATM   45  O6  UNL     1      10.575  85.977  30.387  1.00  0.00    -0.643 OA
ENDBRANCH  42  43
ENDBRANCH  15  42
TORSDOF 12
ENDMDL
MODEL 3
REMARK VINA RESULT: -7.300717015      2.670      4.122
REMARK  12 active torsions:
REMARK  status: ('A' for Active; 'I' for Inactive)
REMARK    1  A    between atoms: O1_2  and  N1_3 
REMARK       I    between atoms: C2_5  and  N3_7 
REMARK    2  A    between atoms: N3_7  and  N4_9 
REMARK    3  A    between atoms: C5_15  and  N6_16 
REMARK    4  A    between atoms: N6_16  and  C6_18 
REMARK    5  A    between atoms: C6_18  and  C7_19 
REMARK    6  A    between atoms: C7_19  and  N7_20 
REMARK       I    between atoms: N7_20  and  C8_22 
REMARK    7  A    between atoms: C8_22  and  C9_24 
REMARK    8  A    between atoms: C9_24  and  O4_25 
REMARK    9  A    between atoms: C9_24  and  C10_27 
REMARK   10  A    between atoms: C10_27  and  N8_28 
REMARK   11  A    between atoms: N11_39  and  C13_40 
REMARK   12  A    between atoms: C13_40  and  C14_41 
ROOT
HETATM    1  N4  UNL     1       6.909  84.769  33.177  1.00  0.00    -0.163 N 
HETATM    2  C3  UNL     1       7.599  84.666  34.333  1.00  0.00     0.300 A 
HETATM    3  O2  UNL     1       7.077  84.376  35.432  1.00  0.00    -0.263 OA
HETATM    4  C4  UNL     1       8.951  84.901  34.281  1.00  0.00     0.150 A 
HETATM    5  N5  UNL     1       9.691  84.813  35.401  1.00  0.00    -0.184 N 
ATOM      6  H5  UNL     1       9.234  84.574  36.282  1.00  0.00     0.184 HD
HETATM    7  C5  UNL     1      11.023  85.034  35.388  1.00  0.00     0.680 A 
HETATM    8  N9  UNL     1      11.628  85.350  34.231  1.00  0.00    -0.175 N 
ATOM      9  H9  UNL     1      12.634  85.516  34.224  1.00  0.00     0.186 HD
HETATM   10  C11 UNL     1      10.927  85.454  33.062  1.00  0.00     0.144 A 
HETATM   11  N10 UNL     1      11.553  85.753  31.999  1.00  0.00    -0.383 N 
ATOM     12 1H10 UNL     1      11.031  85.830  31.127  1.00  0.00     0.157 HD
ATOM     13 2H10 UNL     1      12.559  85.919  31.995  1.00  0.00     0.157 HD
HETATM   14  C12 UNL     1       9.581  85.231  33.067  1.00  0.00     0.120 A 
HETATM   15  N11 UNL     1       8.874  85.330  31.912  1.00  0.00    -0.261 N 
HETATM   16  C15 UNL     1       7.532  85.079  32.061  1.00  0.00     0.356 A 
HETATM   17  O7  UNL     1       6.814  85.158  31.003  1.00  0.00    -0.244 OA
ENDROOT
BRANCH   7  18
HETATM   18  N6  UNL     1      11.709  84.944  36.475  1.00  0.00    -0.224 N 
ATOM     19  H6  UNL     1      11.375  85.427  37.310  1.00  0.00     0.177 HD
BRANCH  18  20
HETATM   20  C6  UNL     1      12.939  84.179  36.551  1.00  0.00     0.157 C 
BRANCH  20  21
HETATM   21  C7  UNL     1      12.673  82.772  37.052  1.00  0.00     0.143 C 
BRANCH  21  22
HETATM   22  N7  UNL     1      12.542  81.809  36.009  1.00  0.00    -0.357 N 
HETATM   23  C8  UNL     1      11.329  81.455  35.374  1.00  0.00     0.248 C 
HETATM   24  O3  UNL     1      10.225  81.993  35.705  1.00  0.00    -0.271 OA
ATOM     25  H7  UNL     1      13.390  81.338  35.696  1.00  0.00     0.162 HD
BRANCH  23  26
HETATM   26  C9  UNL     1      11.286  80.442  34.296  1.00  0.00     0.235 C 
BRANCH  26  27
HETATM   27  O4  UNL     1      12.542  80.222  33.758  1.00  0.00    -0.384 OA
ATOM     28  H4  UNL     1      12.550  80.381  32.821  1.00  0.00     0.210 HD
ENDBRANCH  26  27
BRANCH  26  29
HETATM   29  C10 UNL     1      10.317  80.826  33.198  1.00  0.00     0.271 C 
BRANCH  29  30
HETATM   30  N8  UNL     1      10.850  81.955  32.478  1.00  0.00    -0.076 N 
ATOM     31  H83 UNL     1      10.519  81.993  31.513  1.00  0.00     0.274 HD
ATOM     32  H82 UNL     1      10.457  82.840  32.798  1.00  0.00     0.274 HD
ATOM     33  H81 UNL     1      11.868  81.937  32.538  1.00  0.00     0.274 HD
ENDBRANCH  29  30
ENDBRANCH  26  29
ENDBRANCH  23  26
ENDBRANCH  21  22
ENDBRANCH  20  21
ENDBRANCH  18  20
ENDBRANCH   7  18
BRANCH   1  34
HETATM   34  N3  UNL     1       5.546  84.534  33.221  1.00  0.00    -0.258 N 
HETATM   35  C2  UNL     1       4.845  83.453  32.661  1.00  0.00     0.228 C 
HETATM   36  N1  UNL     1       4.618  82.412  33.369  1.00  0.00    -0.238 N 
HETATM   37  N2  UNL     1       4.379  83.499  31.329  1.00  0.00    -0.060 NA
ATOM     38  H1  UNL     1       4.103  81.636  32.951  1.00  0.00     0.197 HD
ATOM     39  H3  UNL     1       4.985  85.227  33.717  1.00  0.00     0.190 HD
BRANCH  36  40
HETATM   40  O1  UNL     1       5.043  82.297  34.677  1.00  0.00    -0.283 OA
HETATM   41  C1  UNL     1       4.137  82.247  35.764  1.00  0.00     0.237 C 
ENDBRANCH  36  40
ENDBRANCH   1  34
BRANCH  15  42
HETATM   42  C13 UNL     1       9.407  85.669  30.654  1.00  0.00     0.186 C 
BRANCH  42  43
HETATM   43  C14 UNL     1       9.605  84.529  29.695  1.00  0.00     0.215 C 
HETATM   44  O5  UNL     1       8.976  84.593  28.624  1.00  0.00    -0.643 OA
HETATM   45  O6  UNL     1      10.419  83.468  29.953  1.00  0.00    -0.643 OA
ENDBRANCH  42  43
ENDBRANCH  15  42
TORSDOF 12
ENDMDL
MODEL 4
REMARK VINA RESULT: -7.253672789      1.041      1.145
REMARK  12 active torsions:
REMARK  status: ('A' for Active; 'I' for Inactive)
REMARK    1  A    between atoms: O1_2  and  N1_3 
REMARK       I    between atoms: C2_5  and  N3_7 
REMARK    2  A    between atoms: N3_7  and  N4_9 
REMARK    3  A    between atoms: C5_15  and  N6_16 
REMARK    4  A    between atoms: N6_16  and  C6_18 
REMARK    5  A    between atoms: C6_18  and  C7_19 
REMARK    6  A    between atoms: C7_19  and  N7_20 
REMARK       I    between atoms: N7_20  and  C8_22 
REMARK    7  A    between atoms: C8_22  and  C9_24 
REMARK    8  A    between atoms: C9_24  and  O4_25 
REMARK    9  A    between atoms: C9_24  and  C10_27 
REMARK   10  A    between atoms: C10_27  and  N8_28 
REMARK   11  A    between atoms: N11_39  and  C13_40 
REMARK   12  A    between atoms: C13_40  and  C14_41 
ROOT
HETATM    1  N4  UNL     1       9.640  86.132  31.848  1.00  0.00    -0.163 N 
HETATM    2  C3  UNL     1      10.777  85.468  32.147  1.00  0.00     0.300 A 
HETATM    3  O2  UNL     1      11.081  84.355  31.665  1.00  0.00    -0.263 OA
HETATM    4  C4  UNL     1      11.638  86.063  33.037  1.00  0.00     0.150 A 
HETATM    5  N5  UNL     1      12.786  85.449  33.372  1.00  0.00    -0.184 N 
ATOM      6  H5  UNL     1      13.004  84.541  32.961  1.00  0.00     0.184 HD
HETATM    7  C5  UNL     1      13.658  86.005  34.241  1.00  0.00     0.680 A 
HETATM    8  N9  UNL     1      13.374  87.200  34.786  1.00  0.00    -0.175 N 
ATOM      9  H9  UNL     1      14.034  87.617  35.442  1.00  0.00     0.186 HD
HETATM   10  C11 UNL     1      12.222  87.870  34.482  1.00  0.00     0.144 A 
HETATM   11  N10 UNL     1      12.009  88.997  35.027  1.00  0.00    -0.383 N 
ATOM     12 1H10 UNL     1      11.150  89.497  34.800  1.00  0.00     0.157 HD
ATOM     13 2H10 UNL     1      12.671  89.411  35.682  1.00  0.00     0.157 HD
HETATM   14  C12 UNL     1      11.337  87.315  33.605  1.00  0.00     0.120 A 
HETATM   15  N11 UNL     1      10.190  87.971  33.294  1.00  0.00    -0.261 N 
HETATM   16  C15 UNL     1       9.393  87.301  32.399  1.00  0.00     0.356 A 
HETATM   17  O7  UNL     1       8.296  87.872  32.069  1.00  0.00    -0.244 OA
ENDROOT
BRANCH   7  18
HETATM   18  N6  UNL     1      14.751  85.396  34.546  1.00  0.00    -0.224 N 
ATOM     19  H6  UNL     1      15.540  85.942  34.892  1.00  0.00     0.177 HD
BRANCH  18  20
HETATM   20  C6  UNL     1      14.897  83.959  34.415  1.00  0.00     0.157 C 
BRANCH  20  21
HETATM   21  C7  UNL     1      14.291  83.240  35.605  1.00  0.00     0.143 C 
BRANCH  21  22
HETATM   22  N7  UNL     1      13.477  82.125  35.247  1.00  0.00    -0.357 N 
HETATM   23  C8  UNL     1      12.092  82.181  34.971  1.00  0.00     0.248 C 
HETATM   24  O3  UNL     1      11.448  83.278  35.027  1.00  0.00    -0.271 OA
ATOM     25  H7  UNL     1      13.931  81.214  35.184  1.00  0.00     0.162 HD
BRANCH  23  26
HETATM   26  C9  UNL     1      11.325  80.970  34.605  1.00  0.00     0.235 C 
BRANCH  26  27
HETATM   27  O4  UNL     1      12.118  80.051  33.941  1.00  0.00    -0.384 OA
ATOM     28  H4  UNL     1      11.807  79.901  33.055  1.00  0.00     0.210 HD
ENDBRANCH  26  27
BRANCH  26  29
HETATM   29  C10 UNL     1      10.111  81.303  33.764  1.00  0.00     0.271 C 
BRANCH  29  30
HETATM   30  N8  UNL     1      10.547  81.707  32.451  1.00  0.00    -0.076 N 
ATOM     31  H83 UNL     1      10.591  82.722  32.351  1.00  0.00     0.274 HD
ATOM     32  H82 UNL     1      11.533  81.504  32.290  1.00  0.00     0.274 HD
ATOM     33  H81 UNL     1       9.942  81.274  31.753  1.00  0.00     0.274 HD
ENDBRANCH  29  30
ENDBRANCH  26  29
ENDBRANCH  23  26
ENDBRANCH  21  22
ENDBRANCH  20  21
ENDBRANCH  18  20
ENDBRANCH   7  18
BRANCH   1  34
HETATM   34  N3  UNL     1       8.767  85.539  30.953  1.00  0.00    -0.258 N 
HETATM   35  C2  UNL     1       7.939  84.426  31.176  1.00  0.00     0.228 C 
HETATM   36  N1  UNL     1       6.737  84.602  31.578  1.00  0.00    -0.238 N 
HETATM   37  N2  UNL     1       8.409  83.113  30.954  1.00  0.00    -0.060 NA
ATOM     38  H1  UNL     1       6.145  83.785  31.730  1.00  0.00     0.197 HD
ATOM     39  H3  UNL     1       8.720  85.958  30.025  1.00  0.00     0.190 HD
BRANCH  36  40
HETATM   40  O1  UNL     1       6.210  85.856  31.815  1.00  0.00    -0.283 OA
HETATM   41  C1  UNL     1       5.308  86.108  32.876  1.00  0.00     0.237 C 
ENDBRANCH  36  40
ENDBRANCH   1  34
BRANCH  15  42
HETATM   42  C13 UNL     1       9.792  89.216  33.820  1.00  0.00     0.186 C 
BRANCH  42  43
HETATM   43  C14 UNL     1       8.737  89.169  34.889  1.00  0.00     0.215 C 
HETATM   44  O5  UNL     1       9.036  88.562  35.934  1.00  0.00    -0.643 OA
HETATM   45  O6  UNL     1       7.511  89.746  34.756  1.00  0.00    -0.643 OA
ENDBRANCH  42  43
ENDBRANCH  15  42
TORSDOF 12
ENDMDL
MODEL 5
REMARK VINA RESULT: -7.246697890      1.790      2.081
REMARK  12 active torsions:
REMARK  status: ('A' for Active; 'I' for Inactive)
REMARK    1  A    between atoms: O1_2  and  N1_3 
REMARK       I    between atoms: C2_5  and  N3_7 
REMARK    2  A    between atoms: N3_7  and  N4_9 
REMARK    3  A    between atoms: C5_15  and  N6_16 
REMARK    4  A    between atoms: N6_16  and  C6_18 
REMARK    5  A    between atoms: C6_18  and  C7_19 
REMARK    6  A    between atoms: C7_19  and  N7_20 
REMARK       I    between atoms: N7_20  and  C8_22 
REMARK    7  A    between atoms: C8_22  and  C9_24 
REMARK    8  A    between atoms: C9_24  and  O4_25 
REMARK    9  A    between atoms: C9_24  and  C10_27 
REMARK   10  A    between atoms: C10_27  and  N8_28 
REMARK   11  A    between atoms: N11_39  and  C13_40 
REMARK   12  A    between atoms: C13_40  and  C14_41 
ROOT
HETATM    1  N4  UNL     1       8.601  85.274  31.279  1.00  0.00    -0.163 N 
HETATM    2  C3  UNL     1       9.826  84.766  31.533  1.00  0.00     0.300 A 
HETATM    3  O2  UNL     1      10.284  83.744  30.976  1.00  0.00    -0.263 OA
HETATM    4  C4  UNL     1      10.599  85.420  32.460  1.00  0.00     0.150 A 
HETATM    5  N5  UNL     1      11.828  84.961  32.753  1.00  0.00    -0.184 N 
ATOM      6  H5  UNL     1      12.172  84.124  32.282  1.00  0.00     0.184 HD
HETATM    7  C5  UNL     1      12.618  85.579  33.658  1.00  0.00     0.680 A 
HETATM    8  N9  UNL     1      12.167  86.681  34.282  1.00  0.00    -0.175 N 
ATOM      9  H9  UNL     1      12.765  87.146  34.964  1.00  0.00     0.186 HD
HETATM   10  C11 UNL     1      10.927  87.193  34.024  1.00  0.00     0.144 A 
HETATM   11  N10 UNL     1      10.556  88.238  34.643  1.00  0.00    -0.383 N 
ATOM     12 1H10 UNL     1       9.631  88.620  34.451  1.00  0.00     0.157 HD
ATOM     13 2H10 UNL     1      11.157  88.700  35.325  1.00  0.00     0.157 HD
HETATM   14  C12 UNL     1      10.124  86.573  33.111  1.00  0.00     0.120 A 
HETATM   15  N11 UNL     1       8.889  87.074  32.845  1.00  0.00    -0.261 N 
HETATM   16  C15 UNL     1       8.190  86.355  31.907  1.00  0.00     0.356 A 
HETATM   17  O7  UNL     1       7.018  86.780  31.616  1.00  0.00    -0.244 OA
ENDROOT
BRANCH   7  18
HETATM   18  N6  UNL     1      13.791  85.119  33.921  1.00  0.00    -0.224 N 
ATOM     19  H6  UNL     1      14.511  85.162  33.200  1.00  0.00     0.177 HD
BRANCH  18  20
HETATM   20  C6  UNL     1      14.122  84.539  35.209  1.00  0.00     0.157 C 
BRANCH  20  21
HETATM   21  C7  UNL     1      14.374  83.048  35.085  1.00  0.00     0.143 C 
BRANCH  21  22
HETATM   22  N7  UNL     1      13.199  82.255  35.235  1.00  0.00    -0.357 N 
HETATM   23  C8  UNL     1      12.374  81.810  34.177  1.00  0.00     0.248 C 
HETATM   24  O3  UNL     1      12.634  82.100  32.966  1.00  0.00    -0.271 OA
ATOM     25  H7  UNL     1      12.932  81.987  36.182  1.00  0.00     0.162 HD
BRANCH  23  26
HETATM   26  C9  UNL     1      11.169  80.987  34.427  1.00  0.00     0.235 C 
BRANCH  26  27
HETATM   27  O4  UNL     1      11.320  79.705  33.930  1.00  0.00    -0.384 OA
ATOM     28  H4  UNL     1      10.525  79.196  34.034  1.00  0.00     0.210 HD
ENDBRANCH  26  27
BRANCH  26  29
HETATM   29  C10 UNL     1       9.923  81.620  33.846  1.00  0.00     0.271 C 
BRANCH  29  30
HETATM   30  N8  UNL     1       9.792  81.216  32.468  1.00  0.00    -0.076 N 
ATOM     31  H83 UNL     1       9.217  80.380  32.360  1.00  0.00     0.274 HD
ATOM     32  H82 UNL     1       9.212  81.859  31.929  1.00  0.00     0.274 HD
ATOM     33  H81 UNL     1      10.722  81.103  32.066  1.00  0.00     0.274 HD
ENDBRANCH  29  30
ENDBRANCH  26  29
ENDBRANCH  23  26
ENDBRANCH  21  22
ENDBRANCH  20  21
ENDBRANCH  18  20
ENDBRANCH   7  18
BRANCH   1  34
HETATM   34  N3  UNL     1       7.815  84.620  30.346  1.00  0.00    -0.258 N 
HETATM   35  C2  UNL     1       6.894  83.585  30.578  1.00  0.00     0.228 C 
HETATM   36  N1  UNL     1       5.664  83.868  30.789  1.00  0.00    -0.238 N 
HETATM   37  N2  UNL     1       7.302  82.233  30.575  1.00  0.00    -0.060 NA
ATOM     38  H1  UNL     1       5.005  83.106  30.950  1.00  0.00     0.197 HD
ATOM     39  H3  UNL     1       7.917  84.925  29.378  1.00  0.00     0.190 HD
BRANCH  36  40
HETATM   40  O1  UNL     1       5.194  85.166  30.807  1.00  0.00    -0.283 OA
HETATM   41  C1  UNL     1       3.917  85.513  30.304  1.00  0.00     0.237 C 
ENDBRANCH  36  40
ENDBRANCH   1  34
BRANCH  15  42
HETATM   42  C13 UNL     1       8.319  88.208  33.454  1.00  0.00     0.186 C 
BRANCH  42  43
HETATM   43  C14 UNL     1       8.328  89.467  32.633  1.00  0.00     0.215 C 
HETATM   44  O5  UNL     1       9.422  89.797  32.141  1.00  0.00    -0.643 OA
HETATM   45  O6  UNL     1       7.220  90.229  32.419  1.00  0.00    -0.643 OA
ENDBRANCH  42  43
ENDBRANCH  15  42
TORSDOF 12
ENDMDL
