MODEL 1
REMARK VINA RESULT: -7.399399236      0.000      0.000
REMARK  8 active torsions:
REMARK  status: ('A' for Active; 'I' for Inactive)
REMARK    1  A    between atoms: C2_2  and  C3_3 
REMARK    2  A    between atoms: C3_3  and  C5_5 
REMARK    3  A    between atoms: C5_5  and  O1_6 
REMARK    4  A    between atoms: C6_8  and  O2_9 
REMARK    5  A    between atoms: O2_9  and  C7_10 
REMARK    6  A    between atoms: C12_18  and  O6_19 
REMARK    7  A    between atoms: C18_26  and  O7_27 
REMARK    8  A    between atoms: O7_27  and  C19_28 
ROOT
HETATM    1  C5  UNL     1      21.040  11.339  21.878  1.00  0.00     0.127 C 
HETATM    2  C6  UNL     1      20.973  12.038  23.150  1.00  0.00     0.209 C 
HETATM    3  C8  UNL     1      21.897  13.235  23.430  1.00  0.00     0.110 C 
HETATM    4  O5  UNL     1      22.344  12.921  24.752  1.00  0.00    -0.376 OA
HETATM    5  C9  UNL     1      23.632  12.692  24.827  1.00  0.00     0.170 C 
HETATM    6  C10 UNL     1      24.270  13.355  23.692  1.00  0.00     0.045 C 
HETATM    7  C11 UNL     1      23.142  13.369  22.629  1.00  0.00     0.057 C 
HETATM    8  C12 UNL     1      23.382  14.740  22.032  1.00  0.00     0.133 C 
HETATM    9  C13 UNL     1      22.788  15.898  22.843  1.00  0.00     0.033 C 
HETATM   10  C14 UNL     1      21.346  15.671  22.881  1.00  0.00     0.014 C 
HETATM   11  C15 UNL     1      21.106  14.465  23.743  1.00  0.00    -0.013 C 
HETATM   12  C16 UNL     1      19.592  14.325  23.680  1.00  0.00     0.018 C 
HETATM   13  C17 UNL     1      21.296  14.980  25.181  1.00  0.00     0.018 C 
HETATM   14  C18 UNL     1      23.361  12.359  21.549  1.00  0.00     0.120 C 
HETATM   15  C21 UNL     1      24.720  11.597  21.831  1.00  0.00     0.045 C 
HETATM   16  C22 UNL     1      24.625  10.367  20.963  1.00  0.00     0.038 C 
HETATM   17  C23 UNL     1      23.162   9.993  21.248  1.00  0.00     0.164 A 
HETATM   18  O9  UNL     1      22.988  10.168  22.700  1.00  0.00    -0.362 OA
HETATM   19  C24 UNL     1      22.506  11.106  21.633  1.00  0.00     0.153 A 
ENDROOT
BRANCH   1  20
HETATM   20  C3  UNL     1      20.156  11.570  20.742  1.00  0.00     0.021 C 
HETATM   21  C4  UNL     1      18.688  11.292  20.914  1.00  0.00     0.013 C 
BRANCH  20  22
HETATM   22  C2  UNL     1      20.480  10.869  19.440  1.00  0.00     0.003 C 
HETATM   23  C1  UNL     1      19.372  10.225  18.710  1.00  0.00     0.005 C 
ENDBRANCH  20  22
ENDBRANCH   1  20
BRANCH   1  24
HETATM   24  O1  UNL     1      20.659   9.954  22.150  1.00  0.00    -0.383 OA
ATOM     25  H1  UNL     1      19.722  10.088  22.226  1.00  0.00     0.210 HD
ENDBRANCH   1  24
BRANCH   2  26
HETATM   26  O2  UNL     1      21.316  11.033  24.146  1.00  0.00    -0.284 OA
BRANCH  26  27
HETATM   27  C7  UNL     1      20.650  10.758  25.278  1.00  0.00     0.333 C 
HETATM   28  O3  UNL     1      21.200  10.114  26.171  1.00  0.00    -0.624 OA
HETATM   29  O4  UNL     1      19.324  11.200  25.461  1.00  0.00    -0.624 OA
ENDBRANCH  26  27
ENDBRANCH   2  26
BRANCH  14  30
HETATM   30  O7  UNL     1      23.355  12.670  20.243  1.00  0.00    -0.306 OA
BRANCH  30  31
HETATM   31  C19 UNL     1      24.066  12.843  19.157  1.00  0.00     0.255 C 
HETATM   32  C20 UNL     1      25.216  13.807  19.018  1.00  0.00     0.126 C 
HETATM   33  O8  UNL     1      23.801  12.186  18.162  1.00  0.00    -0.266 OA
ENDBRANCH  30  31
ENDBRANCH  14  30
BRANCH   8  34
HETATM   34  O6  UNL     1      24.752  15.123  22.204  1.00  0.00    -0.395 OA
ATOM     35  H6  UNL     1      25.026  15.693  21.495  1.00  0.00     0.210 HD
ENDBRANCH   8  34
TORSDOF 8
ENDMDL
MODEL 2
REMARK VINA RESULT: -7.361182695      2.930      5.802
REMARK  8 active torsions:
REMARK  status: ('A' for Active; 'I' for Inactive)
REMARK    1  A    between atoms: C2_2  and  C3_3 
REMARK    2  A    between atoms: C3_3  and  C5_5 
REMARK    3  A    between atoms: C5_5  and  O1_6 
REMARK    4  A    between atoms: C6_8  and  O2_9 
REMARK    5  A    between atoms: O2_9  and  C7_10 
REMARK    6  A    between atoms: C12_18  and  O6_19 
REMARK    7  A    between atoms: C18_26  and  O7_27 
REMARK    8  A    between atoms: O7_27  and  C19_28 
ROOT
HETATM    1  C5  UNL     1      20.687  14.994  24.480  1.00  0.00     0.127 C 
HETATM    2  C6  UNL     1      19.511  14.874  25.324  1.00  0.00     0.209 C 
HETATM    3  C8  UNL     1      19.390  13.718  26.330  1.00  0.00     0.110 C 
HETATM    4  O5  UNL     1      18.043  13.299  26.091  1.00  0.00    -0.376 OA
HETATM    5  C9  UNL     1      17.952  12.082  25.613  1.00  0.00     0.170 C 
HETATM    6  C10 UNL     1      19.166  11.363  25.991  1.00  0.00     0.045 C 
HETATM    7  C11 UNL     1      20.213  12.500  26.110  1.00  0.00     0.057 C 
HETATM    8  C12 UNL     1      20.976  12.007  27.322  1.00  0.00     0.133 C 
HETATM    9  C13 UNL     1      20.309  12.327  28.664  1.00  0.00     0.033 C 
HETATM   10  C14 UNL     1      20.230  13.783  28.745  1.00  0.00     0.014 C 
HETATM   11  C15 UNL     1      19.223  14.233  27.725  1.00  0.00    -0.013 C 
HETATM   12  C16 UNL     1      19.255  15.744  27.892  1.00  0.00     0.018 C 
HETATM   13  C17 UNL     1      17.862  13.893  28.357  1.00  0.00     0.018 C 
HETATM   14  C18 UNL     1      21.161  12.527  24.955  1.00  0.00     0.120 C 
HETATM   15  C21 UNL     1      20.800  11.342  23.970  1.00  0.00     0.045 C 
HETATM   16  C22 UNL     1      21.508  11.714  22.691  1.00  0.00     0.038 C 
HETATM   17  C23 UNL     1      21.166  13.211  22.662  1.00  0.00     0.164 A 
HETATM   18  O9  UNL     1      19.746  13.296  23.041  1.00  0.00    -0.362 OA
HETATM   19  C24 UNL     1      20.915  13.615  23.924  1.00  0.00     0.153 A 
ENDROOT
BRANCH   1  20
HETATM   20  C3  UNL     1      21.835  15.851  24.750  1.00  0.00     0.021 C 
HETATM   21  C4  UNL     1      21.657  16.998  25.707  1.00  0.00     0.013 C 
BRANCH  20  22
HETATM   22  C2  UNL     1      22.525  16.502  23.570  1.00  0.00     0.003 C 
HETATM   23  C1  UNL     1      23.680  17.378  23.844  1.00  0.00     0.005 C 
ENDBRANCH  20  22
ENDBRANCH   1  20
BRANCH   1  24
HETATM   24  O1  UNL     1      20.243  15.637  23.244  1.00  0.00    -0.383 OA
ATOM     25  H1  UNL     1      19.448  15.133  23.113  1.00  0.00     0.210 HD
ENDBRANCH   1  24
BRANCH   2  26
HETATM   26  O2  UNL     1      18.402  14.707  24.396  1.00  0.00    -0.284 OA
BRANCH  26  27
HETATM   27  C7  UNL     1      17.358  15.534  24.228  1.00  0.00     0.333 C 
HETATM   28  O3  UNL     1      17.530  16.752  24.263  1.00  0.00    -0.624 OA
HETATM   29  O4  UNL     1      16.062  15.024  24.010  1.00  0.00    -0.624 OA
ENDBRANCH  26  27
ENDBRANCH   2  26
BRANCH  14  30
HETATM   30  O7  UNL     1      22.495  12.515  25.104  1.00  0.00    -0.306 OA
BRANCH  30  31
HETATM   31  C19 UNL     1      23.581  13.223  25.291  1.00  0.00     0.255 C 
HETATM   32  C20 UNL     1      24.639  13.481  24.248  1.00  0.00     0.126 C 
HETATM   33  O8  UNL     1      23.781  13.728  26.385  1.00  0.00    -0.266 OA
ENDBRANCH  30  31
ENDBRANCH  14  30
BRANCH   8  34
HETATM   34  O6  UNL     1      20.866  10.583  27.433  1.00  0.00    -0.395 OA
ATOM     35  H6  UNL     1      21.651  10.222  27.826  1.00  0.00     0.210 HD
ENDBRANCH   8  34
TORSDOF 8
ENDMDL
MODEL 3
REMARK VINA RESULT: -7.346692235      3.459      6.796
REMARK  8 active torsions:
REMARK  status: ('A' for Active; 'I' for Inactive)
REMARK    1  A    between atoms: C2_2  and  C3_3 
REMARK    2  A    between atoms: C3_3  and  C5_5 
REMARK    3  A    between atoms: C5_5  and  O1_6 
REMARK    4  A    between atoms: C6_8  and  O2_9 
REMARK    5  A    between atoms: O2_9  and  C7_10 
REMARK    6  A    between atoms: C12_18  and  O6_19 
REMARK    7  A    between atoms: C18_26  and  O7_27 
REMARK    8  A    between atoms: O7_27  and  C19_28 
ROOT
HETATM    1  C5  UNL     1      20.902  15.269  25.858  1.00  0.00     0.127 C 
HETATM    2  C6  UNL     1      21.289  13.869  25.828  1.00  0.00     0.209 C 
HETATM    3  C8  UNL     1      20.353  12.816  25.212  1.00  0.00     0.110 C 
HETATM    4  O5  UNL     1      20.418  11.790  26.207  1.00  0.00    -0.376 OA
HETATM    5  C9  UNL     1      19.273  11.568  26.804  1.00  0.00     0.170 C 
HETATM    6  C10 UNL     1      18.210  12.023  25.913  1.00  0.00     0.045 C 
HETATM    7  C11 UNL     1      18.907  13.139  25.092  1.00  0.00     0.057 C 
HETATM    8  C12 UNL     1      18.294  12.867  23.734  1.00  0.00     0.133 C 
HETATM    9  C13 UNL     1      18.957  11.724  22.957  1.00  0.00     0.033 C 
HETATM   10  C14 UNL     1      20.347  12.122  22.751  1.00  0.00     0.014 C 
HETATM   11  C15 UNL     1      21.024  12.089  24.091  1.00  0.00    -0.013 C 
HETATM   12  C16 UNL     1      22.435  12.541  23.745  1.00  0.00     0.018 C 
HETATM   13  C17 UNL     1      21.252  10.592  24.365  1.00  0.00     0.018 C 
HETATM   14  C18 UNL     1      18.485  14.509  25.516  1.00  0.00     0.120 C 
HETATM   15  C21 UNL     1      17.417  14.377  26.677  1.00  0.00     0.045 C 
HETATM   16  C22 UNL     1      17.389  15.755  27.291  1.00  0.00     0.038 C 
HETATM   17  C23 UNL     1      18.899  16.030  27.315  1.00  0.00     0.164 A 
HETATM   18  O9  UNL     1      19.519  14.777  27.778  1.00  0.00    -0.362 OA
HETATM   19  C24 UNL     1      19.485  15.275  26.364  1.00  0.00     0.153 A 
ENDROOT
BRANCH   1  20
HETATM   20  C3  UNL     1      21.317  16.279  24.892  1.00  0.00     0.021 C 
HETATM   21  C4  UNL     1      21.285  15.923  23.431  1.00  0.00     0.013 C 
BRANCH  20  22
HETATM   22  C2  UNL     1      22.691  16.893  25.059  1.00  0.00     0.003 C 
HETATM   23  C1  UNL     1      23.433  17.264  23.839  1.00  0.00     0.005 C 
ENDBRANCH  20  22
ENDBRANCH   1  20
BRANCH   1  24
HETATM   24  O1  UNL     1      21.540  15.847  27.040  1.00  0.00    -0.383 OA
ATOM     25  H1  UNL     1      22.049  15.087  27.298  1.00  0.00     0.210 HD
ENDBRANCH   1  24
BRANCH   2  26
HETATM   26  O2  UNL     1      21.439  13.494  27.227  1.00  0.00    -0.284 OA
BRANCH  26  27
HETATM   27  C7  UNL     1      22.578  13.174  27.860  1.00  0.00     0.333 C 
HETATM   28  O3  UNL     1      22.628  12.161  28.557  1.00  0.00    -0.624 OA
HETATM   29  O4  UNL     1      23.724  13.986  27.736  1.00  0.00    -0.624 OA
ENDBRANCH  26  27
ENDBRANCH   2  26
BRANCH  14  30
HETATM   30  O7  UNL     1      18.014  15.428  24.657  1.00  0.00    -0.306 OA
BRANCH  30  31
HETATM   31  C19 UNL     1      16.965  16.076  24.216  1.00  0.00     0.255 C 
HETATM   32  C20 UNL     1      15.673  15.436  23.777  1.00  0.00     0.126 C 
HETATM   33  O8  UNL     1      17.006  17.294  24.143  1.00  0.00    -0.266 OA
ENDBRANCH  30  31
ENDBRANCH  14  30
BRANCH   8  34
HETATM   34  O6  UNL     1      17.019  12.230  23.884  1.00  0.00    -0.395 OA
ATOM     35  H6  UNL     1      16.469  12.416  23.132  1.00  0.00     0.210 HD
ENDBRANCH   8  34
TORSDOF 8
ENDMDL
MODEL 4
REMARK VINA RESULT: -7.338097455      2.794      5.725
REMARK  8 active torsions:
REMARK  status: ('A' for Active; 'I' for Inactive)
REMARK    1  A    between atoms: C2_2  and  C3_3 
REMARK    2  A    between atoms: C3_3  and  C5_5 
REMARK    3  A    between atoms: C5_5  and  O1_6 
REMARK    4  A    between atoms: C6_8  and  O2_9 
REMARK    5  A    between atoms: O2_9  and  C7_10 
REMARK    6  A    between atoms: C12_18  and  O6_19 
REMARK    7  A    between atoms: C18_26  and  O7_27 
REMARK    8  A    between atoms: O7_27  and  C19_28 
ROOT
HETATM    1  C5  UNL     1      21.339  13.631  27.016  1.00  0.00     0.127 C 
HETATM    2  C6  UNL     1      20.233  14.412  26.488  1.00  0.00     0.209 C 
HETATM    3  C8  UNL     1      19.703  14.148  25.068  1.00  0.00     0.110 C 
HETATM    4  O5  UNL     1      19.588  15.487  24.576  1.00  0.00    -0.376 OA
HETATM    5  C9  UNL     1      20.387  15.743  23.569  1.00  0.00     0.170 C 
HETATM    6  C10 UNL     1      20.721  14.473  22.930  1.00  0.00     0.045 C 
HETATM    7  C11 UNL     1      20.594  13.460  24.098  1.00  0.00     0.057 C 
HETATM    8  C12 UNL     1      19.965  12.301  23.352  1.00  0.00     0.133 C 
HETATM    9  C13 UNL     1      18.451  12.427  23.146  1.00  0.00     0.033 C 
HETATM   10  C14 UNL     1      17.860  12.476  24.480  1.00  0.00     0.014 C 
HETATM   11  C15 UNL     1      18.251  13.790  25.094  1.00  0.00    -0.013 C 
HETATM   12  C16 UNL     1      17.603  13.705  26.468  1.00  0.00     0.018 C 
HETATM   13  C17 UNL     1      17.342  14.820  24.401  1.00  0.00     0.018 C 
HETATM   14  C18 UNL     1      21.923  13.006  24.607  1.00  0.00     0.120 C 
HETATM   15  C21 UNL     1      23.061  13.701  23.755  1.00  0.00     0.045 C 
HETATM   16  C22 UNL     1      24.299  13.517  24.597  1.00  0.00     0.038 C 
HETATM   17  C23 UNL     1      23.699  13.851  25.971  1.00  0.00     0.164 A 
HETATM   18  O9  UNL     1      22.847  15.032  25.749  1.00  0.00    -0.362 OA
HETATM   19  C24 UNL     1      22.371  13.620  25.922  1.00  0.00     0.153 A 
ENDROOT
BRANCH   1  20
HETATM   20  C3  UNL     1      21.209  12.468  27.885  1.00  0.00     0.021 C 
HETATM   21  C4  UNL     1      20.345  11.327  27.423  1.00  0.00     0.013 C 
BRANCH  20  22
HETATM   22  C2  UNL     1      20.733  12.696  29.304  1.00  0.00     0.003 C 
HETATM   23  C1  UNL     1      19.287  12.584  29.573  1.00  0.00     0.005 C 
ENDBRANCH  20  22
ENDBRANCH   1  20
BRANCH   1  24
HETATM   24  O1  UNL     1      22.047  14.504  27.952  1.00  0.00    -0.383 OA
ATOM     25  H1  UNL     1      22.503  15.038  27.313  1.00  0.00     0.210 HD
ENDBRANCH   1  24
BRANCH   2  26
HETATM   26  O2  UNL     1      20.717  15.785  26.479  1.00  0.00    -0.284 OA
BRANCH  26  27
HETATM   27  C7  UNL     1      20.279  16.801  27.239  1.00  0.00     0.333 C 
HETATM   28  O3  UNL     1      20.868  17.083  28.282  1.00  0.00    -0.624 OA
HETATM   29  O4  UNL     1      19.149  17.552  26.857  1.00  0.00    -0.624 OA
ENDBRANCH  26  27
ENDBRANCH   2  26
BRANCH  14  30
HETATM   30  O7  UNL     1      22.260  11.711  24.721  1.00  0.00    -0.306 OA
BRANCH  30  31
HETATM   31  C19 UNL     1      22.332  10.544  24.130  1.00  0.00     0.255 C 
HETATM   32  C20 UNL     1      23.062  10.270  22.840  1.00  0.00     0.126 C 
HETATM   33  O8  UNL     1      21.776   9.584  24.641  1.00  0.00    -0.266 OA
ENDBRANCH  30  31
ENDBRANCH  14  30
BRANCH   8  34
HETATM   34  O6  UNL     1      20.313  12.357  21.964  1.00  0.00    -0.395 OA
ATOM     35  H6  UNL     1      19.614  12.765  21.466  1.00  0.00     0.210 HD
ENDBRANCH   8  34
TORSDOF 8
ENDMDL
MODEL 5
REMARK VINA RESULT: -7.324103045      1.775      2.658
REMARK  8 active torsions:
REMARK  status: ('A' for Active; 'I' for Inactive)
REMARK    1  A    between atoms: C2_2  and  C3_3 
REMARK    2  A    between atoms: C3_3  and  C5_5 
REMARK    3  A    between atoms: C5_5  and  O1_6 
REMARK    4  A    between atoms: C6_8  and  O2_9 
REMARK    5  A    between atoms: O2_9  and  C7_10 
REMARK    6  A    between atoms: C12_18  and  O6_19 
REMARK    7  A    between atoms: C18_26  and  O7_27 
REMARK    8  A    between atoms: O7_27  and  C19_28 
ROOT
HETATM    1  C5  UNL     1      19.503  11.993  24.061  1.00  0.00     0.127 C 
HETATM    2  C6  UNL     1      19.634  13.077  25.020  1.00  0.00     0.209 C 
HETATM    3  C8  UNL     1      20.828  14.043  24.943  1.00  0.00     0.110 C 
HETATM    4  O5  UNL     1      21.212  14.100  26.320  1.00  0.00    -0.376 OA
HETATM    5  C9  UNL     1      22.406  13.614  26.549  1.00  0.00     0.170 C 
HETATM    6  C10 UNL     1      23.163  13.682  25.302  1.00  0.00     0.045 C 
HETATM    7  C11 UNL     1      22.051  13.600  24.224  1.00  0.00     0.057 C 
HETATM    8  C12 UNL     1      22.606  14.590  23.221  1.00  0.00     0.133 C 
HETATM    9  C13 UNL     1      22.328  16.059  23.560  1.00  0.00     0.033 C 
HETATM   10  C14 UNL     1      20.875  16.206  23.579  1.00  0.00     0.014 C 
HETATM   11  C15 UNL     1      20.366  15.456  24.777  1.00  0.00    -0.013 C 
HETATM   12  C16 UNL     1      18.863  15.665  24.667  1.00  0.00     0.018 C 
HETATM   13  C17 UNL     1      20.706  16.368  25.969  1.00  0.00     0.018 C 
HETATM   14  C18 UNL     1      21.996  12.262  23.560  1.00  0.00     0.120 C 
HETATM   15  C21 UNL     1      23.133  11.344  24.167  1.00  0.00     0.045 C 
HETATM   16  C22 UNL     1      22.724   9.952  23.755  1.00  0.00     0.038 C 
HETATM   17  C23 UNL     1      21.221  10.053  24.053  1.00  0.00     0.164 A 
HETATM   18  O9  UNL     1      21.124  10.746  25.349  1.00  0.00    -0.362 OA
HETATM   19  C24 UNL     1      20.863  11.352  24.003  1.00  0.00     0.153 A 
ENDROOT
BRANCH   1  20
HETATM   20  C3  UNL     1      18.679  12.026  22.859  1.00  0.00     0.021 C 
HETATM   21  C4  UNL     1      17.213  12.326  23.009  1.00  0.00     0.013 C 
BRANCH  20  22
HETATM   22  C2  UNL     1      18.683  10.805  21.965  1.00  0.00     0.003 C 
HETATM   23  C1  UNL     1      18.797  11.016  20.510  1.00  0.00     0.005 C 
ENDBRANCH  20  22
ENDBRANCH   1  20
BRANCH   1  24
HETATM   24  O1  UNL     1      18.802  10.913  24.755  1.00  0.00    -0.383 OA
ATOM     25  H1  UNL     1      19.106  10.192  24.216  1.00  0.00     0.210 HD
ENDBRANCH   1  24
BRANCH   2  26
HETATM   26  O2  UNL     1      19.743  12.419  26.314  1.00  0.00    -0.284 OA
BRANCH  26  27
HETATM   27  C7  UNL     1      18.829  12.414  27.297  1.00  0.00     0.333 C 
HETATM   28  O3  UNL     1      17.662  12.717  27.050  1.00  0.00    -0.624 OA
HETATM   29  O4  UNL     1      19.190  12.066  28.615  1.00  0.00    -0.624 OA
ENDBRANCH  26  27
ENDBRANCH   2  26
BRANCH  14  30
HETATM   30  O7  UNL     1      22.039  12.105  22.228  1.00  0.00    -0.306 OA
BRANCH  30  31
HETATM   31  C19 UNL     1      22.795  11.990  21.164  1.00  0.00     0.255 C 
HETATM   32  C20 UNL     1      22.384  11.322  19.877  1.00  0.00     0.126 C 
HETATM   33  O8  UNL     1      23.925  12.452  21.185  1.00  0.00    -0.266 OA
ENDBRANCH  30  31
ENDBRANCH  14  30
BRANCH   8  34
HETATM   34  O6  UNL     1      24.031  14.673  23.343  1.00  0.00    -0.395 OA
ATOM     35  H6  UNL     1      24.448  14.040  22.770  1.00  0.00     0.210 HD
ENDBRANCH   8  34
TORSDOF 8
ENDMDL
