MODEL 1
REMARK VINA RESULT: -7.515156086      0.000      0.000
REMARK  4 active torsions:
REMARK  status: ('A' for Active; 'I' for Inactive)
REMARK    1  A    between atoms: O1_2  and  C2_3 
REMARK    2  A    between atoms: C3_5  and  C4_6 
REMARK    3  A    between atoms: C4_6  and  O3_7 
REMARK    4  A    between atoms: C5_9  and  O4_10 
ROOT
HETATM    1  C2  UNL     1      21.642  13.560  26.311  1.00  0.00     0.266 C 
HETATM    2  O2  UNL     1      20.484  14.153  26.679  1.00  0.00    -0.349 OA
HETATM    3  C3  UNL     1      20.078  14.061  27.989  1.00  0.00     0.203 C 
HETATM    4  C5  UNL     1      20.331  12.756  28.645  1.00  0.00     0.288 C 
HETATM    5  O5  UNL     1      21.005  11.806  27.955  1.00  0.00    -0.353 OA
HETATM    6  C6  UNL     1      20.567  11.455  26.716  1.00  0.00     0.134 C 
HETATM    7  C7  UNL     1      19.097  11.523  26.476  1.00  0.00     0.033 C 
HETATM    8  C8  UNL     1      18.902  10.731  25.193  1.00  0.00     0.012 C 
HETATM    9  C9  UNL     1      19.521  11.482  24.007  1.00  0.00    -0.035 C 
HETATM   10  C10 UNL     1      18.317  12.308  23.494  1.00  0.00     0.016 C 
HETATM   11  C11 UNL     1      19.736  10.451  22.939  1.00  0.00    -0.001 C 
HETATM   12  C12 UNL     1      20.943   9.600  23.064  1.00  0.00     0.011 C 
HETATM   13  C13 UNL     1      19.538  11.003  21.546  1.00  0.00     0.024 C 
HETATM   14  C14 UNL     1      20.496  12.044  21.197  1.00  0.00    -0.076 C 
HETATM   15  C15 UNL     1      21.398  12.633  21.948  1.00  0.00    -0.023 C 
HETATM   16  C16 UNL     1      21.750  12.463  23.343  1.00  0.00     0.033 C 
HETATM   17  C17 UNL     1      20.624  12.376  24.339  1.00  0.00     0.009 C 
HETATM   18  C18 UNL     1      21.303  12.198  25.673  1.00  0.00     0.075 C 
HETATM   19  C19 UNL     1      20.492  12.544  19.769  1.00  0.00     0.072 C 
HETATM   20  C20 UNL     1      20.539  11.307  18.861  1.00  0.00     0.178 C 
HETATM   21  F1  UNL     1      21.694  10.607  19.133  1.00  0.00    -0.249 F 
HETATM   22  C21 UNL     1      19.354  10.469  19.193  1.00  0.00     0.032 C 
HETATM   23  C22 UNL     1      19.187   9.246  18.356  1.00  0.00     0.086 C 
HETATM   24  C23 UNL     1      18.408   8.340  19.273  1.00  0.00     0.127 C 
HETATM   25  O6  UNL     1      17.823   7.311  19.012  1.00  0.00    -0.298 OA
HETATM   26  C24 UNL     1      18.441   8.910  20.671  1.00  0.00     0.084 C 
HETATM   27  C25 UNL     1      19.611   9.845  20.575  1.00  0.00     0.008 C 
ENDROOT
BRANCH   3  28
HETATM   28  C4  UNL     1      20.527  15.259  28.813  1.00  0.00     0.201 C 
BRANCH  28  29
HETATM   29  O3  UNL     1      19.757  16.343  28.403  1.00  0.00    -0.398 OA
ATOM     30  H3  UNL     1      20.360  17.046  28.190  1.00  0.00     0.209 HD
ENDBRANCH  28  29
ENDBRANCH   3  28
BRANCH   4  31
HETATM   31  O4  UNL     1      21.083  12.998  29.823  1.00  0.00    -0.369 OA
ATOM     32  H4  UNL     1      21.033  12.220  30.366  1.00  0.00     0.212 HD
ENDBRANCH   4  31
BRANCH   1  33
HETATM   33  O1  UNL     1      22.596  13.435  27.284  1.00  0.00    -0.366 OA
HETATM   34  C1  UNL     1      23.743  14.215  27.014  1.00  0.00     0.204 C 
ENDBRANCH   1  33
TORSDOF 4
ENDMDL
MODEL 2
REMARK VINA RESULT: -7.358854438      1.774      3.254
REMARK  4 active torsions:
REMARK  status: ('A' for Active; 'I' for Inactive)
REMARK    1  A    between atoms: O1_2  and  C2_3 
REMARK    2  A    between atoms: C3_5  and  C4_6 
REMARK    3  A    between atoms: C4_6  and  O3_7 
REMARK    4  A    between atoms: C5_9  and  O4_10 
ROOT
HETATM    1  C2  UNL     1      20.284  13.308  26.282  1.00  0.00     0.266 C 
HETATM    2  O2  UNL     1      21.023  12.404  26.962  1.00  0.00    -0.349 OA
HETATM    3  C3  UNL     1      22.251  12.783  27.452  1.00  0.00     0.203 C 
HETATM    4  C5  UNL     1      23.038  13.679  26.573  1.00  0.00     0.288 C 
HETATM    5  O5  UNL     1      22.473  14.119  25.424  1.00  0.00    -0.353 OA
HETATM    6  C6  UNL     1      21.947  13.212  24.558  1.00  0.00     0.134 C 
HETATM    7  C7  UNL     1      22.609  11.877  24.494  1.00  0.00     0.033 C 
HETATM    8  C8  UNL     1      22.064  11.262  23.216  1.00  0.00     0.012 C 
HETATM    9  C9  UNL     1      20.571  10.944  23.376  1.00  0.00    -0.035 C 
HETATM   10  C10 UNL     1      20.612   9.481  23.875  1.00  0.00     0.016 C 
HETATM   11  C11 UNL     1      20.026  10.837  21.983  1.00  0.00    -0.001 C 
HETATM   12  C12 UNL     1      19.708  12.107  21.288  1.00  0.00     0.011 C 
HETATM   13  C13 UNL     1      18.931   9.802  21.861  1.00  0.00     0.024 C 
HETATM   14  C14 UNL     1      17.750  10.118  22.654  1.00  0.00    -0.076 C 
HETATM   15  C15 UNL     1      17.563  11.083  23.526  1.00  0.00    -0.023 C 
HETATM   16  C16 UNL     1      18.436  12.142  23.992  1.00  0.00     0.033 C 
HETATM   17  C17 UNL     1      19.854  11.772  24.339  1.00  0.00     0.009 C 
HETATM   18  C18 UNL     1      20.493  13.066  24.775  1.00  0.00     0.075 C 
HETATM   19  C19 UNL     1      16.532   9.237  22.474  1.00  0.00     0.072 C 
HETATM   20  C20 UNL     1      16.275   9.132  20.964  1.00  0.00     0.178 C 
HETATM   21  F1  UNL     1      16.043  10.397  20.470  1.00  0.00    -0.249 F 
HETATM   22  C21 UNL     1      17.506   8.569  20.343  1.00  0.00     0.032 C 
HETATM   23  C22 UNL     1      17.421   8.324  18.875  1.00  0.00     0.086 C 
HETATM   24  C23 UNL     1      18.864   8.413  18.456  1.00  0.00     0.127 C 
HETATM   25  O6  UNL     1      19.377   8.079  17.410  1.00  0.00    -0.298 OA
HETATM   26  C24 UNL     1      19.667   9.017  19.583  1.00  0.00     0.084 C 
HETATM   27  C25 UNL     1      18.584   9.664  20.395  1.00  0.00     0.008 C 
ENDROOT
BRANCH   3  28
HETATM   28  C4  UNL     1      22.170  13.256  28.895  1.00  0.00     0.201 C 
BRANCH  28  29
HETATM   29  O3  UNL     1      21.140  12.540  29.498  1.00  0.00    -0.398 OA
ATOM     30  H3  UNL     1      21.498  12.154  30.290  1.00  0.00     0.209 HD
ENDBRANCH  28  29
ENDBRANCH   3  28
BRANCH   4  31
HETATM   31  O4  UNL     1      23.374  14.837  27.318  1.00  0.00    -0.369 OA
ATOM     32  H4  UNL     1      23.929  14.570  28.041  1.00  0.00     0.212 HD
ENDBRANCH   4  31
BRANCH   1  33
HETATM   33  O1  UNL     1      20.479  14.623  26.611  1.00  0.00    -0.366 OA
HETATM   34  C1  UNL     1      19.396  15.159  27.343  1.00  0.00     0.204 C 
ENDBRANCH   1  33
TORSDOF 4
ENDMDL
MODEL 3
REMARK VINA RESULT: -7.304231135      3.075      8.083
REMARK  4 active torsions:
REMARK  status: ('A' for Active; 'I' for Inactive)
REMARK    1  A    between atoms: O1_2  and  C2_3 
REMARK    2  A    between atoms: C3_5  and  C4_6 
REMARK    3  A    between atoms: C4_6  and  O3_7 
REMARK    4  A    between atoms: C5_9  and  O4_10 
ROOT
HETATM    1  C2  UNL     1      20.735  10.091  21.550  1.00  0.00     0.266 C 
HETATM    2  O2  UNL     1      19.710   9.239  21.321  1.00  0.00    -0.349 OA
HETATM    3  C3  UNL     1      19.057   9.296  20.113  1.00  0.00     0.203 C 
HETATM    4  C5  UNL     1      18.855  10.657  19.562  1.00  0.00     0.288 C 
HETATM    5  O5  UNL     1      19.391  11.709  20.224  1.00  0.00    -0.353 OA
HETATM    6  C6  UNL     1      19.120  11.862  21.548  1.00  0.00     0.134 C 
HETATM    7  C7  UNL     1      17.783  11.401  22.022  1.00  0.00     0.033 C 
HETATM    8  C8  UNL     1      17.643  12.041  23.393  1.00  0.00     0.012 C 
HETATM    9  C9  UNL     1      18.638  11.410  24.376  1.00  0.00    -0.035 C 
HETATM   10  C10 UNL     1      17.792  10.272  24.995  1.00  0.00     0.016 C 
HETATM   11  C11 UNL     1      18.789  12.399  25.494  1.00  0.00    -0.001 C 
HETATM   12  C12 UNL     1      19.705  13.541  25.258  1.00  0.00     0.011 C 
HETATM   13  C13 UNL     1      18.997  11.736  26.836  1.00  0.00     0.024 C 
HETATM   14  C14 UNL     1      20.229  10.962  26.912  1.00  0.00    -0.076 C 
HETATM   15  C15 UNL     1      21.092  10.671  25.965  1.00  0.00    -0.023 C 
HETATM   16  C16 UNL     1      21.124  11.006  24.556  1.00  0.00     0.033 C 
HETATM   17  C17 UNL     1      19.845  10.854  23.775  1.00  0.00     0.009 C 
HETATM   18  C18 UNL     1      20.198  11.278  22.372  1.00  0.00     0.075 C 
HETATM   19  C19 UNL     1      20.616  10.397  28.262  1.00  0.00     0.072 C 
HETATM   20  C20 UNL     1      20.527  11.550  29.272  1.00  0.00     0.178 C 
HETATM   21  F1  UNL     1      21.402  12.541  28.885  1.00  0.00    -0.249 F 
HETATM   22  C21 UNL     1      19.131  12.068  29.229  1.00  0.00     0.032 C 
HETATM   23  C22 UNL     1      18.829  13.156  30.204  1.00  0.00     0.086 C 
HETATM   24  C23 UNL     1      17.694  13.879  29.528  1.00  0.00     0.127 C 
HETATM   25  O6  UNL     1      16.934  14.704  29.986  1.00  0.00    -0.298 OA
HETATM   26  C24 UNL     1      17.604  13.419  28.092  1.00  0.00     0.084 C 
HETATM   27  C25 UNL     1      18.964  12.816  27.896  1.00  0.00     0.008 C 
ENDROOT
BRANCH   3  28
HETATM   28  C4  UNL     1      19.624   8.306  19.107  1.00  0.00     0.201 C 
BRANCH  28  29
HETATM   29  O3  UNL     1      18.634   8.086  18.153  1.00  0.00    -0.398 OA
ATOM     30  H3  UNL     1      19.025   7.560  17.465  1.00  0.00     0.209 HD
ENDBRANCH  28  29
ENDBRANCH   3  28
BRANCH   4  31
HETATM   31  O4  UNL     1      19.408  10.687  18.257  1.00  0.00    -0.369 OA
ATOM     32  H4  UNL     1      18.691  10.720  17.636  1.00  0.00     0.212 HD
ENDBRANCH   4  31
BRANCH   1  33
HETATM   33  O1  UNL     1      21.430  10.515  20.450  1.00  0.00    -0.366 OA
HETATM   34  C1  UNL     1      22.806  10.692  20.720  1.00  0.00     0.204 C 
ENDBRANCH   1  33
TORSDOF 4
ENDMDL
MODEL 4
REMARK VINA RESULT: -7.209476945      4.724      6.317
REMARK  4 active torsions:
REMARK  status: ('A' for Active; 'I' for Inactive)
REMARK    1  A    between atoms: O1_2  and  C2_3 
REMARK    2  A    between atoms: C3_5  and  C4_6 
REMARK    3  A    between atoms: C4_6  and  O3_7 
REMARK    4  A    between atoms: C5_9  and  O4_10 
ROOT
HETATM    1  C2  UNL     1      13.343  13.257  27.330  1.00  0.00     0.266 C 
HETATM    2  O2  UNL     1      14.272  13.093  28.299  1.00  0.00    -0.349 OA
HETATM    3  C3  UNL     1      14.522  14.133  29.163  1.00  0.00     0.203 C 
HETATM    4  C5  UNL     1      14.506  15.484  28.554  1.00  0.00     0.288 C 
HETATM    5  O5  UNL     1      14.170  15.602  27.249  1.00  0.00    -0.353 OA
HETATM    6  C6  UNL     1      14.828  14.850  26.327  1.00  0.00     0.134 C 
HETATM    7  C7  UNL     1      16.259  14.535  26.610  1.00  0.00     0.033 C 
HETATM    8  C8  UNL     1      16.794  14.046  25.275  1.00  0.00     0.012 C 
HETATM    9  C9  UNL     1      16.167  12.693  24.915  1.00  0.00    -0.035 C 
HETATM   10  C10 UNL     1      17.194  11.701  25.512  1.00  0.00     0.016 C 
HETATM   11  C11 UNL     1      16.338  12.545  23.433  1.00  0.00    -0.001 C 
HETATM   12  C12 UNL     1      15.362  13.255  22.572  1.00  0.00     0.011 C 
HETATM   13  C13 UNL     1      16.570  11.112  23.011  1.00  0.00     0.024 C 
HETATM   14  C14 UNL     1      15.443  10.236  23.303  1.00  0.00    -0.076 C 
HETATM   15  C15 UNL     1      14.341  10.488  23.970  1.00  0.00    -0.023 C 
HETATM   16  C16 UNL     1      13.868  11.687  24.631  1.00  0.00     0.033 C 
HETATM   17  C17 UNL     1      14.850  12.441  25.490  1.00  0.00     0.009 C 
HETATM   18  C18 UNL     1      14.072  13.618  26.021  1.00  0.00     0.075 C 
HETATM   19  C19 UNL     1      15.505   8.820  22.771  1.00  0.00     0.072 C 
HETATM   20  C20 UNL     1      15.867   8.917  21.281  1.00  0.00     0.178 C 
HETATM   21  F1  UNL     1      14.888   9.641  20.639  1.00  0.00    -0.249 F 
HETATM   22  C21 UNL     1      17.167   9.637  21.188  1.00  0.00     0.032 C 
HETATM   23  C22 UNL     1      17.723   9.766  19.810  1.00  0.00     0.086 C 
HETATM   24  C23 UNL     1      18.575  11.003  19.928  1.00  0.00     0.127 C 
HETATM   25  O6  UNL     1      19.415  11.426  19.165  1.00  0.00    -0.298 OA
HETATM   26  C24 UNL     1      18.234  11.714  21.217  1.00  0.00     0.084 C 
HETATM   27  C25 UNL     1      16.897  11.111  21.534  1.00  0.00     0.008 C 
ENDROOT
BRANCH   3  28
HETATM   28  C4  UNL     1      13.702  14.026  30.440  1.00  0.00     0.201 C 
BRANCH  28  29
HETATM   29  O3  UNL     1      14.467  14.584  31.460  1.00  0.00    -0.398 OA
ATOM     30  H3  UNL     1      13.860  14.905  32.116  1.00  0.00     0.209 HD
ENDBRANCH  28  29
ENDBRANCH   3  28
BRANCH   4  31
HETATM   31  O4  UNL     1      13.579  16.277  29.275  1.00  0.00    -0.369 OA
ATOM     32  H4  UNL     1      13.840  17.186  29.187  1.00  0.00     0.212 HD
ENDBRANCH   4  31
BRANCH   1  33
HETATM   33  O1  UNL     1      12.332  14.140  27.601  1.00  0.00    -0.366 OA
HETATM   34  C1  UNL     1      11.071  13.506  27.671  1.00  0.00     0.204 C 
ENDBRANCH   1  33
TORSDOF 4
ENDMDL
MODEL 5
REMARK VINA RESULT: -7.188902397      2.292      7.973
REMARK  4 active torsions:
REMARK  status: ('A' for Active; 'I' for Inactive)
REMARK    1  A    between atoms: O1_2  and  C2_3 
REMARK    2  A    between atoms: C3_5  and  C4_6 
REMARK    3  A    between atoms: C4_6  and  O3_7 
REMARK    4  A    between atoms: C5_9  and  O4_10 
ROOT
HETATM    1  C2  UNL     1      19.788  10.984  20.293  1.00  0.00     0.266 C 
HETATM    2  O2  UNL     1      20.035   9.657  20.354  1.00  0.00    -0.349 OA
HETATM    3  C3  UNL     1      19.106   8.784  19.840  1.00  0.00     0.203 C 
HETATM    4  C5  UNL     1      17.689   9.153  20.069  1.00  0.00     0.288 C 
HETATM    5  O5  UNL     1      17.418  10.334  20.674  1.00  0.00    -0.353 OA
HETATM    6  C6  UNL     1      18.014  10.618  21.863  1.00  0.00     0.134 C 
HETATM    7  C7  UNL     1      18.297   9.467  22.768  1.00  0.00     0.033 C 
HETATM    8  C8  UNL     1      18.584  10.122  24.109  1.00  0.00     0.012 C 
HETATM    9  C9  UNL     1      19.906  10.898  24.048  1.00  0.00    -0.035 C 
HETATM   10  C10 UNL     1      20.920   9.833  24.529  1.00  0.00     0.016 C 
HETATM   11  C11 UNL     1      19.853  11.884  25.176  1.00  0.00    -0.001 C 
HETATM   12  C12 UNL     1      19.081  13.128  24.942  1.00  0.00     0.011 C 
HETATM   13  C13 UNL     1      21.207  12.133  25.801  1.00  0.00     0.024 C 
HETATM   14  C14 UNL     1      22.164  12.735  24.881  1.00  0.00    -0.076 C 
HETATM   15  C15 UNL     1      22.050  12.969  23.594  1.00  0.00    -0.023 C 
HETATM   16  C16 UNL     1      20.969  12.721  22.662  1.00  0.00     0.033 C 
HETATM   17  C17 UNL     1      20.290  11.378  22.725  1.00  0.00     0.009 C 
HETATM   18  C18 UNL     1      19.228  11.433  21.656  1.00  0.00     0.075 C 
HETATM   19  C19 UNL     1      23.494  13.178  25.451  1.00  0.00     0.072 C 
HETATM   20  C20 UNL     1      23.189  14.024  26.695  1.00  0.00     0.178 C 
HETATM   21  F1  UNL     1      22.432  15.110  26.312  1.00  0.00    -0.249 F 
HETATM   22  C21 UNL     1      22.404  13.170  27.630  1.00  0.00     0.032 C 
HETATM   23  C22 UNL     1      22.072  13.802  28.939  1.00  0.00     0.086 C 
HETATM   24  C23 UNL     1      20.824  13.060  29.340  1.00  0.00     0.127 C 
HETATM   25  O6  UNL     1      20.268  13.028  30.416  1.00  0.00    -0.298 OA
HETATM   26  C24 UNL     1      20.303  12.294  28.147  1.00  0.00     0.084 C 
HETATM   27  C25 UNL     1      21.001  13.001  27.022  1.00  0.00     0.008 C 
ENDROOT
BRANCH   3  28
HETATM   28  C4  UNL     1      19.415   8.403  18.400  1.00  0.00     0.201 C 
BRANCH  28  29
HETATM   29  O3  UNL     1      19.029   7.075  18.241  1.00  0.00    -0.398 OA
ATOM     30  H3  UNL     1      18.123   7.014  18.522  1.00  0.00     0.209 HD
ENDBRANCH  28  29
ENDBRANCH   3  28
BRANCH   4  31
HETATM   31  O4  UNL     1      17.039   9.195  18.810  1.00  0.00    -0.369 OA
ATOM     32  H4  UNL     1      16.434   9.927  18.818  1.00  0.00     0.212 HD
ENDBRANCH   4  31
BRANCH   1  33
HETATM   33  O1  UNL     1      18.995  11.408  19.260  1.00  0.00    -0.366 OA
HETATM   34  C1  UNL     1      19.406  12.658  18.746  1.00  0.00     0.204 C 
ENDBRANCH   1  33
TORSDOF 4
ENDMDL
