MODEL 1
REMARK VINA RESULT: -4.407211802      0.000      0.000
REMARK  7 active torsions:
REMARK  status: ('A' for Active; 'I' for Inactive)
REMARK    1  A    between atoms: N1_1  and  C1_4 
REMARK    2  A    between atoms: C4_11  and  C5_12 
REMARK    3  A    between atoms: C5_12  and  C6_13 
REMARK    4  A    between atoms: C6_13  and  S1_14 
REMARK    5  A    between atoms: S1_14  and  C7_15 
REMARK    6  A    between atoms: C7_15  and  C8_16 
REMARK    7  A    between atoms: C8_16  and  C9_17 
ROOT
HETATM    1  C6  UNL     1     -23.715   5.499 -21.254  1.00  0.00     0.078 C 
ENDROOT
BRANCH   1   2
HETATM    2  C5  UNL     1     -22.288   5.680 -20.975  1.00  0.00     0.054 C 
BRANCH   2   3
HETATM    3  C4  UNL     1     -21.301   5.301 -21.976  1.00  0.00     0.002 A 
HETATM    4  C1  UNL     1     -21.173   4.015 -22.426  1.00  0.00     0.107 A 
HETATM    5  N2  UNL     1     -20.239   3.768 -23.403  1.00  0.00    -0.339 N 
HETATM    6  C2  UNL     1     -19.455   4.700 -23.934  1.00  0.00     0.181 A 
ATOM      7  H2  UNL     1     -20.141   2.810 -23.741  1.00  0.00     0.168 HD
HETATM    8  N3  UNL     1     -19.608   5.961 -23.465  1.00  0.00    -0.361 N 
HETATM    9  C3  UNL     1     -20.476   6.284 -22.535  1.00  0.00     0.099 A 
ATOM     10  H3  UNL     1     -19.019   6.696 -23.854  1.00  0.00     0.166 HD
BRANCH   4  11
HETATM   11  N1  UNL     1     -21.835   3.005 -21.985  1.00  0.00    -0.385 N 
ATOM     12  H12 UNL     1     -22.440   2.406 -22.547  1.00  0.00     0.157 HD
ATOM     13  H11 UNL     1     -21.765   2.808 -20.986  1.00  0.00     0.157 HD
ENDBRANCH   4  11
ENDBRANCH   2   3
ENDBRANCH   1   2
BRANCH   1  14
HETATM   14  S1  UNL     1     -24.440   6.679 -22.364  1.00  0.00    -0.169 SA
BRANCH  14  15
HETATM   15  C7  UNL     1     -24.109   6.259 -24.120  1.00  0.00     0.076 C 
BRANCH  15  16
HETATM   16  C8  UNL     1     -24.206   4.737 -24.294  1.00  0.00     0.045 C 
BRANCH  16  17
HETATM   17  C9  UNL     1     -25.483   4.319 -23.578  1.00  0.00     0.214 C 
HETATM   18  C10 UNL     1     -26.666   4.345 -24.501  1.00  0.00     0.267 C 
HETATM   19  N4  UNL     1     -27.002   2.931 -24.637  1.00  0.00    -0.049 N 
HETATM   20  C11 UNL     1     -26.680   2.438 -23.303  1.00  0.00     0.463 C 
ATOM     21  H42 UNL     1     -27.948   2.734 -24.960  1.00  0.00     0.279 HD
ATOM     22  H41 UNL     1     -26.542   2.444 -25.407  1.00  0.00     0.279 HD
HETATM   23  N5  UNL     1     -25.308   2.932 -23.150  1.00  0.00    -0.045 N 
ATOM     24  H52 UNL     1     -24.589   2.404 -23.642  1.00  0.00     0.279 HD
ATOM     25  H51 UNL     1     -24.890   2.802 -22.229  1.00  0.00     0.279 HD
ENDBRANCH  16  17
ENDBRANCH  15  16
ENDBRANCH  14  15
ENDBRANCH   1  14
TORSDOF 7
ENDMDL
MODEL 2
REMARK VINA RESULT: -3.981694874      2.435      3.456
REMARK  7 active torsions:
REMARK  status: ('A' for Active; 'I' for Inactive)
REMARK    1  A    between atoms: N1_1  and  C1_4 
REMARK    2  A    between atoms: C4_11  and  C5_12 
REMARK    3  A    between atoms: C5_12  and  C6_13 
REMARK    4  A    between atoms: C6_13  and  S1_14 
REMARK    5  A    between atoms: S1_14  and  C7_15 
REMARK    6  A    between atoms: C7_15  and  C8_16 
REMARK    7  A    between atoms: C8_16  and  C9_17 
ROOT
HETATM    1  C6  UNL     1     -23.672   3.863 -22.043  1.00  0.00     0.078 C 
ENDROOT
BRANCH   1   2
HETATM    2  C5  UNL     1     -22.297   3.361 -21.998  1.00  0.00     0.054 C 
BRANCH   2   3
HETATM    3  C4  UNL     1     -21.190   4.252 -22.314  1.00  0.00     0.002 A 
HETATM    4  C1  UNL     1     -20.536   4.207 -23.515  1.00  0.00     0.107 A 
HETATM    5  N2  UNL     1     -19.531   5.119 -23.732  1.00  0.00    -0.339 N 
HETATM    6  C2  UNL     1     -19.158   6.037 -22.847  1.00  0.00     0.181 A 
ATOM      7  H2  UNL     1     -19.041   5.089 -24.626  1.00  0.00     0.168 HD
HETATM    8  N3  UNL     1     -19.826   6.052 -21.670  1.00  0.00    -0.361 N 
HETATM    9  C3  UNL     1     -20.798   5.219 -21.382  1.00  0.00     0.099 A 
ATOM     10  H3  UNL     1     -19.560   6.746 -20.972  1.00  0.00     0.166 HD
BRANCH   4  11
HETATM   11  N1  UNL     1     -20.761   3.356 -24.452  1.00  0.00    -0.385 N 
ATOM     12  H12 UNL     1     -20.144   3.175 -25.244  1.00  0.00     0.157 HD
ATOM     13  H11 UNL     1     -21.642   2.843 -24.408  1.00  0.00     0.157 HD
ENDBRANCH   4  11
ENDBRANCH   2   3
ENDBRANCH   1   2
BRANCH   1  14
HETATM   14  S1  UNL     1     -24.486   3.747 -23.616  1.00  0.00    -0.169 SA
BRANCH  14  15
HETATM   15  C7  UNL     1     -25.723   5.083 -23.846  1.00  0.00     0.076 C 
BRANCH  15  16
HETATM   16  C8  UNL     1     -25.030   6.299 -24.477  1.00  0.00     0.045 C 
BRANCH  16  17
HETATM   17  C9  UNL     1     -23.719   6.467 -23.720  1.00  0.00     0.214 C 
HETATM   18  C10 UNL     1     -22.599   6.860 -24.637  1.00  0.00     0.267 C 
HETATM   19  N4  UNL     1     -22.309   8.230 -24.225  1.00  0.00    -0.049 N 
HETATM   20  C11 UNL     1     -22.554   8.148 -22.791  1.00  0.00     0.463 C 
ATOM     21  H42 UNL     1     -21.390   8.583 -24.493  1.00  0.00     0.279 HD
ATOM     22  H41 UNL     1     -22.829   8.955 -24.719  1.00  0.00     0.279 HD
HETATM   23  N5  UNL     1     -23.900   7.567 -22.774  1.00  0.00    -0.045 N 
ATOM     24  H52 UNL     1     -24.664   8.210 -22.983  1.00  0.00     0.279 HD
ATOM     25  H51 UNL     1     -24.260   7.307 -21.856  1.00  0.00     0.279 HD
ENDBRANCH  16  17
ENDBRANCH  15  16
ENDBRANCH  14  15
ENDBRANCH   1  14
TORSDOF 7
ENDMDL
MODEL 3
REMARK VINA RESULT: -3.780134980      2.052      2.965
REMARK  7 active torsions:
REMARK  status: ('A' for Active; 'I' for Inactive)
REMARK    1  A    between atoms: N1_1  and  C1_4 
REMARK    2  A    between atoms: C4_11  and  C5_12 
REMARK    3  A    between atoms: C5_12  and  C6_13 
REMARK    4  A    between atoms: C6_13  and  S1_14 
REMARK    5  A    between atoms: S1_14  and  C7_15 
REMARK    6  A    between atoms: C7_15  and  C8_16 
REMARK    7  A    between atoms: C8_16  and  C9_17 
ROOT
HETATM    1  C6  UNL     1     -21.229   4.431 -21.527  1.00  0.00     0.078 C 
ENDROOT
BRANCH   1   2
HETATM    2  C5  UNL     1     -21.061   5.880 -21.668  1.00  0.00     0.054 C 
BRANCH   2   3
HETATM    3  C4  UNL     1     -21.939   6.628 -22.556  1.00  0.00     0.002 A 
HETATM    4  C1  UNL     1     -21.638   6.841 -23.873  1.00  0.00     0.107 A 
HETATM    5  N2  UNL     1     -22.554   7.524 -24.637  1.00  0.00    -0.339 N 
HETATM    6  C2  UNL     1     -23.709   7.988 -24.174  1.00  0.00     0.181 A 
ATOM      7  H2  UNL     1     -22.332   7.685 -25.620  1.00  0.00     0.168 HD
HETATM    8  N3  UNL     1     -23.974   7.760 -22.866  1.00  0.00    -0.361 N 
HETATM    9  C3  UNL     1     -23.156   7.117 -22.066  1.00  0.00     0.099 A 
ATOM     10  H3  UNL     1     -24.853   8.106 -22.484  1.00  0.00     0.166 HD
BRANCH   4  11
HETATM   11  N1  UNL     1     -20.548   6.483 -24.453  1.00  0.00    -0.385 N 
ATOM     12  H12 UNL     1     -20.045   7.030 -25.152  1.00  0.00     0.157 HD
ATOM     13  H11 UNL     1     -20.176   5.564 -24.209  1.00  0.00     0.157 HD
ENDBRANCH   4  11
ENDBRANCH   2   3
ENDBRANCH   1   2
BRANCH   1  14
HETATM   14  S1  UNL     1     -22.773   3.773 -22.106  1.00  0.00    -0.169 SA
BRANCH  14  15
HETATM   15  C7  UNL     1     -22.701   3.324 -23.884  1.00  0.00     0.076 C 
BRANCH  15  16
HETATM   16  C8  UNL     1     -23.827   4.055 -24.628  1.00  0.00     0.045 C 
BRANCH  16  17
HETATM   17  C9  UNL     1     -25.048   3.962 -23.722  1.00  0.00     0.214 C 
HETATM   18  C10 UNL     1     -26.101   4.959 -24.113  1.00  0.00     0.267 C 
HETATM   19  N4  UNL     1     -27.173   4.112 -24.627  1.00  0.00    -0.049 N 
HETATM   20  C11 UNL     1     -27.054   2.950 -23.756  1.00  0.00     0.463 C 
ATOM     21  H42 UNL     1     -28.096   4.545 -24.657  1.00  0.00     0.279 HD
ATOM     22  H41 UNL     1     -27.134   3.917 -25.628  1.00  0.00     0.279 HD
HETATM   23  N5  UNL     1     -25.630   2.634 -23.911  1.00  0.00    -0.045 N 
ATOM     24  H52 UNL     1     -25.373   2.156 -24.774  1.00  0.00     0.279 HD
ATOM     25  H51 UNL     1     -25.269   1.902 -23.300  1.00  0.00     0.279 HD
ENDBRANCH  16  17
ENDBRANCH  15  16
ENDBRANCH  14  15
ENDBRANCH   1  14
TORSDOF 7
ENDMDL
MODEL 4
REMARK VINA RESULT: -3.633514656      2.513      3.828
REMARK  7 active torsions:
REMARK  status: ('A' for Active; 'I' for Inactive)
REMARK    1  A    between atoms: N1_1  and  C1_4 
REMARK    2  A    between atoms: C4_11  and  C5_12 
REMARK    3  A    between atoms: C5_12  and  C6_13 
REMARK    4  A    between atoms: C6_13  and  S1_14 
REMARK    5  A    between atoms: S1_14  and  C7_15 
REMARK    6  A    between atoms: C7_15  and  C8_16 
REMARK    7  A    between atoms: C8_16  and  C9_17 
ROOT
HETATM    1  C6  UNL     1     -20.289   6.633 -23.733  1.00  0.00     0.078 C 
ENDROOT
BRANCH   1   2
HETATM    2  C5  UNL     1     -21.171   7.323 -22.790  1.00  0.00     0.054 C 
BRANCH   2   3
HETATM    3  C4  UNL     1     -22.615   7.243 -22.959  1.00  0.00     0.002 A 
HETATM    4  C1  UNL     1     -23.459   6.975 -21.916  1.00  0.00     0.107 A 
HETATM    5  N2  UNL     1     -24.809   6.962 -22.171  1.00  0.00    -0.339 N 
HETATM    6  C2  UNL     1     -25.341   7.192 -23.367  1.00  0.00     0.181 A 
ATOM      7  H2  UNL     1     -25.442   6.763 -21.396  1.00  0.00     0.168 HD
HETATM    8  N3  UNL     1     -24.477   7.453 -24.375  1.00  0.00    -0.361 N 
HETATM    9  C3  UNL     1     -23.174   7.486 -24.218  1.00  0.00     0.099 A 
ATOM     10  H3  UNL     1     -24.857   7.633 -25.304  1.00  0.00     0.166 HD
BRANCH   4  11
HETATM   11  N1  UNL     1     -23.091   6.700 -20.715  1.00  0.00    -0.385 N 
ATOM     12  H12 UNL     1     -23.625   6.142 -20.049  1.00  0.00     0.157 HD
ATOM     13  H11 UNL     1     -22.205   7.098 -20.401  1.00  0.00     0.157 HD
ENDBRANCH   4  11
ENDBRANCH   2   3
ENDBRANCH   1   2
BRANCH   1  14
HETATM   14  S1  UNL     1     -20.089   4.889 -23.469  1.00  0.00    -0.169 SA
BRANCH  14  15
HETATM   15  C7  UNL     1     -21.202   4.266 -22.150  1.00  0.00     0.076 C 
BRANCH  15  16
HETATM   16  C8  UNL     1     -22.075   3.142 -22.725  1.00  0.00     0.045 C 
BRANCH  16  17
HETATM   17  C9  UNL     1     -23.305   3.829 -23.303  1.00  0.00     0.214 C 
HETATM   18  C10 UNL     1     -23.681   3.255 -24.637  1.00  0.00     0.267 C 
HETATM   19  N4  UNL     1     -24.942   2.577 -24.355  1.00  0.00    -0.049 N 
HETATM   20  C11 UNL     1     -25.522   3.469 -23.359  1.00  0.00     0.463 C 
ATOM     21  H42 UNL     1     -25.529   2.386 -25.166  1.00  0.00     0.279 HD
ATOM     22  H41 UNL     1     -24.861   1.600 -24.073  1.00  0.00     0.279 HD
HETATM   23  N5  UNL     1     -24.420   3.561 -22.395  1.00  0.00    -0.045 N 
ATOM     24  H52 UNL     1     -24.304   2.759 -21.776  1.00  0.00     0.279 HD
ATOM     25  H51 UNL     1     -24.547   4.233 -21.639  1.00  0.00     0.279 HD
ENDBRANCH  16  17
ENDBRANCH  15  16
ENDBRANCH  14  15
ENDBRANCH   1  14
TORSDOF 7
ENDMDL
MODEL 5
REMARK VINA RESULT: -3.233050363      9.362     11.248
REMARK  7 active torsions:
REMARK  status: ('A' for Active; 'I' for Inactive)
REMARK    1  A    between atoms: N1_1  and  C1_4 
REMARK    2  A    between atoms: C4_11  and  C5_12 
REMARK    3  A    between atoms: C5_12  and  C6_13 
REMARK    4  A    between atoms: C6_13  and  S1_14 
REMARK    5  A    between atoms: S1_14  and  C7_15 
REMARK    6  A    between atoms: C7_15  and  C8_16 
REMARK    7  A    between atoms: C8_16  and  C9_17 
ROOT
HETATM    1  C6  UNL     1     -25.511  -0.969 -17.156  1.00  0.00     0.078 C 
ENDROOT
BRANCH   1   2
HETATM    2  C5  UNL     1     -25.988  -2.306 -16.793  1.00  0.00     0.054 C 
BRANCH   2   3
HETATM    3  C4  UNL     1     -27.155  -2.449 -15.935  1.00  0.00     0.002 A 
HETATM    4  C1  UNL     1     -27.165  -2.020 -14.636  1.00  0.00     0.107 A 
HETATM    5  N2  UNL     1     -28.330  -2.164 -13.922  1.00  0.00    -0.339 N 
HETATM    6  C2  UNL     1     -29.444  -2.694 -14.417  1.00  0.00     0.181 A 
ATOM      7  H2  UNL     1     -28.341  -1.845 -12.953  1.00  0.00     0.168 HD
HETATM    8  N3  UNL     1     -29.398  -3.108 -15.704  1.00  0.00    -0.361 N 
HETATM    9  C3  UNL     1     -28.328  -3.007 -16.457  1.00  0.00     0.099 A 
ATOM     10  H3  UNL     1     -30.238  -3.519 -16.110  1.00  0.00     0.166 HD
BRANCH   4  11
HETATM   11  N1  UNL     1     -26.158  -1.520 -14.012  1.00  0.00    -0.385 N 
ATOM     12  H12 UNL     1     -25.661  -1.968 -13.241  1.00  0.00     0.157 HD
ATOM     13  H11 UNL     1     -25.854  -0.589 -14.298  1.00  0.00     0.157 HD
ENDBRANCH   4  11
ENDBRANCH   2   3
ENDBRANCH   1   2
BRANCH   1  14
HETATM   14  S1  UNL     1     -26.767   0.264 -17.386  1.00  0.00    -0.169 SA
BRANCH  14  15
HETATM   15  C7  UNL     1     -26.499   1.723 -16.304  1.00  0.00     0.076 C 
BRANCH  15  16
HETATM   16  C8  UNL     1     -27.856   2.369 -15.996  1.00  0.00     0.045 C 
BRANCH  16  17
HETATM   17  C9  UNL     1     -28.731   1.251 -15.444  1.00  0.00     0.214 C 
HETATM   18  C10 UNL     1     -28.596   1.131 -13.954  1.00  0.00     0.267 C 
HETATM   19  N4  UNL     1     -29.904   1.566 -13.474  1.00  0.00    -0.049 N 
HETATM   20  C11 UNL     1     -30.773   1.055 -14.527  1.00  0.00     0.463 C 
ATOM     21  H42 UNL     1     -30.143   1.273 -12.528  1.00  0.00     0.279 HD
ATOM     22  H41 UNL     1     -29.989   2.565 -13.282  1.00  0.00     0.279 HD
HETATM   23  N5  UNL     1     -30.122   1.612 -15.717  1.00  0.00    -0.045 N 
ATOM     24  H52 UNL     1     -30.296   2.600 -15.896  1.00  0.00     0.279 HD
ATOM     25  H51 UNL     1     -30.493   1.298 -16.614  1.00  0.00     0.279 HD
ENDBRANCH  16  17
ENDBRANCH  15  16
ENDBRANCH  14  15
ENDBRANCH   1  14
TORSDOF 7
ENDMDL
