MODEL 1
REMARK VINA RESULT: -5.151536453      0.000      0.000
REMARK  3 active torsions:
REMARK  status: ('A' for Active; 'I' for Inactive)
REMARK    1  A    between atoms: C3_3  and  C4_4 
REMARK    2  A    between atoms: C4_4  and  O1_5 
REMARK    3  A    between atoms: O1_5  and  C5_6 
ROOT
HETATM    1  C5  UNL     1      -8.846 -31.359  15.464  1.00  0.00     0.172 C 
HETATM    2  C6  UNL     1      -8.551 -30.176  14.548  1.00  0.00     0.265 C 
HETATM    3  N1  UNL     1      -8.399 -31.157  13.462  1.00  0.00    -0.070 N 
ATOM      4  H11 UNL     1      -7.851 -30.947  12.629  1.00  0.00     0.277 HD
ATOM      5  H12 UNL     1      -9.179 -31.399  12.851  1.00  0.00     0.277 HD
HETATM    6  C7  UNL     1      -7.910 -32.088  14.489  1.00  0.00     0.265 C 
ENDROOT
BRANCH   1   7
HETATM    7  O1  UNL     1     -10.153 -31.800  15.413  1.00  0.00    -0.382 OA
BRANCH   7   8
HETATM    8  C4  UNL     1     -10.497 -32.326  16.648  1.00  0.00     0.172 C 
BRANCH   8   9
HETATM    9  C3  UNL     1      -9.654 -31.797  17.766  1.00  0.00     0.009 A 
HETATM   10  C1  UNL     1      -9.690 -32.451  19.097  1.00  0.00     0.007 A 
HETATM   11  C2  UNL     1     -10.414 -31.162  18.910  1.00  0.00     0.007 A 
ENDBRANCH   8   9
ENDBRANCH   7   8
ENDBRANCH   1   7
TORSDOF 3
ENDMDL
MODEL 2
REMARK VINA RESULT: -4.972681762      1.509      2.139
REMARK  3 active torsions:
REMARK  status: ('A' for Active; 'I' for Inactive)
REMARK    1  A    between atoms: C3_3  and  C4_4 
REMARK    2  A    between atoms: C4_4  and  O1_5 
REMARK    3  A    between atoms: O1_5  and  C5_6 
ROOT
HETATM    1  C5  UNL     1      -9.858 -32.110  16.038  1.00  0.00     0.172 C 
HETATM    2  C6  UNL     1      -8.883 -33.282  16.038  1.00  0.00     0.265 C 
HETATM    3  N1  UNL     1      -7.829 -32.302  15.737  1.00  0.00    -0.070 N 
ATOM      4  H11 UNL     1      -6.958 -32.578  15.284  1.00  0.00     0.277 HD
ATOM      5  H12 UNL     1      -7.272 -31.875  16.477  1.00  0.00     0.277 HD
HETATM    6  C7  UNL     1      -8.861 -31.542  15.018  1.00  0.00     0.265 C 
ENDROOT
BRANCH   1   7
HETATM    7  O1  UNL     1      -9.897 -31.408  17.225  1.00  0.00    -0.382 OA
BRANCH   7   8
HETATM    8  C4  UNL     1     -10.582 -32.158  18.168  1.00  0.00     0.172 C 
BRANCH   8   9
HETATM    9  C3  UNL     1      -9.862 -32.257  19.476  1.00  0.00     0.009 A 
HETATM   10  C1  UNL     1      -8.389 -32.430  19.502  1.00  0.00     0.007 A 
HETATM   11  C2  UNL     1      -9.256 -33.609  19.786  1.00  0.00     0.007 A 
ENDBRANCH   8   9
ENDBRANCH   7   8
ENDBRANCH   1   7
TORSDOF 3
ENDMDL
MODEL 3
REMARK VINA RESULT: -4.805679458      1.490      1.732
REMARK  3 active torsions:
REMARK  status: ('A' for Active; 'I' for Inactive)
REMARK    1  A    between atoms: C3_3  and  C4_4 
REMARK    2  A    between atoms: C4_4  and  O1_5 
REMARK    3  A    between atoms: O1_5  and  C5_6 
ROOT
HETATM    1  C5  UNL     1      -8.581 -32.456  15.389  1.00  0.00     0.172 C 
HETATM    2  C6  UNL     1      -7.762 -31.951  14.205  1.00  0.00     0.265 C 
HETATM    3  N1  UNL     1      -8.075 -30.592  14.671  1.00  0.00    -0.070 N 
ATOM      4  H11 UNL     1      -8.051 -29.793  14.037  1.00  0.00     0.277 HD
ATOM      5  H12 UNL     1      -7.444 -30.082  15.288  1.00  0.00     0.277 HD
HETATM    6  C7  UNL     1      -9.346 -31.145  15.159  1.00  0.00     0.265 C 
ENDROOT
BRANCH   1   7
HETATM    7  O1  UNL     1      -7.887 -32.491  16.581  1.00  0.00    -0.382 OA
BRANCH   7   8
HETATM    8  C4  UNL     1      -8.635 -33.188  17.516  1.00  0.00     0.172 C 
BRANCH   8   9
HETATM    9  C3  UNL     1      -8.751 -32.473  18.826  1.00  0.00     0.009 A 
HETATM   10  C1  UNL     1      -9.441 -33.120  19.968  1.00  0.00     0.007 A 
HETATM   11  C2  UNL     1     -10.151 -32.048  19.214  1.00  0.00     0.007 A 
ENDBRANCH   8   9
ENDBRANCH   7   8
ENDBRANCH   1   7
TORSDOF 3
ENDMDL
MODEL 4
REMARK VINA RESULT: -4.791290523      2.734      4.521
REMARK  3 active torsions:
REMARK  status: ('A' for Active; 'I' for Inactive)
REMARK    1  A    between atoms: C3_3  and  C4_4 
REMARK    2  A    between atoms: C4_4  and  O1_5 
REMARK    3  A    between atoms: O1_5  and  C5_6 
ROOT
HETATM    1  C5  UNL     1      -8.861 -32.592  18.243  1.00  0.00     0.172 C 
HETATM    2  C6  UNL     1      -8.288 -32.832  19.636  1.00  0.00     0.265 C 
HETATM    3  N1  UNL     1      -9.629 -33.300  20.019  1.00  0.00    -0.070 N 
ATOM      4  H11 UNL     1      -9.938 -33.290  20.990  1.00  0.00     0.277 HD
ATOM      5  H12 UNL     1      -9.878 -34.289  19.981  1.00  0.00     0.277 HD
HETATM    6  C7  UNL     1     -10.150 -32.339  19.037  1.00  0.00     0.265 C 
ENDROOT
BRANCH   1   7
HETATM    7  O1  UNL     1      -8.909 -33.720  17.450  1.00  0.00    -0.382 OA
BRANCH   7   8
HETATM    8  C4  UNL     1      -9.065 -33.334  16.129  1.00  0.00     0.172 C 
BRANCH   8   9
HETATM    9  C3  UNL     1      -8.324 -32.077  15.793  1.00  0.00     0.009 A 
HETATM   10  C1  UNL     1      -8.919 -31.089  14.861  1.00  0.00     0.007 A 
HETATM   11  C2  UNL     1      -7.827 -31.975  14.367  1.00  0.00     0.007 A 
ENDBRANCH   8   9
ENDBRANCH   7   8
ENDBRANCH   1   7
TORSDOF 3
ENDMDL
MODEL 5
REMARK VINA RESULT: -4.745064603      1.140      1.572
REMARK  3 active torsions:
REMARK  status: ('A' for Active; 'I' for Inactive)
REMARK    1  A    between atoms: C3_3  and  C4_4 
REMARK    2  A    between atoms: C4_4  and  O1_5 
REMARK    3  A    between atoms: O1_5  and  C5_6 
ROOT
HETATM    1  C5  UNL     1      -8.852 -32.130  15.345  1.00  0.00     0.172 C 
HETATM    2  C6  UNL     1      -7.743 -32.058  14.302  1.00  0.00     0.265 C 
HETATM    3  N1  UNL     1      -7.726 -30.607  14.535  1.00  0.00    -0.070 N 
ATOM      4  H11 UNL     1      -7.371 -29.959  13.832  1.00  0.00     0.277 HD
ATOM      5  H12 UNL     1      -7.084 -30.183  15.205  1.00  0.00     0.277 HD
HETATM    6  C7  UNL     1      -9.164 -30.723  14.816  1.00  0.00     0.265 C 
ENDROOT
BRANCH   1   7
HETATM    7  O1  UNL     1      -8.401 -32.145  16.649  1.00  0.00    -0.382 OA
BRANCH   7   8
HETATM    8  C4  UNL     1      -9.248 -32.937  17.408  1.00  0.00     0.172 C 
BRANCH   8   9
HETATM    9  C3  UNL     1     -10.363 -32.165  18.041  1.00  0.00     0.009 A 
HETATM   10  C1  UNL     1     -10.069 -30.937  18.819  1.00  0.00     0.007 A 
HETATM   11  C2  UNL     1     -10.397 -32.192  19.554  1.00  0.00     0.007 A 
ENDBRANCH   8   9
ENDBRANCH   7   8
ENDBRANCH   1   7
TORSDOF 3
ENDMDL
