MODEL 1
REMARK VINA RESULT: -7.938462719      0.000      0.000
REMARK  4 active torsions:
REMARK  status: ('A' for Active; 'I' for Inactive)
REMARK    1  A    between atoms: C1_2  and  N1_3 
REMARK    2  A    between atoms: C1_2  and  N3_14 
REMARK    3  A    between atoms: N1_3  and  N2_5 
REMARK    4  A    between atoms: C12_19  and  C13_20 
ROOT
HETATM    1  N3  UNL     1      21.174  13.348  23.928  1.00  0.00    -0.325 N 
HETATM    2  C9  UNL     1      19.766  13.518  23.772  1.00  0.00     0.130 C 
HETATM    3  C10 UNL     1      18.970  13.558  25.024  1.00  0.00     0.046 C 
HETATM    4  C11 UNL     1      19.637  12.982  26.222  1.00  0.00     0.172 C 
HETATM    5  O1  UNL     1      20.963  12.927  26.253  1.00  0.00    -0.361 OA
HETATM    6  C12 UNL     1      21.701  12.827  25.128  1.00  0.00     0.279 C 
ENDROOT
BRANCH   1   7
HETATM    7  C1  UNL     1      22.027  13.711  22.859  1.00  0.00     0.191 C 
HETATM    8  S1  UNL     1      23.472  14.402  23.185  1.00  0.00    -0.039 SA
BRANCH   7   9
HETATM    9  N1  UNL     1      21.686  13.502  21.500  1.00  0.00    -0.276 N 
ATOM     10  H1  UNL     1      21.482  14.307  20.906  1.00  0.00     0.189 HD
BRANCH   9  11
HETATM   11  N2  UNL     1      21.623  12.215  20.956  1.00  0.00    -0.307 N 
HETATM   12  C2  UNL     1      22.234  11.892  19.871  1.00  0.00     0.004 C 
HETATM   13  C3  UNL     1      23.003  13.002  19.262  1.00  0.00     0.054 C 
HETATM   14  C8  UNL     1      22.126  10.514  19.350  1.00  0.00     0.054 C 
HETATM   15  C4  UNL     1      24.397  12.442  18.960  1.00  0.00     0.006 C 
HETATM   16  C5  UNL     1      24.272  11.400  17.867  1.00  0.00     0.000 C 
HETATM   17  C6  UNL     1      24.395  10.000  18.416  1.00  0.00     0.000 C 
HETATM   18  C7  UNL     1      23.403   9.726  19.517  1.00  0.00     0.006 C 
ATOM     19  H2  UNL     1      21.071  11.506  21.439  1.00  0.00     0.186 HD
ENDBRANCH   9  11
ENDBRANCH   7   9
ENDBRANCH   1   7
BRANCH   6  20
HETATM   20  C13 UNL     1      22.012  11.376  24.929  1.00  0.00     0.092 A 
HETATM   21  C14 UNL     1      21.106  10.351  24.747  1.00  0.00     0.139 A 
HETATM   22  N4  UNL     1      21.798   9.211  24.612  1.00  0.00    -0.295 N 
HETATM   23  N5  UNL     1      23.067   9.510  24.703  1.00  0.00    -0.243 N 
ATOM     24  H4  UNL     1      21.406   8.281  24.464  1.00  0.00     0.187 HD
HETATM   25  N6  UNL     1      23.212  10.806  24.893  1.00  0.00    -0.285 N 
ATOM     26  H5  UNL     1      23.832   8.839  24.636  1.00  0.00     0.208 HD
ATOM     27  H6  UNL     1      24.103  11.294  24.996  1.00  0.00     0.188 HD
ENDBRANCH   6  20
TORSDOF 4
ENDMDL
MODEL 2
REMARK VINA RESULT: -7.652192178      1.051      1.619
REMARK  4 active torsions:
REMARK  status: ('A' for Active; 'I' for Inactive)
REMARK    1  A    between atoms: C1_2  and  N1_3 
REMARK    2  A    between atoms: C1_2  and  N3_14 
REMARK    3  A    between atoms: N1_3  and  N2_5 
REMARK    4  A    between atoms: C12_19  and  C13_20 
ROOT
HETATM    1  N3  UNL     1      20.822  13.272  24.551  1.00  0.00    -0.325 N 
HETATM    2  C9  UNL     1      19.430  13.380  24.844  1.00  0.00     0.130 C 
HETATM    3  C10 UNL     1      19.049  13.232  26.271  1.00  0.00     0.046 C 
HETATM    4  C11 UNL     1      20.058  12.559  27.132  1.00  0.00     0.172 C 
HETATM    5  O1  UNL     1      21.332  12.575  26.760  1.00  0.00    -0.361 OA
HETATM    6  C12 UNL     1      21.697  12.647  25.463  1.00  0.00     0.279 C 
ENDROOT
BRANCH   1   7
HETATM    7  C1  UNL     1      21.304  13.803  23.331  1.00  0.00     0.191 C 
HETATM    8  S1  UNL     1      21.685  15.390  23.243  1.00  0.00    -0.039 SA
BRANCH   7   9
HETATM    9  N1  UNL     1      21.478  13.015  22.166  1.00  0.00    -0.276 N 
ATOM     10  H1  UNL     1      20.661  12.749  21.617  1.00  0.00     0.189 HD
BRANCH   9  11
HETATM   11  N2  UNL     1      22.747  12.596  21.755  1.00  0.00    -0.307 N 
HETATM   12  C2  UNL     1      22.949  11.465  21.178  1.00  0.00     0.004 C 
HETATM   13  C3  UNL     1      21.720  10.659  20.992  1.00  0.00     0.054 C 
HETATM   14  C8  UNL     1      24.315  11.081  20.768  1.00  0.00     0.054 C 
HETATM   15  C4  UNL     1      21.723  10.203  19.528  1.00  0.00     0.006 C 
HETATM   16  C5  UNL     1      22.868   9.232  19.328  1.00  0.00     0.000 C 
HETATM   17  C6  UNL     1      24.019   9.872  18.592  1.00  0.00     0.000 C 
HETATM   18  C7  UNL     1      24.509  11.125  19.271  1.00  0.00     0.006 C 
ATOM     19  H2  UNL     1      23.544  13.212  21.919  1.00  0.00     0.186 HD
ENDBRANCH   9  11
ENDBRANCH   7   9
ENDBRANCH   1   7
BRANCH   6  20
HETATM   20  C13 UNL     1      21.960  11.248  24.999  1.00  0.00     0.092 A 
HETATM   21  C14 UNL     1      21.020  10.277  24.716  1.00  0.00     0.139 A 
HETATM   22  N4  UNL     1      21.675   9.171  24.337  1.00  0.00    -0.295 N 
HETATM   23  N5  UNL     1      22.953   9.438  24.380  1.00  0.00    -0.243 N 
ATOM     24  H4  UNL     1      21.253   8.283  24.065  1.00  0.00     0.187 HD
HETATM   25  N6  UNL     1      23.141  10.682  24.775  1.00  0.00    -0.285 N 
ATOM     26  H5  UNL     1      23.697   8.781  24.143  1.00  0.00     0.208 HD
ATOM     27  H6  UNL     1      24.047  11.136  24.891  1.00  0.00     0.188 HD
ENDBRANCH   6  20
TORSDOF 4
ENDMDL
MODEL 3
REMARK VINA RESULT: -7.638066056      3.953      6.007
REMARK  4 active torsions:
REMARK  status: ('A' for Active; 'I' for Inactive)
REMARK    1  A    between atoms: C1_2  and  N1_3 
REMARK    2  A    between atoms: C1_2  and  N3_14 
REMARK    3  A    between atoms: N1_3  and  N2_5 
REMARK    4  A    between atoms: C12_19  and  C13_20 
ROOT
HETATM    1  N3  UNL     1      20.114  12.270  26.767  1.00  0.00    -0.325 N 
HETATM    2  C9  UNL     1      19.951  11.977  28.154  1.00  0.00     0.130 C 
HETATM    3  C10 UNL     1      21.092  12.330  29.035  1.00  0.00     0.046 C 
HETATM    4  C11 UNL     1      22.396  12.516  28.344  1.00  0.00     0.172 C 
HETATM    5  O1  UNL     1      22.400  12.833  27.055  1.00  0.00    -0.361 OA
HETATM    6  C12 UNL     1      21.401  12.466  26.225  1.00  0.00     0.279 C 
ENDROOT
BRANCH   1   7
HETATM    7  C1  UNL     1      18.962  12.358  25.950  1.00  0.00     0.191 C 
HETATM    8  S1  UNL     1      18.989  13.319  24.627  1.00  0.00    -0.039 SA
BRANCH   7   9
HETATM    9  N1  UNL     1      17.769  11.644  26.224  1.00  0.00    -0.276 N 
ATOM     10  H1  UNL     1      17.165  11.954  26.985  1.00  0.00     0.189 HD
BRANCH   9  11
HETATM   11  N2  UNL     1      17.405  10.523  25.472  1.00  0.00    -0.307 N 
HETATM   12  C2  UNL     1      16.359  10.502  24.723  1.00  0.00     0.004 C 
HETATM   13  C3  UNL     1      15.589  11.768  24.733  1.00  0.00     0.054 C 
HETATM   14  C8  UNL     1      16.029   9.285  23.954  1.00  0.00     0.054 C 
HETATM   15  C4  UNL     1      15.332  12.125  23.265  1.00  0.00     0.006 C 
HETATM   16  C5  UNL     1      14.392  11.094  22.675  1.00  0.00     0.000 C 
HETATM   17  C6  UNL     1      15.120  10.127  21.774  1.00  0.00     0.000 C 
HETATM   18  C7  UNL     1      16.271   9.448  22.472  1.00  0.00     0.006 C 
ATOM     19  H2  UNL     1      17.991   9.689  25.519  1.00  0.00     0.186 HD
ENDBRANCH   9  11
ENDBRANCH   7   9
ENDBRANCH   1   7
BRANCH   6  20
HETATM   20  C13 UNL     1      21.834  11.208  25.539  1.00  0.00     0.092 A 
HETATM   21  C14 UNL     1      22.862  11.072  24.628  1.00  0.00     0.139 A 
HETATM   22  N4  UNL     1      22.913   9.786  24.257  1.00  0.00    -0.295 N 
HETATM   23  N5  UNL     1      21.968   9.154  24.902  1.00  0.00    -0.243 N 
ATOM     24  H4  UNL     1      23.568   9.375  23.592  1.00  0.00     0.187 HD
HETATM   25  N6  UNL     1      21.312   9.994  25.677  1.00  0.00    -0.285 N 
ATOM     26  H5  UNL     1      21.769   8.157  24.819  1.00  0.00     0.208 HD
ATOM     27  H6  UNL     1      20.529   9.751  26.284  1.00  0.00     0.188 HD
ENDBRANCH   6  20
TORSDOF 4
ENDMDL
MODEL 4
REMARK VINA RESULT: -7.636364007      2.099      6.069
REMARK  4 active torsions:
REMARK  status: ('A' for Active; 'I' for Inactive)
REMARK    1  A    between atoms: C1_2  and  N1_3 
REMARK    2  A    between atoms: C1_2  and  N3_14 
REMARK    3  A    between atoms: N1_3  and  N2_5 
REMARK    4  A    between atoms: C12_19  and  C13_20 
ROOT
HETATM    1  N3  UNL     1      21.471  12.043  21.653  1.00  0.00    -0.325 N 
HETATM    2  C9  UNL     1      22.342  12.073  20.524  1.00  0.00     0.130 C 
HETATM    3  C10 UNL     1      22.139  11.005  19.513  1.00  0.00     0.046 C 
HETATM    4  C11 UNL     1      21.394   9.810  19.992  1.00  0.00     0.172 C 
HETATM    5  O1  UNL     1      20.577   9.937  21.030  1.00  0.00    -0.361 OA
HETATM    6  C12 UNL     1      20.781  10.861  21.992  1.00  0.00     0.279 C 
ENDROOT
BRANCH   1   7
HETATM    7  C1  UNL     1      21.313  13.220  22.423  1.00  0.00     0.191 C 
HETATM    8  S1  UNL     1      22.022  14.606  21.924  1.00  0.00    -0.039 SA
BRANCH   7   9
HETATM    9  N1  UNL     1      20.560  13.257  23.623  1.00  0.00    -0.276 N 
ATOM     10  H1  UNL     1      19.618  12.866  23.634  1.00  0.00     0.189 HD
BRANCH   9  11
HETATM   11  N2  UNL     1      21.083  13.820  24.791  1.00  0.00    -0.307 N 
HETATM   12  C2  UNL     1      20.721  13.439  25.965  1.00  0.00     0.004 C 
HETATM   13  C3  UNL     1      19.708  12.358  25.958  1.00  0.00     0.054 C 
HETATM   14  C8  UNL     1      21.312  14.076  27.160  1.00  0.00     0.054 C 
HETATM   15  C4  UNL     1      20.219  11.286  26.928  1.00  0.00     0.006 C 
HETATM   16  C5  UNL     1      20.186  11.852  28.333  1.00  0.00     0.000 C 
HETATM   17  C6  UNL     1      21.567  12.214  28.820  1.00  0.00     0.000 C 
HETATM   18  C7  UNL     1      22.272  13.167  27.889  1.00  0.00     0.006 C 
ATOM     19  H2  UNL     1      21.779  14.562  24.709  1.00  0.00     0.186 HD
ENDBRANCH   9  11
ENDBRANCH   7   9
ENDBRANCH   1   7
BRANCH   6  20
HETATM   20  C13 UNL     1      21.507  10.183  23.112  1.00  0.00     0.092 A 
HETATM   21  C14 UNL     1      22.854  10.265  23.398  1.00  0.00     0.139 A 
HETATM   22  N4  UNL     1      23.092   9.506  24.476  1.00  0.00    -0.295 N 
HETATM   23  N5  UNL     1      21.953   8.980  24.844  1.00  0.00    -0.243 N 
ATOM     24  H4  UNL     1      23.995   9.365  24.928  1.00  0.00     0.187 HD
HETATM   25  N6  UNL     1      20.991   9.377  24.035  1.00  0.00    -0.285 N 
ATOM     26  H5  UNL     1      21.827   8.354  25.640  1.00  0.00     0.208 HD
ATOM     27  H6  UNL     1      20.009   9.109  24.106  1.00  0.00     0.188 HD
ENDBRANCH   6  20
TORSDOF 4
ENDMDL
MODEL 5
REMARK VINA RESULT: -7.598296364      1.507      1.837
REMARK  4 active torsions:
REMARK  status: ('A' for Active; 'I' for Inactive)
REMARK    1  A    between atoms: C1_2  and  N1_3 
REMARK    2  A    between atoms: C1_2  and  N3_14 
REMARK    3  A    between atoms: N1_3  and  N2_5 
REMARK    4  A    between atoms: C12_19  and  C13_20 
ROOT
HETATM    1  N3  UNL     1      21.131  13.393  25.275  1.00  0.00    -0.325 N 
HETATM    2  C9  UNL     1      20.155  13.565  26.301  1.00  0.00     0.130 C 
HETATM    3  C10 UNL     1      20.664  13.561  27.695  1.00  0.00     0.046 C 
HETATM    4  C11 UNL     1      22.006  12.946  27.880  1.00  0.00     0.172 C 
HETATM    5  O1  UNL     1      22.836  12.894  26.846  1.00  0.00    -0.361 OA
HETATM    6  C12 UNL     1      22.390  12.834  25.574  1.00  0.00     0.279 C 
ENDROOT
BRANCH   1   7
HETATM    7  C1  UNL     1      20.811  13.795  23.956  1.00  0.00     0.191 C 
HETATM    8  S1  UNL     1      19.317  14.374  23.635  1.00  0.00    -0.039 SA
BRANCH   7   9
HETATM    9  N1  UNL     1      21.735  13.719  22.885  1.00  0.00    -0.276 N 
ATOM     10  H1  UNL     1      22.423  14.462  22.764  1.00  0.00     0.189 HD
BRANCH   9  11
HETATM   11  N2  UNL     1      21.722  12.645  21.989  1.00  0.00    -0.307 N 
HETATM   12  C2  UNL     1      22.062  12.768  20.755  1.00  0.00     0.004 C 
HETATM   13  C3  UNL     1      22.465  14.143  20.380  1.00  0.00     0.054 C 
HETATM   14  C8  UNL     1      22.025  11.593  19.861  1.00  0.00     0.054 C 
HETATM   15  C4  UNL     1      23.795  14.010  19.630  1.00  0.00     0.006 C 
HETATM   16  C5  UNL     1      23.540  13.299  18.317  1.00  0.00     0.000 C 
HETATM   17  C6  UNL     1      24.013  11.867  18.357  1.00  0.00     0.000 C 
HETATM   18  C7  UNL     1      23.404  11.094  19.499  1.00  0.00     0.006 C 
ATOM     19  H2  UNL     1      21.431  11.727  22.329  1.00  0.00     0.186 HD
ENDBRANCH   9  11
ENDBRANCH   7   9
ENDBRANCH   1   7
BRANCH   6  20
HETATM   20  C13 UNL     1      22.386  11.392  25.174  1.00  0.00     0.092 A 
HETATM   21  C14 UNL     1      21.297  10.545  25.137  1.00  0.00     0.139 A 
HETATM   22  N4  UNL     1      21.726   9.343  24.728  1.00  0.00    -0.295 N 
HETATM   23  N5  UNL     1      23.013   9.436  24.521  1.00  0.00    -0.243 N 
ATOM     24  H4  UNL     1      21.154   8.508  24.602  1.00  0.00     0.187 HD
HETATM   25  N6  UNL     1      23.425  10.660  24.783  1.00  0.00    -0.285 N 
ATOM     26  H5  UNL     1      23.611   8.673  24.202  1.00  0.00     0.208 HD
ATOM     27  H6  UNL     1      24.385  10.993  24.700  1.00  0.00     0.188 HD
ENDBRANCH   6  20
TORSDOF 4
ENDMDL
