MODEL 1
REMARK VINA RESULT: -6.696134114      0.000      0.000
REMARK  10 active torsions:
REMARK  status: ('A' for Active; 'I' for Inactive)
REMARK    1  A    between atoms: C3_3  and  C4_4 
REMARK    2  A    between atoms: C4_4  and  O1_5 
REMARK    3  A    between atoms: O1_5  and  C5_6 
REMARK    4  A    between atoms: C8_10  and  C9_11 
REMARK       I    between atoms: C9_11  and  N1_13 
REMARK    5  A    between atoms: N1_13  and  C10_15 
REMARK    6  A    between atoms: C10_15  and  C11_16 
REMARK    7  A    between atoms: C10_15  and  C15_20 
REMARK    8  A    between atoms: C11_16  and  C12_17 
REMARK       I    between atoms: C15_20  and  N2_22 
REMARK    9  A    between atoms: N2_22  and  C16_24 
REMARK   10  A    between atoms: C21_29  and  C22_30 
ROOT
HETATM    1  C1  UNL     1      15.067  17.398  17.780  1.00  0.00     0.112 C 
HETATM    2  C2  UNL     1      16.345  16.716  17.552  1.00  0.00    -0.109 C 
HETATM    3  C3  UNL     1      17.416  16.145  17.386  1.00  0.00    -0.080 C 
ENDROOT
BRANCH   3   4
HETATM    4  C4  UNL     1      18.694  15.482  17.215  1.00  0.00     0.269 C 
BRANCH   4   5
HETATM    5  O1  UNL     1      19.039  15.465  15.866  1.00  0.00    -0.339 OA
BRANCH   5   6
HETATM    6  C5  UNL     1      18.553  14.672  14.873  1.00  0.00     0.080 A 
HETATM    7  C6  UNL     1      17.476  13.842  14.988  1.00  0.00     0.080 A 
HETATM    8  C7  UNL     1      17.029  13.053  13.931  1.00  0.00     0.134 A 
HETATM    9  F1  UNL     1      15.947  12.237  14.134  1.00  0.00    -0.205 F 
HETATM   10  C8  UNL     1      17.661  13.082  12.719  1.00  0.00     0.071 A 
HETATM   11  C20 UNL     1      18.762  13.942  12.630  1.00  0.00     0.030 A 
HETATM   12  C21 UNL     1      19.220  14.726  13.653  1.00  0.00    -0.016 A 
BRANCH  10  13
HETATM   13  C9  UNL     1      17.265  12.306  11.570  1.00  0.00     0.255 C 
HETATM   14  O2  UNL     1      16.132  12.612  11.038  1.00  0.00    -0.268 OA
HETATM   15  N1  UNL     1      17.962  11.265  10.964  1.00  0.00    -0.344 N 
ATOM     16  H1  UNL     1      18.860  10.949  11.331  1.00  0.00     0.163 HD
BRANCH  15  17
HETATM   17  C10 UNL     1      17.353  10.626   9.762  1.00  0.00     0.177 C 
BRANCH  17  18
HETATM   18  C11 UNL     1      17.632   9.147   9.962  1.00  0.00     0.038 C 
BRANCH  18  19
HETATM   19  C12 UNL     1      16.434   8.270   9.839  1.00  0.00    -0.020 C 
HETATM   20  C13 UNL     1      16.613   6.935  10.519  1.00  0.00     0.009 C 
HETATM   21  C14 UNL     1      16.208   8.019   8.361  1.00  0.00     0.009 C 
ENDBRANCH  18  19
ENDBRANCH  17  18
BRANCH  17  22
HETATM   22  C15 UNL     1      18.105  11.149   8.596  1.00  0.00     0.241 C 
HETATM   23  O3  UNL     1      17.537  11.114   7.466  1.00  0.00    -0.271 OA
HETATM   24  N2  UNL     1      19.417  11.683   8.642  1.00  0.00    -0.351 N 
ATOM     25  H2  UNL     1      19.904  11.715   9.538  1.00  0.00     0.163 HD
BRANCH  24  26
HETATM   26  C16 UNL     1      20.084  12.180   7.473  1.00  0.00     0.022 C 
HETATM   27  C17 UNL     1      20.395  11.035   6.519  1.00  0.00     0.037 C 
HETATM   28  C18 UNL     1      21.436  12.751   7.895  1.00  0.00     0.037 C 
HETATM   29  C19 UNL     1      19.303  13.255   6.761  1.00  0.00     0.037 C 
ENDBRANCH  24  26
ENDBRANCH  17  22
ENDBRANCH  15  17
ENDBRANCH  10  13
BRANCH  12  30
HETATM   30  C22 UNL     1      20.391  15.586  13.444  1.00  0.00    -0.021 C 
HETATM   31  C23 UNL     1      20.881  15.423  12.030  1.00  0.00     0.019 C 
HETATM   32  C24 UNL     1      20.081  17.057  13.660  1.00  0.00     0.019 C 
HETATM   33  C25 UNL     1      21.553  15.221  14.343  1.00  0.00     0.019 C 
ENDBRANCH  12  30
ENDBRANCH   5   6
ENDBRANCH   4   5
ENDBRANCH   3   4
TORSDOF 10
ENDMDL
MODEL 2
REMARK VINA RESULT: -6.660340724      3.495      8.502
REMARK  10 active torsions:
REMARK  status: ('A' for Active; 'I' for Inactive)
REMARK    1  A    between atoms: C3_3  and  C4_4 
REMARK    2  A    between atoms: C4_4  and  O1_5 
REMARK    3  A    between atoms: O1_5  and  C5_6 
REMARK    4  A    between atoms: C8_10  and  C9_11 
REMARK       I    between atoms: C9_11  and  N1_13 
REMARK    5  A    between atoms: N1_13  and  C10_15 
REMARK    6  A    between atoms: C10_15  and  C11_16 
REMARK    7  A    between atoms: C10_15  and  C15_20 
REMARK    8  A    between atoms: C11_16  and  C12_17 
REMARK       I    between atoms: C15_20  and  N2_22 
REMARK    9  A    between atoms: N2_22  and  C16_24 
REMARK   10  A    between atoms: C21_29  and  C22_30 
ROOT
HETATM    1  C1  UNL     1      23.972  11.731  13.566  1.00  0.00     0.112 C 
HETATM    2  C2  UNL     1      23.484  12.425  12.370  1.00  0.00    -0.109 C 
HETATM    3  C3  UNL     1      23.074  12.982  11.359  1.00  0.00    -0.080 C 
ENDROOT
BRANCH   3   4
HETATM    4  C4  UNL     1      22.605  13.621  10.145  1.00  0.00     0.269 C 
BRANCH   4   5
HETATM    5  O1  UNL     1      21.227  13.806  10.214  1.00  0.00    -0.339 OA
BRANCH   5   6
HETATM    6  C5  UNL     1      20.437  13.928  11.315  1.00  0.00     0.080 A 
HETATM    7  C6  UNL     1      20.581  14.881  12.281  1.00  0.00     0.080 A 
HETATM    8  C7  UNL     1      19.738  14.951  13.387  1.00  0.00     0.134 A 
HETATM    9  F1  UNL     1      19.959  15.932  14.319  1.00  0.00    -0.205 F 
HETATM   10  C8  UNL     1      18.718  14.054  13.550  1.00  0.00     0.071 A 
HETATM   11  C20 UNL     1      18.594  13.089  12.543  1.00  0.00     0.030 A 
HETATM   12  C21 UNL     1      19.410  13.000  11.449  1.00  0.00    -0.016 A 
BRANCH  10  13
HETATM   13  C9  UNL     1      17.795  14.056  14.658  1.00  0.00     0.255 C 
HETATM   14  O2  UNL     1      16.563  13.808  14.375  1.00  0.00    -0.268 OA
HETATM   15  N1  UNL     1      18.078  14.291  16.000  1.00  0.00    -0.344 N 
ATOM     16  H1  UNL     1      19.025  14.510  16.308  1.00  0.00     0.163 HD
BRANCH  15  17
HETATM   17  C10 UNL     1      16.950  14.213  16.973  1.00  0.00     0.177 C 
BRANCH  17  18
HETATM   18  C11 UNL     1      17.027  15.535  17.716  1.00  0.00     0.038 C 
BRANCH  18  19
HETATM   19  C12 UNL     1      16.277  16.650  17.074  1.00  0.00    -0.020 C 
HETATM   20  C13 UNL     1      15.930  17.756  18.041  1.00  0.00     0.009 C 
HETATM   21  C14 UNL     1      14.982  16.072  16.536  1.00  0.00     0.009 C 
ENDBRANCH  18  19
ENDBRANCH  17  18
BRANCH  17  22
HETATM   22  C15 UNL     1      17.267  13.082  17.877  1.00  0.00     0.241 C 
HETATM   23  O3  UNL     1      18.264  13.207  18.648  1.00  0.00    -0.271 OA
HETATM   24  N2  UNL     1      16.546  11.865  17.947  1.00  0.00    -0.351 N 
ATOM     25  H2  UNL     1      15.743  11.732  17.331  1.00  0.00     0.163 HD
BRANCH  24  26
HETATM   26  C16 UNL     1      16.904  10.812  18.854  1.00  0.00     0.022 C 
HETATM   27  C17 UNL     1      18.260  10.235  18.479  1.00  0.00     0.037 C 
HETATM   28  C18 UNL     1      15.903   9.671  18.688  1.00  0.00     0.037 C 
HETATM   29  C19 UNL     1      16.904  11.251  20.296  1.00  0.00     0.037 C 
ENDBRANCH  24  26
ENDBRANCH  17  22
ENDBRANCH  15  17
ENDBRANCH  10  13
BRANCH  12  30
HETATM   30  C22 UNL     1      19.187  11.938  10.460  1.00  0.00    -0.021 C 
HETATM   31  C23 UNL     1      17.861  11.279  10.729  1.00  0.00     0.019 C 
HETATM   32  C24 UNL     1      19.163  12.463   9.035  1.00  0.00     0.019 C 
HETATM   33  C25 UNL     1      20.231  10.843  10.532  1.00  0.00     0.019 C 
ENDBRANCH  12  30
ENDBRANCH   5   6
ENDBRANCH   4   5
ENDBRANCH   3   4
TORSDOF 10
ENDMDL
MODEL 3
REMARK VINA RESULT: -6.630360205      4.649      8.850
REMARK  10 active torsions:
REMARK  status: ('A' for Active; 'I' for Inactive)
REMARK    1  A    between atoms: C3_3  and  C4_4 
REMARK    2  A    between atoms: C4_4  and  O1_5 
REMARK    3  A    between atoms: O1_5  and  C5_6 
REMARK    4  A    between atoms: C8_10  and  C9_11 
REMARK       I    between atoms: C9_11  and  N1_13 
REMARK    5  A    between atoms: N1_13  and  C10_15 
REMARK    6  A    between atoms: C10_15  and  C11_16 
REMARK    7  A    between atoms: C10_15  and  C15_20 
REMARK    8  A    between atoms: C11_16  and  C12_17 
REMARK       I    between atoms: C15_20  and  N2_22 
REMARK    9  A    between atoms: N2_22  and  C16_24 
REMARK   10  A    between atoms: C21_29  and  C22_30 
ROOT
HETATM    1  C1  UNL     1      23.470   8.552  11.303  1.00  0.00     0.112 C 
HETATM    2  C2  UNL     1      23.657  10.003  11.405  1.00  0.00    -0.109 C 
HETATM    3  C3  UNL     1      23.811  11.216  11.465  1.00  0.00    -0.080 C 
ENDROOT
BRANCH   3   4
HETATM    4  C4  UNL     1      24.009  12.652  11.509  1.00  0.00     0.269 C 
BRANCH   4   5
HETATM    5  O1  UNL     1      23.690  13.132  12.777  1.00  0.00    -0.339 OA
BRANCH   5   6
HETATM    6  C5  UNL     1      22.468  13.239  13.365  1.00  0.00     0.080 A 
HETATM    7  C6  UNL     1      21.325  13.630  12.730  1.00  0.00     0.080 A 
HETATM    8  C7  UNL     1      20.102  13.720  13.391  1.00  0.00     0.134 A 
HETATM    9  F1  UNL     1      19.004  14.133  12.683  1.00  0.00    -0.205 F 
HETATM   10  C8  UNL     1      19.999  13.417  14.721  1.00  0.00     0.071 A 
HETATM   11  C20 UNL     1      21.187  13.019  15.345  1.00  0.00     0.030 A 
HETATM   12  C21 UNL     1      22.399  12.923  14.717  1.00  0.00    -0.016 A 
BRANCH  10  13
HETATM   13  C9  UNL     1      18.776  13.476  15.482  1.00  0.00     0.255 C 
HETATM   14  O2  UNL     1      17.853  12.642  15.146  1.00  0.00    -0.268 OA
HETATM   15  N1  UNL     1      18.473  14.328  16.540  1.00  0.00    -0.344 N 
ATOM     16  H1  UNL     1      19.142  15.029  16.860  1.00  0.00     0.163 HD
BRANCH  15  17
HETATM   17  C10 UNL     1      17.139  14.182  17.191  1.00  0.00     0.177 C 
BRANCH  17  18
HETATM   18  C11 UNL     1      16.970  15.483  17.956  1.00  0.00     0.038 C 
BRANCH  18  19
HETATM   19  C12 UNL     1      16.371  16.593  17.163  1.00  0.00    -0.020 C 
HETATM   20  C13 UNL     1      15.703  17.636  18.026  1.00  0.00     0.009 C 
HETATM   21  C14 UNL     1      15.317  15.984  16.259  1.00  0.00     0.009 C 
ENDBRANCH  18  19
ENDBRANCH  17  18
BRANCH  17  22
HETATM   22  C15 UNL     1      17.262  13.037  18.124  1.00  0.00     0.241 C 
HETATM   23  O3  UNL     1      18.069  13.150  19.092  1.00  0.00    -0.271 OA
HETATM   24  N2  UNL     1      16.550  11.817  18.018  1.00  0.00    -0.351 N 
ATOM     25  H2  UNL     1      15.899  11.692  17.242  1.00  0.00     0.163 HD
BRANCH  24  26
HETATM   26  C16 UNL     1      16.712  10.749  18.964  1.00  0.00     0.022 C 
HETATM   27  C17 UNL     1      17.930   9.911  18.605  1.00  0.00     0.037 C 
HETATM   28  C18 UNL     1      15.511   9.813  18.845  1.00  0.00     0.037 C 
HETATM   29  C19 UNL     1      16.811  11.233  20.387  1.00  0.00     0.037 C 
ENDBRANCH  24  26
ENDBRANCH  17  22
ENDBRANCH  15  17
ENDBRANCH  10  13
BRANCH  12  30
HETATM   30  C22 UNL     1      23.581  12.500  15.479  1.00  0.00    -0.021 C 
HETATM   31  C23 UNL     1      23.208  12.341  16.928  1.00  0.00     0.019 C 
HETATM   32  C24 UNL     1      24.143  11.174  14.996  1.00  0.00     0.019 C 
HETATM   33  C25 UNL     1      24.700  13.519  15.435  1.00  0.00     0.019 C 
ENDBRANCH  12  30
ENDBRANCH   5   6
ENDBRANCH   4   5
ENDBRANCH   3   4
TORSDOF 10
ENDMDL
MODEL 4
REMARK VINA RESULT: -6.509700352      6.848      9.444
REMARK  10 active torsions:
REMARK  status: ('A' for Active; 'I' for Inactive)
REMARK    1  A    between atoms: C3_3  and  C4_4 
REMARK    2  A    between atoms: C4_4  and  O1_5 
REMARK    3  A    between atoms: O1_5  and  C5_6 
REMARK    4  A    between atoms: C8_10  and  C9_11 
REMARK       I    between atoms: C9_11  and  N1_13 
REMARK    5  A    between atoms: N1_13  and  C10_15 
REMARK    6  A    between atoms: C10_15  and  C11_16 
REMARK    7  A    between atoms: C10_15  and  C15_20 
REMARK    8  A    between atoms: C11_16  and  C12_17 
REMARK       I    between atoms: C15_20  and  N2_22 
REMARK    9  A    between atoms: N2_22  and  C16_24 
REMARK   10  A    between atoms: C21_29  and  C22_30 
ROOT
HETATM    1  C1  UNL     1      14.562  17.264  17.751  1.00  0.00     0.112 C 
HETATM    2  C2  UNL     1      15.948  16.849  17.509  1.00  0.00    -0.109 C 
HETATM    3  C3  UNL     1      17.108  16.521  17.289  1.00  0.00    -0.080 C 
ENDROOT
BRANCH   3   4
HETATM    4  C4  UNL     1      18.477  16.141  17.001  1.00  0.00     0.269 C 
BRANCH   4   5
HETATM    5  O1  UNL     1      18.520  14.812  16.589  1.00  0.00    -0.339 OA
BRANCH   5   6
HETATM    6  C5  UNL     1      19.553  13.929  16.664  1.00  0.00     0.080 A 
HETATM    7  C6  UNL     1      20.810  14.152  16.183  1.00  0.00     0.080 A 
HETATM    8  C7  UNL     1      21.826  13.205  16.291  1.00  0.00     0.134 A 
HETATM    9  F1  UNL     1      23.058  13.504  15.770  1.00  0.00    -0.205 F 
HETATM   10  C8  UNL     1      21.598  11.998  16.892  1.00  0.00     0.071 A 
HETATM   11  C20 UNL     1      20.300  11.797  17.375  1.00  0.00     0.030 A 
HETATM   12  C21 UNL     1      19.287  12.712  17.282  1.00  0.00    -0.016 A 
BRANCH  10  13
HETATM   13  C9  UNL     1      22.590  10.963  17.052  1.00  0.00     0.255 C 
HETATM   14  O2  UNL     1      23.122  10.510  15.970  1.00  0.00    -0.268 OA
HETATM   15  N1  UNL     1      23.043  10.397  18.240  1.00  0.00    -0.344 N 
ATOM     16  H1  UNL     1      22.664  10.688  19.141  1.00  0.00     0.163 HD
BRANCH  15  17
HETATM   17  C10 UNL     1      24.102   9.351  18.152  1.00  0.00     0.177 C 
BRANCH  17  18
HETATM   18  C11 UNL     1      23.324   8.075  17.883  1.00  0.00     0.038 C 
BRANCH  18  19
HETATM   19  C12 UNL     1      22.251   7.784  18.876  1.00  0.00    -0.020 C 
HETATM   20  C13 UNL     1      22.438   6.457  19.568  1.00  0.00     0.009 C 
HETATM   21  C14 UNL     1      20.938   7.741  18.120  1.00  0.00     0.009 C 
ENDBRANCH  18  19
ENDBRANCH  17  18
BRANCH  17  22
HETATM   22  C15 UNL     1      24.744   9.303  19.488  1.00  0.00     0.241 C 
HETATM   23  O3  UNL     1      24.313  10.095  20.375  1.00  0.00    -0.271 OA
HETATM   24  N2  UNL     1      25.808   8.443  19.852  1.00  0.00    -0.351 N 
ATOM     25  H2  UNL     1      26.183   7.800  19.155  1.00  0.00     0.163 HD
BRANCH  24  26
HETATM   26  C16 UNL     1      26.378   8.444  21.170  1.00  0.00     0.022 C 
HETATM   27  C17 UNL     1      26.841   9.845  21.540  1.00  0.00     0.037 C 
HETATM   28  C18 UNL     1      27.637   7.579  21.152  1.00  0.00     0.037 C 
HETATM   29  C19 UNL     1      25.438   7.910  22.219  1.00  0.00     0.037 C 
ENDBRANCH  24  26
ENDBRANCH  17  22
ENDBRANCH  15  17
ENDBRANCH  10  13
BRANCH  12  30
HETATM   30  C22 UNL     1      17.961  12.386  17.821  1.00  0.00    -0.021 C 
HETATM   31  C23 UNL     1      17.917  10.926  18.185  1.00  0.00     0.019 C 
HETATM   32  C24 UNL     1      17.626  13.185  19.069  1.00  0.00     0.019 C 
HETATM   33  C25 UNL     1      16.849  12.610  16.817  1.00  0.00     0.019 C 
ENDBRANCH  12  30
ENDBRANCH   5   6
ENDBRANCH   4   5
ENDBRANCH   3   4
TORSDOF 10
ENDMDL
MODEL 5
REMARK VINA RESULT: -6.509256463      2.307      3.520
REMARK  10 active torsions:
REMARK  status: ('A' for Active; 'I' for Inactive)
REMARK    1  A    between atoms: C3_3  and  C4_4 
REMARK    2  A    between atoms: C4_4  and  O1_5 
REMARK    3  A    between atoms: O1_5  and  C5_6 
REMARK    4  A    between atoms: C8_10  and  C9_11 
REMARK       I    between atoms: C9_11  and  N1_13 
REMARK    5  A    between atoms: N1_13  and  C10_15 
REMARK    6  A    between atoms: C10_15  and  C11_16 
REMARK    7  A    between atoms: C10_15  and  C15_20 
REMARK    8  A    between atoms: C11_16  and  C12_17 
REMARK       I    between atoms: C15_20  and  N2_22 
REMARK    9  A    between atoms: N2_22  and  C16_24 
REMARK   10  A    between atoms: C21_29  and  C22_30 
ROOT
HETATM    1  C1  UNL     1      14.481  17.243  17.769  1.00  0.00     0.112 C 
HETATM    2  C2  UNL     1      15.933  17.080  17.643  1.00  0.00    -0.109 C 
HETATM    3  C3  UNL     1      17.149  16.967  17.548  1.00  0.00    -0.080 C 
ENDROOT
BRANCH   3   4
HETATM    4  C4  UNL     1      18.590  16.862  17.430  1.00  0.00     0.269 C 
BRANCH   4   5
HETATM    5  O1  UNL     1      18.928  15.645  16.845  1.00  0.00    -0.339 OA
BRANCH   5   6
HETATM    6  C5  UNL     1      18.998  15.325  15.524  1.00  0.00     0.080 A 
HETATM    7  C6  UNL     1      19.436  16.160  14.538  1.00  0.00     0.080 A 
HETATM    8  C7  UNL     1      19.482  15.771  13.201  1.00  0.00     0.134 A 
HETATM    9  F1  UNL     1      19.924  16.676  12.271  1.00  0.00    -0.205 F 
HETATM   10  C8  UNL     1      19.084  14.519  12.821  1.00  0.00     0.071 A 
HETATM   11  C20 UNL     1      18.640  13.685  13.854  1.00  0.00     0.030 A 
HETATM   12  C21 UNL     1      18.586  14.044  15.173  1.00  0.00    -0.016 A 
BRANCH  10  13
HETATM   13  C9  UNL     1      19.104  14.031  11.464  1.00  0.00     0.255 C 
HETATM   14  O2  UNL     1      18.118  14.386  10.716  1.00  0.00    -0.268 OA
HETATM   15  N1  UNL     1      20.065  13.221  10.866  1.00  0.00    -0.344 N 
ATOM     16  H1  UNL     1      20.870  12.883  11.392  1.00  0.00     0.163 HD
BRANCH  15  17
HETATM   17  C10 UNL     1      19.878  12.865   9.430  1.00  0.00     0.177 C 
BRANCH  17  18
HETATM   18  C11 UNL     1      19.395  11.427   9.477  1.00  0.00     0.038 C 
BRANCH  18  19
HETATM   19  C12 UNL     1      17.977  11.236   9.063  1.00  0.00    -0.020 C 
HETATM   20  C13 UNL     1      17.044  11.053  10.235  1.00  0.00     0.009 C 
HETATM   21  C14 UNL     1      17.919   9.981   8.215  1.00  0.00     0.009 C 
ENDBRANCH  18  19
ENDBRANCH  17  18
BRANCH  17  22
HETATM   22  C15 UNL     1      21.222  12.948   8.809  1.00  0.00     0.241 C 
HETATM   23  O3  UNL     1      21.286  12.956   7.545  1.00  0.00    -0.271 OA
HETATM   24  N2  UNL     1      22.446  13.015   9.517  1.00  0.00    -0.351 N 
ATOM     25  H2  UNL     1      22.427  13.001  10.537  1.00  0.00     0.163 HD
BRANCH  24  26
HETATM   26  C16 UNL     1      23.714  13.102   8.851  1.00  0.00     0.022 C 
HETATM   27  C17 UNL     1      23.934  11.874   7.980  1.00  0.00     0.037 C 
HETATM   28  C18 UNL     1      24.818  13.068   9.906  1.00  0.00     0.037 C 
HETATM   29  C19 UNL     1      23.865  14.358   8.032  1.00  0.00     0.037 C 
ENDBRANCH  24  26
ENDBRANCH  17  22
ENDBRANCH  15  17
ENDBRANCH  10  13
BRANCH  12  30
HETATM   30  C22 UNL     1      18.094  13.084  16.168  1.00  0.00    -0.021 C 
HETATM   31  C23 UNL     1      17.993  11.721  15.537  1.00  0.00     0.019 C 
HETATM   32  C24 UNL     1      19.013  12.970  17.372  1.00  0.00     0.019 C 
HETATM   33  C25 UNL     1      16.708  13.424  16.675  1.00  0.00     0.019 C 
ENDBRANCH  12  30
ENDBRANCH   5   6
ENDBRANCH   4   5
ENDBRANCH   3   4
TORSDOF 10
ENDMDL
