MODEL 1
REMARK VINA RESULT: -8.600258270      0.000      0.000
REMARK  15 active torsions:
REMARK  status: ('A' for Active; 'I' for Inactive)
REMARK    1  A    between atoms: C2_2  and  O1_5 
REMARK    2  A    between atoms: O1_5  and  N1_6 
REMARK    3  A    between atoms: N1_6  and  C5_8 
REMARK    4  A    between atoms: C5_8  and  C6_9 
REMARK    5  A    between atoms: C5_8  and  N7_37 
REMARK    6  A    between atoms: C6_9  and  C7_10 
REMARK    7  A    between atoms: C7_10  and  C8_11 
REMARK    8  A    between atoms: C8_11  and  C9_12 
REMARK    9  A    between atoms: C9_12  and  N2_13 
REMARK   10  A    between atoms: C16_20  and  N3_21 
REMARK   11  A    between atoms: N7_37  and  C24_39 
REMARK   12  A    between atoms: C24_39  and  C25_40 
REMARK   13  A    between atoms: C25_40  and  C26_41 
REMARK   14  A    between atoms: C26_41  and  C27_42 
REMARK   15  A    between atoms: C27_42  and  N8_43 
ROOT
HETATM    1  N2  UNL     1      13.893 -21.651 -18.603  1.00  0.00    -0.331 N 
HETATM    2  C10 UNL     1      15.325 -21.809 -18.762  1.00  0.00     0.165 C 
HETATM    3  C11 UNL     1      15.504 -23.299 -18.579  1.00  0.00     0.093 C 
HETATM    4  C12 UNL     1      15.430 -23.945 -19.939  1.00  0.00     0.040 C 
HETATM    5  C13 UNL     1      15.433 -25.435 -19.779  1.00  0.00     0.008 C 
HETATM    6  C14 UNL     1      16.535 -25.965 -18.900  1.00  0.00     0.044 C 
HETATM    7  C15 UNL     1      17.312 -24.943 -18.196  1.00  0.00     0.011 A 
HETATM    8  C16 UNL     1      18.545 -25.254 -17.692  1.00  0.00     0.112 A 
HETATM    9  N4  UNL     1      19.248 -24.273 -17.050  1.00  0.00    -0.338 N 
ATOM     10  H4  UNL     1      20.169 -24.499 -16.671  1.00  0.00     0.168 HD
HETATM   11  C21 UNL     1      18.782 -23.034 -16.896  1.00  0.00     0.182 A 
HETATM   12  N5  UNL     1      17.583 -22.723 -17.385  1.00  0.00    -0.353 N 
ATOM     13  H5  UNL     1      17.223 -21.775 -17.272  1.00  0.00     0.166 HD
HETATM   14  C22 UNL     1      16.845 -23.639 -18.025  1.00  0.00     0.050 A 
HETATM   15  N6  UNL     1      14.463 -23.705 -17.684  1.00  0.00    -0.326 N 
ATOM     16  H6  UNL     1      14.464 -24.515 -17.064  1.00  0.00     0.165 HD
HETATM   17  C23 UNL     1      13.418 -22.732 -17.843  1.00  0.00     0.319 C 
HETATM   18  O3  UNL     1      12.243 -22.793 -17.392  1.00  0.00    -0.247 OA
ENDROOT
BRANCH   1  19
HETATM   19  C9  UNL     1      13.136 -20.530 -19.166  1.00  0.00     0.127 C 
BRANCH  19  20
HETATM   20  C8  UNL     1      12.090 -21.119 -20.052  1.00  0.00     0.020 C 
BRANCH  20  21
HETATM   21  C7  UNL     1      11.286 -20.082 -20.748  1.00  0.00     0.009 C 
BRANCH  21  22
HETATM   22  C6  UNL     1       9.845 -20.124 -20.310  1.00  0.00     0.078 C 
BRANCH  22  23
HETATM   23  C5  UNL     1       9.469 -18.828 -19.635  1.00  0.00     0.097 C 
BRANCH  23  24
HETATM   24  N1  UNL     1       9.383 -17.759 -20.334  1.00  0.00    -0.254 N 
ATOM     25  H1  UNL     1       9.866 -16.914 -20.032  1.00  0.00     0.195 HD
BRANCH  24  26
HETATM   26  O1  UNL     1       8.642 -17.749 -21.485  1.00  0.00    -0.269 OA
BRANCH  26  27
HETATM   27  C2  UNL     1       7.621 -16.829 -21.753  1.00  0.00     0.078 C 
HETATM   28  C1  UNL     1       7.465 -16.498 -23.204  1.00  0.00     0.048 C 
HETATM   29  C3  UNL     1       6.306 -17.445 -21.286  1.00  0.00     0.048 C 
HETATM   30  C4  UNL     1       7.901 -15.574 -20.938  1.00  0.00     0.048 C 
ENDBRANCH  26  27
ENDBRANCH  24  26
ENDBRANCH  23  24
BRANCH  23  31
HETATM   31  N7  UNL     1       9.212 -18.776 -18.246  1.00  0.00    -0.378 N 
ATOM     32  H7  UNL     1       8.296 -18.448 -17.939  1.00  0.00     0.160 HD
BRANCH  31  33
HETATM   33  C24 UNL     1      10.173 -19.163 -17.232  1.00  0.00     0.121 C 
BRANCH  33  34
HETATM   34  C25 UNL     1      11.237 -18.113 -17.099  1.00  0.00     0.021 C 
BRANCH  34  35
HETATM   35  C26 UNL     1      12.108 -18.321 -15.905  1.00  0.00     0.032 C 
BRANCH  35  36
HETATM   36  C27 UNL     1      12.258 -19.780 -15.567  1.00  0.00     0.272 C 
BRANCH  36  37
HETATM   37  N8  UNL     1      13.489 -20.074 -14.863  1.00  0.00     0.092 N 
HETATM   38  C28 UNL     1      14.585 -19.710 -15.702  1.00  0.00     0.298 C 
HETATM   39  C29 UNL     1      15.853 -20.460 -15.462  1.00  0.00     0.198 C 
HETATM   40  O4  UNL     1      15.647 -21.801 -15.213  1.00  0.00    -0.388 OA
HETATM   41  C30 UNL     1      14.908 -21.869 -14.022  1.00  0.00     0.198 C 
HETATM   42  C31 UNL     1      13.519 -21.408 -14.349  1.00  0.00     0.298 C 
ENDBRANCH  36  37
ENDBRANCH  35  36
ENDBRANCH  34  35
ENDBRANCH  33  34
ENDBRANCH  31  33
ENDBRANCH  23  31
ENDBRANCH  22  23
ENDBRANCH  21  22
ENDBRANCH  20  21
ENDBRANCH  19  20
ENDBRANCH   1  19
BRANCH   8  43
HETATM   43  N3  UNL     1      19.128 -26.539 -17.787  1.00  0.00    -0.363 N 
HETATM   44  C17 UNL     1      19.858 -27.057 -18.917  1.00  0.00     0.150 C 
HETATM   45  C18 UNL     1      21.086 -27.772 -18.406  1.00  0.00     0.187 C 
HETATM   46  O2  UNL     1      20.772 -28.694 -17.428  1.00  0.00    -0.388 OA
HETATM   47  C19 UNL     1      20.260 -28.091 -16.281  1.00  0.00     0.187 C 
HETATM   48  C20 UNL     1      18.965 -27.411 -16.642  1.00  0.00     0.150 C 
ENDBRANCH   8  43
TORSDOF 15
ENDMDL
MODEL 2
REMARK VINA RESULT: -8.404549725      3.203     11.628
REMARK  15 active torsions:
REMARK  status: ('A' for Active; 'I' for Inactive)
REMARK    1  A    between atoms: C2_2  and  O1_5 
REMARK    2  A    between atoms: O1_5  and  N1_6 
REMARK    3  A    between atoms: N1_6  and  C5_8 
REMARK    4  A    between atoms: C5_8  and  C6_9 
REMARK    5  A    between atoms: C5_8  and  N7_37 
REMARK    6  A    between atoms: C6_9  and  C7_10 
REMARK    7  A    between atoms: C7_10  and  C8_11 
REMARK    8  A    between atoms: C8_11  and  C9_12 
REMARK    9  A    between atoms: C9_12  and  N2_13 
REMARK   10  A    between atoms: C16_20  and  N3_21 
REMARK   11  A    between atoms: N7_37  and  C24_39 
REMARK   12  A    between atoms: C24_39  and  C25_40 
REMARK   13  A    between atoms: C25_40  and  C26_41 
REMARK   14  A    between atoms: C26_41  and  C27_42 
REMARK   15  A    between atoms: C27_42  and  N8_43 
ROOT
HETATM    1  N2  UNL     1      11.614 -18.852 -16.742  1.00  0.00    -0.331 N 
HETATM    2  C10 UNL     1      10.981 -17.647 -17.240  1.00  0.00     0.165 C 
HETATM    3  C11 UNL     1       9.701 -17.603 -16.438  1.00  0.00     0.093 C 
HETATM    4  C12 UNL     1       9.959 -16.780 -15.201  1.00  0.00     0.040 C 
HETATM    5  C13 UNL     1       8.764 -16.857 -14.299  1.00  0.00     0.008 C 
HETATM    6  C14 UNL     1       7.451 -16.564 -14.978  1.00  0.00     0.044 C 
HETATM    7  C15 UNL     1       7.522 -16.433 -16.434  1.00  0.00     0.011 A 
HETATM    8  C16 UNL     1       6.514 -15.803 -17.109  1.00  0.00     0.112 A 
HETATM    9  N4  UNL     1       6.616 -15.689 -18.468  1.00  0.00    -0.338 N 
ATOM     10  H4  UNL     1       5.866 -15.220 -18.977  1.00  0.00     0.168 HD
HETATM   11  C21 UNL     1       7.654 -16.164 -19.155  1.00  0.00     0.182 A 
HETATM   12  N5  UNL     1       8.641 -16.778 -18.505  1.00  0.00    -0.353 N 
ATOM     13  H5  UNL     1       9.438 -17.142 -19.027  1.00  0.00     0.166 HD
HETATM   14  C22 UNL     1       8.600 -16.922 -17.174  1.00  0.00     0.050 A 
HETATM   15  N6  UNL     1       9.369 -18.969 -16.169  1.00  0.00    -0.326 N 
ATOM     16  H6  UNL     1       8.442 -19.353 -15.980  1.00  0.00     0.165 HD
HETATM   17  C23 UNL     1      10.612 -19.687 -16.221  1.00  0.00     0.319 C 
HETATM   18  O3  UNL     1      10.823 -20.877 -15.866  1.00  0.00    -0.247 OA
ENDROOT
BRANCH   1  19
HETATM   19  C9  UNL     1      13.059 -19.091 -16.805  1.00  0.00     0.127 C 
BRANCH  19  20
HETATM   20  C8  UNL     1      13.461 -19.638 -15.476  1.00  0.00     0.020 C 
BRANCH  20  21
HETATM   21  C7  UNL     1      14.566 -20.626 -15.580  1.00  0.00     0.009 C 
BRANCH  21  22
HETATM   22  C6  UNL     1      15.221 -20.573 -16.936  1.00  0.00     0.078 C 
BRANCH  22  23
HETATM   23  C5  UNL     1      15.254 -21.950 -17.551  1.00  0.00     0.097 C 
BRANCH  23  24
HETATM   24  N1  UNL     1      16.250 -22.287 -18.280  1.00  0.00    -0.254 N 
ATOM     25  H1  UNL     1      17.167 -21.873 -18.112  1.00  0.00     0.195 HD
BRANCH  24  26
HETATM   26  O1  UNL     1      16.088 -23.201 -19.286  1.00  0.00    -0.269 OA
BRANCH  26  27
HETATM   27  C2  UNL     1      16.840 -24.376 -19.408  1.00  0.00     0.078 C 
HETATM   28  C1  UNL     1      18.032 -24.431 -18.503  1.00  0.00     0.048 C 
HETATM   29  C3  UNL     1      15.937 -25.548 -19.037  1.00  0.00     0.048 C 
HETATM   30  C4  UNL     1      17.259 -24.510 -20.865  1.00  0.00     0.048 C 
ENDBRANCH  26  27
ENDBRANCH  24  26
ENDBRANCH  23  24
BRANCH  23  31
HETATM   31  N7  UNL     1      14.205 -22.872 -17.333  1.00  0.00    -0.378 N 
ATOM     32  H7  UNL     1      14.400 -23.698 -16.766  1.00  0.00     0.160 HD
BRANCH  31  33
HETATM   33  C24 UNL     1      12.867 -22.714 -17.870  1.00  0.00     0.121 C 
BRANCH  33  34
HETATM   34  C25 UNL     1      12.912 -21.935 -19.152  1.00  0.00     0.021 C 
BRANCH  34  35
HETATM   35  C26 UNL     1      11.557 -21.534 -19.631  1.00  0.00     0.032 C 
BRANCH  35  36
HETATM   36  C27 UNL     1      11.567 -20.172 -20.272  1.00  0.00     0.272 C 
BRANCH  36  37
HETATM   37  N8  UNL     1      10.283 -19.507 -20.208  1.00  0.00     0.092 N 
HETATM   38  C28 UNL     1       9.361 -20.372 -19.545  1.00  0.00     0.298 C 
HETATM   39  C29 UNL     1       7.925 -20.177 -19.905  1.00  0.00     0.198 C 
HETATM   40  O4  UNL     1       7.735 -19.938 -21.252  1.00  0.00    -0.388 OA
HETATM   41  C30 UNL     1       8.389 -18.728 -21.530  1.00  0.00     0.198 C 
HETATM   42  C31 UNL     1       9.860 -19.011 -21.481  1.00  0.00     0.298 C 
ENDBRANCH  36  37
ENDBRANCH  35  36
ENDBRANCH  34  35
ENDBRANCH  33  34
ENDBRANCH  31  33
ENDBRANCH  23  31
ENDBRANCH  22  23
ENDBRANCH  21  22
ENDBRANCH  20  21
ENDBRANCH  19  20
ENDBRANCH   1  19
BRANCH   8  43
HETATM   43  N3  UNL     1       5.361 -15.274 -16.481  1.00  0.00    -0.363 N 
HETATM   44  C17 UNL     1       5.200 -13.921 -16.008  1.00  0.00     0.150 C 
HETATM   45  C18 UNL     1       3.828 -13.436 -16.408  1.00  0.00     0.187 C 
HETATM   46  O2  UNL     1       2.840 -14.321 -16.026  1.00  0.00    -0.388 OA
HETATM   47  C19 UNL     1       2.944 -15.545 -16.686  1.00  0.00     0.187 C 
HETATM   48  C20 UNL     1       4.250 -16.184 -16.292  1.00  0.00     0.150 C 
ENDBRANCH   8  43
TORSDOF 15
ENDMDL
MODEL 3
REMARK VINA RESULT: -8.359367554      1.849      4.530
REMARK  15 active torsions:
REMARK  status: ('A' for Active; 'I' for Inactive)
REMARK    1  A    between atoms: C2_2  and  O1_5 
REMARK    2  A    between atoms: O1_5  and  N1_6 
REMARK    3  A    between atoms: N1_6  and  C5_8 
REMARK    4  A    between atoms: C5_8  and  C6_9 
REMARK    5  A    between atoms: C5_8  and  N7_37 
REMARK    6  A    between atoms: C6_9  and  C7_10 
REMARK    7  A    between atoms: C7_10  and  C8_11 
REMARK    8  A    between atoms: C8_11  and  C9_12 
REMARK    9  A    between atoms: C9_12  and  N2_13 
REMARK   10  A    between atoms: C16_20  and  N3_21 
REMARK   11  A    between atoms: N7_37  and  C24_39 
REMARK   12  A    between atoms: C24_39  and  C25_40 
REMARK   13  A    between atoms: C25_40  and  C26_41 
REMARK   14  A    between atoms: C26_41  and  C27_42 
REMARK   15  A    between atoms: C27_42  and  N8_43 
ROOT
HETATM    1  N2  UNL     1      13.943 -21.573 -18.536  1.00  0.00    -0.331 N 
HETATM    2  C10 UNL     1      15.381 -21.735 -18.629  1.00  0.00     0.165 C 
HETATM    3  C11 UNL     1      15.539 -23.236 -18.555  1.00  0.00     0.093 C 
HETATM    4  C12 UNL     1      15.536 -23.772 -19.964  1.00  0.00     0.040 C 
HETATM    5  C13 UNL     1      15.519 -25.270 -19.923  1.00  0.00     0.008 C 
HETATM    6  C14 UNL     1      16.567 -25.880 -19.029  1.00  0.00     0.044 C 
HETATM    7  C15 UNL     1      17.310 -24.926 -18.205  1.00  0.00     0.011 A 
HETATM    8  C16 UNL     1      18.511 -25.290 -17.660  1.00  0.00     0.112 A 
HETATM    9  N4  UNL     1      19.185 -24.371 -16.904  1.00  0.00    -0.338 N 
ATOM     10  H4  UNL     1      20.081 -24.637 -16.495  1.00  0.00     0.168 HD
HETATM   11  C21 UNL     1      18.720 -23.142 -16.679  1.00  0.00     0.182 A 
HETATM   12  N5  UNL     1      17.552 -22.780 -17.207  1.00  0.00    -0.353 N 
ATOM     13  H5  UNL     1      17.193 -21.840 -17.039  1.00  0.00     0.166 HD
HETATM   14  C22 UNL     1      16.844 -23.634 -17.957  1.00  0.00     0.050 A 
HETATM   15  N6  UNL     1      14.446 -23.699 -17.754  1.00  0.00    -0.326 N 
ATOM     16  H6  UNL     1      14.407 -24.555 -17.200  1.00  0.00     0.165 HD
HETATM   17  C23 UNL     1      13.418 -22.705 -17.892  1.00  0.00     0.319 C 
HETATM   18  O3  UNL     1      12.220 -22.787 -17.512  1.00  0.00    -0.247 OA
ENDROOT
BRANCH   1  19
HETATM   19  C9  UNL     1      13.227 -20.402 -19.049  1.00  0.00     0.127 C 
BRANCH  19  20
HETATM   20  C8  UNL     1      13.591 -19.256 -18.167  1.00  0.00     0.020 C 
BRANCH  20  21
HETATM   21  C7  UNL     1      12.401 -18.502 -17.694  1.00  0.00     0.009 C 
BRANCH  21  22
HETATM   22  C6  UNL     1      11.492 -19.378 -16.872  1.00  0.00     0.078 C 
BRANCH  22  23
HETATM   23  C5  UNL     1      10.057 -18.942 -17.042  1.00  0.00     0.097 C 
BRANCH  23  24
HETATM   24  N1  UNL     1       9.475 -19.130 -18.165  1.00  0.00    -0.254 N 
ATOM     25  H1  UNL     1       8.822 -18.432 -18.523  1.00  0.00     0.195 HD
BRANCH  24  26
HETATM   26  O1  UNL     1       9.724 -20.266 -18.888  1.00  0.00    -0.269 OA
BRANCH  26  27
HETATM   27  C2  UNL     1       9.501 -20.384 -20.266  1.00  0.00     0.078 C 
HETATM   28  C1  UNL     1       8.055 -20.348 -20.653  1.00  0.00     0.048 C 
HETATM   29  C3  UNL     1      10.181 -19.202 -20.950  1.00  0.00     0.048 C 
HETATM   30  C4  UNL     1      10.155 -21.676 -20.733  1.00  0.00     0.048 C 
ENDBRANCH  26  27
ENDBRANCH  24  26
ENDBRANCH  23  24
BRANCH  23  31
HETATM   31  N7  UNL     1       9.349 -18.332 -15.981  1.00  0.00    -0.378 N 
ATOM     32  H7  UNL     1       8.445 -18.726 -15.718  1.00  0.00     0.160 HD
BRANCH  31  33
HETATM   33  C24 UNL     1       9.832 -17.180 -15.245  1.00  0.00     0.121 C 
BRANCH  33  34
HETATM   34  C25 UNL     1       8.677 -16.350 -14.767  1.00  0.00     0.021 C 
BRANCH  34  35
HETATM   35  C26 UNL     1       8.459 -15.131 -15.599  1.00  0.00     0.032 C 
BRANCH  35  36
HETATM   36  C27 UNL     1       7.108 -15.138 -16.263  1.00  0.00     0.272 C 
BRANCH  36  37
HETATM   37  N8  UNL     1       7.035 -16.047 -17.387  1.00  0.00     0.092 N 
HETATM   38  C28 UNL     1       8.080 -15.716 -18.302  1.00  0.00     0.298 C 
HETATM   39  C29 UNL     1       7.824 -16.078 -19.728  1.00  0.00     0.198 C 
HETATM   40  O4  UNL     1       6.522 -15.838 -20.118  1.00  0.00    -0.388 OA
HETATM   41  C30 UNL     1       5.717 -16.682 -19.338  1.00  0.00     0.198 C 
HETATM   42  C31 UNL     1       5.721 -16.118 -17.948  1.00  0.00     0.298 C 
ENDBRANCH  36  37
ENDBRANCH  35  36
ENDBRANCH  34  35
ENDBRANCH  33  34
ENDBRANCH  31  33
ENDBRANCH  23  31
ENDBRANCH  22  23
ENDBRANCH  21  22
ENDBRANCH  20  21
ENDBRANCH  19  20
ENDBRANCH   1  19
BRANCH   8  43
HETATM   43  N3  UNL     1      19.089 -26.571 -17.824  1.00  0.00    -0.363 N 
HETATM   44  C17 UNL     1      19.853 -27.016 -18.964  1.00  0.00     0.150 C 
HETATM   45  C18 UNL     1      21.059 -27.774 -18.464  1.00  0.00     0.187 C 
HETATM   46  O2  UNL     1      20.708 -28.758 -17.562  1.00  0.00    -0.388 OA
HETATM   47  C19 UNL     1      20.161 -28.232 -16.393  1.00  0.00     0.187 C 
HETATM   48  C20 UNL     1      18.883 -27.518 -16.748  1.00  0.00     0.150 C 
ENDBRANCH   8  43
TORSDOF 15
ENDMDL
MODEL 4
REMARK VINA RESULT: -8.358887511      3.373      5.939
REMARK  15 active torsions:
REMARK  status: ('A' for Active; 'I' for Inactive)
REMARK    1  A    between atoms: C2_2  and  O1_5 
REMARK    2  A    between atoms: O1_5  and  N1_6 
REMARK    3  A    between atoms: N1_6  and  C5_8 
REMARK    4  A    between atoms: C5_8  and  C6_9 
REMARK    5  A    between atoms: C5_8  and  N7_37 
REMARK    6  A    between atoms: C6_9  and  C7_10 
REMARK    7  A    between atoms: C7_10  and  C8_11 
REMARK    8  A    between atoms: C8_11  and  C9_12 
REMARK    9  A    between atoms: C9_12  and  N2_13 
REMARK   10  A    between atoms: C16_20  and  N3_21 
REMARK   11  A    between atoms: N7_37  and  C24_39 
REMARK   12  A    between atoms: C24_39  and  C25_40 
REMARK   13  A    between atoms: C25_40  and  C26_41 
REMARK   14  A    between atoms: C26_41  and  C27_42 
REMARK   15  A    between atoms: C27_42  and  N8_43 
ROOT
HETATM    1  N2  UNL     1      13.244 -21.138 -17.678  1.00  0.00    -0.331 N 
HETATM    2  C10 UNL     1      13.972 -22.250 -17.099  1.00  0.00     0.165 C 
HETATM    3  C11 UNL     1      15.116 -21.554 -16.399  1.00  0.00     0.093 C 
HETATM    4  C12 UNL     1      14.692 -21.284 -14.977  1.00  0.00     0.040 C 
HETATM    5  C13 UNL     1      15.734 -20.444 -14.302  1.00  0.00     0.008 C 
HETATM    6  C14 UNL     1      17.141 -20.965 -14.442  1.00  0.00     0.044 C 
HETATM    7  C15 UNL     1      17.294 -22.095 -15.360  1.00  0.00     0.011 A 
HETATM    8  C16 UNL     1      18.407 -22.886 -15.283  1.00  0.00     0.112 A 
HETATM    9  N4  UNL     1      18.515 -23.939 -16.148  1.00  0.00    -0.338 N 
ATOM     10  H4  UNL     1      19.343 -24.533 -16.095  1.00  0.00     0.168 HD
HETATM   11  C21 UNL     1      17.582 -24.224 -17.057  1.00  0.00     0.182 A 
HETATM   12  N5  UNL     1      16.495 -23.459 -17.137  1.00  0.00    -0.353 N 
ATOM     13  H5  UNL     1      15.778 -23.673 -17.831  1.00  0.00     0.166 HD
HETATM   14  C22 UNL     1      16.331 -22.412 -16.319  1.00  0.00     0.050 A 
HETATM   15  N6  UNL     1      15.374 -20.372 -17.164  1.00  0.00    -0.326 N 
ATOM     16  H6  UNL     1      16.252 -19.856 -17.225  1.00  0.00     0.165 HD
HETATM   17  C23 UNL     1      14.137 -20.064 -17.827  1.00  0.00     0.319 C 
HETATM   18  O3  UNL     1      13.849 -19.011 -18.455  1.00  0.00    -0.247 OA
ENDROOT
BRANCH   1  19
HETATM   19  C9  UNL     1      11.821 -21.195 -18.022  1.00  0.00     0.127 C 
BRANCH  19  20
HETATM   20  C8  UNL     1      11.067 -21.192 -16.735  1.00  0.00     0.020 C 
BRANCH  20  21
HETATM   21  C7  UNL     1      11.065 -19.858 -16.082  1.00  0.00     0.009 C 
BRANCH  21  22
HETATM   22  C6  UNL     1       9.753 -19.148 -16.295  1.00  0.00     0.078 C 
BRANCH  22  23
HETATM   23  C5  UNL     1       9.985 -17.824 -16.982  1.00  0.00     0.097 C 
BRANCH  23  24
HETATM   24  N1  UNL     1      10.244 -17.805 -18.235  1.00  0.00    -0.254 N 
ATOM     25  H1  UNL     1      11.193 -17.615 -18.555  1.00  0.00     0.195 HD
BRANCH  24  26
HETATM   26  O1  UNL     1       9.249 -18.039 -19.146  1.00  0.00    -0.269 OA
BRANCH  26  27
HETATM   27  C2  UNL     1       9.409 -18.816 -20.300  1.00  0.00     0.078 C 
HETATM   28  C1  UNL     1      10.835 -18.991 -20.723  1.00  0.00     0.048 C 
HETATM   29  C3  UNL     1       8.852 -20.206 -20.007  1.00  0.00     0.048 C 
HETATM   30  C4  UNL     1       8.590 -18.174 -21.410  1.00  0.00     0.048 C 
ENDBRANCH  26  27
ENDBRANCH  24  26
ENDBRANCH  23  24
BRANCH  23  31
HETATM   31  N7  UNL     1       9.920 -16.608 -16.264  1.00  0.00    -0.378 N 
ATOM     32  H7  UNL     1       9.846 -15.740 -16.796  1.00  0.00     0.160 HD
BRANCH  31  33
HETATM   33  C24 UNL     1       9.951 -16.522 -14.817  1.00  0.00     0.121 C 
BRANCH  33  34
HETATM   34  C25 UNL     1       9.059 -15.411 -14.345  1.00  0.00     0.021 C 
BRANCH  34  35
HETATM   35  C26 UNL     1       7.619 -15.660 -14.647  1.00  0.00     0.032 C 
BRANCH  35  36
HETATM   36  C27 UNL     1       7.066 -14.650 -15.617  1.00  0.00     0.272 C 
BRANCH  36  37
HETATM   37  N8  UNL     1       5.896 -15.127 -16.323  1.00  0.00     0.092 N 
HETATM   38  C28 UNL     1       4.779 -15.070 -15.435  1.00  0.00     0.298 C 
HETATM   39  C29 UNL     1       3.681 -16.039 -15.722  1.00  0.00     0.198 C 
HETATM   40  O4  UNL     1       4.145 -17.283 -16.099  1.00  0.00    -0.388 OA
HETATM   41  C30 UNL     1       4.840 -17.093 -17.304  1.00  0.00     0.198 C 
HETATM   42  C31 UNL     1       6.117 -16.389 -16.959  1.00  0.00     0.298 C 
ENDBRANCH  36  37
ENDBRANCH  35  36
ENDBRANCH  34  35
ENDBRANCH  33  34
ENDBRANCH  31  33
ENDBRANCH  23  31
ENDBRANCH  22  23
ENDBRANCH  21  22
ENDBRANCH  20  21
ENDBRANCH  19  20
ENDBRANCH   1  19
BRANCH   8  43
HETATM   43  N3  UNL     1      19.462 -22.666 -14.366  1.00  0.00    -0.363 N 
HETATM   44  C17 UNL     1      20.363 -21.539 -14.365  1.00  0.00     0.150 C 
HETATM   45  C18 UNL     1      20.531 -21.063 -12.943  1.00  0.00     0.187 C 
HETATM   46  O2  UNL     1      20.870 -22.096 -12.093  1.00  0.00    -0.388 OA
HETATM   47  C19 UNL     1      19.857 -23.047 -11.987  1.00  0.00     0.187 C 
HETATM   48  C20 UNL     1      19.652 -23.673 -13.343  1.00  0.00     0.150 C 
ENDBRANCH   8  43
TORSDOF 15
ENDMDL
MODEL 5
REMARK VINA RESULT: -8.338423062      1.280      1.883
REMARK  15 active torsions:
REMARK  status: ('A' for Active; 'I' for Inactive)
REMARK    1  A    between atoms: C2_2  and  O1_5 
REMARK    2  A    between atoms: O1_5  and  N1_6 
REMARK    3  A    between atoms: N1_6  and  C5_8 
REMARK    4  A    between atoms: C5_8  and  C6_9 
REMARK    5  A    between atoms: C5_8  and  N7_37 
REMARK    6  A    between atoms: C6_9  and  C7_10 
REMARK    7  A    between atoms: C7_10  and  C8_11 
REMARK    8  A    between atoms: C8_11  and  C9_12 
REMARK    9  A    between atoms: C9_12  and  N2_13 
REMARK   10  A    between atoms: C16_20  and  N3_21 
REMARK   11  A    between atoms: N7_37  and  C24_39 
REMARK   12  A    between atoms: C24_39  and  C25_40 
REMARK   13  A    between atoms: C25_40  and  C26_41 
REMARK   14  A    between atoms: C26_41  and  C27_42 
REMARK   15  A    between atoms: C27_42  and  N8_43 
ROOT
HETATM    1  N2  UNL     1      13.845 -21.991 -18.989  1.00  0.00    -0.331 N 
HETATM    2  C10 UNL     1      15.282 -22.121 -19.128  1.00  0.00     0.165 C 
HETATM    3  C11 UNL     1      15.520 -23.545 -18.680  1.00  0.00     0.093 C 
HETATM    4  C12 UNL     1      15.471 -24.428 -19.901  1.00  0.00     0.040 C 
HETATM    5  C13 UNL     1      15.532 -25.864 -19.474  1.00  0.00     0.008 C 
HETATM    6  C14 UNL     1      16.654 -26.183 -18.521  1.00  0.00     0.044 C 
HETATM    7  C15 UNL     1      17.391 -25.022 -18.020  1.00  0.00     0.011 A 
HETATM    8  C16 UNL     1      18.635 -25.189 -17.478  1.00  0.00     0.112 A 
HETATM    9  N4  UNL     1      19.300 -24.082 -17.028  1.00  0.00    -0.338 N 
ATOM     10  H4  UNL     1      20.228 -24.201 -16.622  1.00  0.00     0.168 HD
HETATM   11  C21 UNL     1      18.786 -22.854 -17.097  1.00  0.00     0.182 A 
HETATM   12  N5  UNL     1      17.575 -22.683 -17.626  1.00  0.00    -0.353 N 
ATOM     13  H5  UNL     1      17.178 -21.745 -17.682  1.00  0.00     0.166 HD
HETATM   14  C22 UNL     1      16.873 -23.727 -18.084  1.00  0.00     0.050 A 
HETATM   15  N6  UNL     1      14.496 -23.822 -17.719  1.00  0.00    -0.326 N 
ATOM     16  H6  UNL     1      14.528 -24.506 -16.963  1.00  0.00     0.165 HD
HETATM   17  C23 UNL     1      13.413 -22.935 -18.043  1.00  0.00     0.319 C 
HETATM   18  O3  UNL     1      12.242 -22.958 -17.579  1.00  0.00    -0.247 OA
ENDROOT
BRANCH   1  19
HETATM   19  C9  UNL     1      13.045 -21.020 -19.740  1.00  0.00     0.127 C 
BRANCH  19  20
HETATM   20  C8  UNL     1      12.831 -19.852 -18.837  1.00  0.00     0.020 C 
BRANCH  20  21
HETATM   21  C7  UNL     1      11.501 -19.220 -19.032  1.00  0.00     0.009 C 
BRANCH  21  22
HETATM   22  C6  UNL     1      10.426 -19.968 -18.287  1.00  0.00     0.078 C 
BRANCH  22  23
HETATM   23  C5  UNL     1       9.344 -19.015 -17.841  1.00  0.00     0.097 C 
BRANCH  23  24
HETATM   24  N1  UNL     1       8.339 -18.808 -18.604  1.00  0.00    -0.254 N 
ATOM     25  H1  UNL     1       7.870 -17.902 -18.593  1.00  0.00     0.195 HD
BRANCH  24  26
HETATM   26  O1  UNL     1       7.890 -19.799 -19.435  1.00  0.00    -0.269 OA
BRANCH  26  27
HETATM   27  C2  UNL     1       7.887 -19.710 -20.833  1.00  0.00     0.078 C 
HETATM   28  C1  UNL     1       8.692 -18.569 -21.371  1.00  0.00     0.048 C 
HETATM   29  C3  UNL     1       8.500 -20.994 -21.382  1.00  0.00     0.048 C 
HETATM   30  C4  UNL     1       6.438 -19.614 -21.289  1.00  0.00     0.048 C 
ENDBRANCH  26  27
ENDBRANCH  24  26
ENDBRANCH  23  24
BRANCH  23  31
HETATM   31  N7  UNL     1       9.424 -18.351 -16.596  1.00  0.00    -0.378 N 
ATOM     32  H7  UNL     1       8.795 -18.650 -15.850  1.00  0.00     0.160 HD
BRANCH  31  33
HETATM   33  C24 UNL     1      10.348 -17.269 -16.316  1.00  0.00     0.121 C 
BRANCH  33  34
HETATM   34  C25 UNL     1      11.229 -17.628 -15.155  1.00  0.00     0.021 C 
BRANCH  34  35
HETATM   35  C26 UNL     1      12.431 -18.413 -15.564  1.00  0.00     0.032 C 
BRANCH  35  36
HETATM   36  C27 UNL     1      12.302 -19.868 -15.203  1.00  0.00     0.272 C 
BRANCH  36  37
HETATM   37  N8  UNL     1      13.559 -20.582 -15.272  1.00  0.00     0.092 N 
HETATM   38  C28 UNL     1      13.767 -21.248 -14.026  1.00  0.00     0.298 C 
HETATM   39  C29 UNL     1      15.193 -21.503 -13.664  1.00  0.00     0.198 C 
HETATM   40  O4  UNL     1      16.025 -20.448 -13.981  1.00  0.00    -0.388 OA
HETATM   41  C30 UNL     1      15.981 -20.321 -15.378  1.00  0.00     0.198 C 
HETATM   42  C31 UNL     1      14.635 -19.752 -15.716  1.00  0.00     0.298 C 
ENDBRANCH  36  37
ENDBRANCH  35  36
ENDBRANCH  34  35
ENDBRANCH  33  34
ENDBRANCH  31  33
ENDBRANCH  23  31
ENDBRANCH  22  23
ENDBRANCH  21  22
ENDBRANCH  20  21
ENDBRANCH  19  20
ENDBRANCH   1  19
BRANCH   8  43
HETATM   43  N3  UNL     1      19.267 -26.447 -17.342  1.00  0.00    -0.363 N 
HETATM   44  C17 UNL     1      19.269 -27.272 -16.159  1.00  0.00     0.150 C 
HETATM   45  C18 UNL     1      19.021 -28.702 -16.572  1.00  0.00     0.187 C 
HETATM   46  O2  UNL     1      19.878 -29.102 -17.577  1.00  0.00    -0.388 OA
HETATM   47  C19 UNL     1      19.672 -28.393 -18.760  1.00  0.00     0.187 C 
HETATM   48  C20 UNL     1      19.982 -26.942 -18.501  1.00  0.00     0.150 C 
ENDBRANCH   8  43
TORSDOF 15
ENDMDL
