MODEL 1
REMARK VINA RESULT: -9.921646745      0.000      0.000
REMARK  12 active torsions:
REMARK  status: ('A' for Active; 'I' for Inactive)
REMARK    1  A    between atoms: C2_2  and  C3_3 
REMARK    2  A    between atoms: C2_2  and  C12_14 
REMARK    3  A    between atoms: C3_3  and  C4_4 
REMARK    4  A    between atoms: C4_4  and  C5_5 
REMARK    5  A    between atoms: C5_5  and  N1_6 
REMARK       I    between atoms: C12_14  and  N3_16 
REMARK    6  A    between atoms: C14_23  and  C15_24 
REMARK    7  A    between atoms: C15_24  and  C16_25 
REMARK    8  A    between atoms: C16_25  and  S1_26 
REMARK    9  A    between atoms: S1_26  and  C17_27 
REMARK   10  A    between atoms: C17_27  and  C18_28 
REMARK   11  A    between atoms: C18_28  and  C19_29 
REMARK       I    between atoms: N8_35  and  C21_37 
REMARK   12  A    between atoms: C21_37  and  C22_39 
ROOT
HETATM    1  C12 UNL     1     -12.132  19.267 -19.018  1.00  0.00     0.227 C 
HETATM    2  O1  UNL     1     -12.615  18.146 -19.248  1.00  0.00    -0.273 OA
HETATM    3  N3  UNL     1     -12.416  19.877 -17.798  1.00  0.00    -0.306 N 
ATOM      4  H3  UNL     1     -11.652  20.413 -17.386  1.00  0.00     0.171 HD
HETATM    5  C13 UNL     1     -13.508  19.858 -17.121  1.00  0.00     0.167 A 
HETATM    6  N4  UNL     1     -14.680  19.259 -17.374  1.00  0.00    -0.279 N 
ATOM      7  H4  UNL     1     -14.809  18.715 -18.227  1.00  0.00     0.189 HD
HETATM    8  N5  UNL     1     -15.623  19.377 -16.543  1.00  0.00    -0.296 N 
ATOM      9  H5  UNL     1     -16.518  18.925 -16.731  1.00  0.00     0.187 HD
HETATM   10  C14 UNL     1     -15.470  20.075 -15.435  1.00  0.00     0.070 A 
HETATM   11  S3  UNL     1     -13.853  20.606 -15.596  1.00  0.00    -0.038 SA
ENDROOT
BRANCH  10  12
HETATM   12  C15 UNL     1     -16.453  20.350 -14.305  1.00  0.00     0.076 C 
BRANCH  12  13
HETATM   13  C16 UNL     1     -17.213  21.572 -14.750  1.00  0.00     0.080 C 
BRANCH  13  14
HETATM   14  S1  UNL     1     -18.959  21.518 -14.486  1.00  0.00    -0.168 SA
BRANCH  14  15
HETATM   15  C17 UNL     1     -19.741  23.087 -14.313  1.00  0.00     0.080 C 
BRANCH  15  16
HETATM   16  C18 UNL     1     -18.845  24.211 -13.890  1.00  0.00     0.076 C 
BRANCH  16  17
HETATM   17  C19 UNL     1     -18.503  24.997 -15.136  1.00  0.00     0.070 A 
HETATM   18  N6  UNL     1     -18.336  26.303 -15.261  1.00  0.00    -0.296 N 
HETATM   19  N7  UNL     1     -18.050  26.809 -16.387  1.00  0.00    -0.279 N 
ATOM     20  H6  UNL     1     -18.439  26.908 -14.446  1.00  0.00     0.187 HD
HETATM   21  C20 UNL     1     -17.922  25.996 -17.444  1.00  0.00     0.167 A 
ATOM     22  H7  UNL     1     -17.920  27.816 -16.487  1.00  0.00     0.189 HD
HETATM   23  N8  UNL     1     -17.631  26.310 -18.690  1.00  0.00    -0.306 N 
HETATM   24  S2  UNL     1     -18.230  24.467 -16.743  1.00  0.00    -0.038 SA
HETATM   25  C21 UNL     1     -17.568  25.213 -19.579  1.00  0.00     0.227 C 
ATOM     26  H8  UNL     1     -17.466  27.271 -18.990  1.00  0.00     0.171 HD
HETATM   27  O2  UNL     1     -18.516  25.010 -20.365  1.00  0.00    -0.273 OA
BRANCH  25  28
HETATM   28  C22 UNL     1     -16.401  24.314 -19.586  1.00  0.00     0.078 C 
HETATM   29  C23 UNL     1     -16.120  23.900 -21.016  1.00  0.00     0.014 C 
HETATM   30  C24 UNL     1     -14.676  23.886 -21.369  1.00  0.00     0.001 C 
HETATM   31  C25 UNL     1     -13.788  23.339 -20.288  1.00  0.00     0.000 C 
HETATM   32  C26 UNL     1     -14.049  23.974 -18.938  1.00  0.00     0.001 C 
HETATM   33  C27 UNL     1     -15.162  24.999 -19.020  1.00  0.00     0.014 C 
ENDBRANCH  25  28
ENDBRANCH  16  17
ENDBRANCH  15  16
ENDBRANCH  14  15
ENDBRANCH  13  14
ENDBRANCH  12  13
ENDBRANCH  10  12
BRANCH   1  34
HETATM   34  C2  UNL     1     -11.267  19.911 -20.052  1.00  0.00     0.074 C 
HETATM   35  C1  UNL     1     -10.812  21.285 -19.458  1.00  0.00     0.020 C 
BRANCH  34  36
HETATM   36  C3  UNL     1     -10.021  19.161 -20.264  1.00  0.00     0.015 C 
BRANCH  36  37
HETATM   37  C4  UNL     1      -9.052  18.979 -19.170  1.00  0.00     0.031 C 
BRANCH  37  38
HETATM   38  C5  UNL     1      -8.709  17.532 -18.895  1.00  0.00     0.272 C 
BRANCH  38  39
HETATM   39  N1  UNL     1      -8.907  17.180 -17.506  1.00  0.00     0.090 N 
HETATM   40  C6  UNL     1      -7.760  16.535 -16.931  1.00  0.00     0.274 C 
HETATM   41  C7  UNL     1      -8.228  15.276 -16.238  1.00  0.00     0.060 C 
HETATM   42  C8  UNL     1      -8.883  15.554 -14.910  1.00  0.00     0.273 C 
HETATM   43  N2  UNL     1      -9.972  16.499 -15.082  1.00  0.00     0.086 N 
HETATM   44  C9  UNL     1     -10.947  16.386 -14.010  1.00  0.00     0.309 C 
HETATM   45  C10 UNL     1      -9.488  17.848 -15.274  1.00  0.00     0.302 C 
HETATM   46  C11 UNL     1      -9.498  18.219 -16.736  1.00  0.00     0.302 C 
ENDBRANCH  38  39
ENDBRANCH  37  38
ENDBRANCH  36  37
ENDBRANCH  34  36
ENDBRANCH   1  34
TORSDOF 12
ENDMDL
MODEL 2
REMARK VINA RESULT: -9.619684654      1.576      2.140
REMARK  12 active torsions:
REMARK  status: ('A' for Active; 'I' for Inactive)
REMARK    1  A    between atoms: C2_2  and  C3_3 
REMARK    2  A    between atoms: C2_2  and  C12_14 
REMARK    3  A    between atoms: C3_3  and  C4_4 
REMARK    4  A    between atoms: C4_4  and  C5_5 
REMARK    5  A    between atoms: C5_5  and  N1_6 
REMARK       I    between atoms: C12_14  and  N3_16 
REMARK    6  A    between atoms: C14_23  and  C15_24 
REMARK    7  A    between atoms: C15_24  and  C16_25 
REMARK    8  A    between atoms: C16_25  and  S1_26 
REMARK    9  A    between atoms: S1_26  and  C17_27 
REMARK   10  A    between atoms: C17_27  and  C18_28 
REMARK   11  A    between atoms: C18_28  and  C19_29 
REMARK       I    between atoms: N8_35  and  C21_37 
REMARK   12  A    between atoms: C21_37  and  C22_39 
ROOT
HETATM    1  C12 UNL     1     -11.840  19.467 -18.935  1.00  0.00     0.227 C 
HETATM    2  O1  UNL     1     -12.289  18.339 -19.200  1.00  0.00    -0.273 OA
HETATM    3  N3  UNL     1     -12.158  20.038 -17.705  1.00  0.00    -0.306 N 
ATOM      4  H3  UNL     1     -11.414  20.584 -17.269  1.00  0.00     0.171 HD
HETATM    5  C13 UNL     1     -13.257  19.971 -17.043  1.00  0.00     0.167 A 
HETATM    6  N4  UNL     1     -14.409  19.346 -17.328  1.00  0.00    -0.279 N 
ATOM      7  H4  UNL     1     -14.511  18.821 -18.196  1.00  0.00     0.189 HD
HETATM    8  N5  UNL     1     -15.365  19.417 -16.507  1.00  0.00    -0.296 N 
ATOM      9  H5  UNL     1     -16.244  18.945 -16.719  1.00  0.00     0.187 HD
HETATM   10  C14 UNL     1     -15.247  20.091 -15.380  1.00  0.00     0.070 A 
HETATM   11  S3  UNL     1     -13.644  20.670 -15.505  1.00  0.00    -0.038 SA
ENDROOT
BRANCH  10  12
HETATM   12  C15 UNL     1     -16.252  20.309 -14.257  1.00  0.00     0.076 C 
BRANCH  12  13
HETATM   13  C16 UNL     1     -17.032  21.527 -14.676  1.00  0.00     0.080 C 
BRANCH  13  14
HETATM   14  S1  UNL     1     -18.791  21.356 -14.630  1.00  0.00    -0.168 SA
BRANCH  14  15
HETATM   15  C17 UNL     1     -19.685  22.856 -14.407  1.00  0.00     0.080 C 
BRANCH  15  16
HETATM   16  C18 UNL     1     -18.885  24.015 -13.892  1.00  0.00     0.076 C 
BRANCH  16  17
HETATM   17  C19 UNL     1     -18.550  24.884 -15.083  1.00  0.00     0.070 A 
HETATM   18  N6  UNL     1     -18.353  26.192 -15.113  1.00  0.00    -0.296 N 
HETATM   19  N7  UNL     1     -18.078  26.775 -16.204  1.00  0.00    -0.279 N 
ATOM     20  H6  UNL     1     -18.423  26.735 -14.252  1.00  0.00     0.187 HD
HETATM   21  C20 UNL     1     -17.993  26.042 -17.322  1.00  0.00     0.167 A 
ATOM     22  H7  UNL     1     -17.925  27.784 -16.230  1.00  0.00     0.189 HD
HETATM   23  N8  UNL     1     -17.722  26.443 -18.547  1.00  0.00    -0.306 N 
HETATM   24  S2  UNL     1     -18.325  24.472 -16.732  1.00  0.00    -0.038 SA
HETATM   25  C21 UNL     1     -17.705  25.416 -19.518  1.00  0.00     0.227 C 
ATOM     26  H8  UNL     1     -17.539  27.420 -18.777  1.00  0.00     0.171 HD
HETATM   27  O2  UNL     1     -18.675  25.296 -20.294  1.00  0.00    -0.273 OA
BRANCH  25  28
HETATM   28  C22 UNL     1     -16.562  24.493 -19.619  1.00  0.00     0.078 C 
HETATM   29  C23 UNL     1     -16.420  24.060 -21.065  1.00  0.00     0.014 C 
HETATM   30  C24 UNL     1     -15.014  24.013 -21.546  1.00  0.00     0.001 C 
HETATM   31  C25 UNL     1     -14.043  23.457 -20.543  1.00  0.00     0.000 C 
HETATM   32  C26 UNL     1     -14.169  24.110 -19.182  1.00  0.00     0.001 C 
HETATM   33  C27 UNL     1     -15.263  25.156 -19.175  1.00  0.00     0.014 C 
ENDBRANCH  25  28
ENDBRANCH  16  17
ENDBRANCH  15  16
ENDBRANCH  14  15
ENDBRANCH  13  14
ENDBRANCH  12  13
ENDBRANCH  10  12
BRANCH   1  34
HETATM   34  C2  UNL     1     -10.980  20.160 -19.940  1.00  0.00     0.074 C 
HETATM   35  C1  UNL     1     -11.130  21.694 -19.671  1.00  0.00     0.020 C 
BRANCH  34  36
HETATM   36  C3  UNL     1      -9.554  19.877 -19.725  1.00  0.00     0.015 C 
BRANCH  36  37
HETATM   37  C4  UNL     1      -8.515  20.647 -20.431  1.00  0.00     0.031 C 
BRANCH  37  38
HETATM   38  C5  UNL     1      -7.108  20.178 -20.141  1.00  0.00     0.272 C 
BRANCH  38  39
HETATM   39  N1  UNL     1      -7.059  18.769 -19.814  1.00  0.00     0.090 N 
HETATM   40  C6  UNL     1      -6.805  17.945 -20.960  1.00  0.00     0.274 C 
HETATM   41  C7  UNL     1      -7.835  16.839 -20.983  1.00  0.00     0.060 C 
HETATM   42  C8  UNL     1      -7.538  15.748 -19.987  1.00  0.00     0.273 C 
HETATM   43  N2  UNL     1      -7.398  16.315 -18.658  1.00  0.00     0.086 N 
HETATM   44  C9  UNL     1      -7.658  15.323 -17.627  1.00  0.00     0.309 C 
HETATM   45  C10 UNL     1      -6.131  16.992 -18.492  1.00  0.00     0.302 C 
HETATM   46  C11 UNL     1      -6.295  18.483 -18.649  1.00  0.00     0.302 C 
ENDBRANCH  38  39
ENDBRANCH  37  38
ENDBRANCH  36  37
ENDBRANCH  34  36
ENDBRANCH   1  34
TORSDOF 12
ENDMDL
MODEL 3
REMARK VINA RESULT: -9.618504161      1.736      2.275
REMARK  12 active torsions:
REMARK  status: ('A' for Active; 'I' for Inactive)
REMARK    1  A    between atoms: C2_2  and  C3_3 
REMARK    2  A    between atoms: C2_2  and  C12_14 
REMARK    3  A    between atoms: C3_3  and  C4_4 
REMARK    4  A    between atoms: C4_4  and  C5_5 
REMARK    5  A    between atoms: C5_5  and  N1_6 
REMARK       I    between atoms: C12_14  and  N3_16 
REMARK    6  A    between atoms: C14_23  and  C15_24 
REMARK    7  A    between atoms: C15_24  and  C16_25 
REMARK    8  A    between atoms: C16_25  and  S1_26 
REMARK    9  A    between atoms: S1_26  and  C17_27 
REMARK   10  A    between atoms: C17_27  and  C18_28 
REMARK   11  A    between atoms: C18_28  and  C19_29 
REMARK       I    between atoms: N8_35  and  C21_37 
REMARK   12  A    between atoms: C21_37  and  C22_39 
ROOT
HETATM    1  C12 UNL     1     -12.081  19.407 -19.088  1.00  0.00     0.227 C 
HETATM    2  O1  UNL     1     -12.443  18.226 -19.214  1.00  0.00    -0.273 OA
HETATM    3  N3  UNL     1     -12.386  20.075 -17.904  1.00  0.00    -0.306 N 
ATOM      4  H3  UNL     1     -11.672  20.722 -17.568  1.00  0.00     0.171 HD
HETATM    5  C13 UNL     1     -13.442  19.989 -17.178  1.00  0.00     0.167 A 
HETATM    6  N4  UNL     1     -14.548  19.247 -17.333  1.00  0.00    -0.279 N 
ATOM      7  H4  UNL     1     -14.646  18.628 -18.137  1.00  0.00     0.189 HD
HETATM    8  N5  UNL     1     -15.466  19.325 -16.469  1.00  0.00    -0.296 N 
ATOM      9  H5  UNL     1     -16.310  18.765 -16.583  1.00  0.00     0.187 HD
HETATM   10  C14 UNL     1     -15.351  20.120 -15.424  1.00  0.00     0.070 A 
HETATM   11  S3  UNL     1     -13.812  20.811 -15.697  1.00  0.00    -0.038 SA
ENDROOT
BRANCH  10  12
HETATM   12  C15 UNL     1     -16.316  20.372 -14.272  1.00  0.00     0.076 C 
BRANCH  12  13
HETATM   13  C16 UNL     1     -17.075  21.607 -14.676  1.00  0.00     0.080 C 
BRANCH  13  14
HETATM   14  S1  UNL     1     -18.836  21.469 -14.617  1.00  0.00    -0.168 SA
BRANCH  14  15
HETATM   15  C17 UNL     1     -19.708  22.999 -14.556  1.00  0.00     0.080 C 
BRANCH  15  16
HETATM   16  C18 UNL     1     -18.907  24.180 -14.096  1.00  0.00     0.076 C 
BRANCH  16  17
HETATM   17  C19 UNL     1     -18.507  24.952 -15.332  1.00  0.00     0.070 A 
HETATM   18  N6  UNL     1     -18.309  26.254 -15.456  1.00  0.00    -0.296 N 
HETATM   19  N7  UNL     1     -17.975  26.750 -16.574  1.00  0.00    -0.279 N 
ATOM     20  H6  UNL     1     -18.427  26.865 -14.647  1.00  0.00     0.187 HD
HETATM   21  C20 UNL     1     -17.828  25.929 -17.623  1.00  0.00     0.167 A 
ATOM     22  H7  UNL     1     -17.820  27.753 -16.673  1.00  0.00     0.189 HD
HETATM   23  N8  UNL     1     -17.490  26.232 -18.859  1.00  0.00    -0.306 N 
HETATM   24  S2  UNL     1     -18.191  24.410 -16.927  1.00  0.00    -0.038 SA
HETATM   25  C21 UNL     1     -17.419  25.130 -19.742  1.00  0.00     0.227 C 
ATOM     26  H8  UNL     1     -17.294  27.187 -19.157  1.00  0.00     0.171 HD
HETATM   27  O2  UNL     1     -18.344  24.943 -20.558  1.00  0.00    -0.273 OA
BRANCH  25  28
HETATM   28  C22 UNL     1     -16.272  24.207 -19.706  1.00  0.00     0.078 C 
HETATM   29  C23 UNL     1     -15.876  23.874 -21.131  1.00  0.00     0.014 C 
HETATM   30  C24 UNL     1     -14.407  23.850 -21.360  1.00  0.00     0.001 C 
HETATM   31  C25 UNL     1     -13.626  23.218 -20.244  1.00  0.00     0.000 C 
HETATM   32  C26 UNL     1     -13.991  23.775 -18.884  1.00  0.00     0.001 C 
HETATM   33  C27 UNL     1     -15.074  24.827 -18.996  1.00  0.00     0.014 C 
ENDBRANCH  25  28
ENDBRANCH  16  17
ENDBRANCH  15  16
ENDBRANCH  14  15
ENDBRANCH  13  14
ENDBRANCH  12  13
ENDBRANCH  10  12
BRANCH   1  34
HETATM   34  C2  UNL     1     -11.333  20.059 -20.205  1.00  0.00     0.074 C 
HETATM   35  C1  UNL     1     -10.390  21.121 -19.548  1.00  0.00     0.020 C 
BRANCH  34  36
HETATM   36  C3  UNL     1     -10.429  19.117 -20.879  1.00  0.00     0.015 C 
BRANCH  36  37
HETATM   37  C4  UNL     1      -9.034  18.958 -20.434  1.00  0.00     0.031 C 
BRANCH  37  38
HETATM   38  C5  UNL     1      -8.513  17.544 -20.560  1.00  0.00     0.272 C 
BRANCH  38  39
HETATM   39  N1  UNL     1      -7.435  17.277 -19.632  1.00  0.00     0.090 N 
HETATM   40  C6  UNL     1      -7.198  18.369 -18.731  1.00  0.00     0.274 C 
HETATM   41  C7  UNL     1      -5.718  18.677 -18.745  1.00  0.00     0.060 C 
HETATM   42  C8  UNL     1      -4.913  17.688 -17.943  1.00  0.00     0.273 C 
HETATM   43  N2  UNL     1      -5.177  16.339 -18.409  1.00  0.00     0.086 N 
HETATM   44  C9  UNL     1      -4.082  15.440 -18.084  1.00  0.00     0.309 C 
HETATM   45  C10 UNL     1      -6.464  15.856 -17.957  1.00  0.00     0.302 C 
HETATM   46  C11 UNL     1      -7.497  15.981 -19.048  1.00  0.00     0.302 C 
ENDBRANCH  38  39
ENDBRANCH  37  38
ENDBRANCH  36  37
ENDBRANCH  34  36
ENDBRANCH   1  34
TORSDOF 12
ENDMDL
MODEL 4
REMARK VINA RESULT: -9.585770188      3.224     10.628
REMARK  12 active torsions:
REMARK  status: ('A' for Active; 'I' for Inactive)
REMARK    1  A    between atoms: C2_2  and  C3_3 
REMARK    2  A    between atoms: C2_2  and  C12_14 
REMARK    3  A    between atoms: C3_3  and  C4_4 
REMARK    4  A    between atoms: C4_4  and  C5_5 
REMARK    5  A    between atoms: C5_5  and  N1_6 
REMARK       I    between atoms: C12_14  and  N3_16 
REMARK    6  A    between atoms: C14_23  and  C15_24 
REMARK    7  A    between atoms: C15_24  and  C16_25 
REMARK    8  A    between atoms: C16_25  and  S1_26 
REMARK    9  A    between atoms: S1_26  and  C17_27 
REMARK   10  A    between atoms: C17_27  and  C18_28 
REMARK   11  A    between atoms: C18_28  and  C19_29 
REMARK       I    between atoms: N8_35  and  C21_37 
REMARK   12  A    between atoms: C21_37  and  C22_39 
ROOT
HETATM    1  C12 UNL     1     -14.174  20.050 -17.965  1.00  0.00     0.227 C 
HETATM    2  O1  UNL     1     -14.835  19.009 -18.113  1.00  0.00    -0.273 OA
HETATM    3  N3  UNL     1     -12.844  19.944 -17.566  1.00  0.00    -0.306 N 
ATOM      4  H3  UNL     1     -12.204  20.620 -17.983  1.00  0.00     0.171 HD
HETATM    5  C13 UNL     1     -12.311  19.112 -16.745  1.00  0.00     0.167 A 
HETATM    6  N4  UNL     1     -12.859  18.114 -16.037  1.00  0.00    -0.279 N 
ATOM      7  H4  UNL     1     -13.859  17.924 -16.101  1.00  0.00     0.189 HD
HETATM    8  N5  UNL     1     -12.121  17.413 -15.289  1.00  0.00    -0.296 N 
ATOM      9  H5  UNL     1     -12.533  16.654 -14.747  1.00  0.00     0.187 HD
HETATM   10  C14 UNL     1     -10.827  17.647 -15.198  1.00  0.00     0.070 A 
HETATM   11  S3  UNL     1     -10.652  18.973 -16.262  1.00  0.00    -0.038 SA
ENDROOT
BRANCH  10  12
HETATM   12  C15 UNL     1      -9.758  16.940 -14.374  1.00  0.00     0.076 C 
BRANCH  12  13
HETATM   13  C16 UNL     1      -9.695  15.549 -14.945  1.00  0.00     0.080 C 
BRANCH  13  14
HETATM   14  S1  UNL     1      -8.104  15.034 -15.517  1.00  0.00    -0.168 SA
BRANCH  14  15
HETATM   15  C17 UNL     1      -6.755  16.034 -14.983  1.00  0.00     0.080 C 
BRANCH  15  16
HETATM   16  C18 UNL     1      -5.476  15.851 -15.744  1.00  0.00     0.076 C 
BRANCH  16  17
HETATM   17  C19 UNL     1      -5.793  16.078 -17.204  1.00  0.00     0.070 A 
HETATM   18  N6  UNL     1      -5.852  15.185 -18.178  1.00  0.00    -0.296 N 
HETATM   19  N7  UNL     1      -6.133  15.542 -19.361  1.00  0.00    -0.279 N 
ATOM     20  H6  UNL     1      -5.669  14.202 -17.977  1.00  0.00     0.187 HD
HETATM   21  C20 UNL     1      -6.368  16.839 -19.603  1.00  0.00     0.167 A 
ATOM     22  H7  UNL     1      -6.180  14.856 -20.115  1.00  0.00     0.189 HD
HETATM   23  N8  UNL     1      -6.673  17.418 -20.746  1.00  0.00    -0.306 N 
HETATM   24  S2  UNL     1      -6.167  17.522 -18.048  1.00  0.00    -0.038 SA
HETATM   25  C21 UNL     1      -6.862  18.817 -20.671  1.00  0.00     0.227 C 
ATOM     26  H8  UNL     1      -6.767  16.897 -21.618  1.00  0.00     0.171 HD
HETATM   27  O2  UNL     1      -5.963  19.576 -21.087  1.00  0.00    -0.273 OA
BRANCH  25  28
HETATM   28  C22 UNL     1      -8.101  19.382 -20.109  1.00  0.00     0.078 C 
HETATM   29  C23 UNL     1      -8.053  20.890 -20.258  1.00  0.00     0.014 C 
HETATM   30  C24 UNL     1      -9.342  21.496 -20.685  1.00  0.00     0.001 C 
HETATM   31  C25 UNL     1     -10.549  20.889 -20.029  1.00  0.00     0.000 C 
HETATM   32  C26 UNL     1     -10.563  19.376 -20.114  1.00  0.00     0.001 C 
HETATM   33  C27 UNL     1      -9.336  18.856 -20.831  1.00  0.00     0.014 C 
ENDBRANCH  25  28
ENDBRANCH  16  17
ENDBRANCH  15  16
ENDBRANCH  14  15
ENDBRANCH  13  14
ENDBRANCH  12  13
ENDBRANCH  10  12
BRANCH   1  34
HETATM   34  C2  UNL     1     -14.829  21.368 -18.222  1.00  0.00     0.074 C 
HETATM   35  C1  UNL     1     -15.275  21.922 -16.828  1.00  0.00     0.020 C 
BRANCH  34  36
HETATM   36  C3  UNL     1     -13.874  22.360 -18.735  1.00  0.00     0.015 C 
BRANCH  36  37
HETATM   37  C4  UNL     1     -14.276  23.338 -19.760  1.00  0.00     0.031 C 
BRANCH  37  38
HETATM   38  C5  UNL     1     -14.543  24.721 -19.212  1.00  0.00     0.272 C 
BRANCH  38  39
HETATM   39  N1  UNL     1     -15.941  25.083 -19.306  1.00  0.00     0.090 N 
HETATM   40  C6  UNL     1     -16.538  24.661 -20.541  1.00  0.00     0.274 C 
HETATM   41  C7  UNL     1     -17.264  25.843 -21.140  1.00  0.00     0.060 C 
HETATM   42  C8  UNL     1     -18.581  26.120 -20.462  1.00  0.00     0.273 C 
HETATM   43  N2  UNL     1     -18.378  26.291 -19.036  1.00  0.00     0.086 N 
HETATM   44  C9  UNL     1     -19.449  27.071 -18.437  1.00  0.00     0.309 C 
HETATM   45  C10 UNL     1     -18.151  25.028 -18.369  1.00  0.00     0.302 C 
HETATM   46  C11 UNL     1     -16.680  24.809 -18.122  1.00  0.00     0.302 C 
ENDBRANCH  38  39
ENDBRANCH  37  38
ENDBRANCH  36  37
ENDBRANCH  34  36
ENDBRANCH   1  34
TORSDOF 12
ENDMDL
MODEL 5
REMARK VINA RESULT: -9.537669691      1.340      1.831
REMARK  12 active torsions:
REMARK  status: ('A' for Active; 'I' for Inactive)
REMARK    1  A    between atoms: C2_2  and  C3_3 
REMARK    2  A    between atoms: C2_2  and  C12_14 
REMARK    3  A    between atoms: C3_3  and  C4_4 
REMARK    4  A    between atoms: C4_4  and  C5_5 
REMARK    5  A    between atoms: C5_5  and  N1_6 
REMARK       I    between atoms: C12_14  and  N3_16 
REMARK    6  A    between atoms: C14_23  and  C15_24 
REMARK    7  A    between atoms: C15_24  and  C16_25 
REMARK    8  A    between atoms: C16_25  and  S1_26 
REMARK    9  A    between atoms: S1_26  and  C17_27 
REMARK   10  A    between atoms: C17_27  and  C18_28 
REMARK   11  A    between atoms: C18_28  and  C19_29 
REMARK       I    between atoms: N8_35  and  C21_37 
REMARK   12  A    between atoms: C21_37  and  C22_39 
ROOT
HETATM    1  C12 UNL     1     -10.669  19.513 -20.247  1.00  0.00     0.227 C 
HETATM    2  O1  UNL     1     -11.283  18.663 -20.913  1.00  0.00    -0.273 OA
HETATM    3  N3  UNL     1     -11.079  19.759 -18.939  1.00  0.00    -0.306 N 
ATOM      4  H3  UNL     1     -10.330  19.949 -18.272  1.00  0.00     0.171 HD
HETATM    5  C13 UNL     1     -12.269  19.779 -18.456  1.00  0.00     0.167 A 
HETATM    6  N4  UNL     1     -13.454  19.575 -19.050  1.00  0.00    -0.279 N 
ATOM      7  H4  UNL     1     -13.503  19.370 -20.048  1.00  0.00     0.189 HD
HETATM    8  N5  UNL     1     -14.508  19.639 -18.357  1.00  0.00    -0.296 N 
ATOM      9  H5  UNL     1     -15.412  19.486 -18.804  1.00  0.00     0.187 HD
HETATM   10  C14 UNL     1     -14.458  19.900 -17.066  1.00  0.00     0.070 A 
HETATM   11  S3  UNL     1     -12.775  20.070 -16.824  1.00  0.00    -0.038 SA
ENDROOT
BRANCH  10  12
HETATM   12  C15 UNL     1     -15.583  20.025 -16.047  1.00  0.00     0.076 C 
BRANCH  12  13
HETATM   13  C16 UNL     1     -15.664  21.498 -15.746  1.00  0.00     0.080 C 
BRANCH  13  14
HETATM   14  S1  UNL     1     -16.783  21.949 -14.455  1.00  0.00    -0.168 SA
BRANCH  14  15
HETATM   15  C17 UNL     1     -18.466  21.508 -14.732  1.00  0.00     0.080 C 
BRANCH  15  16
HETATM   16  C18 UNL     1     -19.441  22.646 -14.724  1.00  0.00     0.076 C 
BRANCH  16  17
HETATM   17  C19 UNL     1     -18.933  23.671 -15.711  1.00  0.00     0.070 A 
HETATM   18  N6  UNL     1     -18.785  24.974 -15.537  1.00  0.00    -0.296 N 
HETATM   19  N7  UNL     1     -18.343  25.702 -16.475  1.00  0.00    -0.279 N 
ATOM     20  H6  UNL     1     -19.029  25.396 -14.641  1.00  0.00     0.187 HD
HETATM   21  C20 UNL     1     -18.032  25.126 -17.644  1.00  0.00     0.167 A 
ATOM     22  H7  UNL     1     -18.226  26.707 -16.344  1.00  0.00     0.189 HD
HETATM   23  N8  UNL     1     -17.562  25.690 -18.737  1.00  0.00    -0.306 N 
HETATM   24  S2  UNL     1     -18.402  23.486 -17.331  1.00  0.00    -0.038 SA
HETATM   25  C21 UNL     1     -17.333  24.802 -19.813  1.00  0.00     0.227 C 
ATOM     26  H8  UNL     1     -17.379  26.691 -18.804  1.00  0.00     0.171 HD
HETATM   27  O2  UNL     1     -18.143  24.772 -20.761  1.00  0.00    -0.273 OA
BRANCH  25  28
HETATM   28  C22 UNL     1     -16.155  23.918 -19.823  1.00  0.00     0.078 C 
HETATM   29  C23 UNL     1     -15.555  23.930 -21.215  1.00  0.00     0.014 C 
HETATM   30  C24 UNL     1     -14.070  23.987 -21.232  1.00  0.00     0.001 C 
HETATM   31  C25 UNL     1     -13.414  23.130 -20.187  1.00  0.00     0.000 C 
HETATM   32  C26 UNL     1     -13.987  23.351 -18.803  1.00  0.00     0.001 C 
HETATM   33  C27 UNL     1     -15.097  24.380 -18.828  1.00  0.00     0.014 C 
ENDBRANCH  25  28
ENDBRANCH  16  17
ENDBRANCH  15  16
ENDBRANCH  14  15
ENDBRANCH  13  14
ENDBRANCH  12  13
ENDBRANCH  10  12
BRANCH   1  34
HETATM   34  C2  UNL     1      -9.519  20.232 -20.873  1.00  0.00     0.074 C 
HETATM   35  C1  UNL     1      -9.702  21.748 -20.529  1.00  0.00     0.020 C 
BRANCH  34  36
HETATM   36  C3  UNL     1      -8.239  19.857 -20.254  1.00  0.00     0.015 C 
BRANCH  36  37
HETATM   37  C4  UNL     1      -7.871  18.443 -20.076  1.00  0.00     0.031 C 
BRANCH  37  38
HETATM   38  C5  UNL     1      -6.868  18.210 -18.969  1.00  0.00     0.272 C 
BRANCH  38  39
HETATM   39  N1  UNL     1      -7.393  17.351 -17.930  1.00  0.00     0.090 N 
HETATM   40  C6  UNL     1      -8.768  17.001 -18.145  1.00  0.00     0.274 C 
HETATM   41  C7  UNL     1      -9.527  17.267 -16.865  1.00  0.00     0.060 C 
HETATM   42  C8  UNL     1      -9.298  16.203 -15.823  1.00  0.00     0.273 C 
HETATM   43  N2  UNL     1      -7.876  16.051 -15.574  1.00  0.00     0.086 N 
HETATM   44  C9  UNL     1      -7.625  15.483 -14.260  1.00  0.00     0.309 C 
HETATM   45  C10 UNL     1      -7.216  15.332 -16.642  1.00  0.00     0.302 C 
HETATM   46  C11 UNL     1      -6.519  16.285 -17.579  1.00  0.00     0.302 C 
ENDBRANCH  38  39
ENDBRANCH  37  38
ENDBRANCH  36  37
ENDBRANCH  34  36
ENDBRANCH   1  34
TORSDOF 12
ENDMDL
