MODEL 1
REMARK VINA RESULT: -9.213930595      0.000      0.000
REMARK  16 active torsions:
REMARK  status: ('A' for Active; 'I' for Inactive)
REMARK    1  A    between atoms: C2_2  and  O1_3 
REMARK    2  A    between atoms: O1_3  and  C3_4 
REMARK    3  A    between atoms: C3_4  and  C4_6 
REMARK    4  A    between atoms: C4_6  and  C5_7 
REMARK    5  A    between atoms: C4_6  and  C20_30 
REMARK    6  A    between atoms: C5_7  and  C6_8 
REMARK    7  A    between atoms: C6_8  and  C7_9 
REMARK       I    between atoms: C7_9  and  N1_11 
REMARK    8  A    between atoms: C10_14  and  C11_15 
REMARK    9  A    between atoms: C10_14  and  C17_25 
REMARK   10  A    between atoms: C11_15  and  O4_16 
REMARK   11  A    between atoms: O4_16  and  C12_17 
REMARK   12  A    between atoms: C12_17  and  C13_19 
REMARK   13  A    between atoms: C13_19  and  C14_20 
REMARK   14  A    between atoms: C14_20  and  O6_23 
REMARK   15  A    between atoms: C20_30  and  O9_32 
REMARK   16  A    between atoms: O9_32  and  C21_33 
ROOT
HETATM    1  C5  UNL     1     -12.068  19.519 -18.634  1.00  0.00     0.034 C 
ENDROOT
BRANCH   1   2
HETATM    2  C4  UNL     1     -12.755  20.619 -17.908  1.00  0.00     0.185 C 
BRANCH   2   3
HETATM    3  C3  UNL     1     -12.311  20.868 -16.539  1.00  0.00     0.272 C 
HETATM    4  O2  UNL     1     -11.338  21.596 -16.285  1.00  0.00    -0.264 OA
BRANCH   3   5
HETATM    5  O1  UNL     1     -12.978  20.283 -15.473  1.00  0.00    -0.321 OA
BRANCH   5   6
HETATM    6  C2  UNL     1     -13.746  21.029 -14.550  1.00  0.00     0.174 C 
HETATM    7  C1  UNL     1     -15.087  20.347 -14.431  1.00  0.00     0.034 C 
ENDBRANCH   5   6
ENDBRANCH   3   5
ENDBRANCH   2   3
BRANCH   2   8
HETATM    8  C20 UNL     1     -14.218  20.373 -17.997  1.00  0.00     0.273 C 
HETATM    9  O8  UNL     1     -14.593  19.217 -18.296  1.00  0.00    -0.264 OA
BRANCH   8  10
HETATM   10  O9  UNL     1     -15.195  21.293 -17.782  1.00  0.00    -0.314 OA
BRANCH  10  11
HETATM   11  C21 UNL     1     -15.619  22.297 -18.704  1.00  0.00     0.144 C 
HETATM   12  C22 UNL     1     -14.556  22.687 -19.664  1.00  0.00     0.016 C 
HETATM   13  C23 UNL     1     -14.680  21.991 -21.024  1.00  0.00     0.013 C 
HETATM   14  C24 UNL     1     -14.478  24.157 -19.978  1.00  0.00    -0.004 C 
HETATM   15  C25 UNL     1     -15.462  24.607 -21.000  1.00  0.00     0.038 C 
HETATM   16  C30 UNL     1     -14.583  24.991 -18.748  1.00  0.00     0.014 C 
HETATM   17  C26 UNL     1     -16.603  25.399 -20.475  1.00  0.00    -0.087 C 
HETATM   18  C27 UNL     1     -17.495  26.127 -21.458  1.00  0.00     0.043 C 
HETATM   19  C28 UNL     1     -16.874  25.500 -19.180  1.00  0.00    -0.019 C 
HETATM   20  C29 UNL     1     -15.980  24.776 -18.229  1.00  0.00     0.019 C 
HETATM   21  C31 UNL     1     -16.395  23.378 -18.047  1.00  0.00    -0.014 C 
HETATM   22  C32 UNL     1     -16.389  23.095 -16.532  1.00  0.00     0.018 C 
HETATM   23  C33 UNL     1     -17.895  23.336 -18.406  1.00  0.00     0.018 C 
ENDBRANCH  10  11
ENDBRANCH   8  10
ENDBRANCH   2   8
ENDBRANCH   1   2
BRANCH   1  24
HETATM   24  C6  UNL     1     -11.561  19.844 -19.994  1.00  0.00     0.104 C 
BRANCH  24  25
HETATM   25  C7  UNL     1     -10.194  20.414 -19.940  1.00  0.00     0.219 C 
HETATM   26  O3  UNL     1     -10.012  21.618 -19.660  1.00  0.00    -0.273 OA
HETATM   27  N1  UNL     1      -9.045  19.612 -20.203  1.00  0.00    -0.352 N 
HETATM   28  C8  UNL     1      -9.201  18.212 -20.536  1.00  0.00     0.127 C 
HETATM   29  C19 UNL     1      -7.704  20.153 -20.155  1.00  0.00     0.127 C 
HETATM   30  C9  UNL     1      -8.373  17.377 -19.621  1.00  0.00     0.041 C 
HETATM   31  C10 UNL     1      -6.981  17.903 -19.396  1.00  0.00     0.063 C 
HETATM   32  C18 UNL     1      -6.899  19.369 -19.160  1.00  0.00     0.041 C 
BRANCH  31  33
HETATM   33  C11 UNL     1      -6.493  17.228 -18.102  1.00  0.00     0.197 C 
BRANCH  33  34
HETATM   34  O4  UNL     1      -7.428  16.246 -17.698  1.00  0.00    -0.320 OA
BRANCH  34  35
HETATM   35  C12 UNL     1      -7.602  16.030 -16.338  1.00  0.00     0.261 C 
HETATM   36  O5  UNL     1      -6.616  15.975 -15.559  1.00  0.00    -0.265 OA
BRANCH  35  37
HETATM   37  C13 UNL     1      -8.945  15.854 -15.725  1.00  0.00     0.148 C 
BRANCH  37  38
HETATM   38  C14 UNL     1      -9.449  17.133 -15.136  1.00  0.00     0.059 C 
HETATM   39  C15 UNL     1      -9.789  18.180 -16.154  1.00  0.00     0.045 C 
HETATM   40  C16 UNL     1     -10.689  16.813 -14.321  1.00  0.00     0.045 C 
BRANCH  38  41
HETATM   41  O6  UNL     1      -8.494  17.652 -14.258  1.00  0.00    -0.390 OA
ATOM     42  H6  UNL     1      -8.253  18.529 -14.534  1.00  0.00     0.210 HD
ENDBRANCH  38  41
ENDBRANCH  37  38
ENDBRANCH  35  37
ENDBRANCH  34  35
ENDBRANCH  33  34
ENDBRANCH  31  33
BRANCH  31  43
HETATM   43  C17 UNL     1      -6.044  17.504 -20.450  1.00  0.00     0.242 C 
HETATM   44  N2  UNL     1      -6.246  16.366 -21.289  1.00  0.00    -0.061 NA
HETATM   45  O7  UNL     1      -5.008  18.176 -20.644  1.00  0.00    -0.276 OA
ENDBRANCH  31  43
ENDBRANCH  24  25
ENDBRANCH   1  24
TORSDOF 16
ENDMDL
MODEL 2
REMARK VINA RESULT: -8.871967921      3.267      9.573
REMARK  16 active torsions:
REMARK  status: ('A' for Active; 'I' for Inactive)
REMARK    1  A    between atoms: C2_2  and  O1_3 
REMARK    2  A    between atoms: O1_3  and  C3_4 
REMARK    3  A    between atoms: C3_4  and  C4_6 
REMARK    4  A    between atoms: C4_6  and  C5_7 
REMARK    5  A    between atoms: C4_6  and  C20_30 
REMARK    6  A    between atoms: C5_7  and  C6_8 
REMARK    7  A    between atoms: C6_8  and  C7_9 
REMARK       I    between atoms: C7_9  and  N1_11 
REMARK    8  A    between atoms: C10_14  and  C11_15 
REMARK    9  A    between atoms: C10_14  and  C17_25 
REMARK   10  A    between atoms: C11_15  and  O4_16 
REMARK   11  A    between atoms: O4_16  and  C12_17 
REMARK   12  A    between atoms: C12_17  and  C13_19 
REMARK   13  A    between atoms: C13_19  and  C14_20 
REMARK   14  A    between atoms: C14_20  and  O6_23 
REMARK   15  A    between atoms: C20_30  and  O9_32 
REMARK   16  A    between atoms: O9_32  and  C21_33 
ROOT
HETATM    1  C5  UNL     1     -13.855  21.857 -19.099  1.00  0.00     0.034 C 
ENDROOT
BRANCH   1   2
HETATM    2  C4  UNL     1     -12.886  20.747 -18.908  1.00  0.00     0.185 C 
BRANCH   2   3
HETATM    3  C3  UNL     1     -13.382  19.567 -18.205  1.00  0.00     0.272 C 
HETATM    4  O2  UNL     1     -13.286  18.426 -18.686  1.00  0.00    -0.264 OA
BRANCH   3   5
HETATM    5  O1  UNL     1     -13.984  19.697 -16.962  1.00  0.00    -0.321 OA
BRANCH   5   6
HETATM    6  C2  UNL     1     -13.339  19.329 -15.758  1.00  0.00     0.174 C 
HETATM    7  C1  UNL     1     -13.300  20.555 -14.880  1.00  0.00     0.034 C 
ENDBRANCH   5   6
ENDBRANCH   3   5
ENDBRANCH   2   3
BRANCH   2   8
HETATM    8  C20 UNL     1     -11.668  21.317 -18.277  1.00  0.00     0.273 C 
HETATM    9  O8  UNL     1     -11.829  22.144 -17.351  1.00  0.00    -0.264 OA
BRANCH   8  10
HETATM   10  O9  UNL     1     -10.384  21.021 -18.612  1.00  0.00    -0.314 OA
BRANCH  10  11
HETATM   11  C21 UNL     1      -9.893  19.737 -19.000  1.00  0.00     0.144 C 
HETATM   12  C22 UNL     1      -9.225  19.013 -17.888  1.00  0.00     0.016 C 
HETATM   13  C23 UNL     1     -10.132  17.986 -17.202  1.00  0.00     0.013 C 
HETATM   14  C24 UNL     1      -7.983  18.253 -18.269  1.00  0.00    -0.004 C 
HETATM   15  C25 UNL     1      -8.254  16.921 -18.874  1.00  0.00     0.038 C 
HETATM   16  C30 UNL     1      -7.092  19.057 -19.151  1.00  0.00     0.014 C 
HETATM   17  C26 UNL     1      -8.023  16.833 -20.339  1.00  0.00    -0.087 C 
HETATM   18  C27 UNL     1      -8.005  15.466 -20.990  1.00  0.00     0.043 C 
HETATM   19  C28 UNL     1      -7.829  17.899 -21.103  1.00  0.00    -0.019 C 
HETATM   20  C29 UNL     1      -7.849  19.236 -20.440  1.00  0.00     0.019 C 
HETATM   21  C31 UNL     1      -9.215  19.765 -20.319  1.00  0.00    -0.014 C 
HETATM   22  C32 UNL     1      -9.178  21.233 -20.788  1.00  0.00     0.018 C 
HETATM   23  C33 UNL     1     -10.034  19.065 -21.424  1.00  0.00     0.018 C 
ENDBRANCH  10  11
ENDBRANCH   8  10
ENDBRANCH   2   8
ENDBRANCH   1   2
BRANCH   1  24
HETATM   24  C6  UNL     1     -13.450  22.931 -20.043  1.00  0.00     0.104 C 
BRANCH  24  25
HETATM   25  C7  UNL     1     -14.621  23.499 -20.752  1.00  0.00     0.219 C 
HETATM   26  O3  UNL     1     -14.869  23.184 -21.935  1.00  0.00    -0.273 OA
HETATM   27  N1  UNL     1     -15.501  24.420 -20.112  1.00  0.00    -0.352 N 
HETATM   28  C8  UNL     1     -15.256  24.820 -18.742  1.00  0.00     0.127 C 
HETATM   29  C19 UNL     1     -16.647  24.984 -20.789  1.00  0.00     0.127 C 
HETATM   30  C9  UNL     1     -16.474  24.582 -17.918  1.00  0.00     0.041 C 
HETATM   31  C10 UNL     1     -17.756  25.023 -18.569  1.00  0.00     0.063 C 
HETATM   32  C18 UNL     1     -17.885  24.658 -20.005  1.00  0.00     0.041 C 
BRANCH  31  33
HETATM   33  C11 UNL     1     -18.874  24.267 -17.828  1.00  0.00     0.197 C 
BRANCH  33  34
HETATM   34  O4  UNL     1     -18.316  23.182 -17.111  1.00  0.00    -0.320 OA
BRANCH  34  35
HETATM   35  C12 UNL     1     -18.848  22.880 -15.865  1.00  0.00     0.261 C 
HETATM   36  O5  UNL     1     -19.712  23.623 -15.333  1.00  0.00    -0.265 OA
BRANCH  35  37
HETATM   37  C13 UNL     1     -18.436  21.678 -15.092  1.00  0.00     0.148 C 
BRANCH  37  38
HETATM   38  C14 UNL     1     -16.947  21.555 -15.027  1.00  0.00     0.059 C 
HETATM   39  C15 UNL     1     -16.268  22.717 -14.366  1.00  0.00     0.045 C 
HETATM   40  C16 UNL     1     -16.618  20.288 -14.260  1.00  0.00     0.045 C 
BRANCH  38  41
HETATM   41  O6  UNL     1     -16.432  21.409 -16.318  1.00  0.00    -0.390 OA
ATOM     42  H6  UNL     1     -16.325  22.264 -16.717  1.00  0.00     0.210 HD
ENDBRANCH  38  41
ENDBRANCH  37  38
ENDBRANCH  35  37
ENDBRANCH  34  35
ENDBRANCH  33  34
ENDBRANCH  31  33
BRANCH  31  43
HETATM   43  C17 UNL     1     -18.029  26.451 -18.381  1.00  0.00     0.242 C 
HETATM   44  N2  UNL     1     -18.915  27.197 -19.216  1.00  0.00    -0.061 NA
HETATM   45  O7  UNL     1     -17.470  27.069 -17.449  1.00  0.00    -0.276 OA
ENDBRANCH  31  43
ENDBRANCH  24  25
ENDBRANCH   1  24
TORSDOF 16
ENDMDL
MODEL 3
REMARK VINA RESULT: -8.830539585      1.195      1.660
REMARK  16 active torsions:
REMARK  status: ('A' for Active; 'I' for Inactive)
REMARK    1  A    between atoms: C2_2  and  O1_3 
REMARK    2  A    between atoms: O1_3  and  C3_4 
REMARK    3  A    between atoms: C3_4  and  C4_6 
REMARK    4  A    between atoms: C4_6  and  C5_7 
REMARK    5  A    between atoms: C4_6  and  C20_30 
REMARK    6  A    between atoms: C5_7  and  C6_8 
REMARK    7  A    between atoms: C6_8  and  C7_9 
REMARK       I    between atoms: C7_9  and  N1_11 
REMARK    8  A    between atoms: C10_14  and  C11_15 
REMARK    9  A    between atoms: C10_14  and  C17_25 
REMARK   10  A    between atoms: C11_15  and  O4_16 
REMARK   11  A    between atoms: O4_16  and  C12_17 
REMARK   12  A    between atoms: C12_17  and  C13_19 
REMARK   13  A    between atoms: C13_19  and  C14_20 
REMARK   14  A    between atoms: C14_20  and  O6_23 
REMARK   15  A    between atoms: C20_30  and  O9_32 
REMARK   16  A    between atoms: O9_32  and  C21_33 
ROOT
HETATM    1  C5  UNL     1     -11.722  19.038 -18.805  1.00  0.00     0.034 C 
ENDROOT
BRANCH   1   2
HETATM    2  C4  UNL     1     -12.281  20.131 -17.968  1.00  0.00     0.185 C 
BRANCH   2   3
HETATM    3  C3  UNL     1     -11.773  20.226 -16.602  1.00  0.00     0.272 C 
HETATM    4  O2  UNL     1     -11.820  21.286 -15.955  1.00  0.00    -0.264 OA
BRANCH   3   5
HETATM    5  O1  UNL     1     -11.214  19.116 -15.987  1.00  0.00    -0.321 OA
BRANCH   5   6
HETATM    6  C2  UNL     1     -11.971  17.974 -15.637  1.00  0.00     0.174 C 
HETATM    7  C1  UNL     1     -11.243  17.284 -14.511  1.00  0.00     0.034 C 
ENDBRANCH   5   6
ENDBRANCH   3   5
ENDBRANCH   2   3
BRANCH   2   8
HETATM    8  C20 UNL     1     -13.762  20.025 -18.019  1.00  0.00     0.273 C 
HETATM    9  O8  UNL     1     -14.252  18.933 -18.385  1.00  0.00    -0.264 OA
BRANCH   8  10
HETATM   10  O9  UNL     1     -14.643  21.012 -17.703  1.00  0.00    -0.314 OA
BRANCH  10  11
HETATM   11  C21 UNL     1     -15.152  22.001 -18.600  1.00  0.00     0.144 C 
HETATM   12  C22 UNL     1     -14.163  22.411 -19.629  1.00  0.00     0.016 C 
HETATM   13  C23 UNL     1     -14.359  21.705 -20.975  1.00  0.00     0.013 C 
HETATM   14  C24 UNL     1     -14.143  23.881 -19.952  1.00  0.00    -0.004 C 
HETATM   15  C25 UNL     1     -15.202  24.301 -20.910  1.00  0.00     0.038 C 
HETATM   16  C30 UNL     1     -14.188  24.719 -18.722  1.00  0.00     0.014 C 
HETATM   17  C26 UNL     1     -16.326  25.068 -20.314  1.00  0.00    -0.087 C 
HETATM   18  C27 UNL     1     -17.299  25.769 -21.238  1.00  0.00     0.043 C 
HETATM   19  C28 UNL     1     -16.514  25.169 -19.004  1.00  0.00    -0.019 C 
HETATM   20  C29 UNL     1     -15.542  24.472 -18.111  1.00  0.00     0.019 C 
HETATM   21  C31 UNL     1     -15.909  23.066 -17.897  1.00  0.00    -0.014 C 
HETATM   22  C32 UNL     1     -15.797  22.791 -16.385  1.00  0.00     0.018 C 
HETATM   23  C33 UNL     1     -17.428  22.985 -18.157  1.00  0.00     0.018 C 
ENDBRANCH  10  11
ENDBRANCH   8  10
ENDBRANCH   2   8
ENDBRANCH   1   2
BRANCH   1  24
HETATM   24  C6  UNL     1     -11.318  19.407 -20.187  1.00  0.00     0.104 C 
BRANCH  24  25
HETATM   25  C7  UNL     1     -10.052  20.177 -20.193  1.00  0.00     0.219 C 
HETATM   26  O3  UNL     1     -10.048  21.408 -19.977  1.00  0.00    -0.273 OA
HETATM   27  N1  UNL     1      -8.799  19.544 -20.443  1.00  0.00    -0.352 N 
HETATM   28  C8  UNL     1      -8.748  18.121 -20.702  1.00  0.00     0.127 C 
HETATM   29  C19 UNL     1      -7.555  20.281 -20.453  1.00  0.00     0.127 C 
HETATM   30  C9  UNL     1      -7.789  17.469 -19.767  1.00  0.00     0.041 C 
HETATM   31  C10 UNL     1      -6.489  18.208 -19.600  1.00  0.00     0.063 C 
HETATM   32  C18 UNL     1      -6.625  19.680 -19.439  1.00  0.00     0.041 C 
BRANCH  31  33
HETATM   33  C11 UNL     1      -5.884  17.683 -18.286  1.00  0.00     0.197 C 
BRANCH  33  34
HETATM   34  O4  UNL     1      -5.916  16.268 -18.283  1.00  0.00    -0.320 OA
BRANCH  34  35
HETATM   35  C12 UNL     1      -5.682  15.612 -17.082  1.00  0.00     0.261 C 
HETATM   36  O5  UNL     1      -4.938  14.599 -17.031  1.00  0.00    -0.265 OA
BRANCH  35  37
HETATM   37  C13 UNL     1      -6.287  16.059 -15.799  1.00  0.00     0.148 C 
BRANCH  37  38
HETATM   38  C14 UNL     1      -7.607  15.399 -15.559  1.00  0.00     0.059 C 
HETATM   39  C15 UNL     1      -8.056  15.436 -14.129  1.00  0.00     0.045 C 
HETATM   40  C16 UNL     1      -8.641  16.099 -16.421  1.00  0.00     0.045 C 
BRANCH  38  41
HETATM   41  O6  UNL     1      -7.548  14.067 -15.976  1.00  0.00    -0.390 OA
ATOM     42  H6  UNL     1      -8.226  13.905 -16.621  1.00  0.00     0.210 HD
ENDBRANCH  38  41
ENDBRANCH  37  38
ENDBRANCH  35  37
ENDBRANCH  34  35
ENDBRANCH  33  34
ENDBRANCH  31  33
BRANCH  31  43
HETATM   43  C17 UNL     1      -5.519  17.899 -20.654  1.00  0.00     0.242 C 
HETATM   44  N2  UNL     1      -5.656  16.792 -21.546  1.00  0.00    -0.061 NA
HETATM   45  O7  UNL     1      -4.512  18.625 -20.800  1.00  0.00    -0.276 OA
ENDBRANCH  31  43
ENDBRANCH  24  25
ENDBRANCH   1  24
TORSDOF 16
ENDMDL
MODEL 4
REMARK VINA RESULT: -8.788361072      1.034      2.023
REMARK  16 active torsions:
REMARK  status: ('A' for Active; 'I' for Inactive)
REMARK    1  A    between atoms: C2_2  and  O1_3 
REMARK    2  A    between atoms: O1_3  and  C3_4 
REMARK    3  A    between atoms: C3_4  and  C4_6 
REMARK    4  A    between atoms: C4_6  and  C5_7 
REMARK    5  A    between atoms: C4_6  and  C20_30 
REMARK    6  A    between atoms: C5_7  and  C6_8 
REMARK    7  A    between atoms: C6_8  and  C7_9 
REMARK       I    between atoms: C7_9  and  N1_11 
REMARK    8  A    between atoms: C10_14  and  C11_15 
REMARK    9  A    between atoms: C10_14  and  C17_25 
REMARK   10  A    between atoms: C11_15  and  O4_16 
REMARK   11  A    between atoms: O4_16  and  C12_17 
REMARK   12  A    between atoms: C12_17  and  C13_19 
REMARK   13  A    between atoms: C13_19  and  C14_20 
REMARK   14  A    between atoms: C14_20  and  O6_23 
REMARK   15  A    between atoms: C20_30  and  O9_32 
REMARK   16  A    between atoms: O9_32  and  C21_33 
ROOT
HETATM    1  C5  UNL     1     -11.893  19.945 -18.724  1.00  0.00     0.034 C 
ENDROOT
BRANCH   1   2
HETATM    2  C4  UNL     1     -12.505  21.243 -18.338  1.00  0.00     0.185 C 
BRANCH   2   3
HETATM    3  C3  UNL     1     -12.279  21.684 -16.965  1.00  0.00     0.272 C 
HETATM    4  O2  UNL     1     -11.163  22.063 -16.570  1.00  0.00    -0.264 OA
BRANCH   3   5
HETATM    5  O1  UNL     1     -13.323  21.685 -16.052  1.00  0.00    -0.321 OA
BRANCH   5   6
HETATM    6  C2  UNL     1     -13.478  20.682 -15.067  1.00  0.00     0.174 C 
HETATM    7  C1  UNL     1     -14.331  21.264 -13.968  1.00  0.00     0.034 C 
ENDBRANCH   5   6
ENDBRANCH   3   5
ENDBRANCH   2   3
BRANCH   2   8
HETATM    8  C20 UNL     1     -13.948  21.183 -18.687  1.00  0.00     0.273 C 
HETATM    9  O8  UNL     1     -14.573  20.142 -18.382  1.00  0.00    -0.264 OA
BRANCH   8  10
HETATM   10  O9  UNL     1     -14.658  22.159 -19.312  1.00  0.00    -0.314 OA
BRANCH  10  11
HETATM   11  C21 UNL     1     -15.426  23.178 -18.670  1.00  0.00     0.144 C 
HETATM   12  C22 UNL     1     -16.720  22.679 -18.139  1.00  0.00     0.016 C 
HETATM   13  C23 UNL     1     -16.680  22.362 -16.640  1.00  0.00     0.013 C 
HETATM   14  C24 UNL     1     -17.891  23.608 -18.315  1.00  0.00    -0.004 C 
HETATM   15  C25 UNL     1     -17.968  24.681 -17.287  1.00  0.00     0.038 C 
HETATM   16  C30 UNL     1     -17.931  24.193 -19.685  1.00  0.00     0.014 C 
HETATM   17  C26 UNL     1     -17.596  26.039 -17.759  1.00  0.00    -0.087 C 
HETATM   18  C27 UNL     1     -17.905  27.227 -16.872  1.00  0.00     0.043 C 
HETATM   19  C28 UNL     1     -17.008  26.259 -18.927  1.00  0.00    -0.019 C 
HETATM   20  C29 UNL     1     -16.714  25.075 -19.786  1.00  0.00     0.019 C 
HETATM   21  C31 UNL     1     -15.431  24.449 -19.435  1.00  0.00    -0.014 C 
HETATM   22  C32 UNL     1     -14.670  24.199 -20.751  1.00  0.00     0.018 C 
HETATM   23  C33 UNL     1     -14.599  25.556 -18.754  1.00  0.00     0.018 C 
ENDBRANCH  10  11
ENDBRANCH   8  10
ENDBRANCH   2   8
ENDBRANCH   1   2
BRANCH   1  24
HETATM   24  C6  UNL     1     -11.262  19.887 -20.069  1.00  0.00     0.104 C 
BRANCH  24  25
HETATM   25  C7  UNL     1      -9.860  20.364 -20.030  1.00  0.00     0.219 C 
HETATM   26  O3  UNL     1      -9.597  21.571 -19.844  1.00  0.00    -0.273 OA
HETATM   27  N1  UNL     1      -8.765  19.466 -20.201  1.00  0.00    -0.352 N 
HETATM   28  C8  UNL     1      -9.015  18.057 -20.424  1.00  0.00     0.127 C 
HETATM   29  C19 UNL     1      -7.391  19.915 -20.167  1.00  0.00     0.127 C 
HETATM   30  C9  UNL     1      -8.263  17.245 -19.426  1.00  0.00     0.041 C 
HETATM   31  C10 UNL     1      -6.842  17.690 -19.212  1.00  0.00     0.063 C 
HETATM   32  C18 UNL     1      -6.660  19.161 -19.093  1.00  0.00     0.041 C 
BRANCH  31  33
HETATM   33  C11 UNL     1      -6.425  17.092 -17.857  1.00  0.00     0.197 C 
BRANCH  33  34
HETATM   34  O4  UNL     1      -7.313  16.047 -17.507  1.00  0.00    -0.320 OA
BRANCH  34  35
HETATM   35  C12 UNL     1      -7.596  15.853 -16.162  1.00  0.00     0.261 C 
HETATM   36  O5  UNL     1      -6.675  15.812 -15.306  1.00  0.00    -0.265 OA
BRANCH  35  37
HETATM   37  C13 UNL     1      -8.984  15.684 -15.656  1.00  0.00     0.148 C 
BRANCH  37  38
HETATM   38  C14 UNL     1      -9.553  16.982 -15.180  1.00  0.00     0.059 C 
HETATM   39  C15 UNL     1     -10.094  17.849 -16.278  1.00  0.00     0.045 C 
HETATM   40  C16 UNL     1     -10.669  16.670 -14.201  1.00  0.00     0.045 C 
BRANCH  38  41
HETATM   41  O6  UNL     1      -8.574  17.697 -14.485  1.00  0.00    -0.390 OA
ATOM     42  H6  UNL     1      -8.567  18.599 -14.784  1.00  0.00     0.210 HD
ENDBRANCH  38  41
ENDBRANCH  37  38
ENDBRANCH  35  37
ENDBRANCH  34  35
ENDBRANCH  33  34
ENDBRANCH  31  33
BRANCH  31  43
HETATM   43  C17 UNL     1      -5.918  17.142 -20.208  1.00  0.00     0.242 C 
HETATM   44  N2  UNL     1      -4.589  17.630 -20.398  1.00  0.00    -0.061 NA
HETATM   45  O7  UNL     1      -6.286  16.198 -20.941  1.00  0.00    -0.276 OA
ENDBRANCH  31  43
ENDBRANCH  24  25
ENDBRANCH   1  24
TORSDOF 16
ENDMDL
MODEL 5
REMARK VINA RESULT: -8.681032858      3.373     10.284
REMARK  16 active torsions:
REMARK  status: ('A' for Active; 'I' for Inactive)
REMARK    1  A    between atoms: C2_2  and  O1_3 
REMARK    2  A    between atoms: O1_3  and  C3_4 
REMARK    3  A    between atoms: C3_4  and  C4_6 
REMARK    4  A    between atoms: C4_6  and  C5_7 
REMARK    5  A    between atoms: C4_6  and  C20_30 
REMARK    6  A    between atoms: C5_7  and  C6_8 
REMARK    7  A    between atoms: C6_8  and  C7_9 
REMARK       I    between atoms: C7_9  and  N1_11 
REMARK    8  A    between atoms: C10_14  and  C11_15 
REMARK    9  A    between atoms: C10_14  and  C17_25 
REMARK   10  A    between atoms: C11_15  and  O4_16 
REMARK   11  A    between atoms: O4_16  and  C12_17 
REMARK   12  A    between atoms: C12_17  and  C13_19 
REMARK   13  A    between atoms: C13_19  and  C14_20 
REMARK   14  A    between atoms: C14_20  and  O6_23 
REMARK   15  A    between atoms: C20_30  and  O9_32 
REMARK   16  A    between atoms: O9_32  and  C21_33 
ROOT
HETATM    1  C5  UNL     1     -13.306  19.612 -15.926  1.00  0.00     0.034 C 
ENDROOT
BRANCH   1   2
HETATM    2  C4  UNL     1     -12.983  20.343 -17.179  1.00  0.00     0.185 C 
BRANCH   2   3
HETATM    3  C3  UNL     1     -13.289  19.654 -18.429  1.00  0.00     0.272 C 
HETATM    4  O2  UNL     1     -13.332  18.415 -18.503  1.00  0.00    -0.264 OA
BRANCH   3   5
HETATM    5  O1  UNL     1     -13.541  20.381 -19.583  1.00  0.00    -0.321 OA
BRANCH   5   6
HETATM    6  C2  UNL     1     -14.270  21.592 -19.580  1.00  0.00     0.174 C 
HETATM    7  C1  UNL     1     -13.282  22.709 -19.808  1.00  0.00     0.034 C 
ENDBRANCH   5   6
ENDBRANCH   3   5
ENDBRANCH   2   3
BRANCH   2   8
HETATM    8  C20 UNL     1     -11.563  20.771 -17.097  1.00  0.00     0.273 C 
HETATM    9  O8  UNL     1     -11.165  21.251 -16.011  1.00  0.00    -0.264 OA
BRANCH   8  10
HETATM   10  O9  UNL     1     -10.647  20.690 -18.098  1.00  0.00    -0.314 OA
BRANCH  10  11
HETATM   11  C21 UNL     1     -10.087  19.488 -18.628  1.00  0.00     0.144 C 
HETATM   12  C22 UNL     1      -9.247  18.759 -17.644  1.00  0.00     0.016 C 
HETATM   13  C23 UNL     1      -9.983  17.607 -16.952  1.00  0.00     0.013 C 
HETATM   14  C24 UNL     1      -7.989  18.148 -18.199  1.00  0.00    -0.004 C 
HETATM   15  C25 UNL     1      -8.202  16.839 -18.874  1.00  0.00     0.038 C 
HETATM   16  C30 UNL     1      -7.268  19.090 -19.100  1.00  0.00     0.014 C 
HETATM   17  C26 UNL     1      -8.117  16.870 -20.356  1.00  0.00    -0.087 C 
HETATM   18  C27 UNL     1      -8.045  15.557 -21.107  1.00  0.00     0.043 C 
HETATM   19  C28 UNL     1      -8.098  17.998 -21.053  1.00  0.00    -0.019 C 
HETATM   20  C29 UNL     1      -8.168  19.281 -20.293  1.00  0.00     0.019 C 
HETATM   21  C31 UNL     1      -9.555  19.668 -20.001  1.00  0.00    -0.014 C 
HETATM   22  C32 UNL     1      -9.696  21.160 -20.359  1.00  0.00     0.018 C 
HETATM   23  C33 UNL     1     -10.419  18.967 -21.070  1.00  0.00     0.018 C 
ENDBRANCH  10  11
ENDBRANCH   8  10
ENDBRANCH   2   8
ENDBRANCH   1   2
BRANCH   1  24
HETATM   24  C6  UNL     1     -14.684  19.789 -15.396  1.00  0.00     0.104 C 
BRANCH  24  25
HETATM   25  C7  UNL     1     -14.805  21.038 -14.607  1.00  0.00     0.219 C 
HETATM   26  O3  UNL     1     -13.796  21.586 -14.115  1.00  0.00    -0.273 OA
HETATM   27  N1  UNL     1     -16.071  21.656 -14.386  1.00  0.00    -0.352 N 
HETATM   28  C8  UNL     1     -17.272  21.060 -14.932  1.00  0.00     0.127 C 
HETATM   29  C19 UNL     1     -16.206  22.874 -13.618  1.00  0.00     0.127 C 
HETATM   30  C9  UNL     1     -18.014  22.066 -15.743  1.00  0.00     0.041 C 
HETATM   31  C10 UNL     1     -18.123  23.420 -15.098  1.00  0.00     0.063 C 
HETATM   32  C18 UNL     1     -16.868  23.916 -14.473  1.00  0.00     0.041 C 
BRANCH  31  33
HETATM   33  C11 UNL     1     -18.450  24.395 -16.244  1.00  0.00     0.197 C 
BRANCH  33  34
HETATM   34  O4  UNL     1     -17.456  24.296 -17.247  1.00  0.00    -0.320 OA
BRANCH  34  35
HETATM   35  C12 UNL     1     -17.134  25.441 -17.962  1.00  0.00     0.261 C 
HETATM   36  O5  UNL     1     -17.529  26.574 -17.583  1.00  0.00    -0.265 OA
BRANCH  35  37
HETATM   37  C13 UNL     1     -16.315  25.402 -19.202  1.00  0.00     0.148 C 
BRANCH  37  38
HETATM   38  C14 UNL     1     -17.152  25.084 -20.400  1.00  0.00     0.059 C 
HETATM   39  C15 UNL     1     -17.486  26.278 -21.244  1.00  0.00     0.045 C 
HETATM   40  C16 UNL     1     -16.394  24.078 -21.245  1.00  0.00     0.045 C 
BRANCH  38  41
HETATM   41  O6  UNL     1     -18.342  24.476 -19.992  1.00  0.00    -0.390 OA
ATOM     42  H6  UNL     1     -18.183  23.957 -19.213  1.00  0.00     0.210 HD
ENDBRANCH  38  41
ENDBRANCH  37  38
ENDBRANCH  35  37
ENDBRANCH  34  35
ENDBRANCH  33  34
ENDBRANCH  31  33
BRANCH  31  43
HETATM   43  C17 UNL     1     -19.235  23.511 -14.148  1.00  0.00     0.242 C 
HETATM   44  N2  UNL     1     -20.280  22.541 -14.070  1.00  0.00    -0.061 NA
HETATM   45  O7  UNL     1     -19.295  24.475 -13.356  1.00  0.00    -0.276 OA
ENDBRANCH  31  43
ENDBRANCH  24  25
ENDBRANCH   1  24
TORSDOF 16
ENDMDL
