MODEL 1
REMARK VINA RESULT: -9.496565826      0.000      0.000
REMARK  12 active torsions:
REMARK  status: ('A' for Active; 'I' for Inactive)
REMARK    1  A    between atoms: S1_2  and  N1_5 
REMARK    2  A    between atoms: N2_8  and  C4_9 
REMARK    3  A    between atoms: C4_9  and  C5_10 
REMARK    4  A    between atoms: C5_10  and  C6_11 
REMARK    5  A    between atoms: C6_11  and  C7_12 
REMARK    6  A    between atoms: C8_15  and  C9_16 
REMARK    7  A    between atoms: C9_16  and  C10_17 
REMARK    8  A    between atoms: C10_17  and  C11_18 
REMARK    9  A    between atoms: C11_18  and  C12_19 
REMARK   10  A    between atoms: C12_19  and  C13_20 
REMARK   11  A    between atoms: N6_38  and  C25_39 
REMARK   12  A    between atoms: C25_39  and  C26_40 
ROOT
HETATM    1  C7  UNL     1     -15.849 -21.837  15.492  1.00  0.00     0.084 A 
HETATM    2  N3  UNL     1     -15.677 -21.962  16.815  1.00  0.00    -0.348 N 
ATOM      3  H3  UNL     1     -15.963 -22.769  17.369  1.00  0.00     0.167 HD
HETATM    4  C8  UNL     1     -15.062 -20.844  17.312  1.00  0.00     0.029 A 
HETATM    5  C24 UNL     1     -14.880 -20.049  16.228  1.00  0.00     0.118 A 
HETATM    6  N6  UNL     1     -15.358 -20.650  15.111  1.00  0.00    -0.335 N 
ENDROOT
BRANCH   4   7
HETATM    7  C9  UNL     1     -14.717 -20.628  18.737  1.00  0.00     0.085 C 
BRANCH   7   8
HETATM    8  C10 UNL     1     -13.395 -21.099  19.142  1.00  0.00    -0.021 C 
BRANCH   8   9
HETATM    9  C11 UNL     1     -12.619 -22.128  18.515  1.00  0.00    -0.001 C 
BRANCH   9  10
HETATM   10  C12 UNL     1     -11.352 -21.983  17.759  1.00  0.00     0.031 C 
BRANCH  10  11
HETATM   11  C13 UNL     1     -10.886 -20.726  17.252  1.00  0.00     0.060 A 
HETATM   12  N4  UNL     1     -11.387 -20.400  16.013  1.00  0.00    -0.297 N 
HETATM   13  N5  UNL     1     -11.229 -19.320  15.335  1.00  0.00    -0.265 N 
ATOM     14  H4  UNL     1     -11.965 -21.115  15.571  1.00  0.00     0.187 HD
HETATM   15  C14 UNL     1     -10.465 -18.361  15.909  1.00  0.00     0.277 A 
ATOM     16  H5  UNL     1     -11.655 -19.192  14.417  1.00  0.00     0.190 HD
HETATM   17  O3  UNL     1     -10.244 -17.259  15.334  1.00  0.00    -0.265 OA
HETATM   18  C15 UNL     1      -9.922 -18.618  17.154  1.00  0.00     0.087 A 
HETATM   19  S2  UNL     1      -8.869 -17.641  18.107  1.00  0.00    -0.088 SA
HETATM   20  C18 UNL     1     -10.082 -19.766  17.887  1.00  0.00     0.022 A 
HETATM   21  C16 UNL     1      -8.656 -18.730  19.410  1.00  0.00    -0.009 A 
HETATM   22  C17 UNL     1      -9.418 -19.815  19.052  1.00  0.00    -0.031 A 
HETATM   23  C23 UNL     1      -7.776 -18.426  20.577  1.00  0.00     0.046 C 
HETATM   24  C19 UNL     1      -9.425 -21.028  19.949  1.00  0.00     0.040 C 
HETATM   25  C20 UNL     1      -8.745 -20.762  21.280  1.00  0.00     0.005 C 
HETATM   26  C21 UNL     1      -9.365 -19.653  22.066  1.00  0.00     0.001 C 
HETATM   27  C22 UNL     1      -8.458 -18.449  21.899  1.00  0.00     0.005 C 
ENDBRANCH  10  11
ENDBRANCH   9  10
ENDBRANCH   8   9
ENDBRANCH   7   8
ENDBRANCH   4   7
BRANCH   1  28
HETATM   28  C6  UNL     1     -16.461 -22.803  14.559  1.00  0.00     0.081 C 
BRANCH  28  29
HETATM   29  C5  UNL     1     -17.930 -22.578  14.294  1.00  0.00     0.052 C 
BRANCH  29  30
HETATM   30  C4  UNL     1     -18.586 -23.933  14.514  1.00  0.00     0.058 C 
BRANCH  30  31
HETATM   31  N2  UNL     1     -18.884 -24.276  15.831  1.00  0.00    -0.391 N 
HETATM   32  C3  UNL     1     -19.199 -23.298  16.788  1.00  0.00     0.137 C 
HETATM   33  C2  UNL     1     -18.260 -23.505  17.992  1.00  0.00     0.127 C 
HETATM   34  N1  UNL     1     -18.647 -24.720  18.640  1.00  0.00    -0.208 NA
HETATM   35  C28 UNL     1     -18.891 -25.820  17.715  1.00  0.00     0.127 C 
HETATM   36  C27 UNL     1     -18.330 -25.494  16.345  1.00  0.00     0.137 C 
BRANCH  34  37
HETATM   37  S1  UNL     1     -17.535 -25.211  19.876  1.00  0.00     0.207 S 
HETATM   38  C1  UNL     1     -15.871 -25.199  19.285  1.00  0.00     0.180 C 
HETATM   39  O1  UNL     1     -17.715 -24.265  21.024  1.00  0.00    -0.212 OA
HETATM   40  O2  UNL     1     -17.910 -26.587  20.324  1.00  0.00    -0.212 OA
ENDBRANCH  34  37
ENDBRANCH  30  31
ENDBRANCH  29  30
ENDBRANCH  28  29
ENDBRANCH   1  28
BRANCH   6  41
HETATM   41  C25 UNL     1     -15.309 -20.013  13.816  1.00  0.00     0.242 C 
BRANCH  41  42
HETATM   42  C26 UNL     1     -14.170 -20.439  12.974  1.00  0.00     0.191 C 
HETATM   43  O4  UNL     1     -12.981 -20.453  13.410  1.00  0.00    -0.647 OA
HETATM   44  O5  UNL     1     -14.377 -20.837  11.671  1.00  0.00    -0.647 OA
ENDBRANCH  41  42
ENDBRANCH   6  41
TORSDOF 12
ENDMDL
MODEL 2
REMARK VINA RESULT: -9.295377771      2.068      3.131
REMARK  12 active torsions:
REMARK  status: ('A' for Active; 'I' for Inactive)
REMARK    1  A    between atoms: S1_2  and  N1_5 
REMARK    2  A    between atoms: N2_8  and  C4_9 
REMARK    3  A    between atoms: C4_9  and  C5_10 
REMARK    4  A    between atoms: C5_10  and  C6_11 
REMARK    5  A    between atoms: C6_11  and  C7_12 
REMARK    6  A    between atoms: C8_15  and  C9_16 
REMARK    7  A    between atoms: C9_16  and  C10_17 
REMARK    8  A    between atoms: C10_17  and  C11_18 
REMARK    9  A    between atoms: C11_18  and  C12_19 
REMARK   10  A    between atoms: C12_19  and  C13_20 
REMARK   11  A    between atoms: N6_38  and  C25_39 
REMARK   12  A    between atoms: C25_39  and  C26_40 
ROOT
HETATM    1  C7  UNL     1     -15.377 -22.292  15.519  1.00  0.00     0.084 A 
HETATM    2  N3  UNL     1     -15.101 -22.941  16.657  1.00  0.00    -0.348 N 
ATOM      3  H3  UNL     1     -15.411 -23.886  16.884  1.00  0.00     0.167 HD
HETATM    4  C8  UNL     1     -14.339 -22.148  17.472  1.00  0.00     0.029 A 
HETATM    5  C24 UNL     1     -14.178 -20.998  16.770  1.00  0.00     0.118 A 
HETATM    6  N6  UNL     1     -14.811 -21.079  15.574  1.00  0.00    -0.335 N 
ENDROOT
BRANCH   4   7
HETATM    7  C9  UNL     1     -13.848 -22.535  18.816  1.00  0.00     0.085 C 
BRANCH   7   8
HETATM    8  C10 UNL     1     -12.817 -21.668  19.382  1.00  0.00    -0.021 C 
BRANCH   8   9
HETATM    9  C11 UNL     1     -11.403 -21.757  19.165  1.00  0.00    -0.001 C 
BRANCH   9  10
HETATM   10  C12 UNL     1     -10.506 -20.741  18.565  1.00  0.00     0.031 C 
BRANCH  10  11
HETATM   11  C13 UNL     1      -9.825 -19.747  19.340  1.00  0.00     0.060 A 
HETATM   12  N4  UNL     1      -9.737 -20.043  20.680  1.00  0.00    -0.297 N 
HETATM   13  N5  UNL     1      -9.124 -19.404  21.612  1.00  0.00    -0.265 N 
ATOM     14  H4  UNL     1     -10.226 -20.888  20.977  1.00  0.00     0.187 HD
HETATM   15  C14 UNL     1      -8.470 -18.280  21.234  1.00  0.00     0.277 A 
ATOM     16  H5  UNL     1      -9.131 -19.724  22.580  1.00  0.00     0.190 HD
HETATM   17  O3  UNL     1      -7.832 -17.575  22.065  1.00  0.00    -0.265 OA
HETATM   18  C15 UNL     1      -8.516 -17.916  19.901  1.00  0.00     0.087 A 
HETATM   19  S2  UNL     1      -7.849 -16.527  19.128  1.00  0.00    -0.088 SA
HETATM   20  C18 UNL     1      -9.167 -18.588  18.899  1.00  0.00     0.022 A 
HETATM   21  C16 UNL     1      -8.428 -16.840  17.547  1.00  0.00    -0.009 A 
HETATM   22  C17 UNL     1      -9.118 -18.020  17.684  1.00  0.00    -0.031 A 
HETATM   23  C23 UNL     1      -8.178 -15.916  16.401  1.00  0.00     0.046 C 
HETATM   24  C19 UNL     1      -9.837 -18.586  16.485  1.00  0.00     0.040 C 
HETATM   25  C20 UNL     1      -9.478 -17.857  15.203  1.00  0.00     0.005 C 
HETATM   26  C21 UNL     1      -8.021 -17.889  14.875  1.00  0.00     0.001 C 
HETATM   27  C22 UNL     1      -7.466 -16.528  15.248  1.00  0.00     0.005 C 
ENDBRANCH  10  11
ENDBRANCH   9  10
ENDBRANCH   8   9
ENDBRANCH   7   8
ENDBRANCH   4   7
BRANCH   1  28
HETATM   28  C6  UNL     1     -16.161 -22.774  14.365  1.00  0.00     0.081 C 
BRANCH  28  29
HETATM   29  C5  UNL     1     -17.602 -22.325  14.350  1.00  0.00     0.052 C 
BRANCH  29  30
HETATM   30  C4  UNL     1     -18.419 -23.606  14.450  1.00  0.00     0.058 C 
BRANCH  30  31
HETATM   31  N2  UNL     1     -18.785 -24.015  15.729  1.00  0.00    -0.391 N 
HETATM   32  C3  UNL     1     -19.088 -23.084  16.737  1.00  0.00     0.137 C 
HETATM   33  C2  UNL     1     -18.209 -23.417  17.957  1.00  0.00     0.127 C 
HETATM   34  N1  UNL     1     -18.683 -24.649  18.510  1.00  0.00    -0.208 NA
HETATM   35  C28 UNL     1     -18.946 -25.673  17.506  1.00  0.00     0.127 C 
HETATM   36  C27 UNL     1     -18.315 -25.291  16.182  1.00  0.00     0.137 C 
BRANCH  34  37
HETATM   37  S1  UNL     1     -17.647 -25.277  19.750  1.00  0.00     0.207 S 
HETATM   38  C1  UNL     1     -15.995 -25.485  19.164  1.00  0.00     0.180 C 
HETATM   39  O1  UNL     1     -17.705 -24.311  20.895  1.00  0.00    -0.212 OA
HETATM   40  O2  UNL     1     -18.201 -26.590  20.202  1.00  0.00    -0.212 OA
ENDBRANCH  34  37
ENDBRANCH  30  31
ENDBRANCH  29  30
ENDBRANCH  28  29
ENDBRANCH   1  28
BRANCH   6  41
HETATM   41  C25 UNL     1     -14.817 -19.984  14.633  1.00  0.00     0.242 C 
BRANCH  41  42
HETATM   42  C26 UNL     1     -13.714 -20.023  13.648  1.00  0.00     0.191 C 
HETATM   43  O4  UNL     1     -12.498 -19.985  14.000  1.00  0.00    -0.647 OA
HETATM   44  O5  UNL     1     -13.986 -20.105  12.300  1.00  0.00    -0.647 OA
ENDBRANCH  41  42
ENDBRANCH   6  41
TORSDOF 12
ENDMDL
MODEL 3
REMARK VINA RESULT: -9.248265745      3.320      5.387
REMARK  12 active torsions:
REMARK  status: ('A' for Active; 'I' for Inactive)
REMARK    1  A    between atoms: S1_2  and  N1_5 
REMARK    2  A    between atoms: N2_8  and  C4_9 
REMARK    3  A    between atoms: C4_9  and  C5_10 
REMARK    4  A    between atoms: C5_10  and  C6_11 
REMARK    5  A    between atoms: C6_11  and  C7_12 
REMARK    6  A    between atoms: C8_15  and  C9_16 
REMARK    7  A    between atoms: C9_16  and  C10_17 
REMARK    8  A    between atoms: C10_17  and  C11_18 
REMARK    9  A    between atoms: C11_18  and  C12_19 
REMARK   10  A    between atoms: C12_19  and  C13_20 
REMARK   11  A    between atoms: N6_38  and  C25_39 
REMARK   12  A    between atoms: C25_39  and  C26_40 
ROOT
HETATM    1  C7  UNL     1     -11.165 -19.663  17.455  1.00  0.00     0.084 A 
HETATM    2  N3  UNL     1      -9.882 -19.360  17.217  1.00  0.00    -0.348 N 
ATOM      3  H3  UNL     1      -9.122 -19.453  17.891  1.00  0.00     0.167 HD
HETATM    4  C8  UNL     1      -9.742 -18.905  15.932  1.00  0.00     0.029 A 
HETATM    5  C24 UNL     1     -10.998 -18.949  15.420  1.00  0.00     0.118 A 
HETATM    6  N6  UNL     1     -11.873 -19.412  16.346  1.00  0.00    -0.335 N 
ENDROOT
BRANCH   4   7
HETATM    7  C9  UNL     1      -8.464 -18.472  15.320  1.00  0.00     0.085 C 
BRANCH   7   8
HETATM    8  C10 UNL     1      -8.520 -17.223  14.565  1.00  0.00    -0.021 C 
BRANCH   8   9
HETATM    9  C11 UNL     1      -8.846 -15.924  15.075  1.00  0.00    -0.001 C 
BRANCH   9  10
HETATM   10  C12 UNL     1      -8.157 -15.165  16.146  1.00  0.00     0.031 C 
BRANCH  10  11
HETATM   11  C13 UNL     1      -6.749 -15.269  16.394  1.00  0.00     0.060 A 
HETATM   12  N4  UNL     1      -5.966 -14.654  15.446  1.00  0.00    -0.297 N 
HETATM   13  N5  UNL     1      -4.690 -14.500  15.426  1.00  0.00    -0.265 N 
ATOM     14  H4  UNL     1      -6.467 -14.266  14.646  1.00  0.00     0.187 HD
HETATM   15  C14 UNL     1      -4.011 -15.009  16.480  1.00  0.00     0.277 A 
ATOM     16  H5  UNL     1      -4.216 -14.021  14.659  1.00  0.00     0.190 HD
HETATM   17  O3  UNL     1      -2.755 -14.913  16.566  1.00  0.00    -0.265 OA
HETATM   18  C15 UNL     1      -4.731 -15.646  17.473  1.00  0.00     0.087 A 
HETATM   19  S2  UNL     1      -4.161 -16.444  18.892  1.00  0.00    -0.088 SA
HETATM   20  C18 UNL     1      -6.091 -15.818  17.506  1.00  0.00     0.022 A 
HETATM   21  C16 UNL     1      -5.676 -16.982  19.480  1.00  0.00    -0.009 A 
HETATM   22  C17 UNL     1      -6.569 -16.515  18.548  1.00  0.00    -0.031 A 
HETATM   23  C23 UNL     1      -5.812 -17.796  20.725  1.00  0.00     0.046 C 
HETATM   24  C19 UNL     1      -8.030 -16.857  18.703  1.00  0.00     0.040 C 
HETATM   25  C20 UNL     1      -8.330 -17.495  20.048  1.00  0.00     0.005 C 
HETATM   26  C21 UNL     1      -7.971 -16.638  21.218  1.00  0.00     0.001 C 
HETATM   27  C22 UNL     1      -6.675 -17.193  21.776  1.00  0.00     0.005 C 
ENDBRANCH  10  11
ENDBRANCH   9  10
ENDBRANCH   8   9
ENDBRANCH   7   8
ENDBRANCH   4   7
BRANCH   1  28
HETATM   28  C6  UNL     1     -11.759 -20.190  18.699  1.00  0.00     0.081 C 
BRANCH  28  29
HETATM   29  C5  UNL     1     -11.389 -21.618  19.017  1.00  0.00     0.052 C 
BRANCH  29  30
HETATM   30  C4  UNL     1     -12.324 -22.469  18.169  1.00  0.00     0.058 C 
BRANCH  30  31
HETATM   31  N2  UNL     1     -13.679 -22.412  18.483  1.00  0.00    -0.391 N 
HETATM   32  C3  UNL     1     -14.119 -22.364  19.816  1.00  0.00     0.137 C 
HETATM   33  C2  UNL     1     -15.138 -23.504  20.010  1.00  0.00     0.127 C 
HETATM   34  N1  UNL     1     -16.316 -23.162  19.274  1.00  0.00    -0.208 NA
HETATM   35  C28 UNL     1     -16.039 -22.659  17.934  1.00  0.00     0.127 C 
HETATM   36  C27 UNL     1     -14.607 -22.963  17.540  1.00  0.00     0.137 C 
BRANCH  34  37
HETATM   37  S1  UNL     1     -17.468 -24.455  19.203  1.00  0.00     0.207 S 
HETATM   38  C1  UNL     1     -16.740 -25.930  18.562  1.00  0.00     0.180 C 
HETATM   39  O1  UNL     1     -17.981 -24.658  20.596  1.00  0.00    -0.212 OA
HETATM   40  O2  UNL     1     -18.604 -24.024  18.331  1.00  0.00    -0.212 OA
ENDBRANCH  34  37
ENDBRANCH  30  31
ENDBRANCH  29  30
ENDBRANCH  28  29
ENDBRANCH   1  28
BRANCH   6  41
HETATM   41  C25 UNL     1     -13.285 -19.540  16.070  1.00  0.00     0.242 C 
BRANCH  41  42
HETATM   42  C26 UNL     1     -13.598 -20.349  14.872  1.00  0.00     0.191 C 
HETATM   43  O4  UNL     1     -14.281 -19.889  13.911  1.00  0.00    -0.647 OA
HETATM   44  O5  UNL     1     -13.146 -21.647  14.771  1.00  0.00    -0.647 OA
ENDBRANCH  41  42
ENDBRANCH   6  41
TORSDOF 12
ENDMDL
MODEL 4
REMARK VINA RESULT: -9.240992928      2.885      4.981
REMARK  12 active torsions:
REMARK  status: ('A' for Active; 'I' for Inactive)
REMARK    1  A    between atoms: S1_2  and  N1_5 
REMARK    2  A    between atoms: N2_8  and  C4_9 
REMARK    3  A    between atoms: C4_9  and  C5_10 
REMARK    4  A    between atoms: C5_10  and  C6_11 
REMARK    5  A    between atoms: C6_11  and  C7_12 
REMARK    6  A    between atoms: C8_15  and  C9_16 
REMARK    7  A    between atoms: C9_16  and  C10_17 
REMARK    8  A    between atoms: C10_17  and  C11_18 
REMARK    9  A    between atoms: C11_18  and  C12_19 
REMARK   10  A    between atoms: C12_19  and  C13_20 
REMARK   11  A    between atoms: N6_38  and  C25_39 
REMARK   12  A    between atoms: C25_39  and  C26_40 
ROOT
HETATM    1  C7  UNL     1     -11.123 -20.667  16.409  1.00  0.00     0.084 A 
HETATM    2  N3  UNL     1      -9.895 -20.136  16.457  1.00  0.00    -0.348 N 
ATOM      3  H3  UNL     1      -9.105 -20.530  16.969  1.00  0.00     0.167 HD
HETATM    4  C8  UNL     1      -9.856 -18.985  15.716  1.00  0.00     0.029 A 
HETATM    5  C24 UNL     1     -11.116 -18.854  15.230  1.00  0.00     0.118 A 
HETATM    6  N6  UNL     1     -11.897 -19.880  15.649  1.00  0.00    -0.335 N 
ENDROOT
BRANCH   4   7
HETATM    7  C9  UNL     1      -8.660 -18.126  15.544  1.00  0.00     0.085 C 
BRANCH   7   8
HETATM    8  C10 UNL     1      -8.926 -16.694  15.435  1.00  0.00    -0.021 C 
BRANCH   8   9
HETATM    9  C11 UNL     1      -8.415 -15.657  16.282  1.00  0.00    -0.001 C 
BRANCH   9  10
HETATM   10  C12 UNL     1      -8.167 -15.710  17.742  1.00  0.00     0.031 C 
BRANCH  10  11
HETATM   11  C13 UNL     1      -6.953 -16.218  18.309  1.00  0.00     0.060 A 
HETATM   12  N4  UNL     1      -5.836 -15.477  18.001  1.00  0.00    -0.297 N 
HETATM   13  N5  UNL     1      -4.629 -15.620  18.417  1.00  0.00    -0.265 N 
ATOM     14  H4  UNL     1      -5.987 -14.705  17.351  1.00  0.00     0.187 HD
HETATM   15  C14 UNL     1      -4.413 -16.640  19.281  1.00  0.00     0.277 A 
ATOM     16  H5  UNL     1      -3.877 -15.001  18.115  1.00  0.00     0.190 HD
HETATM   17  O3  UNL     1      -3.267 -16.872  19.756  1.00  0.00    -0.265 OA
HETATM   18  C15 UNL     1      -5.488 -17.433  19.635  1.00  0.00     0.087 A 
HETATM   19  S2  UNL     1      -5.527 -18.827  20.649  1.00  0.00    -0.088 SA
HETATM   20  C18 UNL     1      -6.780 -17.292  19.198  1.00  0.00     0.022 A 
HETATM   21  C16 UNL     1      -7.190 -19.194  20.477  1.00  0.00    -0.009 A 
HETATM   22  C17 UNL     1      -7.652 -18.211  19.637  1.00  0.00    -0.031 A 
HETATM   23  C23 UNL     1      -7.825 -20.375  21.133  1.00  0.00     0.046 C 
HETATM   24  C19 UNL     1      -9.095 -18.247  19.199  1.00  0.00     0.040 C 
HETATM   25  C20 UNL     1      -9.905 -19.272  19.972  1.00  0.00     0.005 C 
HETATM   26  C21 UNL     1      -9.918 -19.045  21.448  1.00  0.00     0.001 C 
HETATM   27  C22 UNL     1      -8.954 -20.052  22.047  1.00  0.00     0.005 C 
ENDBRANCH  10  11
ENDBRANCH   9  10
ENDBRANCH   8   9
ENDBRANCH   7   8
ENDBRANCH   4   7
BRANCH   1  28
HETATM   28  C6  UNL     1     -11.605 -21.903  17.056  1.00  0.00     0.081 C 
BRANCH  28  29
HETATM   29  C5  UNL     1     -11.793 -21.801  18.550  1.00  0.00     0.052 C 
BRANCH  29  30
HETATM   30  C4  UNL     1     -13.294 -21.652  18.754  1.00  0.00     0.058 C 
BRANCH  30  31
HETATM   31  N2  UNL     1     -14.029 -22.829  18.858  1.00  0.00    -0.391 N 
HETATM   32  C3  UNL     1     -14.498 -23.503  17.718  1.00  0.00     0.137 C 
HETATM   33  C2  UNL     1     -16.015 -23.708  17.890  1.00  0.00     0.127 C 
HETATM   34  N1  UNL     1     -16.207 -24.672  18.930  1.00  0.00    -0.208 NA
HETATM   35  C28 UNL     1     -15.371 -24.438  20.101  1.00  0.00     0.127 C 
HETATM   36  C27 UNL     1     -14.782 -23.043  20.059  1.00  0.00     0.137 C 
BRANCH  34  37
HETATM   37  S1  UNL     1     -17.867 -24.837  19.401  1.00  0.00     0.207 S 
HETATM   38  C1  UNL     1     -18.419 -26.505  19.235  1.00  0.00     0.180 C 
HETATM   39  O1  UNL     1     -17.965 -24.366  20.820  1.00  0.00    -0.212 OA
HETATM   40  O2  UNL     1     -18.691 -23.935  18.538  1.00  0.00    -0.212 OA
ENDBRANCH  34  37
ENDBRANCH  30  31
ENDBRANCH  29  30
ENDBRANCH  28  29
ENDBRANCH   1  28
BRANCH   6  41
HETATM   41  C25 UNL     1     -13.292 -19.977  15.293  1.00  0.00     0.242 C 
BRANCH  41  42
HETATM   42  C26 UNL     1     -13.548 -20.714  14.037  1.00  0.00     0.191 C 
HETATM   43  O4  UNL     1     -13.387 -20.179  12.900  1.00  0.00    -0.647 OA
HETATM   44  O5  UNL     1     -13.974 -22.024  14.071  1.00  0.00    -0.647 OA
ENDBRANCH  41  42
ENDBRANCH   6  41
TORSDOF 12
ENDMDL
MODEL 5
REMARK VINA RESULT: -9.234717088      2.548      5.778
REMARK  12 active torsions:
REMARK  status: ('A' for Active; 'I' for Inactive)
REMARK    1  A    between atoms: S1_2  and  N1_5 
REMARK    2  A    between atoms: N2_8  and  C4_9 
REMARK    3  A    between atoms: C4_9  and  C5_10 
REMARK    4  A    between atoms: C5_10  and  C6_11 
REMARK    5  A    between atoms: C6_11  and  C7_12 
REMARK    6  A    between atoms: C8_15  and  C9_16 
REMARK    7  A    between atoms: C9_16  and  C10_17 
REMARK    8  A    between atoms: C10_17  and  C11_18 
REMARK    9  A    between atoms: C11_18  and  C12_19 
REMARK   10  A    between atoms: C12_19  and  C13_20 
REMARK   11  A    between atoms: N6_38  and  C25_39 
REMARK   12  A    between atoms: C25_39  and  C26_40 
ROOT
HETATM    1  C7  UNL     1     -16.680 -23.092  18.214  1.00  0.00     0.084 A 
HETATM    2  N3  UNL     1     -15.835 -22.057  18.298  1.00  0.00    -0.348 N 
ATOM      3  H3  UNL     1     -15.985 -21.141  17.874  1.00  0.00     0.167 HD
HETATM    4  C8  UNL     1     -14.738 -22.410  19.037  1.00  0.00     0.029 A 
HETATM    5  C24 UNL     1     -14.967 -23.702  19.385  1.00  0.00     0.118 A 
HETATM    6  N6  UNL     1     -16.154 -24.125  18.885  1.00  0.00    -0.335 N 
ENDROOT
BRANCH   4   7
HETATM    7  C9  UNL     1     -13.591 -21.519  19.335  1.00  0.00     0.085 C 
BRANCH   7   8
HETATM    8  C10 UNL     1     -12.273 -22.065  19.024  1.00  0.00    -0.021 C 
BRANCH   8   9
HETATM    9  C11 UNL     1     -11.003 -21.462  19.305  1.00  0.00    -0.001 C 
BRANCH   9  10
HETATM   10  C12 UNL     1     -10.383 -20.290  18.642  1.00  0.00     0.031 C 
BRANCH  10  11
HETATM   11  C13 UNL     1      -9.683 -19.267  19.361  1.00  0.00     0.060 A 
HETATM   12  N4  UNL     1      -9.610 -19.485  20.717  1.00  0.00    -0.297 N 
HETATM   13  N5  UNL     1      -8.989 -18.805  21.613  1.00  0.00    -0.265 N 
ATOM     14  H4  UNL     1     -10.121 -20.299  21.060  1.00  0.00     0.187 HD
HETATM   15  C14 UNL     1      -8.306 -17.722  21.174  1.00  0.00     0.277 A 
ATOM     16  H5  UNL     1      -9.008 -19.067  22.599  1.00  0.00     0.190 HD
HETATM   17  O3  UNL     1      -7.657 -16.983  21.966  1.00  0.00    -0.265 OA
HETATM   18  C15 UNL     1      -8.336 -17.436  19.822  1.00  0.00     0.087 A 
HETATM   19  S2  UNL     1      -7.632 -16.111  18.972  1.00  0.00    -0.088 SA
HETATM   20  C18 UNL     1      -8.996 -18.152  18.857  1.00  0.00     0.022 A 
HETATM   21  C16 UNL     1      -8.209 -16.505  17.409  1.00  0.00    -0.009 A 
HETATM   22  C17 UNL     1      -8.927 -17.658  17.611  1.00  0.00    -0.031 A 
HETATM   23  C23 UNL     1      -7.932 -15.657  16.212  1.00  0.00     0.046 C 
HETATM   24  C19 UNL     1      -9.652 -18.279  16.443  1.00  0.00     0.040 C 
HETATM   25  C20 UNL     1      -9.269 -17.635  15.122  1.00  0.00     0.005 C 
HETATM   26  C21 UNL     1      -7.811 -17.721  14.807  1.00  0.00     0.001 C 
HETATM   27  C22 UNL     1      -7.227 -16.353  15.102  1.00  0.00     0.005 C 
ENDBRANCH  10  11
ENDBRANCH   9  10
ENDBRANCH   8   9
ENDBRANCH   7   8
ENDBRANCH   4   7
BRANCH   1  28
HETATM   28  C6  UNL     1     -17.982 -23.149  17.521  1.00  0.00     0.081 C 
BRANCH  28  29
HETATM   29  C5  UNL     1     -17.928 -23.716  16.123  1.00  0.00     0.052 C 
BRANCH  29  30
HETATM   30  C4  UNL     1     -18.071 -22.514  15.200  1.00  0.00     0.058 C 
BRANCH  30  31
HETATM   31  N2  UNL     1     -16.895 -21.998  14.661  1.00  0.00    -0.391 N 
HETATM   32  C3  UNL     1     -15.864 -22.840  14.212  1.00  0.00     0.137 C 
HETATM   33  C2  UNL     1     -14.565 -22.400  14.913  1.00  0.00     0.127 C 
HETATM   34  N1  UNL     1     -14.193 -21.127  14.376  1.00  0.00    -0.208 NA
HETATM   35  C28 UNL     1     -15.307 -20.194  14.265  1.00  0.00     0.127 C 
HETATM   36  C27 UNL     1     -16.492 -20.686  15.072  1.00  0.00     0.137 C 
BRANCH  34  37
HETATM   37  S1  UNL     1     -12.877 -20.391  15.232  1.00  0.00     0.207 S 
HETATM   38  C1  UNL     1     -13.459 -19.369  16.548  1.00  0.00     0.180 C 
HETATM   39  O1  UNL     1     -12.014 -21.503  15.743  1.00  0.00    -0.212 OA
HETATM   40  O2  UNL     1     -12.085 -19.575  14.261  1.00  0.00    -0.212 OA
ENDBRANCH  34  37
ENDBRANCH  30  31
ENDBRANCH  29  30
ENDBRANCH  28  29
ENDBRANCH   1  28
BRANCH   6  41
HETATM   41  C25 UNL     1     -16.635 -25.471  19.089  1.00  0.00     0.242 C 
BRANCH  41  42
HETATM   42  C26 UNL     1     -17.506 -25.630  20.275  1.00  0.00     0.191 C 
HETATM   43  O4  UNL     1     -17.069 -26.089  21.371  1.00  0.00    -0.647 OA
HETATM   44  O5  UNL     1     -18.836 -25.277  20.216  1.00  0.00    -0.647 OA
ENDBRANCH  41  42
ENDBRANCH   6  41
TORSDOF 12
ENDMDL
