MODEL 1
REMARK VINA RESULT: -9.931673206      0.000      0.000
REMARK  10 active torsions:
REMARK  status: ('A' for Active; 'I' for Inactive)
REMARK    1  A    between atoms: C6_8  and  C7_9 
REMARK    2  A    between atoms: C7_9  and  C8_10 
REMARK    3  A    between atoms: C9_11  and  C10_12 
REMARK    4  A    between atoms: C10_12  and  O1_13 
REMARK    5  A    between atoms: C12_21  and  C13_22 
REMARK    6  A    between atoms: C13_22  and  C14_23 
REMARK    7  A    between atoms: C14_23  and  C15_24 
REMARK       I    between atoms: C15_24  and  N4_26 
REMARK    8  A    between atoms: N4_26  and  C16_28 
REMARK    9  A    between atoms: C16_28  and  C17_29 
REMARK       I    between atoms: C17_29  and  N5_31 
REMARK   10  A    between atoms: C22_36  and  C23_37 
ROOT
HETATM    1  C1  UNL     1      10.819  12.772  -0.470  1.00  0.00     0.068 C 
HETATM    2  C2  UNL     1       9.421  13.198  -0.146  1.00  0.00     0.002 C 
HETATM    3  C3  UNL     1       8.694  12.207   0.345  1.00  0.00     0.026 C 
HETATM    4  C4  UNL     1       7.318  12.106   0.802  1.00  0.00     0.032 C 
HETATM    5  C5  UNL     1       6.240  12.891   0.812  1.00  0.00     0.043 A 
HETATM    6  N1  UNL     1       5.141  12.380   1.351  1.00  0.00    -0.358 N 
ATOM      7  H1  UNL     1       5.050  11.449   1.757  1.00  0.00     0.166 HD
HETATM    8  C6  UNL     1       4.152  13.321   1.267  1.00  0.00     0.021 A 
HETATM    9  C12 UNL     1       4.651  14.458   0.649  1.00  0.00    -0.022 A 
HETATM   10  C20 UNL     1       5.988  14.192   0.358  1.00  0.00    -0.003 A 
HETATM   11  C21 UNL     1       6.725  15.114  -0.235  1.00  0.00     0.017 C 
HETATM   12  C22 UNL     1       8.047  15.421  -0.749  1.00  0.00     0.140 C 
HETATM   13  N7  UNL     1       9.128  14.562  -0.416  1.00  0.00    -0.381 N 
ATOM     14  H7  UNL     1       9.985  15.110  -0.346  1.00  0.00     0.160 HD
ENDROOT
BRANCH   8  15
HETATM   15  C7  UNL     1       2.838  13.052   1.899  1.00  0.00     0.104 C 
BRANCH  15  16
HETATM   16  C8  UNL     1       2.690  13.745   3.207  1.00  0.00     0.043 A 
HETATM   17  C9  UNL     1       3.360  13.719   4.377  1.00  0.00     0.061 A 
HETATM   18  N2  UNL     1       2.732  14.578   5.234  1.00  0.00    -0.299 N 
HETATM   19  N3  UNL     1       1.709  15.119   4.621  1.00  0.00    -0.266 N 
ATOM     20  H2  UNL     1       3.015  14.768   6.195  1.00  0.00     0.186 HD
HETATM   21  C11 UNL     1       1.626  14.649   3.373  1.00  0.00     0.268 A 
ATOM     22  H3  UNL     1       1.070  15.797   5.035  1.00  0.00     0.190 HD
HETATM   23  O2  UNL     1       0.766  14.958   2.514  1.00  0.00    -0.266 OA
BRANCH  17  24
HETATM   24  C10 UNL     1       4.563  12.934   4.727  1.00  0.00     0.223 C 
BRANCH  24  25
HETATM   25  O1  UNL     1       4.996  13.343   5.988  1.00  0.00    -0.395 OA
ATOM     26  H1  UNL     1       5.247  14.257   5.933  1.00  0.00     0.209 HD
ENDBRANCH  24  25
ENDBRANCH  17  24
ENDBRANCH  15  16
ENDBRANCH   8  15
BRANCH   9  27
HETATM   27  C13 UNL     1       3.912  15.645   0.252  1.00  0.00     0.051 C 
BRANCH  27  28
HETATM   28  C14 UNL     1       2.661  15.284  -0.588  1.00  0.00     0.107 C 
BRANCH  28  29
HETATM   29  C15 UNL     1       3.148  14.840  -1.940  1.00  0.00     0.218 C 
HETATM   30  O3  UNL     1       2.968  13.660  -2.341  1.00  0.00    -0.274 OA
HETATM   31  N4  UNL     1       3.814  15.828  -2.720  1.00  0.00    -0.352 N 
ATOM     32  H4  UNL     1       3.938  16.770  -2.350  1.00  0.00     0.162 HD
BRANCH  31  33
HETATM   33  C16 UNL     1       4.308  15.502  -4.020  1.00  0.00     0.225 C 
BRANCH  33  34
HETATM   34  C17 UNL     1       3.304  15.670  -5.097  1.00  0.00     0.236 C 
HETATM   35  O4  UNL     1       2.676  16.756  -5.310  1.00  0.00    -0.272 OA
HETATM   36  N5  UNL     1       3.012  14.572  -5.948  1.00  0.00    -0.359 N 
HETATM   37  C18 UNL     1       2.023  14.694  -7.030  1.00  0.00     0.152 C 
HETATM   38  C19 UNL     1       3.687  13.318  -5.760  1.00  0.00     0.152 C 
ENDBRANCH  33  34
ENDBRANCH  31  33
ENDBRANCH  28  29
ENDBRANCH  27  28
ENDBRANCH   9  27
BRANCH  12  39
HETATM   39  C23 UNL     1       8.468  16.834  -0.457  1.00  0.00    -0.017 A 
HETATM   40  C24 UNL     1       9.469  17.013   0.450  1.00  0.00     0.012 A 
HETATM   41  C25 UNL     1       9.915  18.298   0.790  1.00  0.00     0.018 A 
HETATM   42  C26 UNL     1       9.294  19.349   0.165  1.00  0.00     0.087 A 
HETATM   43  N6  UNL     1       8.312  19.176  -0.725  1.00  0.00    -0.375 N 
HETATM   44  C27 UNL     1       7.900  17.933  -1.037  1.00  0.00     0.097 A 
ATOM     45  H6  UNL     1       7.876  19.985  -1.168  1.00  0.00     0.164 HD
ENDBRANCH  12  39
TORSDOF 10
ENDMDL
MODEL 2
REMARK VINA RESULT: -9.919590610      2.964      6.699
REMARK  10 active torsions:
REMARK  status: ('A' for Active; 'I' for Inactive)
REMARK    1  A    between atoms: C6_8  and  C7_9 
REMARK    2  A    between atoms: C7_9  and  C8_10 
REMARK    3  A    between atoms: C9_11  and  C10_12 
REMARK    4  A    between atoms: C10_12  and  O1_13 
REMARK    5  A    between atoms: C12_21  and  C13_22 
REMARK    6  A    between atoms: C13_22  and  C14_23 
REMARK    7  A    between atoms: C14_23  and  C15_24 
REMARK       I    between atoms: C15_24  and  N4_26 
REMARK    8  A    between atoms: N4_26  and  C16_28 
REMARK    9  A    between atoms: C16_28  and  C17_29 
REMARK       I    between atoms: C17_29  and  N5_31 
REMARK   10  A    between atoms: C22_36  and  C23_37 
ROOT
HETATM    1  C1  UNL     1       1.026  13.548   1.924  1.00  0.00     0.068 C 
HETATM    2  C2  UNL     1       2.437  13.524   1.425  1.00  0.00     0.002 C 
HETATM    3  C3  UNL     1       3.305  13.243   2.383  1.00  0.00     0.026 C 
HETATM    4  C4  UNL     1       4.751  13.105   2.415  1.00  0.00     0.032 C 
HETATM    5  C5  UNL     1       5.763  13.303   1.568  1.00  0.00     0.043 A 
HETATM    6  N1  UNL     1       6.979  13.039   2.028  1.00  0.00    -0.358 N 
ATOM      7  H1  UNL     1       7.206  12.698   2.961  1.00  0.00     0.166 HD
HETATM    8  C6  UNL     1       7.874  13.304   1.029  1.00  0.00     0.021 A 
HETATM    9  C12 UNL     1       7.193  13.754  -0.092  1.00  0.00    -0.022 A 
HETATM   10  C20 UNL     1       5.840  13.753   0.244  1.00  0.00    -0.003 A 
HETATM   11  C21 UNL     1       4.944  14.135  -0.648  1.00  0.00     0.017 C 
HETATM   12  C22 UNL     1       3.526  14.333  -0.889  1.00  0.00     0.140 C 
HETATM   13  N7  UNL     1       2.592  13.802   0.039  1.00  0.00    -0.381 N 
ATOM     14  H7  UNL     1       1.745  13.524  -0.456  1.00  0.00     0.160 HD
ENDROOT
BRANCH   8  15
HETATM   15  C7  UNL     1       9.308  12.988   1.236  1.00  0.00     0.104 C 
BRANCH  15  16
HETATM   16  C8  UNL     1       9.780  11.898   0.339  1.00  0.00     0.043 A 
HETATM   17  C9  UNL     1       9.602  10.563   0.291  1.00  0.00     0.061 A 
HETATM   18  N2  UNL     1      10.312  10.087  -0.775  1.00  0.00    -0.299 N 
HETATM   19  N3  UNL     1      10.910  11.089  -1.369  1.00  0.00    -0.266 N 
ATOM     20  H2  UNL     1      10.367   9.110  -1.062  1.00  0.00     0.186 HD
HETATM   21  C11 UNL     1      10.625  12.230  -0.735  1.00  0.00     0.268 A 
ATOM     22  H3  UNL     1      11.505  11.010  -2.193  1.00  0.00     0.190 HD
HETATM   23  O2  UNL     1      11.033  13.376  -1.040  1.00  0.00    -0.266 OA
BRANCH  17  24
HETATM   24  C10 UNL     1       8.794   9.713   1.191  1.00  0.00     0.223 C 
BRANCH  24  25
HETATM   25  O1  UNL     1       8.762   8.424   0.660  1.00  0.00    -0.395 OA
ATOM     26  H1  UNL     1       8.688   7.809   1.379  1.00  0.00     0.209 HD
ENDBRANCH  24  25
ENDBRANCH  17  24
ENDBRANCH  15  16
ENDBRANCH   8  15
BRANCH   9  27
HETATM   27  C13 UNL     1       7.763  14.260  -1.330  1.00  0.00     0.051 C 
BRANCH  27  28
HETATM   28  C14 UNL     1       8.528  15.588  -1.104  1.00  0.00     0.107 C 
BRANCH  28  29
HETATM   29  C15 UNL     1       7.709  16.684  -1.728  1.00  0.00     0.218 C 
HETATM   30  O3  UNL     1       7.864  17.886  -1.389  1.00  0.00    -0.274 OA
HETATM   31  N4  UNL     1       6.763  16.275  -2.711  1.00  0.00    -0.352 N 
ATOM     32  H4  UNL     1       6.672  15.287  -2.949  1.00  0.00     0.162 HD
BRANCH  31  33
HETATM   33  C16 UNL     1       5.941  17.244  -3.363  1.00  0.00     0.225 C 
BRANCH  33  34
HETATM   34  C17 UNL     1       4.625  17.442  -2.711  1.00  0.00     0.236 C 
HETATM   35  O4  UNL     1       4.487  17.782  -1.493  1.00  0.00    -0.272 OA
HETATM   36  N5  UNL     1       3.440  17.247  -3.469  1.00  0.00    -0.359 N 
HETATM   37  C18 UNL     1       2.113  17.432  -2.864  1.00  0.00     0.152 C 
HETATM   38  C19 UNL     1       3.528  16.862  -4.850  1.00  0.00     0.152 C 
ENDBRANCH  33  34
ENDBRANCH  31  33
ENDBRANCH  28  29
ENDBRANCH  27  28
ENDBRANCH   9  27
BRANCH  12  39
HETATM   39  C23 UNL     1       3.108  13.903  -2.268  1.00  0.00    -0.017 A 
HETATM   40  C24 UNL     1       4.098  13.622  -3.161  1.00  0.00     0.012 A 
HETATM   41  C25 UNL     1       3.798  13.224  -4.471  1.00  0.00     0.018 A 
HETATM   42  C26 UNL     1       2.469  13.137  -4.797  1.00  0.00     0.087 A 
HETATM   43  N6  UNL     1       1.496  13.412  -3.923  1.00  0.00    -0.375 N 
HETATM   44  C27 UNL     1       1.807  13.792  -2.669  1.00  0.00     0.097 A 
ATOM     45  H6  UNL     1       0.519  13.335  -4.206  1.00  0.00     0.164 HD
ENDBRANCH  12  39
TORSDOF 10
ENDMDL
MODEL 3
REMARK VINA RESULT: -9.715364480      0.954      1.345
REMARK  10 active torsions:
REMARK  status: ('A' for Active; 'I' for Inactive)
REMARK    1  A    between atoms: C6_8  and  C7_9 
REMARK    2  A    between atoms: C7_9  and  C8_10 
REMARK    3  A    between atoms: C9_11  and  C10_12 
REMARK    4  A    between atoms: C10_12  and  O1_13 
REMARK    5  A    between atoms: C12_21  and  C13_22 
REMARK    6  A    between atoms: C13_22  and  C14_23 
REMARK    7  A    between atoms: C14_23  and  C15_24 
REMARK       I    between atoms: C15_24  and  N4_26 
REMARK    8  A    between atoms: N4_26  and  C16_28 
REMARK    9  A    between atoms: C16_28  and  C17_29 
REMARK       I    between atoms: C17_29  and  N5_31 
REMARK   10  A    between atoms: C22_36  and  C23_37 
ROOT
HETATM    1  C1  UNL     1      10.435  13.735  -0.717  1.00  0.00     0.068 C 
HETATM    2  C2  UNL     1       8.985  13.921  -0.394  1.00  0.00     0.002 C 
HETATM    3  C3  UNL     1       8.497  12.920   0.321  1.00  0.00     0.026 C 
HETATM    4  C4  UNL     1       7.184  12.632   0.874  1.00  0.00     0.032 C 
HETATM    5  C5  UNL     1       5.963  13.164   0.800  1.00  0.00     0.043 A 
HETATM    6  N1  UNL     1       5.010  12.556   1.494  1.00  0.00    -0.358 N 
ATOM      7  H1  UNL     1       5.128  11.726   2.076  1.00  0.00     0.166 HD
HETATM    8  C6  UNL     1       3.841  13.237   1.293  1.00  0.00     0.021 A 
HETATM    9  C12 UNL     1       4.072  14.304   0.440  1.00  0.00    -0.022 A 
HETATM   10  C20 UNL     1       5.429  14.267   0.122  1.00  0.00    -0.003 A 
HETATM   11  C21 UNL     1       5.940  15.183  -0.681  1.00  0.00     0.017 C 
HETATM   12  C22 UNL     1       7.156  15.646  -1.325  1.00  0.00     0.140 C 
HETATM   13  N7  UNL     1       8.401  15.113  -0.901  1.00  0.00    -0.381 N 
ATOM     14  H7  UNL     1       9.122  15.828  -0.991  1.00  0.00     0.160 HD
ENDROOT
BRANCH   8  15
HETATM   15  C7  UNL     1       2.628  12.835   2.045  1.00  0.00     0.104 C 
BRANCH  15  16
HETATM   16  C8  UNL     1       2.440  13.640   3.282  1.00  0.00     0.043 A 
HETATM   17  C9  UNL     1       3.029  13.670   4.494  1.00  0.00     0.061 A 
HETATM   18  N2  UNL     1       2.403  14.633   5.236  1.00  0.00    -0.299 N 
HETATM   19  N3  UNL     1       1.460  15.182   4.512  1.00  0.00    -0.266 N 
ATOM     20  H2  UNL     1       2.634  14.884   6.197  1.00  0.00     0.186 HD
HETATM   21  C11 UNL     1       1.430  14.617   3.301  1.00  0.00     0.268 A 
ATOM     22  H3  UNL     1       0.841  15.929   4.826  1.00  0.00     0.190 HD
HETATM   23  O2  UNL     1       0.650  14.906   2.362  1.00  0.00    -0.266 OA
BRANCH  17  24
HETATM   24  C10 UNL     1       4.152  12.846   4.989  1.00  0.00     0.223 C 
BRANCH  24  25
HETATM   25  O1  UNL     1       5.302  13.216   4.293  1.00  0.00    -0.395 OA
ATOM     26  H1  UNL     1       5.352  12.691   3.503  1.00  0.00     0.209 HD
ENDBRANCH  24  25
ENDBRANCH  17  24
ENDBRANCH  15  16
ENDBRANCH   8  15
BRANCH   9  27
HETATM   27  C13 UNL     1       3.089  15.210  -0.131  1.00  0.00     0.051 C 
BRANCH  27  28
HETATM   28  C14 UNL     1       2.002  14.444  -0.926  1.00  0.00     0.107 C 
BRANCH  28  29
HETATM   29  C15 UNL     1       2.590  14.106  -2.268  1.00  0.00     0.218 C 
HETATM   30  O3  UNL     1       2.579  12.925  -2.704  1.00  0.00    -0.274 OA
HETATM   31  N4  UNL     1       3.148  15.193  -2.999  1.00  0.00    -0.352 N 
ATOM     32  H4  UNL     1       3.135  16.133  -2.601  1.00  0.00     0.162 HD
BRANCH  31  33
HETATM   33  C16 UNL     1       3.726  14.972  -4.286  1.00  0.00     0.225 C 
BRANCH  33  34
HETATM   34  C17 UNL     1       3.003  15.651  -5.386  1.00  0.00     0.236 C 
HETATM   35  O4  UNL     1       3.022  16.909  -5.570  1.00  0.00    -0.272 OA
HETATM   36  N5  UNL     1       2.242  14.873  -6.297  1.00  0.00    -0.359 N 
HETATM   37  C18 UNL     1       1.508  15.504  -7.404  1.00  0.00     0.152 C 
HETATM   38  C19 UNL     1       2.179  13.446  -6.145  1.00  0.00     0.152 C 
ENDBRANCH  33  34
ENDBRANCH  31  33
ENDBRANCH  28  29
ENDBRANCH  27  28
ENDBRANCH   9  27
BRANCH  12  39
HETATM   39  C23 UNL     1       7.269  17.145  -1.336  1.00  0.00    -0.017 A 
HETATM   40  C24 UNL     1       6.368  17.835  -2.088  1.00  0.00     0.012 A 
HETATM   41  C25 UNL     1       6.408  19.234  -2.163  1.00  0.00     0.018 A 
HETATM   42  C26 UNL     1       7.395  19.860  -1.445  1.00  0.00     0.087 A 
HETATM   43  N6  UNL     1       8.282  19.185  -0.706  1.00  0.00    -0.375 N 
HETATM   44  C27 UNL     1       8.223  17.841  -0.648  1.00  0.00     0.097 A 
ATOM     45  H6  UNL     1       9.001  19.688  -0.186  1.00  0.00     0.164 HD
ENDBRANCH  12  39
TORSDOF 10
ENDMDL
MODEL 4
REMARK VINA RESULT: -9.700805833      0.794      1.706
REMARK  10 active torsions:
REMARK  status: ('A' for Active; 'I' for Inactive)
REMARK    1  A    between atoms: C6_8  and  C7_9 
REMARK    2  A    between atoms: C7_9  and  C8_10 
REMARK    3  A    between atoms: C9_11  and  C10_12 
REMARK    4  A    between atoms: C10_12  and  O1_13 
REMARK    5  A    between atoms: C12_21  and  C13_22 
REMARK    6  A    between atoms: C13_22  and  C14_23 
REMARK    7  A    between atoms: C14_23  and  C15_24 
REMARK       I    between atoms: C15_24  and  N4_26 
REMARK    8  A    between atoms: N4_26  and  C16_28 
REMARK    9  A    between atoms: C16_28  and  C17_29 
REMARK       I    between atoms: C17_29  and  N5_31 
REMARK   10  A    between atoms: C22_36  and  C23_37 
ROOT
HETATM    1  C1  UNL     1      10.717  13.337  -0.994  1.00  0.00     0.068 C 
HETATM    2  C2  UNL     1       9.308  13.630  -0.582  1.00  0.00     0.002 C 
HETATM    3  C3  UNL     1       8.743  12.610   0.043  1.00  0.00     0.026 C 
HETATM    4  C4  UNL     1       7.428  12.396   0.625  1.00  0.00     0.032 C 
HETATM    5  C5  UNL     1       6.270  13.054   0.670  1.00  0.00     0.043 A 
HETATM    6  N1  UNL     1       5.284  12.471   1.339  1.00  0.00    -0.358 N 
ATOM      7  H1  UNL     1       5.335  11.573   1.820  1.00  0.00     0.166 HD
HETATM    8  C6  UNL     1       4.188  13.286   1.271  1.00  0.00     0.021 A 
HETATM    9  C12 UNL     1       4.499  14.414   0.529  1.00  0.00    -0.022 A 
HETATM   10  C20 UNL     1       5.831  14.275   0.143  1.00  0.00    -0.003 A 
HETATM   11  C21 UNL     1       6.406  15.220  -0.579  1.00  0.00     0.017 C 
HETATM   12  C22 UNL     1       7.639  15.628  -1.229  1.00  0.00     0.140 C 
HETATM   13  N7  UNL     1       8.836  14.926  -0.927  1.00  0.00    -0.381 N 
ATOM     14  H7  UNL     1       9.625  15.570  -0.973  1.00  0.00     0.160 HD
ENDROOT
BRANCH   8  15
HETATM   15  C7  UNL     1       2.968  12.926   2.034  1.00  0.00     0.104 C 
BRANCH  15  16
HETATM   16  C8  UNL     1       2.843  13.705   3.296  1.00  0.00     0.043 A 
HETATM   17  C9  UNL     1       1.939  14.575   3.789  1.00  0.00     0.061 A 
HETATM   18  N2  UNL     1       2.381  14.980   5.018  1.00  0.00    -0.299 N 
HETATM   19  N3  UNL     1       3.517  14.384   5.279  1.00  0.00    -0.266 N 
ATOM     20  H2  UNL     1       1.903  15.640   5.632  1.00  0.00     0.186 HD
HETATM   21  C11 UNL     1       3.857  13.587   4.262  1.00  0.00     0.268 A 
ATOM     22  H3  UNL     1       4.061  14.510   6.132  1.00  0.00     0.190 HD
HETATM   23  O2  UNL     1       4.884  12.871   4.186  1.00  0.00    -0.266 OA
BRANCH  17  24
HETATM   24  C10 UNL     1       0.680  15.040   3.169  1.00  0.00     0.223 C 
BRANCH  24  25
HETATM   25  O1  UNL     1       0.005  15.831   4.098  1.00  0.00    -0.395 OA
ATOM     26  H1  UNL     1      -0.313  16.606   3.651  1.00  0.00     0.209 HD
ENDBRANCH  24  25
ENDBRANCH  17  24
ENDBRANCH  15  16
ENDBRANCH   8  15
BRANCH   9  27
HETATM   27  C13 UNL     1       3.597  15.475   0.110  1.00  0.00     0.051 C 
BRANCH  27  28
HETATM   28  C14 UNL     1       2.356  14.909  -0.626  1.00  0.00     0.107 C 
BRANCH  28  29
HETATM   29  C15 UNL     1       2.821  14.422  -1.970  1.00  0.00     0.218 C 
HETATM   30  O3  UNL     1       2.667  13.222  -2.316  1.00  0.00    -0.274 OA
HETATM   31  N4  UNL     1       3.435  15.395  -2.810  1.00  0.00    -0.352 N 
ATOM     32  H4  UNL     1       3.540  16.356  -2.482  1.00  0.00     0.162 HD
BRANCH  31  33
HETATM   33  C16 UNL     1       3.906  15.029  -4.107  1.00  0.00     0.225 C 
BRANCH  33  34
HETATM   34  C17 UNL     1       3.132  15.639  -5.213  1.00  0.00     0.236 C 
HETATM   35  O4  UNL     1       3.124  16.886  -5.462  1.00  0.00    -0.272 OA
HETATM   36  N5  UNL     1       2.351  14.804  -6.055  1.00  0.00    -0.359 N 
HETATM   37  C18 UNL     1       1.567  15.366  -7.165  1.00  0.00     0.152 C 
HETATM   38  C19 UNL     1       2.317  13.386  -5.827  1.00  0.00     0.152 C 
ENDBRANCH  33  34
ENDBRANCH  31  33
ENDBRANCH  28  29
ENDBRANCH  27  28
ENDBRANCH   9  27
BRANCH  12  39
HETATM   39  C23 UNL     1       7.911  17.099  -1.081  1.00  0.00    -0.017 A 
HETATM   40  C24 UNL     1       9.069  17.460  -0.461  1.00  0.00     0.012 A 
HETATM   41  C25 UNL     1       9.397  18.810  -0.271  1.00  0.00     0.018 A 
HETATM   42  C26 UNL     1       8.496  19.733  -0.739  1.00  0.00     0.087 A 
HETATM   43  N6  UNL     1       7.359  19.381  -1.348  1.00  0.00    -0.375 N 
HETATM   44  C27 UNL     1       7.065  18.078  -1.520  1.00  0.00     0.097 A 
ATOM     45  H6  UNL     1       6.716  20.098  -1.682  1.00  0.00     0.164 HD
ENDBRANCH  12  39
TORSDOF 10
ENDMDL
MODEL 5
REMARK VINA RESULT: -9.608830064      0.869      1.031
REMARK  10 active torsions:
REMARK  status: ('A' for Active; 'I' for Inactive)
REMARK    1  A    between atoms: C6_8  and  C7_9 
REMARK    2  A    between atoms: C7_9  and  C8_10 
REMARK    3  A    between atoms: C9_11  and  C10_12 
REMARK    4  A    between atoms: C10_12  and  O1_13 
REMARK    5  A    between atoms: C12_21  and  C13_22 
REMARK    6  A    between atoms: C13_22  and  C14_23 
REMARK    7  A    between atoms: C14_23  and  C15_24 
REMARK       I    between atoms: C15_24  and  N4_26 
REMARK    8  A    between atoms: N4_26  and  C16_28 
REMARK    9  A    between atoms: C16_28  and  C17_29 
REMARK       I    between atoms: C17_29  and  N5_31 
REMARK   10  A    between atoms: C22_36  and  C23_37 
ROOT
HETATM    1  C1  UNL     1      10.841  12.790  -0.596  1.00  0.00     0.068 C 
HETATM    2  C2  UNL     1       9.451  13.216  -0.239  1.00  0.00     0.002 C 
HETATM    3  C3  UNL     1       8.725  12.217   0.237  1.00  0.00     0.026 C 
HETATM    4  C4  UNL     1       7.357  12.113   0.713  1.00  0.00     0.032 C 
HETATM    5  C5  UNL     1       6.284  12.903   0.761  1.00  0.00     0.043 A 
HETATM    6  N1  UNL     1       5.191  12.385   1.304  1.00  0.00    -0.358 N 
ATOM      7  H1  UNL     1       5.100  11.444   1.687  1.00  0.00     0.166 HD
HETATM    8  C6  UNL     1       4.206  13.333   1.260  1.00  0.00     0.021 A 
HETATM    9  C12 UNL     1       4.702  14.483   0.664  1.00  0.00    -0.022 A 
HETATM   10  C20 UNL     1       6.033  14.217   0.345  1.00  0.00    -0.003 A 
HETATM   11  C21 UNL     1       6.766  15.150  -0.236  1.00  0.00     0.017 C 
HETATM   12  C22 UNL     1       8.082  15.462  -0.763  1.00  0.00     0.140 C 
HETATM   13  N7  UNL     1       9.162  14.588  -0.469  1.00  0.00    -0.381 N 
ATOM     14  H7  UNL     1      10.024  15.130  -0.399  1.00  0.00     0.160 HD
ENDROOT
BRANCH   8  15
HETATM   15  C7  UNL     1       2.901  13.056   1.905  1.00  0.00     0.104 C 
BRANCH  15  16
HETATM   16  C8  UNL     1       2.764  13.743   3.218  1.00  0.00     0.043 A 
HETATM   17  C9  UNL     1       3.441  13.708   4.384  1.00  0.00     0.061 A 
HETATM   18  N2  UNL     1       2.822  14.567   5.249  1.00  0.00    -0.299 N 
HETATM   19  N3  UNL     1       1.799  15.115   4.645  1.00  0.00    -0.266 N 
ATOM     20  H2  UNL     1       3.112  14.750   6.210  1.00  0.00     0.186 HD
HETATM   21  C11 UNL     1       1.706  14.652   3.395  1.00  0.00     0.268 A 
ATOM     22  H3  UNL     1       1.166  15.795   5.066  1.00  0.00     0.190 HD
HETATM   23  O2  UNL     1       0.843  14.970   2.543  1.00  0.00    -0.266 OA
BRANCH  17  24
HETATM   24  C10 UNL     1       4.642  12.915   4.723  1.00  0.00     0.223 C 
BRANCH  24  25
HETATM   25  O1  UNL     1       5.089  13.321   5.980  1.00  0.00    -0.395 OA
ATOM     26  H1  UNL     1       5.990  13.039   6.078  1.00  0.00     0.209 HD
ENDBRANCH  24  25
ENDBRANCH  17  24
ENDBRANCH  15  16
ENDBRANCH   8  15
BRANCH   9  27
HETATM   27  C13 UNL     1       3.965  15.685   0.309  1.00  0.00     0.051 C 
BRANCH  27  28
HETATM   28  C14 UNL     1       2.767  15.365  -0.620  1.00  0.00     0.107 C 
BRANCH  28  29
HETATM   29  C15 UNL     1       3.166  15.770  -2.013  1.00  0.00     0.218 C 
HETATM   30  O3  UNL     1       4.214  16.437  -2.222  1.00  0.00    -0.274 OA
HETATM   31  N4  UNL     1       2.294  15.355  -3.059  1.00  0.00    -0.352 N 
ATOM     32  H4  UNL     1       1.455  14.819  -2.839  1.00  0.00     0.162 HD
BRANCH  31  33
HETATM   33  C16 UNL     1       2.591  15.689  -4.416  1.00  0.00     0.225 C 
BRANCH  33  34
HETATM   34  C17 UNL     1       3.315  14.621  -5.145  1.00  0.00     0.236 C 
HETATM   35  O4  UNL     1       4.403  14.103  -4.737  1.00  0.00    -0.272 OA
HETATM   36  N5  UNL     1       2.782  14.134  -6.367  1.00  0.00    -0.359 N 
HETATM   37  C18 UNL     1       3.466  13.076  -7.125  1.00  0.00     0.152 C 
HETATM   38  C19 UNL     1       1.556  14.677  -6.883  1.00  0.00     0.152 C 
ENDBRANCH  33  34
ENDBRANCH  31  33
ENDBRANCH  28  29
ENDBRANCH  27  28
ENDBRANCH   9  27
BRANCH  12  39
HETATM   39  C23 UNL     1       8.516  16.865  -0.441  1.00  0.00    -0.017 A 
HETATM   40  C24 UNL     1       9.553  17.013   0.430  1.00  0.00     0.012 A 
HETATM   41  C25 UNL     1      10.015  18.286   0.794  1.00  0.00     0.018 A 
HETATM   42  C26 UNL     1       9.371  19.358   0.230  1.00  0.00     0.087 A 
HETATM   43  N6  UNL     1       8.352  19.215  -0.624  1.00  0.00    -0.375 N 
HETATM   44  C27 UNL     1       7.926  17.983  -0.960  1.00  0.00     0.097 A 
ATOM     45  H6  UNL     1       7.900  20.038  -1.021  1.00  0.00     0.164 HD
ENDBRANCH  12  39
TORSDOF 10
ENDMDL
