MODEL 1
REMARK VINA RESULT: -9.118134312      0.000      0.000
REMARK  13 active torsions:
REMARK  status: ('A' for Active; 'I' for Inactive)
REMARK    1  A    between atoms: C2_2  and  C3_3 
REMARK    2  A    between atoms: C3_3  and  C4_4 
REMARK    3  A    between atoms: C4_4  and  C5_5 
REMARK    4  A    between atoms: C5_5  and  C6_6 
REMARK    5  A    between atoms: C6_6  and  C7_7 
REMARK    6  A    between atoms: C7_7  and  N1_8 
REMARK    7  A    between atoms: N1_8  and  C8_9 
REMARK       I    between atoms: N1_8  and  C16_22 
REMARK    8  A    between atoms: C8_9  and  C9_10 
REMARK    9  A    between atoms: C9_10  and  C10_11 
REMARK   10  A    between atoms: C10_11  and  N2_12 
REMARK       I    between atoms: C16_22  and  N4_24 
REMARK   11  A    between atoms: N4_24  and  C17_26 
REMARK   12  A    between atoms: C18_29  and  N6_30 
REMARK   13  A    between atoms: C21_37  and  N8_38 
ROOT
HETATM    1  N1  UNL     1       6.772 -16.653  -1.315  1.00  0.00    -0.334 N 
HETATM    2  C16 UNL     1       6.855 -15.639  -0.281  1.00  0.00     0.336 C 
HETATM    3  O2  UNL     1       6.168 -15.836   0.752  1.00  0.00    -0.246 OA
HETATM    4  N4  UNL     1       7.667 -14.493  -0.442  1.00  0.00    -0.141 N 
ATOM      5  H4  UNL     1       7.435 -13.803  -1.157  1.00  0.00     0.189 HD
ENDROOT
BRANCH   4   6
HETATM    6  C17 UNL     1       8.699 -14.314   0.309  1.00  0.00     0.688 A 
HETATM    7  N5  UNL     1       9.935 -14.021  -0.160  1.00  0.00    -0.174 N 
HETATM    8  C18 UNL     1      11.000 -13.839   0.640  1.00  0.00     0.144 A 
ATOM      9  H5  UNL     1      10.065 -13.933  -1.168  1.00  0.00     0.186 HD
HETATM   10  C19 UNL     1      10.853 -13.951   2.020  1.00  0.00     0.104 A 
HETATM   11  N7  UNL     1      11.857 -13.786   2.864  1.00  0.00    -0.359 N 
HETATM   12  C27 UNL     1       9.604 -14.248   2.518  1.00  0.00     0.082 A 
HETATM   13  C20 UNL     1      11.638 -13.911   4.194  1.00  0.00     0.117 A 
ATOM     14  H7  UNL     1      12.790 -13.565   2.517  1.00  0.00     0.165 HD
HETATM   15  C21 UNL     1      10.422 -14.205   4.755  1.00  0.00     0.048 A 
HETATM   16  C26 UNL     1       9.359 -14.381   3.880  1.00  0.00     0.063 A 
HETATM   17  N9  UNL     1       8.596 -14.414   1.652  1.00  0.00    -0.189 N 
ATOM     18  H9  UNL     1       7.678 -14.632   2.037  1.00  0.00     0.184 HD
BRANCH   8  19
HETATM   19  N6  UNL     1      12.150 -13.565   0.160  1.00  0.00    -0.383 N 
ATOM     20  H62 UNL     1      12.244 -13.411  -0.844  1.00  0.00     0.157 HD
ATOM     21  H61 UNL     1      12.972 -13.497   0.760  1.00  0.00     0.157 HD
ENDBRANCH   8  19
BRANCH  15  22
HETATM   22  N8  UNL     1      10.210 -14.327   6.167  1.00  0.00    -0.376 N 
HETATM   23  C22 UNL     1       9.132 -15.169   6.685  1.00  0.00     0.149 C 
HETATM   24  C23 UNL     1       9.635 -15.708   8.029  1.00  0.00     0.187 C 
HETATM   25  O3  UNL     1      11.003 -15.889   8.025  1.00  0.00    -0.388 OA
HETATM   26  C24 UNL     1      11.705 -14.687   8.035  1.00  0.00     0.187 C 
HETATM   27  C25 UNL     1      11.004 -13.648   7.154  1.00  0.00     0.149 C 
ENDBRANCH  15  22
ENDBRANCH   4   6
BRANCH   1  28
HETATM   28  C7  UNL     1       7.535 -16.490  -2.499  1.00  0.00     0.127 C 
BRANCH  28  29
HETATM   29  C6  UNL     1       8.960 -17.024  -2.249  1.00  0.00     0.020 C 
BRANCH  29  30
HETATM   30  C5  UNL     1       9.888 -16.118  -3.074  1.00  0.00     0.002 C 
BRANCH  30  31
HETATM   31  C4  UNL     1       9.134 -14.962  -3.640  1.00  0.00     0.000 C 
BRANCH  31  32
HETATM   32  C3  UNL     1       9.527 -14.711  -5.067  1.00  0.00    -0.000 C 
BRANCH  32  33
HETATM   33  C2  UNL     1       9.489 -15.986  -5.850  1.00  0.00    -0.005 C 
HETATM   34  C1  UNL     1       9.018 -15.714  -7.292  1.00  0.00     0.005 C 
ENDBRANCH  32  33
ENDBRANCH  31  32
ENDBRANCH  30  31
ENDBRANCH  29  30
ENDBRANCH  28  29
ENDBRANCH   1  28
BRANCH   1  35
HETATM   35  C8  UNL     1       5.954 -17.795  -1.042  1.00  0.00     0.129 C 
BRANCH  35  36
HETATM   36  C9  UNL     1       5.487 -18.452  -2.284  1.00  0.00     0.050 C 
BRANCH  36  37
HETATM   37  C10 UNL     1       4.542 -17.666  -3.096  1.00  0.00     0.276 C 
BRANCH  37  38
HETATM   38  N2  UNL     1       4.146 -18.295  -4.340  1.00  0.00     0.116 N 
HETATM   39  C11 UNL     1       5.281 -18.697  -5.099  1.00  0.00     0.300 C 
HETATM   40  C12 UNL     1       6.102 -17.590  -5.675  1.00  0.00     0.198 C 
HETATM   41  O1  UNL     1       5.795 -17.375  -7.040  1.00  0.00    -0.388 OA
HETATM   42  C13 UNL     1       5.159 -16.114  -7.082  1.00  0.00     0.195 C 
HETATM   43  C14 UNL     1       3.673 -16.407  -7.055  1.00  0.00     0.260 C 
HETATM   44  N3  UNL     1       3.402 -17.712  -6.480  1.00  0.00    -0.047 N 
HETATM   45  C15 UNL     1       3.126 -17.596  -5.044  1.00  0.00     0.502 C 
ATOM     46  H32 UNL     1       2.650 -18.194  -6.973  1.00  0.00     0.279 HD
ATOM     47  H31 UNL     1       4.156 -18.373  -6.669  1.00  0.00     0.279 HD
ENDBRANCH  37  38
ENDBRANCH  36  37
ENDBRANCH  35  36
ENDBRANCH   1  35
TORSDOF 13
ENDMDL
MODEL 2
REMARK VINA RESULT: -8.977533538      2.283      3.842
REMARK  13 active torsions:
REMARK  status: ('A' for Active; 'I' for Inactive)
REMARK    1  A    between atoms: C2_2  and  C3_3 
REMARK    2  A    between atoms: C3_3  and  C4_4 
REMARK    3  A    between atoms: C4_4  and  C5_5 
REMARK    4  A    between atoms: C5_5  and  C6_6 
REMARK    5  A    between atoms: C6_6  and  C7_7 
REMARK    6  A    between atoms: C7_7  and  N1_8 
REMARK    7  A    between atoms: N1_8  and  C8_9 
REMARK       I    between atoms: N1_8  and  C16_22 
REMARK    8  A    between atoms: C8_9  and  C9_10 
REMARK    9  A    between atoms: C9_10  and  C10_11 
REMARK   10  A    between atoms: C10_11  and  N2_12 
REMARK       I    between atoms: C16_22  and  N4_24 
REMARK   11  A    between atoms: N4_24  and  C17_26 
REMARK   12  A    between atoms: C18_29  and  N6_30 
REMARK   13  A    between atoms: C21_37  and  N8_38 
ROOT
HETATM    1  N1  UNL     1       8.668 -14.975  -2.220  1.00  0.00    -0.334 N 
HETATM    2  C16 UNL     1       8.915 -14.032  -1.145  1.00  0.00     0.336 C 
HETATM    3  O2  UNL     1       7.917 -13.686  -0.465  1.00  0.00    -0.246 OA
HETATM    4  N4  UNL     1      10.214 -13.535  -0.890  1.00  0.00    -0.141 N 
ATOM      5  H4  UNL     1      10.671 -12.935  -1.576  1.00  0.00     0.189 HD
ENDROOT
BRANCH   4   6
HETATM    6  C17 UNL     1      10.824 -13.837   0.205  1.00  0.00     0.688 A 
HETATM    7  N5  UNL     1      12.155 -14.071   0.290  1.00  0.00    -0.174 N 
HETATM    8  C18 UNL     1      12.772 -14.386   1.442  1.00  0.00     0.144 A 
ATOM      9  H5  UNL     1      12.715 -14.006  -0.559  1.00  0.00     0.186 HD
HETATM   10  C19 UNL     1      12.033 -14.481   2.617  1.00  0.00     0.104 A 
HETATM   11  N7  UNL     1      12.576 -14.786   3.784  1.00  0.00    -0.359 N 
HETATM   12  C27 UNL     1      10.678 -14.245   2.553  1.00  0.00     0.082 A 
HETATM   13  C20 UNL     1      11.793 -14.861   4.885  1.00  0.00     0.117 A 
ATOM     14  H7  UNL     1      13.577 -14.964   3.854  1.00  0.00     0.165 HD
HETATM   15  C21 UNL     1      10.440 -14.638   4.891  1.00  0.00     0.048 A 
HETATM   16  C26 UNL     1       9.857 -14.317   3.673  1.00  0.00     0.063 A 
HETATM   17  N9  UNL     1      10.141 -13.937   1.366  1.00  0.00    -0.189 N 
ATOM     18  H9  UNL     1       9.137 -13.765   1.335  1.00  0.00     0.184 HD
BRANCH   8  19
HETATM   19  N6  UNL     1      14.030 -14.601   1.482  1.00  0.00    -0.383 N 
ATOM     20  H62 UNL     1      14.441 -15.260   0.820  1.00  0.00     0.157 HD
ATOM     21  H61 UNL     1      14.627 -14.128   2.160  1.00  0.00     0.157 HD
ENDBRANCH   8  19
BRANCH  15  22
HETATM   22  N8  UNL     1       9.629 -14.716   6.070  1.00  0.00    -0.376 N 
HETATM   23  C22 UNL     1       8.695 -15.827   6.256  1.00  0.00     0.149 C 
HETATM   24  C23 UNL     1       8.628 -16.063   7.769  1.00  0.00     0.187 C 
HETATM   25  O3  UNL     1       9.831 -15.780   8.383  1.00  0.00    -0.388 OA
HETATM   26  C24 UNL     1      10.106 -14.416   8.423  1.00  0.00     0.187 C 
HETATM   27  C25 UNL     1       9.658 -13.739   7.123  1.00  0.00     0.149 C 
ENDBRANCH  15  22
ENDBRANCH   4   6
BRANCH   1  28
HETATM   28  C7  UNL     1       9.759 -15.411  -3.014  1.00  0.00     0.127 C 
BRANCH  28  29
HETATM   29  C6  UNL     1       9.736 -14.648  -4.353  1.00  0.00     0.020 C 
BRANCH  29  30
HETATM   30  C5  UNL     1      10.263 -15.642  -5.401  1.00  0.00     0.002 C 
BRANCH  30  31
HETATM   31  C4  UNL     1       9.525 -15.495  -6.689  1.00  0.00     0.000 C 
BRANCH  31  32
HETATM   32  C3  UNL     1       8.588 -16.648  -6.906  1.00  0.00    -0.000 C 
BRANCH  32  33
HETATM   33  C2  UNL     1       7.258 -16.157  -7.384  1.00  0.00    -0.005 C 
HETATM   34  C1  UNL     1       6.570 -15.323  -6.284  1.00  0.00     0.005 C 
ENDBRANCH  32  33
ENDBRANCH  31  32
ENDBRANCH  30  31
ENDBRANCH  29  30
ENDBRANCH  28  29
ENDBRANCH   1  28
BRANCH   1  35
HETATM   35  C8  UNL     1       7.327 -15.450  -2.374  1.00  0.00     0.129 C 
BRANCH  35  36
HETATM   36  C9  UNL     1       7.287 -16.880  -2.754  1.00  0.00     0.050 C 
BRANCH  36  37
HETATM   37  C10 UNL     1       6.077 -17.610  -2.336  1.00  0.00     0.276 C 
BRANCH  37  38
HETATM   38  N2  UNL     1       6.185 -18.275  -1.054  1.00  0.00     0.116 N 
HETATM   39  C11 UNL     1       5.147 -17.865  -0.170  1.00  0.00     0.300 C 
HETATM   40  C12 UNL     1       5.228 -16.456   0.317  1.00  0.00     0.198 C 
HETATM   41  O1  UNL     1       5.782 -16.389   1.618  1.00  0.00    -0.388 OA
HETATM   42  C13 UNL     1       7.041 -15.768   1.453  1.00  0.00     0.195 C 
HETATM   43  C14 UNL     1       8.043 -16.899   1.357  1.00  0.00     0.260 C 
HETATM   44  N3  UNL     1       7.408 -18.134   0.936  1.00  0.00    -0.047 N 
HETATM   45  C15 UNL     1       7.504 -18.293  -0.519  1.00  0.00     0.502 C 
ATOM     46  H32 UNL     1       7.786 -18.942   1.432  1.00  0.00     0.279 HD
ATOM     47  H31 UNL     1       6.443 -18.194   1.261  1.00  0.00     0.279 HD
ENDBRANCH  37  38
ENDBRANCH  36  37
ENDBRANCH  35  36
ENDBRANCH   1  35
TORSDOF 13
ENDMDL
MODEL 3
REMARK VINA RESULT: -8.881483682      1.497      2.207
REMARK  13 active torsions:
REMARK  status: ('A' for Active; 'I' for Inactive)
REMARK    1  A    between atoms: C2_2  and  C3_3 
REMARK    2  A    between atoms: C3_3  and  C4_4 
REMARK    3  A    between atoms: C4_4  and  C5_5 
REMARK    4  A    between atoms: C5_5  and  C6_6 
REMARK    5  A    between atoms: C6_6  and  C7_7 
REMARK    6  A    between atoms: C7_7  and  N1_8 
REMARK    7  A    between atoms: N1_8  and  C8_9 
REMARK       I    between atoms: N1_8  and  C16_22 
REMARK    8  A    between atoms: C8_9  and  C9_10 
REMARK    9  A    between atoms: C9_10  and  C10_11 
REMARK   10  A    between atoms: C10_11  and  N2_12 
REMARK       I    between atoms: C16_22  and  N4_24 
REMARK   11  A    between atoms: N4_24  and  C17_26 
REMARK   12  A    between atoms: C18_29  and  N6_30 
REMARK   13  A    between atoms: C21_37  and  N8_38 
ROOT
HETATM    1  N1  UNL     1       8.467 -15.127  -1.934  1.00  0.00    -0.334 N 
HETATM    2  C16 UNL     1       8.743 -14.156  -0.892  1.00  0.00     0.336 C 
HETATM    3  O2  UNL     1       7.769 -13.807  -0.180  1.00  0.00    -0.246 OA
HETATM    4  N4  UNL     1      10.044 -13.637  -0.700  1.00  0.00    -0.141 N 
ATOM      5  H4  UNL     1      10.466 -13.047  -1.418  1.00  0.00     0.189 HD
ENDROOT
BRANCH   4   6
HETATM    6  C17 UNL     1      10.702 -13.904   0.376  1.00  0.00     0.688 A 
HETATM    7  N5  UNL     1      12.036 -14.129   0.412  1.00  0.00    -0.174 N 
HETATM    8  C18 UNL     1      12.703 -14.408   1.545  1.00  0.00     0.144 A 
ATOM      9  H5  UNL     1      12.560 -14.084  -0.461  1.00  0.00     0.186 HD
HETATM   10  C19 UNL     1      12.014 -14.474   2.753  1.00  0.00     0.104 A 
HETATM   11  N7  UNL     1      12.607 -14.744   3.904  1.00  0.00    -0.359 N 
HETATM   12  C27 UNL     1      10.656 -14.248   2.739  1.00  0.00     0.082 A 
HETATM   13  C20 UNL     1      11.871 -14.792   5.038  1.00  0.00     0.117 A 
ATOM     14  H7  UNL     1      13.611 -14.914   3.937  1.00  0.00     0.165 HD
HETATM   15  C21 UNL     1      10.518 -14.577   5.095  1.00  0.00     0.048 A 
HETATM   16  C26 UNL     1       9.883 -14.293   3.893  1.00  0.00     0.063 A 
HETATM   17  N9  UNL     1      10.068 -13.976   1.567  1.00  0.00    -0.189 N 
ATOM     18  H9  UNL     1       9.062 -13.810   1.574  1.00  0.00     0.184 HD
BRANCH   8  19
HETATM   19  N6  UNL     1      13.962 -14.615   1.539  1.00  0.00    -0.383 N 
ATOM     20  H62 UNL     1      14.594 -13.827   1.391  1.00  0.00     0.157 HD
ATOM     21  H61 UNL     1      14.346 -15.550   1.679  1.00  0.00     0.157 HD
ENDBRANCH   8  19
BRANCH  15  22
HETATM   22  N8  UNL     1       9.757 -14.627   6.308  1.00  0.00    -0.376 N 
HETATM   23  C22 UNL     1       8.805 -15.713   6.543  1.00  0.00     0.149 C 
HETATM   24  C23 UNL     1       8.798 -15.937   8.059  1.00  0.00     0.187 C 
HETATM   25  O3  UNL     1      10.033 -15.680   8.618  1.00  0.00    -0.388 OA
HETATM   26  C24 UNL     1      10.343 -14.323   8.636  1.00  0.00     0.187 C 
HETATM   27  C25 UNL     1       9.856 -13.644   7.351  1.00  0.00     0.149 C 
ENDBRANCH  15  22
ENDBRANCH   4   6
BRANCH   1  28
HETATM   28  C7  UNL     1       9.532 -15.568  -2.761  1.00  0.00     0.127 C 
BRANCH  28  29
HETATM   29  C6  UNL     1       9.527 -14.740  -4.061  1.00  0.00     0.020 C 
BRANCH  29  30
HETATM   30  C5  UNL     1      10.237 -15.615  -5.107  1.00  0.00     0.002 C 
BRANCH  30  31
HETATM   31  C4  UNL     1       9.552 -15.521  -6.429  1.00  0.00     0.000 C 
BRANCH  31  32
HETATM   32  C3  UNL     1       8.611 -16.674  -6.630  1.00  0.00    -0.000 C 
BRANCH  32  33
HETATM   33  C2  UNL     1       7.362 -16.213  -7.314  1.00  0.00    -0.005 C 
HETATM   34  C1  UNL     1       6.642 -15.155  -6.455  1.00  0.00     0.005 C 
ENDBRANCH  32  33
ENDBRANCH  31  32
ENDBRANCH  30  31
ENDBRANCH  29  30
ENDBRANCH  28  29
ENDBRANCH   1  28
BRANCH   1  35
HETATM   35  C8  UNL     1       7.128 -15.623  -2.023  1.00  0.00     0.129 C 
BRANCH  35  36
HETATM   36  C9  UNL     1       7.092 -17.062  -2.367  1.00  0.00     0.050 C 
BRANCH  36  37
HETATM   37  C10 UNL     1       6.420 -17.392  -3.635  1.00  0.00     0.276 C 
BRANCH  37  38
HETATM   38  N2  UNL     1       5.399 -18.415  -3.531  1.00  0.00     0.116 N 
HETATM   39  C11 UNL     1       5.024 -18.902  -4.816  1.00  0.00     0.300 C 
HETATM   40  C12 UNL     1       4.272 -17.943  -5.678  1.00  0.00     0.198 C 
HETATM   41  O1  UNL     1       2.880 -18.197  -5.643  1.00  0.00    -0.388 OA
HETATM   42  C13 UNL     1       2.319 -17.091  -4.965  1.00  0.00     0.195 C 
HETATM   43  C14 UNL     1       2.179 -17.527  -3.522  1.00  0.00     0.260 C 
HETATM   44  N3  UNL     1       3.091 -18.612  -3.206  1.00  0.00    -0.047 N 
HETATM   45  C15 UNL     1       4.339 -18.088  -2.640  1.00  0.00     0.502 C 
ATOM     46  H32 UNL     1       2.658 -19.304  -2.595  1.00  0.00     0.279 HD
ATOM     47  H31 UNL     1       3.262 -19.209  -4.015  1.00  0.00     0.279 HD
ENDBRANCH  37  38
ENDBRANCH  36  37
ENDBRANCH  35  36
ENDBRANCH   1  35
TORSDOF 13
ENDMDL
MODEL 4
REMARK VINA RESULT: -8.815089319      1.339      1.785
REMARK  13 active torsions:
REMARK  status: ('A' for Active; 'I' for Inactive)
REMARK    1  A    between atoms: C2_2  and  C3_3 
REMARK    2  A    between atoms: C3_3  and  C4_4 
REMARK    3  A    between atoms: C4_4  and  C5_5 
REMARK    4  A    between atoms: C5_5  and  C6_6 
REMARK    5  A    between atoms: C6_6  and  C7_7 
REMARK    6  A    between atoms: C7_7  and  N1_8 
REMARK    7  A    between atoms: N1_8  and  C8_9 
REMARK       I    between atoms: N1_8  and  C16_22 
REMARK    8  A    between atoms: C8_9  and  C9_10 
REMARK    9  A    between atoms: C9_10  and  C10_11 
REMARK   10  A    between atoms: C10_11  and  N2_12 
REMARK       I    between atoms: C16_22  and  N4_24 
REMARK   11  A    between atoms: N4_24  and  C17_26 
REMARK   12  A    between atoms: C18_29  and  N6_30 
REMARK   13  A    between atoms: C21_37  and  N8_38 
ROOT
HETATM    1  N1  UNL     1       6.541 -17.013  -1.238  1.00  0.00    -0.334 N 
HETATM    2  C16 UNL     1       6.593 -16.029  -0.172  1.00  0.00     0.336 C 
HETATM    3  O2  UNL     1       5.984 -16.320   0.887  1.00  0.00    -0.246 OA
HETATM    4  N4  UNL     1       7.294 -14.812  -0.332  1.00  0.00    -0.141 N 
ATOM      5  H4  UNL     1       6.964 -14.122  -1.008  1.00  0.00     0.189 HD
ENDROOT
BRANCH   4   6
HETATM    6  C17 UNL     1       8.347 -14.567   0.370  1.00  0.00     0.688 A 
HETATM    7  N5  UNL     1       9.547 -14.230  -0.157  1.00  0.00    -0.174 N 
HETATM    8  C18 UNL     1      10.634 -13.980   0.592  1.00  0.00     0.144 A 
ATOM      9  H5  UNL     1       9.631 -14.161  -1.171  1.00  0.00     0.186 HD
HETATM   10  C19 UNL     1      10.549 -14.065   1.979  1.00  0.00     0.104 A 
HETATM   11  N7  UNL     1      11.579 -13.833   2.777  1.00  0.00    -0.359 N 
HETATM   12  C27 UNL     1       9.338 -14.406   2.537  1.00  0.00     0.082 A 
HETATM   13  C20 UNL     1      11.421 -13.935   4.117  1.00  0.00     0.117 A 
ATOM     14  H7  UNL     1      12.485 -13.579   2.385  1.00  0.00     0.165 HD
HETATM   15  C21 UNL     1      10.244 -14.270   4.736  1.00  0.00     0.048 A 
HETATM   16  C26 UNL     1       9.156 -14.516   3.910  1.00  0.00     0.063 A 
HETATM   17  N9  UNL     1       8.304 -14.639   1.718  1.00  0.00    -0.189 N 
ATOM     18  H9  UNL     1       7.413 -14.889   2.146  1.00  0.00     0.184 HD
BRANCH   8  19
HETATM   19  N6  UNL     1      11.750 -13.666   0.058  1.00  0.00    -0.383 N 
ATOM     20  H62 UNL     1      11.946 -12.684  -0.137  1.00  0.00     0.157 HD
ATOM     21  H61 UNL     1      12.444 -14.375  -0.174  1.00  0.00     0.157 HD
ENDBRANCH   8  19
BRANCH  15  22
HETATM   22  N8  UNL     1      10.096 -14.367   6.158  1.00  0.00    -0.376 N 
HETATM   23  C22 UNL     1       9.056 -15.215   6.740  1.00  0.00     0.149 C 
HETATM   24  C23 UNL     1       9.627 -15.718   8.070  1.00  0.00     0.187 C 
HETATM   25  O3  UNL     1      10.996 -15.878   8.009  1.00  0.00    -0.388 OA
HETATM   26  C24 UNL     1      11.678 -14.666   7.965  1.00  0.00     0.187 C 
HETATM   27  C25 UNL     1      10.921 -13.656   7.095  1.00  0.00     0.149 C 
ENDBRANCH  15  22
ENDBRANCH   4   6
BRANCH   1  28
HETATM   28  C7  UNL     1       7.221 -16.745  -2.453  1.00  0.00     0.127 C 
BRANCH  28  29
HETATM   29  C6  UNL     1       8.694 -17.175  -2.304  1.00  0.00     0.020 C 
BRANCH  29  30
HETATM   30  C5  UNL     1       9.509 -16.117  -3.064  1.00  0.00     0.002 C 
BRANCH  30  31
HETATM   31  C4  UNL     1       8.609 -15.148  -3.754  1.00  0.00     0.000 C 
BRANCH  31  32
HETATM   32  C3  UNL     1       9.280 -14.555  -4.959  1.00  0.00    -0.000 C 
BRANCH  32  33
HETATM   33  C2  UNL     1       9.799 -15.639  -5.852  1.00  0.00    -0.005 C 
HETATM   34  C1  UNL     1       8.945 -15.731  -7.132  1.00  0.00     0.005 C 
ENDBRANCH  32  33
ENDBRANCH  31  32
ENDBRANCH  30  31
ENDBRANCH  29  30
ENDBRANCH  28  29
ENDBRANCH   1  28
BRANCH   1  35
HETATM   35  C8  UNL     1       5.841 -18.231  -0.965  1.00  0.00     0.129 C 
BRANCH  35  36
HETATM   36  C9  UNL     1       5.350 -18.876  -2.204  1.00  0.00     0.050 C 
BRANCH  36  37
HETATM   37  C10 UNL     1       3.922 -18.668  -2.501  1.00  0.00     0.276 C 
BRANCH  37  38
HETATM   38  N2  UNL     1       3.632 -17.476  -3.272  1.00  0.00     0.116 N 
HETATM   39  C11 UNL     1       2.394 -16.894  -2.876  1.00  0.00     0.300 C 
HETATM   40  C12 UNL     1       1.170 -17.674  -3.227  1.00  0.00     0.198 C 
HETATM   41  O1  UNL     1       0.550 -17.167  -4.394  1.00  0.00    -0.388 OA
HETATM   42  C13 UNL     1       0.734 -18.166  -5.375  1.00  0.00     0.195 C 
HETATM   43  C14 UNL     1       1.965 -17.751  -6.153  1.00  0.00     0.260 C 
HETATM   44  N3  UNL     1       2.808 -16.863  -5.374  1.00  0.00    -0.047 N 
HETATM   45  C15 UNL     1       3.847 -17.623  -4.671  1.00  0.00     0.502 C 
ATOM     46  H32 UNL     1       3.206 -16.118  -5.947  1.00  0.00     0.279 HD
ATOM     47  H31 UNL     1       2.262 -16.286  -4.734  1.00  0.00     0.279 HD
ENDBRANCH  37  38
ENDBRANCH  36  37
ENDBRANCH  35  36
ENDBRANCH   1  35
TORSDOF 13
ENDMDL
MODEL 5
REMARK VINA RESULT: -8.760025042      1.709      2.191
REMARK  13 active torsions:
REMARK  status: ('A' for Active; 'I' for Inactive)
REMARK    1  A    between atoms: C2_2  and  C3_3 
REMARK    2  A    between atoms: C3_3  and  C4_4 
REMARK    3  A    between atoms: C4_4  and  C5_5 
REMARK    4  A    between atoms: C5_5  and  C6_6 
REMARK    5  A    between atoms: C6_6  and  C7_7 
REMARK    6  A    between atoms: C7_7  and  N1_8 
REMARK    7  A    between atoms: N1_8  and  C8_9 
REMARK       I    between atoms: N1_8  and  C16_22 
REMARK    8  A    between atoms: C8_9  and  C9_10 
REMARK    9  A    between atoms: C9_10  and  C10_11 
REMARK   10  A    between atoms: C10_11  and  N2_12 
REMARK       I    between atoms: C16_22  and  N4_24 
REMARK   11  A    between atoms: N4_24  and  C17_26 
REMARK   12  A    between atoms: C18_29  and  N6_30 
REMARK   13  A    between atoms: C21_37  and  N8_38 
ROOT
HETATM    1  N1  UNL     1       7.231 -16.371  -0.326  1.00  0.00    -0.334 N 
HETATM    2  C16 UNL     1       7.666 -15.496   0.746  1.00  0.00     0.336 C 
HETATM    3  O2  UNL     1       7.198 -15.734   1.887  1.00  0.00    -0.246 OA
HETATM    4  N4  UNL     1       8.568 -14.434   0.506  1.00  0.00    -0.141 N 
ATOM      5  H4  UNL     1       8.280 -13.647  -0.075  1.00  0.00     0.189 HD
ENDROOT
BRANCH   4   6
HETATM    6  C17 UNL     1       9.752 -14.455   1.015  1.00  0.00     0.688 A 
HETATM    7  N5  UNL     1      10.863 -14.821   0.334  1.00  0.00    -0.174 N 
HETATM    8  C18 UNL     1      12.089 -14.838   0.884  1.00  0.00     0.144 A 
ATOM      9  H5  UNL     1      10.765 -15.097  -0.643  1.00  0.00     0.186 HD
HETATM   10  C19 UNL     1      12.253 -14.465   2.215  1.00  0.00     0.104 A 
HETATM   11  N7  UNL     1      13.430 -14.459   2.819  1.00  0.00    -0.359 N 
HETATM   12  C27 UNL     1      11.136 -14.089   2.927  1.00  0.00     0.082 A 
HETATM   13  C20 UNL     1      13.511 -14.085   4.117  1.00  0.00     0.117 A 
ATOM     14  H7  UNL     1      14.269 -14.734   2.311  1.00  0.00     0.165 HD
HETATM   15  C21 UNL     1      12.440 -13.699   4.882  1.00  0.00     0.048 A 
HETATM   16  C26 UNL     1      11.199 -13.701   4.260  1.00  0.00     0.063 A 
HETATM   17  N9  UNL     1       9.951 -14.100   2.303  1.00  0.00    -0.189 N 
ATOM     18  H9  UNL     1       9.134 -13.818   2.843  1.00  0.00     0.184 HD
BRANCH   8  19
HETATM   19  N6  UNL     1      13.113 -15.190   0.209  1.00  0.00    -0.383 N 
ATOM     20  H62 UNL     1      13.202 -16.164  -0.085  1.00  0.00     0.157 HD
ATOM     21  H61 UNL     1      13.840 -14.520  -0.040  1.00  0.00     0.157 HD
ENDBRANCH   8  19
BRANCH  15  22
HETATM   22  N8  UNL     1      12.549 -13.300   6.253  1.00  0.00    -0.376 N 
HETATM   23  C22 UNL     1      13.193 -12.035   6.610  1.00  0.00     0.149 C 
HETATM   24  C23 UNL     1      12.482 -11.550   7.878  1.00  0.00     0.187 C 
HETATM   25  O3  UNL     1      11.154 -11.925   7.892  1.00  0.00    -0.388 OA
HETATM   26  C24 UNL     1      10.983 -13.291   8.098  1.00  0.00     0.187 C 
HETATM   27  C25 UNL     1      12.061 -14.085   7.353  1.00  0.00     0.149 C 
ENDBRANCH  15  22
ENDBRANCH   4   6
BRANCH   1  28
HETATM   28  C7  UNL     1       7.736 -16.158  -1.634  1.00  0.00     0.127 C 
BRANCH  28  29
HETATM   29  C6  UNL     1       8.990 -17.032  -1.830  1.00  0.00     0.020 C 
BRANCH  29  30
HETATM   30  C5  UNL     1       9.895 -16.242  -2.790  1.00  0.00     0.002 C 
BRANCH  30  31
HETATM   31  C4  UNL     1       9.352 -14.873  -3.025  1.00  0.00     0.000 C 
BRANCH  31  32
HETATM   32  C3  UNL     1       9.520 -14.467  -4.460  1.00  0.00    -0.000 C 
BRANCH  32  33
HETATM   33  C2  UNL     1       9.975 -15.633  -5.281  1.00  0.00    -0.005 C 
HETATM   34  C1  UNL     1       9.256 -15.637  -6.645  1.00  0.00     0.005 C 
ENDBRANCH  32  33
ENDBRANCH  31  32
ENDBRANCH  30  31
ENDBRANCH  29  30
ENDBRANCH  28  29
ENDBRANCH   1  28
BRANCH   1  35
HETATM   35  C8  UNL     1       6.348 -17.441   0.025  1.00  0.00     0.129 C 
BRANCH  35  36
HETATM   36  C9  UNL     1       4.928 -17.028  -0.030  1.00  0.00     0.050 C 
BRANCH  36  37
HETATM   37  C10 UNL     1       4.416 -16.703  -1.372  1.00  0.00     0.276 C 
BRANCH  37  38
HETATM   38  N2  UNL     1       3.561 -17.717  -1.956  1.00  0.00     0.116 N 
HETATM   39  C11 UNL     1       4.316 -18.848  -2.379  1.00  0.00     0.300 C 
HETATM   40  C12 UNL     1       5.212 -18.627  -3.553  1.00  0.00     0.198 C 
HETATM   41  O1  UNL     1       4.623 -19.104  -4.749  1.00  0.00    -0.388 OA
HETATM   42  C13 UNL     1       4.342 -17.948  -5.510  1.00  0.00     0.195 C 
HETATM   43  C14 UNL     1       2.892 -17.617  -5.227  1.00  0.00     0.260 C 
HETATM   44  N3  UNL     1       2.457 -18.186  -3.964  1.00  0.00    -0.047 N 
HETATM   45  C15 UNL     1       2.605 -17.209  -2.880  1.00  0.00     0.502 C 
ATOM     46  H32 UNL     1       1.505 -18.548  -4.020  1.00  0.00     0.279 HD
ATOM     47  H31 UNL     1       2.940 -19.060  -3.756  1.00  0.00     0.279 HD
ENDBRANCH  37  38
ENDBRANCH  36  37
ENDBRANCH  35  36
ENDBRANCH   1  35
TORSDOF 13
ENDMDL
