MODEL 1
REMARK VINA RESULT: -8.527088509      0.000      0.000
REMARK  14 active torsions:
REMARK  status: ('A' for Active; 'I' for Inactive)
REMARK    1  A    between atoms: C2_2  and  O1_3 
REMARK    2  A    between atoms: C2_2  and  C3_5 
REMARK    3  A    between atoms: C3_5  and  N1_6 
REMARK    4  A    between atoms: C3_5  and  C19_51 
REMARK    5  A    between atoms: N1_6  and  C4_8 
REMARK    6  A    between atoms: C4_8  and  O2_9 
REMARK    7  A    between atoms: C5_11  and  N2_12 
REMARK    8  A    between atoms: C5_11  and  C14_36 
REMARK       I    between atoms: N2_12  and  C6_14 
REMARK       I    between atoms: C6_14  and  N3_16 
REMARK    9  A    between atoms: C9_20  and  O4_21 
REMARK   10  A    between atoms: O4_21  and  C10_22 
REMARK   11  A    between atoms: C13_31  and  N6_32 
REMARK   12  A    between atoms: C17_40  and  C18_41 
REMARK   13  A    between atoms: N9_43  and  N10_45 
REMARK       I    between atoms: C19_51  and  N12_53 
REMARK   14  A    between atoms: N12_53  and  N13_55 
ROOT
HETATM    1  C4  UNL     1     -24.027  -6.846  -9.066  1.00  0.00     0.162 C 
HETATM    2  C5  UNL     1     -24.347  -5.475  -8.748  1.00  0.00     0.097 C 
ENDROOT
BRANCH   2   3
HETATM    3  N2  UNL     1     -25.632  -5.102  -9.332  1.00  0.00    -0.306 N 
HETATM    4  C6  UNL     1     -25.757  -4.389 -10.552  1.00  0.00     0.325 C 
HETATM    5  O3  UNL     1     -24.658  -4.063 -11.125  1.00  0.00    -0.247 OA
HETATM    6  N3  UNL     1     -27.021  -4.070 -11.081  1.00  0.00    -0.297 N 
HETATM    7  C7  UNL     1     -28.287  -4.484 -10.523  1.00  0.00     0.204 C 
HETATM    8  C9  UNL     1     -27.260  -3.256 -12.278  1.00  0.00     0.240 C 
HETATM    9  S1  UNL     1     -29.176  -4.920 -12.088  1.00  0.00    -0.145 SA
HETATM   10  C8  UNL     1     -27.925  -4.178 -13.247  1.00  0.00     0.129 C 
ATOM     11  H2  UNL     1     -26.483  -5.367  -8.837  1.00  0.00     0.170 HD
BRANCH   8  12
HETATM   12  O4  UNL     1     -26.204  -2.525 -12.631  1.00  0.00    -0.330 OA
BRANCH  12  13
HETATM   13  C10 UNL     1     -26.189  -1.207 -12.250  1.00  0.00     0.373 C 
HETATM   14  N4  UNL     1     -26.815  -0.445 -13.351  1.00  0.00    -0.037 N 
HETATM   15  C11 UNL     1     -26.803   0.968 -13.131  1.00  0.00     0.337 C 
ATOM     16  H42 UNL     1     -26.384  -0.678 -14.246  1.00  0.00     0.280 HD
ATOM     17  H41 UNL     1     -27.762  -0.778 -13.531  1.00  0.00     0.280 HD
HETATM   18  C12 UNL     1     -26.142   1.409 -11.882  1.00  0.00     0.245 C 
HETATM   19  O5  UNL     1     -26.576   2.413 -11.280  1.00  0.00    -0.272 OA
HETATM   20  N5  UNL     1     -25.037   0.666 -11.409  1.00  0.00    -0.329 N 
HETATM   21  C13 UNL     1     -24.807  -0.626 -12.097  1.00  0.00     0.341 C 
ATOM     22  H5  UNL     1     -24.441   0.996 -10.649  1.00  0.00     0.164 HD
BRANCH  21  23
HETATM   23  N6  UNL     1     -24.239  -0.322 -13.378  1.00  0.00    -0.054 N 
ATOM     24  H63 UNL     1     -23.445  -0.926 -13.592  1.00  0.00     0.277 HD
ATOM     25  H62 UNL     1     -24.855  -0.602 -14.140  1.00  0.00     0.277 HD
ATOM     26  H61 UNL     1     -23.988   0.665 -13.437  1.00  0.00     0.277 HD
ENDBRANCH  21  23
ENDBRANCH  12  13
ENDBRANCH   8  12
ENDBRANCH   2   3
BRANCH   2  27
HETATM   27  C14 UNL     1     -24.049  -4.896  -7.434  1.00  0.00     0.271 C 
HETATM   28  C15 UNL     1     -23.280  -3.582  -7.654  1.00  0.00     0.314 C 
HETATM   29  N7  UNL     1     -22.567  -3.379  -6.448  1.00  0.00     0.124 N 
HETATM   30  C16 UNL     1     -21.340  -2.655  -6.534  1.00  0.00     0.313 C 
HETATM   31  C17 UNL     1     -22.384  -4.697  -5.835  1.00  0.00     0.485 C 
HETATM   32  N11 UNL     1     -23.180  -5.641  -6.608  1.00  0.00    -0.025 N 
ATOM     33 2H11 UNL     1     -23.671  -6.317  -6.023  1.00  0.00     0.281 HD
ATOM     34 1H11 UNL     1     -22.609  -6.305  -7.130  1.00  0.00     0.281 HD
BRANCH  31  35
HETATM   35  C18 UNL     1     -22.763  -4.568  -4.428  1.00  0.00     0.168 C 
HETATM   36  N8  UNL     1     -23.138  -3.319  -3.852  1.00  0.00    -0.082 NA
HETATM   37  N9  UNL     1     -22.756  -5.608  -3.666  1.00  0.00    -0.294 N 
ATOM     38  H9  UNL     1     -22.482  -6.493  -4.093  1.00  0.00     0.187 HD
BRANCH  37  39
HETATM   39  N10 UNL     1     -23.084  -5.632  -2.329  1.00  0.00    -0.344 N 
ATOM     40 2H10 UNL     1     -24.076  -5.734  -2.115  1.00  0.00     0.176 HD
ATOM     41 1H10 UNL     1     -22.429  -5.557  -1.550  1.00  0.00     0.176 HD
ENDBRANCH  37  39
ENDBRANCH  31  35
ENDBRANCH   2  27
BRANCH   1  42
HETATM   42  N1  UNL     1     -23.532  -7.881  -8.266  1.00  0.00    -0.354 N 
ATOM     43  H1  UNL     1     -22.524  -7.918  -8.120  1.00  0.00     0.162 HD
BRANCH  42  44
HETATM   44  C3  UNL     1     -24.347  -8.925  -7.613  1.00  0.00     0.206 C 
BRANCH  44  45
HETATM   45  C2  UNL     1     -24.039 -10.273  -8.143  1.00  0.00     0.146 C 
HETATM   46  C1  UNL     1     -24.923 -10.652  -9.324  1.00  0.00     0.042 C 
BRANCH  45  47
HETATM   47  O1  UNL     1     -22.739 -10.305  -8.626  1.00  0.00    -0.393 OA
ATOM     48  H1  UNL     1     -22.396 -11.155  -8.378  1.00  0.00     0.210 HD
ENDBRANCH  45  47
ENDBRANCH  44  45
BRANCH  44  49
HETATM   49  C19 UNL     1     -24.314  -8.744  -6.156  1.00  0.00     0.261 C 
HETATM   50  O6  UNL     1     -25.113  -7.831  -5.694  1.00  0.00    -0.269 OA
HETATM   51  N12 UNL     1     -23.555  -9.398  -5.193  1.00  0.00    -0.275 N 
ATOM     52  H12 UNL     1     -22.902 -10.119  -5.499  1.00  0.00     0.189 HD
BRANCH  51  53
HETATM   53  N13 UNL     1     -23.643  -9.113  -3.802  1.00  0.00    -0.343 N 
ATOM     54 2H13 UNL     1     -24.101  -8.242  -3.531  1.00  0.00     0.176 HD
ATOM     55 1H13 UNL     1     -23.275  -9.731  -3.079  1.00  0.00     0.176 HD
ENDBRANCH  51  53
ENDBRANCH  44  49
ENDBRANCH  42  44
ENDBRANCH   1  42
BRANCH   1  56
HETATM   56  O2  UNL     1     -24.226  -7.234 -10.313  1.00  0.00    -0.345 OA
ATOM     57  H2  UNL     1     -23.760  -6.689 -10.935  1.00  0.00     0.219 HD
ENDBRANCH   1  56
TORSDOF 14
ENDMDL
MODEL 2
REMARK VINA RESULT: -8.386526302      4.267      7.190
REMARK  14 active torsions:
REMARK  status: ('A' for Active; 'I' for Inactive)
REMARK    1  A    between atoms: C2_2  and  O1_3 
REMARK    2  A    between atoms: C2_2  and  C3_5 
REMARK    3  A    between atoms: C3_5  and  N1_6 
REMARK    4  A    between atoms: C3_5  and  C19_51 
REMARK    5  A    between atoms: N1_6  and  C4_8 
REMARK    6  A    between atoms: C4_8  and  O2_9 
REMARK    7  A    between atoms: C5_11  and  N2_12 
REMARK    8  A    between atoms: C5_11  and  C14_36 
REMARK       I    between atoms: N2_12  and  C6_14 
REMARK       I    between atoms: C6_14  and  N3_16 
REMARK    9  A    between atoms: C9_20  and  O4_21 
REMARK   10  A    between atoms: O4_21  and  C10_22 
REMARK   11  A    between atoms: C13_31  and  N6_32 
REMARK   12  A    between atoms: C17_40  and  C18_41 
REMARK   13  A    between atoms: N9_43  and  N10_45 
REMARK       I    between atoms: C19_51  and  N12_53 
REMARK   14  A    between atoms: N12_53  and  N13_55 
ROOT
HETATM    1  C4  UNL     1     -24.141  -8.983  -4.776  1.00  0.00     0.162 C 
HETATM    2  C5  UNL     1     -24.375  -8.503  -6.117  1.00  0.00     0.097 C 
ENDROOT
BRANCH   2   3
HETATM    3  N2  UNL     1     -25.502  -9.208  -6.722  1.00  0.00    -0.306 N 
HETATM    4  C6  UNL     1     -25.365 -10.120  -7.800  1.00  0.00     0.325 C 
HETATM    5  O3  UNL     1     -24.174 -10.287  -8.242  1.00  0.00    -0.247 OA
HETATM    6  N3  UNL     1     -26.482 -10.786  -8.334  1.00  0.00    -0.297 N 
HETATM    7  C7  UNL     1     -27.829 -10.699  -7.821  1.00  0.00     0.204 C 
HETATM    8  C9  UNL     1     -26.464 -11.669  -9.506  1.00  0.00     0.240 C 
HETATM    9  S1  UNL     1     -28.320 -12.479  -7.965  1.00  0.00    -0.145 SA
HETATM   10  C8  UNL     1     -26.860 -13.013  -8.985  1.00  0.00     0.129 C 
ATOM     11  H2  UNL     1     -26.436  -9.035  -6.350  1.00  0.00     0.170 HD
BRANCH   8  12
HETATM   12  O4  UNL     1     -25.379 -11.512 -10.261  1.00  0.00    -0.330 OA
BRANCH  12  13
HETATM   13  C10 UNL     1     -25.510 -10.785 -11.418  1.00  0.00     0.373 C 
HETATM   14  N4  UNL     1     -24.672 -11.457 -12.433  1.00  0.00    -0.037 N 
HETATM   15  C11 UNL     1     -24.647 -10.765 -13.685  1.00  0.00     0.337 C 
ATOM     16  H42 UNL     1     -23.727 -11.609 -12.082  1.00  0.00     0.280 HD
ATOM     17  H41 UNL     1     -24.961 -12.427 -12.558  1.00  0.00     0.280 HD
HETATM   18  C12 UNL     1     -25.418  -9.501 -13.724  1.00  0.00     0.245 C 
HETATM   19  O5  UNL     1     -25.984  -9.163 -14.785  1.00  0.00    -0.272 OA
HETATM   20  N5  UNL     1     -25.489  -8.721 -12.550  1.00  0.00    -0.329 N 
HETATM   21  C13 UNL     1     -24.975  -9.378 -11.325  1.00  0.00     0.341 C 
ATOM     22  H5  UNL     1     -25.867  -7.773 -12.545  1.00  0.00     0.164 HD
BRANCH  21  23
HETATM   23  N6  UNL     1     -23.545  -9.371 -11.416  1.00  0.00    -0.054 N 
ATOM     24  H63 UNL     1     -23.142  -8.549 -10.966  1.00  0.00     0.277 HD
ATOM     25  H62 UNL     1     -23.126 -10.090 -10.826  1.00  0.00     0.277 HD
ATOM     26  H61 UNL     1     -23.244  -9.456 -12.387  1.00  0.00     0.277 HD
ENDBRANCH  21  23
ENDBRANCH  12  13
ENDBRANCH   8  12
ENDBRANCH   2   3
BRANCH   2  27
HETATM   27  C14 UNL     1     -24.246  -7.085  -6.465  1.00  0.00     0.271 C 
HETATM   28  C15 UNL     1     -25.650  -6.543  -6.786  1.00  0.00     0.314 C 
HETATM   29  N7  UNL     1     -25.417  -5.416  -7.612  1.00  0.00     0.124 N 
HETATM   30  C16 UNL     1     -26.436  -5.081  -8.554  1.00  0.00     0.313 C 
HETATM   31  C17 UNL     1     -24.119  -5.624  -8.259  1.00  0.00     0.485 C 
HETATM   32  N11 UNL     1     -23.515  -6.795  -7.637  1.00  0.00    -0.025 N 
ATOM     33 2H11 UNL     1     -22.517  -6.679  -7.463  1.00  0.00     0.281 HD
ATOM     34 1H11 UNL     1     -23.450  -7.591  -8.271  1.00  0.00     0.281 HD
BRANCH  31  35
HETATM   35  C18 UNL     1     -23.365  -4.380  -8.109  1.00  0.00     0.168 C 
HETATM   36  N8  UNL     1     -22.627  -3.803  -9.184  1.00  0.00    -0.082 NA
HETATM   37  N9  UNL     1     -23.349  -3.775  -6.971  1.00  0.00    -0.294 N 
ATOM     38  H9  UNL     1     -23.880  -4.202  -6.212  1.00  0.00     0.187 HD
BRANCH  37  39
HETATM   39  N10 UNL     1     -22.682  -2.604  -6.688  1.00  0.00    -0.344 N 
ATOM     40 2H10 UNL     1     -23.250  -1.848  -6.304  1.00  0.00     0.176 HD
ATOM     41 1H10 UNL     1     -21.686  -2.434  -6.827  1.00  0.00     0.176 HD
ENDBRANCH  37  39
ENDBRANCH  31  35
ENDBRANCH   2  27
BRANCH   1  42
HETATM   42  N1  UNL     1     -23.890  -8.291  -3.586  1.00  0.00    -0.354 N 
ATOM     43  H1  UNL     1     -22.989  -8.448  -3.136  1.00  0.00     0.162 HD
BRANCH  42  44
HETATM   44  C3  UNL     1     -24.820  -7.353  -2.926  1.00  0.00     0.206 C 
BRANCH  44  45
HETATM   45  C2  UNL     1     -25.260  -7.855  -1.605  1.00  0.00     0.146 C 
HETATM   46  C1  UNL     1     -24.230  -8.771  -0.955  1.00  0.00     0.042 C 
BRANCH  45  47
HETATM   47  O1  UNL     1     -25.420  -6.793  -0.725  1.00  0.00    -0.393 OA
ATOM     48  H1  UNL     1     -25.157  -7.125   0.125  1.00  0.00     0.210 HD
ENDBRANCH  45  47
ENDBRANCH  44  45
BRANCH  44  49
HETATM   49  C19 UNL     1     -24.280  -5.989  -2.990  1.00  0.00     0.261 C 
HETATM   50  O6  UNL     1     -25.024  -5.128  -3.616  1.00  0.00    -0.269 OA
HETATM   51  N12 UNL     1     -23.091  -5.477  -2.485  1.00  0.00    -0.275 N 
ATOM     52  H12 UNL     1     -22.462  -6.110  -1.991  1.00  0.00     0.189 HD
BRANCH  51  53
HETATM   53  N13 UNL     1     -22.708  -4.113  -2.621  1.00  0.00    -0.343 N 
ATOM     54 2H13 UNL     1     -22.361  -3.814  -3.533  1.00  0.00     0.176 HD
ATOM     55 1H13 UNL     1     -22.765  -3.436  -1.861  1.00  0.00     0.176 HD
ENDBRANCH  51  53
ENDBRANCH  44  49
ENDBRANCH  42  44
ENDBRANCH   1  42
BRANCH   1  56
HETATM   56  O2  UNL     1     -24.166 -10.291  -4.594  1.00  0.00    -0.345 OA
ATOM     57  H2  UNL     1     -24.711 -10.537  -3.855  1.00  0.00     0.219 HD
ENDBRANCH   1  56
TORSDOF 14
ENDMDL
MODEL 3
REMARK VINA RESULT: -8.270572931      4.719      7.671
REMARK  14 active torsions:
REMARK  status: ('A' for Active; 'I' for Inactive)
REMARK    1  A    between atoms: C2_2  and  O1_3 
REMARK    2  A    between atoms: C2_2  and  C3_5 
REMARK    3  A    between atoms: C3_5  and  N1_6 
REMARK    4  A    between atoms: C3_5  and  C19_51 
REMARK    5  A    between atoms: N1_6  and  C4_8 
REMARK    6  A    between atoms: C4_8  and  O2_9 
REMARK    7  A    between atoms: C5_11  and  N2_12 
REMARK    8  A    between atoms: C5_11  and  C14_36 
REMARK       I    between atoms: N2_12  and  C6_14 
REMARK       I    between atoms: C6_14  and  N3_16 
REMARK    9  A    between atoms: C9_20  and  O4_21 
REMARK   10  A    between atoms: O4_21  and  C10_22 
REMARK   11  A    between atoms: C13_31  and  N6_32 
REMARK   12  A    between atoms: C17_40  and  C18_41 
REMARK   13  A    between atoms: N9_43  and  N10_45 
REMARK       I    between atoms: C19_51  and  N12_53 
REMARK   14  A    between atoms: N12_53  and  N13_55 
ROOT
HETATM    1  C4  UNL     1     -23.961  -9.061  -2.544  1.00  0.00     0.162 C 
HETATM    2  C5  UNL     1     -23.917  -8.750  -3.953  1.00  0.00     0.097 C 
ENDROOT
BRANCH   2   3
HETATM    3  N2  UNL     1     -24.772  -9.665  -4.704  1.00  0.00    -0.306 N 
HETATM    4  C6  UNL     1     -24.422 -10.198  -5.972  1.00  0.00     0.325 C 
HETATM    5  O3  UNL     1     -23.296  -9.813  -6.448  1.00  0.00    -0.247 OA
HETATM    6  N3  UNL     1     -25.275 -11.090  -6.645  1.00  0.00    -0.297 N 
HETATM    7  C7  UNL     1     -26.511 -11.621  -6.119  1.00  0.00     0.204 C 
HETATM    8  C9  UNL     1     -25.055 -11.620  -7.996  1.00  0.00     0.240 C 
HETATM    9  S1  UNL     1     -26.349 -13.376  -6.687  1.00  0.00    -0.145 SA
HETATM   10  C8  UNL     1     -24.897 -13.094  -7.814  1.00  0.00     0.129 C 
ATOM     11  H2  UNL     1     -25.667  -9.936  -4.297  1.00  0.00     0.170 HD
BRANCH   8  12
HETATM   12  O4  UNL     1     -24.172 -10.910  -8.696  1.00  0.00    -0.330 OA
BRANCH  12  13
HETATM   13  C10 UNL     1     -24.661  -9.955  -9.552  1.00  0.00     0.373 C 
HETATM   14  N4  UNL     1     -24.669 -10.562 -10.899  1.00  0.00    -0.037 N 
HETATM   15  C11 UNL     1     -25.087  -9.652 -11.920  1.00  0.00     0.337 C 
ATOM     16  H42 UNL     1     -23.760 -10.967 -11.122  1.00  0.00     0.280 HD
ATOM     17  H41 UNL     1     -25.236 -11.410 -10.912  1.00  0.00     0.280 HD
HETATM   18  C12 UNL     1     -25.391  -8.278 -11.458  1.00  0.00     0.245 C 
HETATM   19  O5  UNL     1     -26.295  -7.628 -12.024  1.00  0.00    -0.272 OA
HETATM   20  N5  UNL     1     -24.644  -7.751 -10.382  1.00  0.00    -0.329 N 
HETATM   21  C13 UNL     1     -23.789  -8.731  -9.670  1.00  0.00     0.341 C 
ATOM     22  H5  UNL     1     -24.690  -6.768 -10.113  1.00  0.00     0.164 HD
BRANCH  21  23
HETATM   23  N6  UNL     1     -22.660  -8.991 -10.515  1.00  0.00    -0.054 N 
ATOM     24  H63 UNL     1     -21.847  -9.292  -9.977  1.00  0.00     0.277 HD
ATOM     25  H62 UNL     1     -22.794  -9.832 -11.075  1.00  0.00     0.277 HD
ATOM     26  H61 UNL     1     -22.449  -8.179 -11.096  1.00  0.00     0.277 HD
ENDBRANCH  21  23
ENDBRANCH  12  13
ENDBRANCH   8  12
ENDBRANCH   2   3
BRANCH   2  27
HETATM   27  C14 UNL     1     -23.876  -7.368  -4.439  1.00  0.00     0.271 C 
HETATM   28  C15 UNL     1     -25.179  -7.095  -5.213  1.00  0.00     0.314 C 
HETATM   29  N7  UNL     1     -24.858  -6.027  -6.085  1.00  0.00     0.124 N 
HETATM   30  C16 UNL     1     -25.585  -5.951  -7.311  1.00  0.00     0.313 C 
HETATM   31  C17 UNL     1     -23.412  -6.077  -6.307  1.00  0.00     0.485 C 
HETATM   32  N11 UNL     1     -22.873  -7.071  -5.387  1.00  0.00    -0.025 N 
ATOM     33 2H11 UNL     1     -21.996  -6.778  -4.957  1.00  0.00     0.281 HD
ATOM     34 1H11 UNL     1     -22.519  -7.900  -5.864  1.00  0.00     0.281 HD
BRANCH  31  35
HETATM   35  C18 UNL     1     -22.905  -4.717  -6.121  1.00  0.00     0.168 C 
HETATM   36  N8  UNL     1     -22.729  -3.816  -7.212  1.00  0.00    -0.082 NA
HETATM   37  N9  UNL     1     -22.595  -4.306  -4.940  1.00  0.00    -0.294 N 
ATOM     38  H9  UNL     1     -22.724  -4.964  -4.171  1.00  0.00     0.187 HD
BRANCH  37  39
HETATM   39  N10 UNL     1     -22.105  -3.059  -4.621  1.00  0.00    -0.344 N 
ATOM     40 2H10 UNL     1     -21.096  -2.940  -4.710  1.00  0.00     0.176 HD
ATOM     41 1H10 UNL     1     -22.658  -2.261  -4.309  1.00  0.00     0.176 HD
ENDBRANCH  37  39
ENDBRANCH  31  35
ENDBRANCH   2  27
BRANCH   1  42
HETATM   42  N1  UNL     1     -24.091  -8.230  -1.426  1.00  0.00    -0.354 N 
ATOM     43  H1  UNL     1     -23.937  -7.231  -1.566  1.00  0.00     0.162 HD
BRANCH  42  44
HETATM   44  C3  UNL     1     -24.431  -8.675  -0.060  1.00  0.00     0.206 C 
BRANCH  44  45
HETATM   45  C2  UNL     1     -23.275  -8.562   0.858  1.00  0.00     0.146 C 
HETATM   46  C1  UNL     1     -22.634  -9.910   1.160  1.00  0.00     0.042 C 
BRANCH  45  47
HETATM   47  O1  UNL     1     -22.276  -7.799   0.268  1.00  0.00    -0.393 OA
ATOM     48  H1  UNL     1     -22.442  -6.905   0.545  1.00  0.00     0.210 HD
ENDBRANCH  45  47
ENDBRANCH  44  45
BRANCH  44  49
HETATM   49  C19 UNL     1     -25.696  -8.063   0.363  1.00  0.00     0.261 C 
HETATM   50  O6  UNL     1     -25.938  -6.890  -0.140  1.00  0.00    -0.269 OA
HETATM   51  N12 UNL     1     -26.677  -8.543   1.222  1.00  0.00    -0.275 N 
ATOM     52  H12 UNL     1     -26.536  -9.456   1.655  1.00  0.00     0.189 HD
BRANCH  51  53
HETATM   53  N13 UNL     1     -27.867  -7.826   1.529  1.00  0.00    -0.343 N 
ATOM     54 2H13 UNL     1     -28.033  -7.595   2.509  1.00  0.00     0.176 HD
ATOM     55 1H13 UNL     1     -28.546  -7.540   0.824  1.00  0.00     0.176 HD
ENDBRANCH  51  53
ENDBRANCH  44  49
ENDBRANCH  42  44
ENDBRANCH   1  42
BRANCH   1  56
HETATM   56  O2  UNL     1     -23.875 -10.335  -2.208  1.00  0.00    -0.345 OA
ATOM     57  H2  UNL     1     -24.361 -10.528  -1.415  1.00  0.00     0.219 HD
ENDBRANCH   1  56
TORSDOF 14
ENDMDL
MODEL 4
REMARK VINA RESULT: -8.244442626      3.535      6.352
REMARK  14 active torsions:
REMARK  status: ('A' for Active; 'I' for Inactive)
REMARK    1  A    between atoms: C2_2  and  O1_3 
REMARK    2  A    between atoms: C2_2  and  C3_5 
REMARK    3  A    between atoms: C3_5  and  N1_6 
REMARK    4  A    between atoms: C3_5  and  C19_51 
REMARK    5  A    between atoms: N1_6  and  C4_8 
REMARK    6  A    between atoms: C4_8  and  O2_9 
REMARK    7  A    between atoms: C5_11  and  N2_12 
REMARK    8  A    between atoms: C5_11  and  C14_36 
REMARK       I    between atoms: N2_12  and  C6_14 
REMARK       I    between atoms: C6_14  and  N3_16 
REMARK    9  A    between atoms: C9_20  and  O4_21 
REMARK   10  A    between atoms: O4_21  and  C10_22 
REMARK   11  A    between atoms: C13_31  and  N6_32 
REMARK   12  A    between atoms: C17_40  and  C18_41 
REMARK   13  A    between atoms: N9_43  and  N10_45 
REMARK       I    between atoms: C19_51  and  N12_53 
REMARK   14  A    between atoms: N12_53  and  N13_55 
ROOT
HETATM    1  C4  UNL     1     -24.475  -6.780  -2.799  1.00  0.00     0.162 C 
HETATM    2  C5  UNL     1     -24.267  -7.080  -4.195  1.00  0.00     0.097 C 
ENDROOT
BRANCH   2   3
HETATM    3  N2  UNL     1     -23.378  -6.094  -4.803  1.00  0.00    -0.306 N 
HETATM    4  C6  UNL     1     -23.710  -5.355  -5.967  1.00  0.00     0.325 C 
HETATM    5  O3  UNL     1     -24.853  -5.613  -6.486  1.00  0.00    -0.247 OA
HETATM    6  N3  UNL     1     -22.823  -4.403  -6.501  1.00  0.00    -0.297 N 
HETATM    7  C7  UNL     1     -21.564  -4.012  -5.911  1.00  0.00     0.204 C 
HETATM    8  C9  UNL     1     -23.027  -3.659  -7.750  1.00  0.00     0.240 C 
HETATM    9  S1  UNL     1     -21.655  -2.184  -6.195  1.00  0.00    -0.145 SA
HETATM   10  C8  UNL     1     -23.122  -2.226  -7.336  1.00  0.00     0.129 C 
ATOM     11  H2  UNL     1     -22.471  -5.927  -4.367  1.00  0.00     0.170 HD
BRANCH   8  12
HETATM   12  O4  UNL     1     -23.942  -4.212  -8.543  1.00  0.00    -0.330 OA
BRANCH  12  13
HETATM   13  C10 UNL     1     -24.846  -3.375  -9.148  1.00  0.00     0.373 C 
HETATM   14  N4  UNL     1     -26.188  -3.837  -8.733  1.00  0.00    -0.037 N 
HETATM   15  C11 UNL     1     -27.248  -3.101  -9.351  1.00  0.00     0.337 C 
ATOM     16  H42 UNL     1     -26.296  -4.838  -8.896  1.00  0.00     0.280 HD
ATOM     17  H41 UNL     1     -26.278  -3.823  -7.718  1.00  0.00     0.280 HD
HETATM   18  C12 UNL     1     -26.819  -2.057 -10.309  1.00  0.00     0.245 C 
HETATM   19  O5  UNL     1     -27.491  -1.010 -10.414  1.00  0.00    -0.272 OA
HETATM   20  N5  UNL     1     -25.653  -2.284 -11.072  1.00  0.00    -0.329 N 
HETATM   21  C13 UNL     1     -24.845  -3.454 -10.654  1.00  0.00     0.341 C 
ATOM     22  H5  UNL     1     -25.386  -1.686 -11.855  1.00  0.00     0.164 HD
BRANCH  21  23
HETATM   23  N6  UNL     1     -25.540  -4.624 -11.103  1.00  0.00    -0.054 N 
ATOM     24  H63 UNL     1     -25.543  -5.358 -10.394  1.00  0.00     0.277 HD
ATOM     25  H62 UNL     1     -26.546  -4.465 -11.163  1.00  0.00     0.277 HD
ATOM     26  H61 UNL     1     -25.157  -4.956 -11.988  1.00  0.00     0.277 HD
ENDBRANCH  21  23
ENDBRANCH  12  13
ENDBRANCH   8  12
ENDBRANCH   2   3
BRANCH   2  27
HETATM   27  C14 UNL     1     -24.121  -8.456  -4.677  1.00  0.00     0.271 C 
HETATM   28  C15 UNL     1     -23.362  -8.415  -6.016  1.00  0.00     0.314 C 
HETATM   29  N7  UNL     1     -23.730  -9.616  -6.670  1.00  0.00     0.124 N 
HETATM   30  C16 UNL     1     -23.724  -9.603  -8.098  1.00  0.00     0.313 C 
HETATM   31  C17 UNL     1     -25.031 -10.014  -6.131  1.00  0.00     0.485 C 
HETATM   32  N11 UNL     1     -25.316  -9.131  -5.007  1.00  0.00    -0.025 N 
ATOM     33 2H11 UNL     1     -25.726  -9.621  -4.213  1.00  0.00     0.281 HD
ATOM     34 1H11 UNL     1     -26.092  -8.496  -5.190  1.00  0.00     0.281 HD
BRANCH  31  35
HETATM   35  C18 UNL     1     -24.937 -11.436  -5.798  1.00  0.00     0.168 C 
HETATM   36  N8  UNL     1     -24.958 -12.454  -6.796  1.00  0.00    -0.082 NA
HETATM   37  N9  UNL     1     -24.839 -11.798  -4.565  1.00  0.00    -0.294 N 
ATOM     38  H9  UNL     1     -24.828 -11.058  -3.863  1.00  0.00     0.187 HD
BRANCH  37  39
HETATM   39  N10 UNL     1     -24.746 -13.094  -4.109  1.00  0.00    -0.344 N 
ATOM     40 2H10 UNL     1     -25.573 -13.676  -4.248  1.00  0.00     0.176 HD
ATOM     41 1H10 UNL     1     -23.935 -13.512  -3.652  1.00  0.00     0.176 HD
ENDBRANCH  37  39
ENDBRANCH  31  35
ENDBRANCH   2  27
BRANCH   1  42
HETATM   42  N1  UNL     1     -24.461  -7.609  -1.672  1.00  0.00    -0.354 N 
ATOM     43  H1  UNL     1     -23.550  -7.867  -1.293  1.00  0.00     0.162 HD
BRANCH  42  44
HETATM   44  C3  UNL     1     -25.653  -8.141  -0.983  1.00  0.00     0.206 C 
BRANCH  44  45
HETATM   45  C2  UNL     1     -25.824  -9.592  -1.224  1.00  0.00     0.146 C 
HETATM   46  C1  UNL     1     -27.051  -9.903  -2.072  1.00  0.00     0.042 C 
BRANCH  45  47
HETATM   47  O1  UNL     1     -24.742 -10.082  -1.941  1.00  0.00    -0.393 OA
ATOM     48  H1  UNL     1     -23.996  -9.565  -1.662  1.00  0.00     0.210 HD
ENDBRANCH  45  47
ENDBRANCH  44  45
BRANCH  44  49
HETATM   49  C19 UNL     1     -25.672  -7.677   0.410  1.00  0.00     0.261 C 
HETATM   50  O6  UNL     1     -26.847  -7.389   0.881  1.00  0.00    -0.269 OA
HETATM   51  N12 UNL     1     -24.624  -7.496   1.304  1.00  0.00    -0.275 N 
ATOM     52  H12 UNL     1     -23.676  -7.698   0.986  1.00  0.00     0.189 HD
BRANCH  51  53
HETATM   53  N13 UNL     1     -24.806  -7.043   2.640  1.00  0.00    -0.343 N 
ATOM     54 2H13 UNL     1     -25.012  -7.747   3.349  1.00  0.00     0.176 HD
ATOM     55 1H13 UNL     1     -24.741  -6.062   2.914  1.00  0.00     0.176 HD
ENDBRANCH  51  53
ENDBRANCH  44  49
ENDBRANCH  42  44
ENDBRANCH   1  42
BRANCH   1  56
HETATM   56  O2  UNL     1     -24.714  -5.519  -2.485  1.00  0.00    -0.345 OA
ATOM     57  H2  UNL     1     -24.190  -4.918  -3.001  1.00  0.00     0.219 HD
ENDBRANCH   1  56
TORSDOF 14
ENDMDL
MODEL 5
REMARK VINA RESULT: -8.171220219      0.944      1.080
REMARK  14 active torsions:
REMARK  status: ('A' for Active; 'I' for Inactive)
REMARK    1  A    between atoms: C2_2  and  O1_3 
REMARK    2  A    between atoms: C2_2  and  C3_5 
REMARK    3  A    between atoms: C3_5  and  N1_6 
REMARK    4  A    between atoms: C3_5  and  C19_51 
REMARK    5  A    between atoms: N1_6  and  C4_8 
REMARK    6  A    between atoms: C4_8  and  O2_9 
REMARK    7  A    between atoms: C5_11  and  N2_12 
REMARK    8  A    between atoms: C5_11  and  C14_36 
REMARK       I    between atoms: N2_12  and  C6_14 
REMARK       I    between atoms: C6_14  and  N3_16 
REMARK    9  A    between atoms: C9_20  and  O4_21 
REMARK   10  A    between atoms: O4_21  and  C10_22 
REMARK   11  A    between atoms: C13_31  and  N6_32 
REMARK   12  A    between atoms: C17_40  and  C18_41 
REMARK   13  A    between atoms: N9_43  and  N10_45 
REMARK       I    between atoms: C19_51  and  N12_53 
REMARK   14  A    between atoms: N12_53  and  N13_55 
ROOT
HETATM    1  C4  UNL     1     -23.987  -7.390  -9.013  1.00  0.00     0.162 C 
HETATM    2  C5  UNL     1     -24.364  -6.019  -8.762  1.00  0.00     0.097 C 
ENDROOT
BRANCH   2   3
HETATM    3  N2  UNL     1     -25.637  -5.713  -9.408  1.00  0.00    -0.306 N 
HETATM    4  C6  UNL     1     -25.745  -4.958 -10.604  1.00  0.00     0.325 C 
HETATM    5  O3  UNL     1     -24.641  -4.530 -11.096  1.00  0.00    -0.247 OA
HETATM    6  N3  UNL     1     -26.996  -4.708 -11.195  1.00  0.00    -0.297 N 
HETATM    7  C7  UNL     1     -28.258  -5.235 -10.732  1.00  0.00     0.204 C 
HETATM    8  C9  UNL     1     -27.225  -3.860 -12.372  1.00  0.00     0.240 C 
HETATM    9  S1  UNL     1     -29.020  -5.664 -12.365  1.00  0.00    -0.145 SA
HETATM   10  C8  UNL     1     -27.763  -4.784 -13.416  1.00  0.00     0.129 C 
ATOM     11  H2  UNL     1     -26.494  -6.061  -8.977  1.00  0.00     0.170 HD
BRANCH   8  12
HETATM   12  O4  UNL     1     -26.208  -3.042 -12.630  1.00  0.00    -0.330 OA
BRANCH  12  13
HETATM   13  C10 UNL     1     -26.368  -1.714 -12.321  1.00  0.00     0.373 C 
HETATM   14  N4  UNL     1     -25.219  -1.002 -12.920  1.00  0.00    -0.037 N 
HETATM   15  C11 UNL     1     -25.206   0.396 -12.615  1.00  0.00     0.337 C 
ATOM     16  H42 UNL     1     -24.338  -1.441 -12.652  1.00  0.00     0.280 HD
ATOM     17  H41 UNL     1     -25.181  -1.156 -13.927  1.00  0.00     0.280 HD
HETATM   18  C12 UNL     1     -26.304   0.861 -11.737  1.00  0.00     0.245 C 
HETATM   19  O5  UNL     1     -26.771   2.008 -11.898  1.00  0.00    -0.272 OA
HETATM   20  N5  UNL     1     -26.788  -0.018 -10.743  1.00  0.00    -0.329 N 
HETATM   21  C13 UNL     1     -26.299  -1.413 -10.845  1.00  0.00     0.341 C 
ATOM     22  H5  UNL     1     -27.428   0.286 -10.009  1.00  0.00     0.164 HD
BRANCH  21  23
HETATM   23  N6  UNL     1     -24.941  -1.414 -10.389  1.00  0.00    -0.054 N 
ATOM     24  H63 UNL     1     -24.548  -2.356 -10.374  1.00  0.00     0.277 HD
ATOM     25  H62 UNL     1     -24.312  -0.997 -11.074  1.00  0.00     0.277 HD
ATOM     26  H61 UNL     1     -24.865  -0.959  -9.479  1.00  0.00     0.277 HD
ENDBRANCH  21  23
ENDBRANCH  12  13
ENDBRANCH   8  12
ENDBRANCH   2   3
BRANCH   2  27
HETATM   27  C14 UNL     1     -24.136  -5.380  -7.463  1.00  0.00     0.271 C 
HETATM   28  C15 UNL     1     -23.442  -4.029  -7.711  1.00  0.00     0.314 C 
HETATM   29  N7  UNL     1     -22.774  -3.743  -6.496  1.00  0.00     0.124 N 
HETATM   30  C16 UNL     1     -21.591  -2.948  -6.578  1.00  0.00     0.313 C 
HETATM   31  C17 UNL     1     -22.527  -5.025  -5.833  1.00  0.00     0.485 C 
HETATM   32  N11 UNL     1     -23.245  -6.042  -6.591  1.00  0.00    -0.025 N 
ATOM     33 2H11 UNL     1     -23.709  -6.726  -5.995  1.00  0.00     0.281 HD
ATOM     34 1H11 UNL     1     -22.621  -6.687  -7.076  1.00  0.00     0.281 HD
BRANCH  31  35
HETATM   35  C18 UNL     1     -22.950  -4.873  -4.441  1.00  0.00     0.168 C 
HETATM   36  N8  UNL     1     -23.332  -3.612  -3.896  1.00  0.00    -0.082 NA
HETATM   37  N9  UNL     1     -22.975  -5.901  -3.664  1.00  0.00    -0.294 N 
ATOM     38  H9  UNL     1     -22.696  -6.794  -4.069  1.00  0.00     0.187 HD
BRANCH  37  39
HETATM   39  N10 UNL     1     -23.346  -5.903  -2.338  1.00  0.00    -0.344 N 
ATOM     40 2H10 UNL     1     -23.466  -4.986  -1.907  1.00  0.00     0.176 HD
ATOM     41 1H10 UNL     1     -23.506  -6.730  -1.763  1.00  0.00     0.176 HD
ENDBRANCH  37  39
ENDBRANCH  31  35
ENDBRANCH   2  27
BRANCH   1  42
HETATM   42  N1  UNL     1     -23.490  -8.376  -8.153  1.00  0.00    -0.354 N 
ATOM     43  H1  UNL     1     -22.479  -8.417  -8.025  1.00  0.00     0.162 HD
BRANCH  42  44
HETATM   44  C3  UNL     1     -24.305  -9.361  -7.416  1.00  0.00     0.206 C 
BRANCH  44  45
HETATM   45  C2  UNL     1     -23.935 -10.751  -7.766  1.00  0.00     0.146 C 
HETATM   46  C1  UNL     1     -24.814 -11.330  -8.867  1.00  0.00     0.042 C 
BRANCH  45  47
HETATM   47  O1  UNL     1     -22.641 -10.784  -8.266  1.00  0.00    -0.393 OA
ATOM     48  H1  UNL     1     -22.077 -10.866  -7.506  1.00  0.00     0.210 HD
ENDBRANCH  45  47
ENDBRANCH  44  45
BRANCH  44  49
HETATM   49  C19 UNL     1     -24.345  -9.008  -5.991  1.00  0.00     0.261 C 
HETATM   50  O6  UNL     1     -23.213  -8.619  -5.486  1.00  0.00    -0.269 OA
HETATM   51  N12 UNL     1     -25.408  -9.027  -5.097  1.00  0.00    -0.275 N 
ATOM     52  H12 UNL     1     -26.320  -9.333  -5.435  1.00  0.00     0.189 HD
BRANCH  51  53
HETATM   53  N13 UNL     1     -25.288  -8.642  -3.732  1.00  0.00    -0.343 N 
ATOM     54 2H13 UNL     1     -25.676  -9.274  -3.032  1.00  0.00     0.176 HD
ATOM     55 1H13 UNL     1     -24.840  -7.776  -3.431  1.00  0.00     0.176 HD
ENDBRANCH  51  53
ENDBRANCH  44  49
ENDBRANCH  42  44
ENDBRANCH   1  42
BRANCH   1  56
HETATM   56  O2  UNL     1     -24.126  -7.834 -10.249  1.00  0.00    -0.345 OA
ATOM     57  H2  UNL     1     -23.436  -7.519 -10.821  1.00  0.00     0.219 HD
ENDBRANCH   1  56
TORSDOF 14
ENDMDL
