MODEL 1
REMARK VINA RESULT: -7.473581241      0.000      0.000
REMARK  5 active torsions:
REMARK  status: ('A' for Active; 'I' for Inactive)
REMARK    1  A    between atoms: N2_5  and  C4_6 
REMARK    2  A    between atoms: C4_6  and  O1_7 
REMARK    3  A    between atoms: C4_6  and  C5_9 
REMARK       I    between atoms: C5_9  and  N3_11 
REMARK    4  A    between atoms: N3_11  and  C6_13 
REMARK    5  A    between atoms: C10_21  and  O3_22 
ROOT
HETATM    1  C4  UNL     1     -39.213 -34.537  24.557  1.00  0.00     0.315 C 
ENDROOT
BRANCH   1   2
HETATM    2  N2  UNL     1     -39.884 -34.938  23.410  1.00  0.00    -0.329 N 
HETATM    3  C3  UNL     1     -41.286 -34.843  23.346  1.00  0.00     0.094 C 
HETATM    4  C2  UNL     1     -41.779 -33.616  22.596  1.00  0.00     0.316 C 
HETATM    5  N1  UNL     1     -41.198 -33.530  21.293  1.00  0.00     0.093 N 
HETATM    6  C1  UNL     1     -42.265 -33.580  20.314  1.00  0.00     0.310 C 
HETATM    7  C11 UNL     1     -40.307 -34.648  21.018  1.00  0.00     0.327 C 
HETATM    8  C10 UNL     1     -39.268 -34.773  22.148  1.00  0.00     0.276 C 
BRANCH   8   9
HETATM    9  O3  UNL     1     -38.428 -33.708  21.987  1.00  0.00    -0.256 OA
HETATM   10 CL1  UNL     1     -37.179 -33.958  20.869  1.00  0.00     0.063 Cl
ENDBRANCH   8   9
ENDBRANCH   1   2
BRANCH   1  11
HETATM   11  O1  UNL     1     -38.867 -33.185  24.598  1.00  0.00    -0.368 OA
ATOM     12  H1  UNL     1     -39.331 -32.671  25.248  1.00  0.00     0.212 HD
ENDBRANCH   1  11
BRANCH   1  13
HETATM   13  C5  UNL     1     -38.022 -35.299  24.986  1.00  0.00     0.267 C 
HETATM   14  O2  UNL     1     -37.910 -35.585  26.205  1.00  0.00    -0.269 OA
HETATM   15  N3  UNL     1     -37.020 -35.702  24.039  1.00  0.00    -0.346 N 
ATOM     16  H3  UNL     1     -37.160 -35.444  23.061  1.00  0.00     0.163 HD
BRANCH  15  17
HETATM   17  C6  UNL     1     -35.849 -36.433  24.369  1.00  0.00     0.169 C 
HETATM   18  C7  UNL     1     -35.786 -37.876  23.960  1.00  0.00     0.117 C 
HETATM   19  C8  UNL     1     -34.304 -37.671  23.678  1.00  0.00     0.312 C 
HETATM   20  F1  UNL     1     -33.857 -38.242  22.507  1.00  0.00    -0.199 F 
HETATM   21  F2  UNL     1     -33.522 -37.881  24.792  1.00  0.00    -0.199 F 
HETATM   22  C9  UNL     1     -34.622 -36.177  23.545  1.00  0.00     0.328 C 
HETATM   23  F3  UNL     1     -34.828 -35.880  22.220  1.00  0.00    -0.197 F 
HETATM   24  F4  UNL     1     -33.679 -35.345  24.101  1.00  0.00    -0.197 F 
ENDBRANCH  15  17
ENDBRANCH   1  13
TORSDOF 5
ENDMDL
MODEL 2
REMARK VINA RESULT: -7.233987191      2.240      2.951
REMARK  5 active torsions:
REMARK  status: ('A' for Active; 'I' for Inactive)
REMARK    1  A    between atoms: N2_5  and  C4_6 
REMARK    2  A    between atoms: C4_6  and  O1_7 
REMARK    3  A    between atoms: C4_6  and  C5_9 
REMARK       I    between atoms: C5_9  and  N3_11 
REMARK    4  A    between atoms: N3_11  and  C6_13 
REMARK    5  A    between atoms: C10_21  and  O3_22 
ROOT
HETATM    1  C4  UNL     1     -38.653 -34.059  21.763  1.00  0.00     0.315 C 
ENDROOT
BRANCH   1   2
HETATM    2  N2  UNL     1     -40.007 -34.361  21.791  1.00  0.00    -0.329 N 
HETATM    3  C3  UNL     1     -40.487 -35.364  22.652  1.00  0.00     0.094 C 
HETATM    4  C2  UNL     1     -41.097 -34.824  23.937  1.00  0.00     0.316 C 
HETATM    5  N1  UNL     1     -42.109 -33.850  23.666  1.00  0.00     0.093 N 
HETATM    6  C1  UNL     1     -43.363 -34.335  24.209  1.00  0.00     0.310 C 
HETATM    7  C11 UNL     1     -42.305 -33.650  22.238  1.00  0.00     0.327 C 
HETATM    8  C10 UNL     1     -40.955 -33.335  21.568  1.00  0.00     0.276 C 
BRANCH   8   9
HETATM    9  O3  UNL     1     -40.632 -32.074  21.979  1.00  0.00    -0.256 OA
HETATM   10 CL1  UNL     1     -40.995 -30.853  20.861  1.00  0.00     0.063 Cl
ENDBRANCH   8   9
ENDBRANCH   1   2
BRANCH   1  11
HETATM   11  O1  UNL     1     -38.265 -33.172  20.757  1.00  0.00    -0.368 OA
ATOM     12  H1  UNL     1     -38.895 -32.490  20.558  1.00  0.00     0.212 HD
ENDBRANCH   1  11
BRANCH   1  13
HETATM   13  C5  UNL     1     -37.678 -35.169  21.758  1.00  0.00     0.267 C 
HETATM   14  O2  UNL     1     -37.727 -35.996  20.813  1.00  0.00    -0.269 OA
HETATM   15  N3  UNL     1     -36.702 -35.302  22.805  1.00  0.00    -0.346 N 
ATOM     16  H3  UNL     1     -36.705 -34.604  23.549  1.00  0.00     0.163 HD
BRANCH  15  17
HETATM   17  C6  UNL     1     -35.734 -36.338  22.874  1.00  0.00     0.169 C 
HETATM   18  C7  UNL     1     -34.323 -35.955  23.218  1.00  0.00     0.117 C 
HETATM   19  C8  UNL     1     -34.226 -37.253  24.009  1.00  0.00     0.312 C 
HETATM   20  F1  UNL     1     -33.614 -37.133  25.237  1.00  0.00    -0.199 F 
HETATM   21  F2  UNL     1     -33.822 -38.314  23.231  1.00  0.00    -0.199 F 
HETATM   22  C9  UNL     1     -35.757 -37.223  24.085  1.00  0.00     0.328 C 
HETATM   23  F3  UNL     1     -36.135 -36.631  25.265  1.00  0.00    -0.197 F 
HETATM   24  F4  UNL     1     -36.357 -38.450  23.929  1.00  0.00    -0.197 F 
ENDBRANCH  15  17
ENDBRANCH   1  13
TORSDOF 5
ENDMDL
MODEL 3
REMARK VINA RESULT: -7.176759618      1.433      1.530
REMARK  5 active torsions:
REMARK  status: ('A' for Active; 'I' for Inactive)
REMARK    1  A    between atoms: N2_5  and  C4_6 
REMARK    2  A    between atoms: C4_6  and  O1_7 
REMARK    3  A    between atoms: C4_6  and  C5_9 
REMARK       I    between atoms: C5_9  and  N3_11 
REMARK    4  A    between atoms: N3_11  and  C6_13 
REMARK    5  A    between atoms: C10_21  and  O3_22 
ROOT
HETATM    1  C4  UNL     1     -39.097 -34.491  23.242  1.00  0.00     0.315 C 
ENDROOT
BRANCH   1   2
HETATM    2  N2  UNL     1     -40.177 -35.260  22.829  1.00  0.00    -0.329 N 
HETATM    3  C3  UNL     1     -41.474 -34.718  22.846  1.00  0.00     0.094 C 
HETATM    4  C2  UNL     1     -41.949 -34.231  21.486  1.00  0.00     0.316 C 
HETATM    5  N1  UNL     1     -41.832 -35.254  20.494  1.00  0.00     0.093 N 
HETATM    6  C1  UNL     1     -43.155 -35.536  19.973  1.00  0.00     0.310 C 
HETATM    7  C11 UNL     1     -41.313 -36.495  21.048  1.00  0.00     0.327 C 
HETATM    8  C10 UNL     1     -39.999 -36.217  21.802  1.00  0.00     0.276 C 
BRANCH   8   9
HETATM    9  O3  UNL     1     -39.077 -35.943  20.834  1.00  0.00    -0.256 OA
HETATM   10 CL1  UNL     1     -39.082 -37.026  19.530  1.00  0.00     0.063 Cl
ENDBRANCH   8   9
ENDBRANCH   1   2
BRANCH   1  11
HETATM   11  O1  UNL     1     -38.501 -33.723  22.240  1.00  0.00    -0.368 OA
ATOM     12  H1  UNL     1     -38.499 -34.120  21.377  1.00  0.00     0.212 HD
ENDBRANCH   1  11
BRANCH   1  13
HETATM   13  C5  UNL     1     -38.005 -35.145  23.991  1.00  0.00     0.267 C 
HETATM   14  O2  UNL     1     -38.117 -35.239  25.239  1.00  0.00    -0.269 OA
HETATM   15  N3  UNL     1     -36.846 -35.658  23.313  1.00  0.00    -0.346 N 
ATOM     16  H3  UNL     1     -36.805 -35.555  22.299  1.00  0.00     0.163 HD
BRANCH  15  17
HETATM   17  C6  UNL     1     -35.754 -36.296  23.958  1.00  0.00     0.169 C 
HETATM   18  C7  UNL     1     -35.649 -37.789  23.842  1.00  0.00     0.117 C 
HETATM   19  C8  UNL     1     -34.138 -37.618  23.769  1.00  0.00     0.312 C 
HETATM   20  F1  UNL     1     -33.517 -38.392  22.813  1.00  0.00    -0.199 F 
HETATM   21  F2  UNL     1     -33.549 -37.604  25.014  1.00  0.00    -0.199 F 
HETATM   22  C9  UNL     1     -34.407 -36.180  23.310  1.00  0.00     0.328 C 
HETATM   23  F3  UNL     1     -34.393 -36.139  21.937  1.00  0.00    -0.197 F 
HETATM   24  F4  UNL     1     -33.554 -35.245  23.844  1.00  0.00    -0.197 F 
ENDBRANCH  15  17
ENDBRANCH   1  13
TORSDOF 5
ENDMDL
MODEL 4
REMARK VINA RESULT: -7.041564056      1.746      2.205
REMARK  5 active torsions:
REMARK  status: ('A' for Active; 'I' for Inactive)
REMARK    1  A    between atoms: N2_5  and  C4_6 
REMARK    2  A    between atoms: C4_6  and  O1_7 
REMARK    3  A    between atoms: C4_6  and  C5_9 
REMARK       I    between atoms: C5_9  and  N3_11 
REMARK    4  A    between atoms: N3_11  and  C6_13 
REMARK    5  A    between atoms: C10_21  and  O3_22 
ROOT
HETATM    1  C4  UNL     1     -38.496 -33.992  21.649  1.00  0.00     0.315 C 
ENDROOT
BRANCH   1   2
HETATM    2  N2  UNL     1     -39.460 -34.812  21.078  1.00  0.00    -0.329 N 
HETATM    3  C3  UNL     1     -39.989 -35.890  21.809  1.00  0.00     0.094 C 
HETATM    4  C2  UNL     1     -41.341 -35.594  22.439  1.00  0.00     0.316 C 
HETATM    5  N1  UNL     1     -42.278 -35.121  21.468  1.00  0.00     0.093 N 
HETATM    6  C1  UNL     1     -43.391 -36.048  21.420  1.00  0.00     0.310 C 
HETATM    7  C11 UNL     1     -41.701 -35.069  20.133  1.00  0.00     0.327 C 
HETATM    8  C10 UNL     1     -40.390 -34.263  20.165  1.00  0.00     0.276 C 
BRANCH   8   9
HETATM    9  O3  UNL     1     -40.768 -32.964  20.350  1.00  0.00    -0.256 OA
HETATM   10 CL1  UNL     1     -40.219 -31.893  19.156  1.00  0.00     0.063 Cl
ENDBRANCH   8   9
ENDBRANCH   1   2
BRANCH   1  11
HETATM   11  O1  UNL     1     -37.633 -33.374  20.742  1.00  0.00    -0.368 OA
ATOM     12  H1  UNL     1     -36.941 -32.855  21.136  1.00  0.00     0.212 HD
ENDBRANCH   1  11
BRANCH   1  13
HETATM   13  C5  UNL     1     -37.660 -34.532  22.741  1.00  0.00     0.267 C 
HETATM   14  O2  UNL     1     -37.902 -34.155  23.914  1.00  0.00    -0.269 OA
HETATM   15  N3  UNL     1     -36.598 -35.462  22.469  1.00  0.00    -0.346 N 
ATOM     16  H3  UNL     1     -36.444 -35.736  21.498  1.00  0.00     0.163 HD
BRANCH  15  17
HETATM   17  C6  UNL     1     -35.750 -36.025  23.458  1.00  0.00     0.169 C 
HETATM   18  C7  UNL     1     -35.847 -37.503  23.704  1.00  0.00     0.117 C 
HETATM   19  C8  UNL     1     -34.340 -37.506  23.919  1.00  0.00     0.312 C 
HETATM   20  F1  UNL     1     -33.675 -38.551  23.315  1.00  0.00    -0.199 F 
HETATM   21  F2  UNL     1     -33.994 -37.242  25.226  1.00  0.00    -0.199 F 
HETATM   22  C9  UNL     1     -34.305 -36.208  23.104  1.00  0.00     0.328 C 
HETATM   23  F3  UNL     1     -34.033 -36.511  21.792  1.00  0.00    -0.197 F 
HETATM   24  F4  UNL     1     -33.436 -35.259  23.586  1.00  0.00    -0.197 F 
ENDBRANCH  15  17
ENDBRANCH   1  13
TORSDOF 5
ENDMDL
MODEL 5
REMARK VINA RESULT: -7.026894854      1.489      1.557
REMARK  5 active torsions:
REMARK  status: ('A' for Active; 'I' for Inactive)
REMARK    1  A    between atoms: N2_5  and  C4_6 
REMARK    2  A    between atoms: C4_6  and  O1_7 
REMARK    3  A    between atoms: C4_6  and  C5_9 
REMARK       I    between atoms: C5_9  and  N3_11 
REMARK    4  A    between atoms: N3_11  and  C6_13 
REMARK    5  A    between atoms: C10_21  and  O3_22 
ROOT
HETATM    1  C4  UNL     1     -39.273 -34.570  23.778  1.00  0.00     0.315 C 
ENDROOT
BRANCH   1   2
HETATM    2  N2  UNL     1     -39.471 -34.740  22.415  1.00  0.00    -0.329 N 
HETATM    3  C3  UNL     1     -39.939 -35.970  21.919  1.00  0.00     0.094 C 
HETATM    4  C2  UNL     1     -41.431 -35.981  21.624  1.00  0.00     0.316 C 
HETATM    5  N1  UNL     1     -41.801 -34.904  20.759  1.00  0.00     0.093 N 
HETATM    6  C1  UNL     1     -42.361 -35.466  19.547  1.00  0.00     0.310 C 
HETATM    7  C11 UNL     1     -40.653 -34.097  20.371  1.00  0.00     0.327 C 
HETATM    8  C10 UNL     1     -39.890 -33.641  21.629  1.00  0.00     0.276 C 
BRANCH   8   9
HETATM    9  O3  UNL     1     -40.693 -32.708  22.221  1.00  0.00    -0.256 OA
HETATM   10 CL1  UNL     1     -41.178 -31.446  21.199  1.00  0.00     0.063 Cl
ENDBRANCH   8   9
ENDBRANCH   1   2
BRANCH   1  11
HETATM   11  O1  UNL     1     -39.286 -33.245  24.217  1.00  0.00    -0.368 OA
ATOM     12  H1  UNL     1     -38.489 -32.956  24.646  1.00  0.00     0.212 HD
ENDBRANCH   1  11
BRANCH   1  13
HETATM   13  C5  UNL     1     -38.110 -35.224  24.414  1.00  0.00     0.267 C 
HETATM   14  O2  UNL     1     -38.106 -35.337  25.665  1.00  0.00    -0.269 OA
HETATM   15  N3  UNL     1     -37.014 -35.714  23.625  1.00  0.00    -0.346 N 
ATOM     16  H3  UNL     1     -37.067 -35.596  22.612  1.00  0.00     0.163 HD
BRANCH  15  17
HETATM   17  C6  UNL     1     -35.862 -36.350  24.156  1.00  0.00     0.169 C 
HETATM   18  C7  UNL     1     -35.736 -37.835  23.975  1.00  0.00     0.117 C 
HETATM   19  C8  UNL     1     -34.239 -37.627  23.790  1.00  0.00     0.312 C 
HETATM   20  F1  UNL     1     -33.682 -38.350  22.759  1.00  0.00    -0.199 F 
HETATM   21  F2  UNL     1     -33.554 -37.645  24.984  1.00  0.00    -0.199 F 
HETATM   22  C9  UNL     1     -34.573 -36.179  23.409  1.00  0.00     0.328 C 
HETATM   23  F3  UNL     1     -34.669 -36.087  22.042  1.00  0.00    -0.197 F 
HETATM   24  F4  UNL     1     -33.699 -35.245  23.910  1.00  0.00    -0.197 F 
ENDBRANCH  15  17
ENDBRANCH   1  13
TORSDOF 5
ENDMDL
