MODEL 1
REMARK VINA RESULT: -8.904590290      0.000      0.000
REMARK  7 active torsions:
REMARK  status: ('A' for Active; 'I' for Inactive)
REMARK    1  A    between atoms: C2_2  and  C3_3 
REMARK    2  A    between atoms: C3_3  and  C4_4 
REMARK    3  A    between atoms: C3_3  and  C5_6 
REMARK    4  A    between atoms: C8_9  and  N1_10 
REMARK       I    between atoms: N1_10  and  C9_11 
REMARK    5  A    between atoms: C9_11  and  O2_13 
REMARK    6  A    between atoms: O2_13  and  C10_14 
REMARK    7  A    between atoms: N2_17  and  C13_18 
ROOT
HETATM    1  N1  UNL     1      38.091  -8.861  24.060  1.00  0.00    -0.346 NA
HETATM    2  C9  UNL     1      37.637  -8.517  22.862  1.00  0.00     0.440 C 
HETATM    3  O1  UNL     1      38.222  -8.531  21.757  1.00  0.00    -0.221 OA
ENDROOT
BRANCH   2   4
HETATM    4  O2  UNL     1      36.290  -8.046  22.677  1.00  0.00    -0.287 OA
BRANCH   4   5
HETATM    5  C10 UNL     1      35.842  -6.805  23.145  1.00  0.00     0.138 C 
HETATM    6  C11 UNL     1      35.955  -6.695  24.641  1.00  0.00     0.052 C 
HETATM    7  C12 UNL     1      34.767  -7.203  25.396  1.00  0.00     0.124 C 
HETATM    8  N2  UNL     1      33.618  -6.519  24.896  1.00  0.00    -0.390 N 
HETATM    9  C19 UNL     1      33.540  -5.892  23.620  1.00  0.00     0.124 C 
HETATM   10  C20 UNL     1      34.501  -6.412  22.605  1.00  0.00     0.052 C 
BRANCH   8  11
HETATM   11  C13 UNL     1      32.467  -6.454  25.742  1.00  0.00     0.088 C 
HETATM   12  C14 UNL     1      31.351  -7.070  25.469  1.00  0.00    -0.065 C 
HETATM   13  C15 UNL     1      30.120  -7.050  26.294  1.00  0.00     0.035 C 
HETATM   14  C18 UNL     1      31.001  -7.929  24.306  1.00  0.00     0.035 C 
HETATM   15  C16 UNL     1      28.977  -7.252  25.311  1.00  0.00     0.005 C 
HETATM   16  C17 UNL     1      29.618  -7.430  23.955  1.00  0.00     0.005 C 
ENDBRANCH   8  11
ENDBRANCH   4   5
ENDBRANCH   2   4
BRANCH   1  17
HETATM   17  C8  UNL     1      38.561  -9.219  25.304  1.00  0.00     0.113 A 
HETATM   18  C7  UNL     1      37.684  -9.931  26.166  1.00  0.00     0.045 A 
HETATM   19  C6  UNL     1      38.089 -10.393  27.373  1.00  0.00     0.011 A 
HETATM   20  C5  UNL     1      39.366 -10.203  27.841  1.00  0.00    -0.051 A 
HETATM   21  C22 UNL     1      40.231  -9.519  27.033  1.00  0.00     0.011 A 
HETATM   22  C21 UNL     1      39.846  -9.036  25.796  1.00  0.00     0.045 A 
BRANCH  20  23
HETATM   23  C3  UNL     1      39.753 -10.731  29.170  1.00  0.00     0.047 C 
BRANCH  23  24
HETATM   24  C2  UNL     1      38.595 -11.176  29.984  1.00  0.00     0.007 C 
HETATM   25  C1  UNL     1      38.044 -12.532  29.757  1.00  0.00     0.006 C 
ENDBRANCH  23  24
BRANCH  23  26
HETATM   26  C4  UNL     1      40.757  -9.870  29.851  1.00  0.00     0.231 C 
HETATM   27  F1  UNL     1      40.380  -9.263  30.996  1.00  0.00    -0.255 F 
ENDBRANCH  23  26
ENDBRANCH  20  23
ENDBRANCH   1  17
TORSDOF 7
ENDMDL
MODEL 2
REMARK VINA RESULT: -8.875885069      0.727      1.249
REMARK  7 active torsions:
REMARK  status: ('A' for Active; 'I' for Inactive)
REMARK    1  A    between atoms: C2_2  and  C3_3 
REMARK    2  A    between atoms: C3_3  and  C4_4 
REMARK    3  A    between atoms: C3_3  and  C5_6 
REMARK    4  A    between atoms: C8_9  and  N1_10 
REMARK       I    between atoms: N1_10  and  C9_11 
REMARK    5  A    between atoms: C9_11  and  O2_13 
REMARK    6  A    between atoms: O2_13  and  C10_14 
REMARK    7  A    between atoms: N2_17  and  C13_18 
ROOT
HETATM    1  N1  UNL     1      38.034  -8.831  24.021  1.00  0.00    -0.346 NA
HETATM    2  C9  UNL     1      37.539  -8.397  22.869  1.00  0.00     0.440 C 
HETATM    3  O1  UNL     1      38.084  -8.325  21.747  1.00  0.00    -0.221 OA
ENDROOT
BRANCH   2   4
HETATM    4  O2  UNL     1      36.186  -7.915  22.769  1.00  0.00    -0.287 OA
BRANCH   4   5
HETATM    5  C10 UNL     1      35.758  -6.712  23.341  1.00  0.00     0.138 C 
HETATM    6  C11 UNL     1      35.815  -6.753  24.844  1.00  0.00     0.052 C 
HETATM    7  C12 UNL     1      34.585  -7.293  25.501  1.00  0.00     0.124 C 
HETATM    8  N2  UNL     1      33.477  -6.524  25.032  1.00  0.00    -0.390 N 
HETATM    9  C19 UNL     1      33.467  -5.773  23.822  1.00  0.00     0.124 C 
HETATM   10  C20 UNL     1      34.451  -6.223  22.795  1.00  0.00     0.052 C 
BRANCH   8  11
HETATM   11  C13 UNL     1      32.296  -6.505  25.838  1.00  0.00     0.088 C 
HETATM   12  C14 UNL     1      31.179  -7.067  25.473  1.00  0.00    -0.065 C 
HETATM   13  C15 UNL     1      29.917  -7.089  26.252  1.00  0.00     0.035 C 
HETATM   14  C18 UNL     1      30.855  -7.814  24.228  1.00  0.00     0.035 C 
HETATM   15  C16 UNL     1      28.808  -7.176  25.214  1.00  0.00     0.005 C 
HETATM   16  C17 UNL     1      29.496  -7.253  23.872  1.00  0.00     0.005 C 
ENDBRANCH   8  11
ENDBRANCH   4   5
ENDBRANCH   2   4
BRANCH   1  17
HETATM   17  C8  UNL     1      38.547  -9.283  25.217  1.00  0.00     0.113 A 
HETATM   18  C7  UNL     1      39.843  -8.837  25.593  1.00  0.00     0.045 A 
HETATM   19  C6  UNL     1      40.391  -9.165  26.787  1.00  0.00     0.011 A 
HETATM   20  C5  UNL     1      39.735  -9.946  27.707  1.00  0.00    -0.051 A 
HETATM   21  C22 UNL     1      38.486 -10.390  27.370  1.00  0.00     0.011 A 
HETATM   22  C21 UNL     1      37.902 -10.071  26.158  1.00  0.00     0.045 A 
BRANCH  20  23
HETATM   23  C3  UNL     1      40.384 -10.272  28.998  1.00  0.00     0.047 C 
BRANCH  23  24
HETATM   24  C2  UNL     1      39.418 -10.611  30.072  1.00  0.00     0.007 C 
HETATM   25  C1  UNL     1      39.297  -9.701  31.234  1.00  0.00     0.006 C 
ENDBRANCH  23  24
BRANCH  23  26
HETATM   26  C4  UNL     1      41.462  -9.308  29.348  1.00  0.00     0.231 C 
HETATM   27  F1  UNL     1      41.118  -8.009  29.474  1.00  0.00    -0.255 F 
ENDBRANCH  23  26
ENDBRANCH  20  23
ENDBRANCH   1  17
TORSDOF 7
ENDMDL
MODEL 3
REMARK VINA RESULT: -8.791050031      2.307      3.711
REMARK  7 active torsions:
REMARK  status: ('A' for Active; 'I' for Inactive)
REMARK    1  A    between atoms: C2_2  and  C3_3 
REMARK    2  A    between atoms: C3_3  and  C4_4 
REMARK    3  A    between atoms: C3_3  and  C5_6 
REMARK    4  A    between atoms: C8_9  and  N1_10 
REMARK       I    between atoms: N1_10  and  C9_11 
REMARK    5  A    between atoms: C9_11  and  O2_13 
REMARK    6  A    between atoms: O2_13  and  C10_14 
REMARK    7  A    between atoms: N2_17  and  C13_18 
ROOT
HETATM    1  N1  UNL     1      37.441  -9.498  21.366  1.00  0.00    -0.346 NA
HETATM    2  C9  UNL     1      36.996  -9.355  20.125  1.00  0.00     0.440 C 
HETATM    3  O1  UNL     1      37.603  -8.967  19.104  1.00  0.00    -0.221 OA
ENDROOT
BRANCH   2   4
HETATM    4  O2  UNL     1      35.634  -9.662  19.777  1.00  0.00    -0.287 OA
BRANCH   4   5
HETATM    5  C10 UNL     1      34.627  -8.693  19.699  1.00  0.00     0.138 C 
HETATM    6  C11 UNL     1      35.092  -7.356  20.210  1.00  0.00     0.052 C 
HETATM    7  C12 UNL     1      34.921  -7.157  21.683  1.00  0.00     0.124 C 
HETATM    8  N2  UNL     1      33.546  -7.394  21.989  1.00  0.00    -0.390 N 
HETATM    9  C19 UNL     1      32.658  -8.159  21.182  1.00  0.00     0.124 C 
HETATM   10  C20 UNL     1      33.320  -9.144  20.278  1.00  0.00     0.052 C 
BRANCH   8  11
HETATM   11  C13 UNL     1      33.026  -6.816  23.189  1.00  0.00     0.088 C 
HETATM   12  C14 UNL     1      33.778  -6.485  24.200  1.00  0.00    -0.065 C 
HETATM   13  C15 UNL     1      33.313  -5.884  25.473  1.00  0.00     0.035 C 
HETATM   14  C18 UNL     1      35.251  -6.608  24.369  1.00  0.00     0.035 C 
HETATM   15  C16 UNL     1      34.321  -6.334  26.520  1.00  0.00     0.005 C 
HETATM   16  C17 UNL     1      35.360  -7.142  25.780  1.00  0.00     0.005 C 
ENDBRANCH   8  11
ENDBRANCH   4   5
ENDBRANCH   2   4
BRANCH   1  17
HETATM   17  C8  UNL     1      37.902  -9.648  22.656  1.00  0.00     0.113 A 
HETATM   18  C7  UNL     1      38.258  -8.474  23.373  1.00  0.00     0.045 A 
HETATM   19  C6  UNL     1      38.644  -8.521  24.671  1.00  0.00     0.011 A 
HETATM   20  C5  UNL     1      38.716  -9.699  25.374  1.00  0.00    -0.051 A 
HETATM   21  C22 UNL     1      38.380 -10.844  24.707  1.00  0.00     0.011 A 
HETATM   22  C21 UNL     1      37.984 -10.827  23.382  1.00  0.00     0.045 A 
BRANCH  20  23
HETATM   23  C3  UNL     1      39.144  -9.689  26.791  1.00  0.00     0.047 C 
BRANCH  23  24
HETATM   24  C2  UNL     1      40.616  -9.608  26.960  1.00  0.00     0.007 C 
HETATM   25  C1  UNL     1      41.172  -8.593  27.884  1.00  0.00     0.006 C 
ENDBRANCH  23  24
BRANCH  23  26
HETATM   26  C4  UNL     1      38.434 -10.713  27.604  1.00  0.00     0.231 C 
HETATM   27  F1  UNL     1      39.189 -11.540  28.358  1.00  0.00    -0.255 F 
ENDBRANCH  23  26
ENDBRANCH  20  23
ENDBRANCH   1  17
TORSDOF 7
ENDMDL
MODEL 4
REMARK VINA RESULT: -8.631887964      1.035      1.713
REMARK  7 active torsions:
REMARK  status: ('A' for Active; 'I' for Inactive)
REMARK    1  A    between atoms: C2_2  and  C3_3 
REMARK    2  A    between atoms: C3_3  and  C4_4 
REMARK    3  A    between atoms: C3_3  and  C5_6 
REMARK    4  A    between atoms: C8_9  and  N1_10 
REMARK       I    between atoms: N1_10  and  C9_11 
REMARK    5  A    between atoms: C9_11  and  O2_13 
REMARK    6  A    between atoms: O2_13  and  C10_14 
REMARK    7  A    between atoms: N2_17  and  C13_18 
ROOT
HETATM    1  N1  UNL     1      37.771  -9.237  23.781  1.00  0.00    -0.346 NA
HETATM    2  C9  UNL     1      37.520  -8.745  22.574  1.00  0.00     0.440 C 
HETATM    3  O1  UNL     1      38.274  -8.652  21.582  1.00  0.00    -0.221 OA
ENDROOT
BRANCH   2   4
HETATM    4  O2  UNL     1      36.227  -8.213  22.236  1.00  0.00    -0.287 OA
BRANCH   4   5
HETATM    5  C10 UNL     1      35.792  -6.945  22.637  1.00  0.00     0.138 C 
HETATM    6  C11 UNL     1      36.019  -6.711  24.106  1.00  0.00     0.052 C 
HETATM    7  C12 UNL     1      34.905  -7.172  24.991  1.00  0.00     0.124 C 
HETATM    8  N2  UNL     1      33.706  -6.546  24.531  1.00  0.00    -0.390 N 
HETATM    9  C19 UNL     1      33.516  -6.027  23.219  1.00  0.00     0.124 C 
HETATM   10  C20 UNL     1      34.405  -6.616  22.175  1.00  0.00     0.052 C 
BRANCH   8  11
HETATM   11  C13 UNL     1      32.623  -6.429  25.457  1.00  0.00     0.088 C 
HETATM   12  C14 UNL     1      31.483  -7.037  25.296  1.00  0.00    -0.065 C 
HETATM   13  C15 UNL     1      30.318  -6.964  26.210  1.00  0.00     0.035 C 
HETATM   14  C18 UNL     1      31.034  -7.938  24.200  1.00  0.00     0.035 C 
HETATM   15  C16 UNL     1      29.101  -7.187  25.325  1.00  0.00     0.005 C 
HETATM   16  C17 UNL     1      29.634  -7.431  23.934  1.00  0.00     0.005 C 
ENDBRANCH   8  11
ENDBRANCH   4   5
ENDBRANCH   2   4
BRANCH   1  17
HETATM   17  C8  UNL     1      38.031  -9.749  25.033  1.00  0.00     0.113 A 
HETATM   18  C7  UNL     1      39.217  -9.324  25.690  1.00  0.00     0.045 A 
HETATM   19  C6  UNL     1      39.510  -9.712  26.954  1.00  0.00     0.011 A 
HETATM   20  C5  UNL     1      38.686 -10.537  27.679  1.00  0.00    -0.051 A 
HETATM   21  C22 UNL     1      37.538 -10.962  27.070  1.00  0.00     0.011 A 
HETATM   22  C21 UNL     1      37.213 -10.583  25.781  1.00  0.00     0.045 A 
BRANCH  20  23
HETATM   23  C3  UNL     1      39.058 -10.928  29.058  1.00  0.00     0.047 C 
BRANCH  23  24
HETATM   24  C2  UNL     1      40.373 -10.392  29.486  1.00  0.00     0.007 C 
HETATM   25  C1  UNL     1      40.409  -9.335  30.521  1.00  0.00     0.006 C 
ENDBRANCH  23  24
BRANCH  23  26
HETATM   26  C4  UNL     1      38.806 -12.370  29.326  1.00  0.00     0.231 C 
HETATM   27  F1  UNL     1      37.672 -12.690  29.984  1.00  0.00    -0.255 F 
ENDBRANCH  23  26
ENDBRANCH  20  23
ENDBRANCH   1  17
TORSDOF 7
ENDMDL
MODEL 5
REMARK VINA RESULT: -8.566003356      0.957      1.374
REMARK  7 active torsions:
REMARK  status: ('A' for Active; 'I' for Inactive)
REMARK    1  A    between atoms: C2_2  and  C3_3 
REMARK    2  A    between atoms: C3_3  and  C4_4 
REMARK    3  A    between atoms: C3_3  and  C5_6 
REMARK    4  A    between atoms: C8_9  and  N1_10 
REMARK       I    between atoms: N1_10  and  C9_11 
REMARK    5  A    between atoms: C9_11  and  O2_13 
REMARK    6  A    between atoms: O2_13  and  C10_14 
REMARK    7  A    between atoms: N2_17  and  C13_18 
ROOT
HETATM    1  N1  UNL     1      37.634  -8.430  23.894  1.00  0.00    -0.346 NA
HETATM    2  C9  UNL     1      37.144  -7.971  22.749  1.00  0.00     0.440 C 
HETATM    3  O1  UNL     1      37.732  -7.725  21.675  1.00  0.00    -0.221 OA
ENDROOT
BRANCH   2   4
HETATM    4  O2  UNL     1      35.743  -7.679  22.598  1.00  0.00    -0.287 OA
BRANCH   4   5
HETATM    5  C10 UNL     1      35.019  -6.904  23.511  1.00  0.00     0.138 C 
HETATM    6  C11 UNL     1      34.165  -7.752  24.415  1.00  0.00     0.052 C 
HETATM    7  C12 UNL     1      32.804  -8.062  23.877  1.00  0.00     0.124 C 
HETATM    8  N2  UNL     1      32.175  -6.820  23.562  1.00  0.00    -0.390 N 
HETATM    9  C19 UNL     1      32.869  -5.601  23.315  1.00  0.00     0.124 C 
HETATM   10  C20 UNL     1      34.286  -5.762  22.877  1.00  0.00     0.052 C 
BRANCH   8  11
HETATM   11  C13 UNL     1      30.747  -6.798  23.497  1.00  0.00     0.088 C 
HETATM   12  C14 UNL     1      29.988  -6.854  24.554  1.00  0.00    -0.065 C 
HETATM   13  C15 UNL     1      28.505  -6.836  24.566  1.00  0.00     0.035 C 
HETATM   14  C18 UNL     1      30.366  -6.947  25.990  1.00  0.00     0.035 C 
HETATM   15  C16 UNL     1      28.107  -7.605  25.816  1.00  0.00     0.005 C 
HETATM   16  C17 UNL     1      29.396  -7.991  26.500  1.00  0.00     0.005 C 
ENDBRANCH   8  11
ENDBRANCH   4   5
ENDBRANCH   2   4
BRANCH   1  17
HETATM   17  C8  UNL     1      38.143  -8.907  25.082  1.00  0.00     0.113 A 
HETATM   18  C7  UNL     1      37.271  -9.644  25.928  1.00  0.00     0.045 A 
HETATM   19  C6  UNL     1      37.708 -10.218  27.075  1.00  0.00     0.011 A 
HETATM   20  C5  UNL     1      39.013 -10.125  27.492  1.00  0.00    -0.051 A 
HETATM   21  C22 UNL     1      39.873  -9.420  26.697  1.00  0.00     0.011 A 
HETATM   22  C21 UNL     1      39.456  -8.823  25.522  1.00  0.00     0.045 A 
BRANCH  20  23
HETATM   23  C3  UNL     1      39.433 -10.774  28.755  1.00  0.00     0.047 C 
BRANCH  23  24
HETATM   24  C2  UNL     1      38.293 -11.194  29.607  1.00  0.00     0.007 C 
HETATM   25  C1  UNL     1      37.948 -12.632  29.678  1.00  0.00     0.006 C 
ENDBRANCH  23  24
BRANCH  23  26
HETATM   26  C4  UNL     1      40.536 -10.038  29.430  1.00  0.00     0.231 C 
HETATM   27  F1  UNL     1      40.210  -9.265  30.487  1.00  0.00    -0.255 F 
ENDBRANCH  23  26
ENDBRANCH  20  23
ENDBRANCH   1  17
TORSDOF 7
ENDMDL
