MODEL 1
REMARK VINA RESULT: -8.668634042      0.000      0.000
REMARK  8 active torsions:
REMARK  status: ('A' for Active; 'I' for Inactive)
REMARK    1  A    between atoms: O1_1  and  C1_3 
REMARK    2  A    between atoms: C1_3  and  C6_12 
REMARK    3  A    between atoms: C2_4  and  C3_5 
REMARK    4  A    between atoms: C3_5  and  C5_9 
REMARK    5  A    between atoms: C4_6  and  O2_7 
REMARK    6  A    between atoms: C5_9  and  O3_10 
REMARK       I    between atoms: N2_18  and  C9_19 
REMARK    7  A    between atoms: C9_19  and  O5_21 
REMARK    8  A    between atoms: O5_21  and  C10_22 
ROOT
HETATM    1  C6  UNL     1     -12.525 -36.624  15.705  1.00  0.00     0.381 C 
HETATM    2  N1  UNL     1     -11.157 -37.231  15.819  1.00  0.00    -0.033 N 
ATOM      3  H11 UNL     1     -11.020 -37.796  16.658  1.00  0.00     0.281 HD
ATOM      4  H12 UNL     1     -10.416 -36.558  16.014  1.00  0.00     0.281 HD
HETATM    5  C7  UNL     1     -10.986 -37.951  14.594  1.00  0.00     0.255 C 
HETATM    6  C8  UNL     1     -11.003 -39.456  14.784  1.00  0.00     0.187 C 
HETATM    7  N2  UNL     1     -11.625 -39.866  13.530  1.00  0.00    -0.236 N 
HETATM    8  C9  UNL     1     -11.414 -41.106  12.875  1.00  0.00     0.379 C 
HETATM    9  O4  UNL     1     -10.624 -41.970  13.386  1.00  0.00    -0.237 OA
HETATM   10  N3  UNL     1     -12.458 -38.867  13.057  1.00  0.00    -0.100 NA
HETATM   11  C20 UNL     1     -12.285 -37.706  13.865  1.00  0.00     0.270 C 
HETATM   12  O6  UNL     1     -13.184 -37.634  14.945  1.00  0.00    -0.328 OA
ENDROOT
BRANCH   8  13
HETATM   13  O5  UNL     1     -12.029 -41.443  11.684  1.00  0.00    -0.297 OA
BRANCH  13  14
HETATM   14  C10 UNL     1     -11.615 -40.979  10.431  1.00  0.00     0.142 C 
HETATM   15  C11 UNL     1     -10.136 -40.817  10.276  1.00  0.00     0.016 C 
HETATM   16  C12 UNL     1      -9.894 -40.012   9.015  1.00  0.00     0.012 C 
HETATM   17  C16 UNL     1      -9.407 -42.135  10.104  1.00  0.00     0.012 C 
HETATM   18  C13 UNL     1     -10.484 -40.742   7.828  1.00  0.00    -0.013 C 
HETATM   19  C14 UNL     1      -9.771 -42.066   7.661  1.00  0.00     0.009 C 
HETATM   20  C19 UNL     1     -11.951 -41.054   8.011  1.00  0.00     0.012 C 
HETATM   21  C15 UNL     1      -9.977 -42.887   8.922  1.00  0.00    -0.013 C 
HETATM   22  C17 UNL     1     -11.439 -43.152   9.182  1.00  0.00     0.012 C 
HETATM   23  C18 UNL     1     -12.140 -41.824   9.290  1.00  0.00     0.016 C 
ENDBRANCH  13  14
ENDBRANCH   8  13
BRANCH   1  24
HETATM   24  C1  UNL     1     -13.084 -36.460  17.022  1.00  0.00     0.100 C 
HETATM   25  C2  UNL     1     -12.625 -35.737  18.149  1.00  0.00     0.047 C 
BRANCH  24  26
HETATM   26  O1  UNL     1     -14.221 -37.094  17.201  1.00  0.00    -0.360 OA
ATOM     27  H1  UNL     1     -14.395 -37.784  16.572  1.00  0.00     0.217 HD
ENDBRANCH  24  26
BRANCH  25  28
HETATM   28  C3  UNL     1     -11.636 -35.013  18.501  1.00  0.00    -0.011 C 
HETATM   29  C4  UNL     1     -10.637 -34.233  17.813  1.00  0.00     0.140 C 
BRANCH  29  30
HETATM   30  O2  UNL     1     -10.579 -34.131  16.481  1.00  0.00    -0.372 OA
ATOM     31  H2  UNL     1     -10.262 -33.355  16.034  1.00  0.00     0.216 HD
ENDBRANCH  29  30
BRANCH  28  32
HETATM   32  C5  UNL     1     -11.426 -34.929  20.047  1.00  0.00     0.204 C 
BRANCH  32  33
HETATM   33  O3  UNL     1     -10.666 -33.802  20.329  1.00  0.00    -0.396 OA
ATOM     34  H3  UNL     1     -10.911 -33.479  21.188  1.00  0.00     0.209 HD
ENDBRANCH  32  33
ENDBRANCH  28  32
ENDBRANCH  25  28
ENDBRANCH   1  24
TORSDOF 8
ENDMDL
MODEL 2
REMARK VINA RESULT: -8.592936997      0.488      1.614
REMARK  8 active torsions:
REMARK  status: ('A' for Active; 'I' for Inactive)
REMARK    1  A    between atoms: O1_1  and  C1_3 
REMARK    2  A    between atoms: C1_3  and  C6_12 
REMARK    3  A    between atoms: C2_4  and  C3_5 
REMARK    4  A    between atoms: C3_5  and  C5_9 
REMARK    5  A    between atoms: C4_6  and  O2_7 
REMARK    6  A    between atoms: C5_9  and  O3_10 
REMARK       I    between atoms: N2_18  and  C9_19 
REMARK    7  A    between atoms: C9_19  and  O5_21 
REMARK    8  A    between atoms: O5_21  and  C10_22 
ROOT
HETATM    1  C6  UNL     1     -12.317 -36.526  15.592  1.00  0.00     0.381 C 
HETATM    2  N1  UNL     1     -11.071 -37.299  15.913  1.00  0.00    -0.033 N 
ATOM      3  H11 UNL     1     -11.145 -37.884  16.746  1.00  0.00     0.281 HD
ATOM      4  H12 UNL     1     -10.298 -36.724  16.248  1.00  0.00     0.281 HD
HETATM    5  C7  UNL     1     -10.784 -38.023  14.713  1.00  0.00     0.255 C 
HETATM    6  C8  UNL     1     -11.014 -39.516  14.853  1.00  0.00     0.187 C 
HETATM    7  N2  UNL     1     -11.461 -39.835  13.501  1.00  0.00    -0.236 N 
HETATM    8  C9  UNL     1     -11.293 -41.085  12.853  1.00  0.00     0.379 C 
HETATM    9  O4  UNL     1     -10.710 -42.045  13.463  1.00  0.00    -0.237 OA
HETATM   10  N3  UNL     1     -12.077 -38.736  12.926  1.00  0.00    -0.100 NA
HETATM   11  C20 UNL     1     -11.903 -37.613  13.786  1.00  0.00     0.270 C 
HETATM   12  O6  UNL     1     -12.956 -37.440  14.703  1.00  0.00    -0.328 OA
ENDROOT
BRANCH   8  13
HETATM   13  O5  UNL     1     -11.735 -41.333  11.568  1.00  0.00    -0.297 OA
BRANCH  13  14
HETATM   14  C10 UNL     1     -10.989 -42.015  10.602  1.00  0.00     0.142 C 
HETATM   15  C11 UNL     1     -11.741 -42.368   9.357  1.00  0.00     0.016 C 
HETATM   16  C12 UNL     1     -10.903 -43.366   8.585  1.00  0.00     0.012 C 
HETATM   17  C16 UNL     1     -11.968 -41.181   8.442  1.00  0.00     0.012 C 
HETATM   18  C13 UNL     1      -9.563 -42.750   8.248  1.00  0.00    -0.013 C 
HETATM   19  C14 UNL     1      -9.784 -41.555   7.347  1.00  0.00     0.009 C 
HETATM   20  C19 UNL     1      -8.834 -42.246   9.472  1.00  0.00     0.012 C 
HETATM   21  C15 UNL     1     -10.642 -40.544   8.089  1.00  0.00    -0.013 C 
HETATM   22  C17 UNL     1      -9.981 -40.077   9.361  1.00  0.00     0.012 C 
HETATM   23  C18 UNL     1      -9.719 -41.286  10.219  1.00  0.00     0.016 C 
ENDBRANCH  13  14
ENDBRANCH   8  13
BRANCH   1  24
HETATM   24  C1  UNL     1     -13.066 -36.307  16.802  1.00  0.00     0.100 C 
HETATM   25  C2  UNL     1     -12.733 -35.622  17.996  1.00  0.00     0.047 C 
BRANCH  24  26
HETATM   26  O1  UNL     1     -14.268 -36.835  16.788  1.00  0.00    -0.360 OA
ATOM     27  H1  UNL     1     -14.851 -36.481  16.126  1.00  0.00     0.217 HD
ENDBRANCH  24  26
BRANCH  25  28
HETATM   28  C3  UNL     1     -11.753 -34.989  18.511  1.00  0.00    -0.011 C 
HETATM   29  C4  UNL     1     -10.573 -34.334  18.004  1.00  0.00     0.140 C 
BRANCH  29  30
HETATM   30  O2  UNL     1     -10.267 -34.282  16.704  1.00  0.00    -0.372 OA
ATOM     31  H2  UNL     1     -10.799 -33.824  16.063  1.00  0.00     0.216 HD
ENDBRANCH  29  30
BRANCH  28  32
HETATM   32  C5  UNL     1     -11.816 -34.875  20.068  1.00  0.00     0.204 C 
BRANCH  32  33
HETATM   33  O3  UNL     1     -10.823 -33.999  20.487  1.00  0.00    -0.396 OA
ATOM     34  H3  UNL     1     -10.244 -33.824  19.756  1.00  0.00     0.209 HD
ENDBRANCH  32  33
ENDBRANCH  28  32
ENDBRANCH  25  28
ENDBRANCH   1  24
TORSDOF 8
ENDMDL
MODEL 3
REMARK VINA RESULT: -8.285270200      5.005      6.318
REMARK  8 active torsions:
REMARK  status: ('A' for Active; 'I' for Inactive)
REMARK    1  A    between atoms: O1_1  and  C1_3 
REMARK    2  A    between atoms: C1_3  and  C6_12 
REMARK    3  A    between atoms: C2_4  and  C3_5 
REMARK    4  A    between atoms: C3_5  and  C5_9 
REMARK    5  A    between atoms: C4_6  and  O2_7 
REMARK    6  A    between atoms: C5_9  and  O3_10 
REMARK       I    between atoms: N2_18  and  C9_19 
REMARK    7  A    between atoms: C9_19  and  O5_21 
REMARK    8  A    between atoms: O5_21  and  C10_22 
ROOT
HETATM    1  C6  UNL     1     -18.083 -39.420  15.587  1.00  0.00     0.381 C 
HETATM    2  N1  UNL     1     -18.799 -39.688  14.295  1.00  0.00    -0.033 N 
ATOM      3  H11 UNL     1     -19.053 -38.846  13.777  1.00  0.00     0.281 HD
ATOM      4  H12 UNL     1     -19.749 -40.040  14.410  1.00  0.00     0.281 HD
HETATM    5  C7  UNL     1     -17.928 -40.573  13.585  1.00  0.00     0.255 C 
HETATM    6  C8  UNL     1     -17.275 -39.920  12.380  1.00  0.00     0.187 C 
HETATM    7  N2  UNL     1     -15.987 -40.606  12.384  1.00  0.00    -0.236 N 
HETATM    8  C9  UNL     1     -15.185 -40.854  11.241  1.00  0.00     0.379 C 
HETATM    9  O4  UNL     1     -15.578 -40.463  10.090  1.00  0.00    -0.237 OA
HETATM   10  N3  UNL     1     -15.650 -40.989  13.671  1.00  0.00    -0.100 NA
HETATM   11  C20 UNL     1     -16.762 -40.742  14.528  1.00  0.00     0.270 C 
HETATM   12  O6  UNL     1     -16.730 -39.475  15.138  1.00  0.00    -0.328 OA
ENDROOT
BRANCH   8  13
HETATM   13  O5  UNL     1     -13.970 -41.511  11.302  1.00  0.00    -0.297 OA
BRANCH  13  14
HETATM   14  C10 UNL     1     -12.793 -41.034  10.718  1.00  0.00     0.142 C 
HETATM   15  C11 UNL     1     -11.591 -41.064  11.608  1.00  0.00     0.016 C 
HETATM   16  C12 UNL     1     -10.514 -40.226  10.950  1.00  0.00     0.012 C 
HETATM   17  C16 UNL     1     -11.018 -42.455  11.789  1.00  0.00     0.012 C 
HETATM   18  C13 UNL     1     -10.190 -40.798   9.587  1.00  0.00    -0.013 C 
HETATM   19  C14 UNL     1      -9.632 -42.193   9.760  1.00  0.00     0.009 C 
HETATM   20  C19 UNL     1     -11.411 -40.920   8.706  1.00  0.00     0.012 C 
HETATM   21  C15 UNL     1     -10.684 -43.052  10.440  1.00  0.00    -0.013 C 
HETATM   22  C17 UNL     1     -11.950 -43.133   9.625  1.00  0.00     0.012 C 
HETATM   23  C18 UNL     1     -12.458 -41.732   9.417  1.00  0.00     0.016 C 
ENDBRANCH  13  14
ENDBRANCH   8  13
BRANCH   1  24
HETATM   24  C1  UNL     1     -18.456 -38.119  16.077  1.00  0.00     0.100 C 
HETATM   25  C2  UNL     1     -19.710 -37.596  16.478  1.00  0.00     0.047 C 
BRANCH  24  26
HETATM   26  O1  UNL     1     -17.454 -37.275  16.169  1.00  0.00    -0.360 OA
ATOM     27  H1  UNL     1     -16.778 -37.525  16.788  1.00  0.00     0.217 HD
ENDBRANCH  24  26
BRANCH  25  28
HETATM   28  C3  UNL     1     -20.930 -37.956  16.562  1.00  0.00    -0.011 C 
HETATM   29  C4  UNL     1     -21.953 -38.344  15.623  1.00  0.00     0.140 C 
BRANCH  29  30
HETATM   30  O2  UNL     1     -21.753 -38.393  14.302  1.00  0.00    -0.372 OA
ATOM     31  H2  UNL     1     -22.203 -39.004  13.730  1.00  0.00     0.216 HD
ENDBRANCH  29  30
BRANCH  28  32
HETATM   32  C5  UNL     1     -21.483 -37.999  18.022  1.00  0.00     0.204 C 
BRANCH  32  33
HETATM   33  O3  UNL     1     -22.871 -37.998  17.970  1.00  0.00    -0.396 OA
ATOM     34  H3  UNL     1     -23.165 -37.119  17.764  1.00  0.00     0.209 HD
ENDBRANCH  32  33
ENDBRANCH  28  32
ENDBRANCH  25  28
ENDBRANCH   1  24
TORSDOF 8
ENDMDL
MODEL 4
REMARK VINA RESULT: -8.244072926      4.749      6.179
REMARK  8 active torsions:
REMARK  status: ('A' for Active; 'I' for Inactive)
REMARK    1  A    between atoms: O1_1  and  C1_3 
REMARK    2  A    between atoms: C1_3  and  C6_12 
REMARK    3  A    between atoms: C2_4  and  C3_5 
REMARK    4  A    between atoms: C3_5  and  C5_9 
REMARK    5  A    between atoms: C4_6  and  O2_7 
REMARK    6  A    between atoms: C5_9  and  O3_10 
REMARK       I    between atoms: N2_18  and  C9_19 
REMARK    7  A    between atoms: C9_19  and  O5_21 
REMARK    8  A    between atoms: O5_21  and  C10_22 
ROOT
HETATM    1  C6  UNL     1     -17.671 -39.585  15.765  1.00  0.00     0.381 C 
HETATM    2  N1  UNL     1     -18.198 -40.972  15.531  1.00  0.00    -0.033 N 
ATOM      3  H11 UNL     1     -18.873 -41.039  14.770  1.00  0.00     0.281 HD
ATOM      4  H12 UNL     1     -18.820 -41.311  16.265  1.00  0.00     0.281 HD
HETATM    5  C7  UNL     1     -17.024 -41.768  15.345  1.00  0.00     0.255 C 
HETATM    6  C8  UNL     1     -16.856 -42.250  13.916  1.00  0.00     0.187 C 
HETATM    7  N2  UNL     1     -15.401 -42.249  13.814  1.00  0.00    -0.236 N 
HETATM    8  C9  UNL     1     -14.635 -43.095  12.973  1.00  0.00     0.379 C 
HETATM    9  O4  UNL     1     -15.222 -43.947  12.222  1.00  0.00    -0.237 OA
HETATM   10  N3  UNL     1     -14.861 -41.297  14.662  1.00  0.00    -0.100 NA
HETATM   11  C20 UNL     1     -15.902 -40.768  15.479  1.00  0.00     0.270 C 
HETATM   12  O6  UNL     1     -16.508 -39.618  14.942  1.00  0.00    -0.328 OA
ENDROOT
BRANCH   8  13
HETATM   13  O5  UNL     1     -13.255 -43.053  12.917  1.00  0.00    -0.297 OA
BRANCH  13  14
HETATM   14  C10 UNL     1     -12.532 -42.551  11.831  1.00  0.00     0.142 C 
HETATM   15  C11 UNL     1     -13.006 -41.231  11.312  1.00  0.00     0.016 C 
HETATM   16  C12 UNL     1     -12.346 -41.003   9.968  1.00  0.00     0.012 C 
HETATM   17  C16 UNL     1     -12.612 -40.067  12.199  1.00  0.00     0.012 C 
HETATM   18  C13 UNL     1     -10.843 -41.007  10.134  1.00  0.00    -0.013 C 
HETATM   19  C14 UNL     1     -10.444 -39.857  11.032  1.00  0.00     0.009 C 
HETATM   20  C19 UNL     1     -10.337 -42.271  10.791  1.00  0.00     0.012 C 
HETATM   21  C15 UNL     1     -11.110 -40.046  12.384  1.00  0.00    -0.013 C 
HETATM   22  C17 UNL     1     -10.691 -41.339  13.036  1.00  0.00     0.012 C 
HETATM   23  C18 UNL     1     -11.045 -42.466  12.104  1.00  0.00     0.016 C 
ENDBRANCH  13  14
ENDBRANCH   8  13
BRANCH   1  24
HETATM   24  C1  UNL     1     -18.646 -38.625  15.317  1.00  0.00     0.100 C 
HETATM   25  C2  UNL     1     -19.666 -37.934  16.015  1.00  0.00     0.047 C 
BRANCH  24  26
HETATM   26  O1  UNL     1     -18.568 -38.343  14.036  1.00  0.00    -0.360 OA
ATOM     27  H1  UNL     1     -17.703 -38.089  13.737  1.00  0.00     0.217 HD
ENDBRANCH  24  26
BRANCH  25  28
HETATM   28  C3  UNL     1     -20.159 -37.857  17.188  1.00  0.00    -0.011 C 
HETATM   29  C4  UNL     1     -19.640 -37.960  18.529  1.00  0.00     0.140 C 
BRANCH  29  30
HETATM   30  O2  UNL     1     -18.351 -38.194  18.799  1.00  0.00    -0.372 OA
ATOM     31  H2  UNL     1     -17.693 -37.509  18.822  1.00  0.00     0.216 HD
ENDBRANCH  29  30
BRANCH  28  32
HETATM   32  C5  UNL     1     -21.697 -37.585  17.217  1.00  0.00     0.204 C 
BRANCH  32  33
HETATM   33  O3  UNL     1     -22.260 -38.336  18.241  1.00  0.00    -0.396 OA
ATOM     34  H3  UNL     1     -22.250 -37.818  19.037  1.00  0.00     0.209 HD
ENDBRANCH  32  33
ENDBRANCH  28  32
ENDBRANCH  25  28
ENDBRANCH   1  24
TORSDOF 8
ENDMDL
MODEL 5
REMARK VINA RESULT: -8.136696529      4.122      5.272
REMARK  8 active torsions:
REMARK  status: ('A' for Active; 'I' for Inactive)
REMARK    1  A    between atoms: O1_1  and  C1_3 
REMARK    2  A    between atoms: C1_3  and  C6_12 
REMARK    3  A    between atoms: C2_4  and  C3_5 
REMARK    4  A    between atoms: C3_5  and  C5_9 
REMARK    5  A    between atoms: C4_6  and  O2_7 
REMARK    6  A    between atoms: C5_9  and  O3_10 
REMARK       I    between atoms: N2_18  and  C9_19 
REMARK    7  A    between atoms: C9_19  and  O5_21 
REMARK    8  A    between atoms: O5_21  and  C10_22 
ROOT
HETATM    1  C6  UNL     1     -18.173 -39.899  15.268  1.00  0.00     0.381 C 
HETATM    2  N1  UNL     1     -18.719 -40.378  13.954  1.00  0.00    -0.033 N 
ATOM      3  H11 UNL     1     -19.125 -39.641  13.377  1.00  0.00     0.281 HD
ATOM      4  H12 UNL     1     -19.568 -40.939  14.034  1.00  0.00     0.281 HD
HETATM    5  C7  UNL     1     -17.621 -41.062  13.343  1.00  0.00     0.255 C 
HETATM    6  C8  UNL     1     -17.057 -40.323  12.144  1.00  0.00     0.187 C 
HETATM    7  N2  UNL     1     -15.649 -40.687  12.257  1.00  0.00    -0.236 N 
HETATM    8  C9  UNL     1     -14.735 -40.785  11.177  1.00  0.00     0.379 C 
HETATM    9  O4  UNL     1     -15.129 -40.543   9.986  1.00  0.00    -0.237 OA
HETATM   10  N3  UNL     1     -15.320 -40.929  13.580  1.00  0.00    -0.100 NA
HETATM   11  C20 UNL     1     -16.514 -40.916  14.358  1.00  0.00     0.270 C 
HETATM   12  O6  UNL     1     -16.817 -39.654  14.900  1.00  0.00    -0.328 OA
ENDROOT
BRANCH   8  13
HETATM   13  O5  UNL     1     -13.409 -41.136  11.342  1.00  0.00    -0.297 OA
BRANCH  13  14
HETATM   14  C10 UNL     1     -12.380 -40.729  10.488  1.00  0.00     0.142 C 
HETATM   15  C11 UNL     1     -11.042 -40.578  11.139  1.00  0.00     0.016 C 
HETATM   16  C12 UNL     1     -10.145 -39.829  10.174  1.00  0.00     0.012 C 
HETATM   17  C16 UNL     1     -10.368 -41.904  11.429  1.00  0.00     0.012 C 
HETATM   18  C13 UNL     1     -10.031 -40.608   8.882  1.00  0.00    -0.013 C 
HETATM   19  C14 UNL     1      -9.373 -41.940   9.167  1.00  0.00     0.009 C 
HETATM   20  C19 UNL     1     -11.377 -40.907   8.266  1.00  0.00     0.012 C 
HETATM   21  C15 UNL     1     -10.240 -42.705  10.151  1.00  0.00    -0.013 C 
HETATM   22  C17 UNL     1     -11.622 -42.954   9.601  1.00  0.00     0.012 C 
HETATM   23  C18 UNL     1     -12.238 -41.621   9.273  1.00  0.00     0.016 C 
ENDBRANCH  13  14
ENDBRANCH   8  13
BRANCH   1  24
HETATM   24  C1  UNL     1     -18.870 -38.704  15.665  1.00  0.00     0.100 C 
HETATM   25  C2  UNL     1     -18.747 -37.890  16.818  1.00  0.00     0.047 C 
BRANCH  24  26
HETATM   26  O1  UNL     1     -19.775 -38.302  14.802  1.00  0.00    -0.360 OA
ATOM     27  H1  UNL     1     -20.671 -38.515  15.036  1.00  0.00     0.217 HD
ENDBRANCH  24  26
BRANCH  25  28
HETATM   28  C3  UNL     1     -18.083 -37.841  17.905  1.00  0.00    -0.011 C 
HETATM   29  C4  UNL     1     -18.393 -37.991  19.305  1.00  0.00     0.140 C 
BRANCH  29  30
HETATM   30  O2  UNL     1     -19.626 -38.242  19.759  1.00  0.00    -0.372 OA
ATOM     31  H2  UNL     1     -19.891 -39.087  20.102  1.00  0.00     0.216 HD
ENDBRANCH  29  30
BRANCH  28  32
HETATM   32  C5  UNL     1     -16.561 -37.552  17.711  1.00  0.00     0.204 C 
BRANCH  32  33
HETATM   33  O3  UNL     1     -16.390 -36.862  16.518  1.00  0.00    -0.396 OA
ATOM     34  H3  UNL     1     -17.245 -36.691  16.142  1.00  0.00     0.209 HD
ENDBRANCH  32  33
ENDBRANCH  28  32
ENDBRANCH  25  28
ENDBRANCH   1  24
TORSDOF 8
ENDMDL
