MODEL 1
REMARK VINA RESULT: -7.448851157      0.000      0.000
REMARK  8 active torsions:
REMARK  status: ('A' for Active; 'I' for Inactive)
REMARK    1  A    between atoms: N2_6  and  C4_8 
REMARK    2  A    between atoms: C9_14  and  C10_15 
REMARK    3  A    between atoms: C10_15  and  O1_16 
REMARK    4  A    between atoms: C11_20  and  N5_21 
REMARK    5  A    between atoms: N5_21  and  C12_23 
REMARK    6  A    between atoms: N7_27  and  C14_28 
REMARK    7  A    between atoms: C14_28  and  C15_29 
REMARK    8  A    between atoms: C15_29  and  O2_30 
ROOT
HETATM    1  C4  UNL     1      17.581 -40.569 -13.552  1.00  0.00     0.123 C 
HETATM    2  C5  UNL     1      17.931 -42.044 -13.810  1.00  0.00     0.116 C 
HETATM    3  C6  UNL     1      18.547 -42.627 -12.618  1.00  0.00     0.066 C 
HETATM    4  N3  UNL     1      19.030 -43.098 -11.694  1.00  0.00    -0.197 NA
HETATM    5  C7  UNL     1      16.583 -42.705 -14.016  1.00  0.00     0.022 C 
HETATM    6  C8  UNL     1      15.749 -42.056 -12.968  1.00  0.00     0.010 C 
HETATM    7  C9  UNL     1      16.238 -40.636 -12.882  1.00  0.00     0.034 C 
ENDROOT
BRANCH   1   8
HETATM    8  N2  UNL     1      17.530 -39.905 -14.828  1.00  0.00    -0.220 N 
HETATM    9  C3  UNL     1      18.577 -39.351 -15.327  1.00  0.00     0.680 A 
HETATM   10  N1  UNL     1      19.792 -39.312 -14.766  1.00  0.00    -0.195 N 
HETATM   11  N4  UNL     1      18.482 -38.730 -16.547  1.00  0.00    -0.175 N 
HETATM   12  C2  UNL     1      20.869 -38.729 -15.302  1.00  0.00     0.043 A 
ATOM     13  H1  UNL     1      19.905 -39.763 -13.858  1.00  0.00     0.184 HD
HETATM   14  C1  UNL     1      22.204 -38.722 -14.620  1.00  0.00     0.070 C 
HETATM   15  C17 UNL     1      20.751 -38.115 -16.523  1.00  0.00     0.078 A 
HETATM   16  C11 UNL     1      19.512 -38.124 -17.150  1.00  0.00     0.141 A 
HETATM   17 BR1  UNL     1      22.262 -37.267 -17.330  1.00  0.00    -0.045 Br
ATOM     18  H4  UNL     1      17.578 -38.731 -17.019  1.00  0.00     0.186 HD
ATOM     19  H2  UNL     1      16.651 -39.875 -15.344  1.00  0.00     0.178 HD
BRANCH  16  20
HETATM   20  N5  UNL     1      19.393 -37.548 -18.298  1.00  0.00    -0.339 N 
ATOM     21  H5  UNL     1      20.172 -37.028 -18.702  1.00  0.00     0.167 HD
BRANCH  20  22
HETATM   22  C12 UNL     1      18.170 -37.650 -18.981  1.00  0.00     0.068 A 
HETATM   23  C13 UNL     1      17.828 -38.618 -19.894  1.00  0.00     0.138 A 
HETATM   24  N6  UNL     1      16.584 -38.353 -20.305  1.00  0.00    -0.308 N 
HETATM   25  N7  UNL     1      16.146 -37.256 -19.678  1.00  0.00    -0.299 N 
ATOM     26  H6  UNL     1      16.055 -38.899 -20.985  1.00  0.00     0.186 HD
HETATM   27  C16 UNL     1      17.089 -36.783 -18.849  1.00  0.00     0.141 A 
BRANCH  25  28
HETATM   28  C14 UNL     1      14.832 -36.686 -19.891  1.00  0.00     0.174 C 
BRANCH  28  29
HETATM   29  C15 UNL     1      13.996 -36.974 -18.658  1.00  0.00     0.185 C 
BRANCH  29  30
HETATM   30  O2  UNL     1      13.147 -35.867 -18.479  1.00  0.00    -0.399 OA
ATOM     31  H2  UNL     1      13.707 -35.121 -18.300  1.00  0.00     0.209 HD
ENDBRANCH  29  30
ENDBRANCH  28  29
ENDBRANCH  25  28
ENDBRANCH  20  22
ENDBRANCH  16  20
ENDBRANCH   1   8
BRANCH   7  32
HETATM   32  C10 UNL     1      16.284 -40.274 -11.405  1.00  0.00     0.170 C 
BRANCH  32  33
HETATM   33  O1  UNL     1      17.161 -39.194 -11.291  1.00  0.00    -0.400 OA
ATOM     34  H1  UNL     1      17.420 -39.155 -10.379  1.00  0.00     0.209 HD
ENDBRANCH  32  33
ENDBRANCH   7  32
TORSDOF 8
ENDMDL
MODEL 2
REMARK VINA RESULT: -6.986370320      4.254      8.644
REMARK  8 active torsions:
REMARK  status: ('A' for Active; 'I' for Inactive)
REMARK    1  A    between atoms: N2_6  and  C4_8 
REMARK    2  A    between atoms: C9_14  and  C10_15 
REMARK    3  A    between atoms: C10_15  and  O1_16 
REMARK    4  A    between atoms: C11_20  and  N5_21 
REMARK    5  A    between atoms: N5_21  and  C12_23 
REMARK    6  A    between atoms: N7_27  and  C14_28 
REMARK    7  A    between atoms: C14_28  and  C15_29 
REMARK    8  A    between atoms: C15_29  and  O2_30 
ROOT
HETATM    1  C4  UNL     1      12.509 -35.350 -17.127  1.00  0.00     0.123 C 
HETATM    2  C5  UNL     1      11.516 -34.399 -16.439  1.00  0.00     0.116 C 
HETATM    3  C6  UNL     1      11.929 -33.011 -16.646  1.00  0.00     0.066 C 
HETATM    4  N3  UNL     1      12.238 -31.920 -16.799  1.00  0.00    -0.197 NA
HETATM    5  C7  UNL     1      10.219 -34.623 -17.189  1.00  0.00     0.022 C 
HETATM    6  C8  UNL     1      10.683 -34.715 -18.601  1.00  0.00     0.010 C 
HETATM    7  C9  UNL     1      12.017 -35.408 -18.546  1.00  0.00     0.034 C 
ENDROOT
BRANCH   1   8
HETATM    8  N2  UNL     1      12.425 -36.623 -16.460  1.00  0.00    -0.220 N 
HETATM    9  C3  UNL     1      13.441 -37.409 -16.405  1.00  0.00     0.680 A 
HETATM   10  N1  UNL     1      14.650 -37.171 -16.929  1.00  0.00    -0.195 N 
HETATM   11  N4  UNL     1      13.315 -38.612 -15.758  1.00  0.00    -0.175 N 
HETATM   12  C2  UNL     1      15.695 -38.003 -16.860  1.00  0.00     0.043 A 
ATOM     13  H1  UNL     1      14.785 -36.286 -17.418  1.00  0.00     0.184 HD
HETATM   14  C1  UNL     1      17.025 -37.676 -17.469  1.00  0.00     0.070 C 
HETATM   15  C17 UNL     1      15.546 -39.200 -16.208  1.00  0.00     0.078 A 
HETATM   16  C11 UNL     1      14.311 -39.498 -15.646  1.00  0.00     0.141 A 
HETATM   17 BR1  UNL     1      17.010 -40.423 -16.084  1.00  0.00    -0.045 Br
ATOM     18  H4  UNL     1      12.414 -38.842 -15.339  1.00  0.00     0.186 HD
ATOM     19  H2  UNL     1      11.547 -36.905 -16.024  1.00  0.00     0.178 HD
BRANCH  16  20
HETATM   20  N5  UNL     1      14.164 -40.623 -15.032  1.00  0.00    -0.339 N 
ATOM     21  H5  UNL     1      14.281 -41.506 -15.528  1.00  0.00     0.167 HD
BRANCH  20  22
HETATM   22  C12 UNL     1      13.842 -40.607 -13.665  1.00  0.00     0.068 A 
HETATM   23  C13 UNL     1      14.724 -40.452 -12.623  1.00  0.00     0.138 A 
HETATM   24  N6  UNL     1      14.014 -40.496 -11.492  1.00  0.00    -0.308 N 
HETATM   25  N7  UNL     1      12.724 -40.672 -11.798  1.00  0.00    -0.299 N 
ATOM     26  H6  UNL     1      14.393 -40.408 -10.549  1.00  0.00     0.186 HD
HETATM   27  C16 UNL     1      12.565 -40.748 -13.129  1.00  0.00     0.141 A 
BRANCH  25  28
HETATM   28  C14 UNL     1      11.673 -40.765 -10.806  1.00  0.00     0.174 C 
BRANCH  28  29
HETATM   29  C15 UNL     1      10.503 -39.928 -11.288  1.00  0.00     0.185 C 
BRANCH  29  30
HETATM   30  O2  UNL     1       9.679 -39.707 -10.171  1.00  0.00    -0.399 OA
ATOM     31  H2  UNL     1      10.039 -38.958  -9.712  1.00  0.00     0.209 HD
ENDBRANCH  29  30
ENDBRANCH  28  29
ENDBRANCH  25  28
ENDBRANCH  20  22
ENDBRANCH  16  20
ENDBRANCH   1   8
BRANCH   7  32
HETATM   32  C10 UNL     1      12.929 -34.690 -19.529  1.00  0.00     0.170 C 
BRANCH  32  33
HETATM   33  O1  UNL     1      14.126 -35.407 -19.551  1.00  0.00    -0.400 OA
ATOM     34  H1  UNL     1      14.665 -35.007 -20.222  1.00  0.00     0.209 HD
ENDBRANCH  32  33
ENDBRANCH   7  32
TORSDOF 8
ENDMDL
MODEL 3
REMARK VINA RESULT: -6.960459493      3.982      8.176
REMARK  8 active torsions:
REMARK  status: ('A' for Active; 'I' for Inactive)
REMARK    1  A    between atoms: N2_6  and  C4_8 
REMARK    2  A    between atoms: C9_14  and  C10_15 
REMARK    3  A    between atoms: C10_15  and  O1_16 
REMARK    4  A    between atoms: C11_20  and  N5_21 
REMARK    5  A    between atoms: N5_21  and  C12_23 
REMARK    6  A    between atoms: N7_27  and  C14_28 
REMARK    7  A    between atoms: C14_28  and  C15_29 
REMARK    8  A    between atoms: C15_29  and  O2_30 
ROOT
HETATM    1  C4  UNL     1      12.229 -36.127 -18.031  1.00  0.00     0.123 C 
HETATM    2  C5  UNL     1      12.195 -35.563 -19.460  1.00  0.00     0.116 C 
HETATM    3  C6  UNL     1      10.811 -35.334 -19.875  1.00  0.00     0.066 C 
HETATM    4  N3  UNL     1       9.734 -35.149 -20.214  1.00  0.00    -0.197 NA
HETATM    5  C7  UNL     1      12.880 -34.217 -19.336  1.00  0.00     0.022 C 
HETATM    6  C8  UNL     1      12.325 -33.698 -18.055  1.00  0.00     0.010 C 
HETATM    7  C9  UNL     1      12.166 -34.901 -17.165  1.00  0.00     0.034 C 
ENDROOT
BRANCH   1   8
HETATM    8  N2  UNL     1      13.465 -36.848 -17.877  1.00  0.00    -0.220 N 
HETATM    9  C3  UNL     1      13.619 -37.703 -16.929  1.00  0.00     0.680 A 
HETATM   10  N1  UNL     1      12.706 -38.026 -16.004  1.00  0.00    -0.195 N 
HETATM   11  N4  UNL     1      14.813 -38.368 -16.822  1.00  0.00    -0.175 N 
HETATM   12  C2  UNL     1      12.885 -38.919 -15.025  1.00  0.00     0.043 A 
ATOM     13  H1  UNL     1      11.803 -37.554 -16.050  1.00  0.00     0.184 HD
HETATM   14  C1  UNL     1      11.821 -39.236 -14.020  1.00  0.00     0.070 C 
HETATM   15  C17 UNL     1      14.089 -39.572 -14.938  1.00  0.00     0.078 A 
HETATM   16  C11 UNL     1      15.072 -39.275 -15.873  1.00  0.00     0.141 A 
HETATM   17 BR1  UNL     1      14.393 -40.857 -13.556  1.00  0.00    -0.045 Br
ATOM     18  H4  UNL     1      15.544 -38.160 -17.503  1.00  0.00     0.186 HD
ATOM     19  H2  UNL     1      14.231 -36.679 -18.530  1.00  0.00     0.178 HD
BRANCH  16  20
HETATM   20  N5  UNL     1      16.206 -39.885 -15.795  1.00  0.00    -0.339 N 
ATOM     21  H5  UNL     1      16.247 -40.885 -15.597  1.00  0.00     0.167 HD
BRANCH  20  22
HETATM   22  C12 UNL     1      17.384 -39.146 -15.990  1.00  0.00     0.068 A 
HETATM   23  C13 UNL     1      18.169 -38.594 -15.006  1.00  0.00     0.138 A 
HETATM   24  N6  UNL     1      19.188 -37.977 -15.612  1.00  0.00    -0.308 N 
HETATM   25  N7  UNL     1      19.061 -38.128 -16.935  1.00  0.00    -0.299 N 
ATOM     26  H6  UNL     1      19.941 -37.474 -15.142  1.00  0.00     0.186 HD
HETATM   27  C16 UNL     1      17.961 -38.843 -17.220  1.00  0.00     0.141 A 
BRANCH  25  28
HETATM   28  C14 UNL     1      19.997 -37.582 -17.895  1.00  0.00     0.174 C 
BRANCH  28  29
HETATM   29  C15 UNL     1      21.386 -37.669 -17.290  1.00  0.00     0.185 C 
BRANCH  29  30
HETATM   30  O2  UNL     1      22.175 -38.399 -18.197  1.00  0.00    -0.399 OA
ATOM     31  H2  UNL     1      22.780 -37.782 -18.590  1.00  0.00     0.209 HD
ENDBRANCH  29  30
ENDBRANCH  28  29
ENDBRANCH  25  28
ENDBRANCH  20  22
ENDBRANCH  16  20
ENDBRANCH   1   8
BRANCH   7  32
HETATM   32  C10 UNL     1      10.836 -34.742 -16.443  1.00  0.00     0.170 C 
BRANCH  32  33
HETATM   33  O1  UNL     1       9.990 -34.065 -17.321  1.00  0.00    -0.400 OA
ATOM     34  H1  UNL     1      10.530 -33.784 -18.050  1.00  0.00     0.209 HD
ENDBRANCH  32  33
ENDBRANCH   7  32
TORSDOF 8
ENDMDL
MODEL 4
REMARK VINA RESULT: -6.946858365      2.205      2.968
REMARK  8 active torsions:
REMARK  status: ('A' for Active; 'I' for Inactive)
REMARK    1  A    between atoms: N2_6  and  C4_8 
REMARK    2  A    between atoms: C9_14  and  C10_15 
REMARK    3  A    between atoms: C10_15  and  O1_16 
REMARK    4  A    between atoms: C11_20  and  N5_21 
REMARK    5  A    between atoms: N5_21  and  C12_23 
REMARK    6  A    between atoms: N7_27  and  C14_28 
REMARK    7  A    between atoms: C14_28  and  C15_29 
REMARK    8  A    between atoms: C15_29  and  O2_30 
ROOT
HETATM    1  C4  UNL     1      17.059 -40.931 -13.433  1.00  0.00     0.123 C 
HETATM    2  C5  UNL     1      17.475 -42.371 -13.773  1.00  0.00     0.116 C 
HETATM    3  C6  UNL     1      18.698 -42.722 -13.050  1.00  0.00     0.066 C 
HETATM    4  N3  UNL     1      19.654 -43.012 -12.492  1.00  0.00    -0.197 NA
HETATM    5  C7  UNL     1      16.344 -43.216 -13.224  1.00  0.00     0.022 C 
HETATM    6  C8  UNL     1      16.056 -42.551 -11.923  1.00  0.00     0.010 C 
HETATM    7  C9  UNL     1      16.273 -41.081 -12.161  1.00  0.00     0.034 C 
ENDROOT
BRANCH   1   8
HETATM    8  N2  UNL     1      16.258 -40.441 -14.524  1.00  0.00    -0.220 N 
HETATM    9  C3  UNL     1      16.750 -39.635 -15.395  1.00  0.00     0.680 A 
HETATM   10  N1  UNL     1      18.004 -39.162 -15.413  1.00  0.00    -0.195 N 
HETATM   11  N4  UNL     1      15.951 -39.194 -16.419  1.00  0.00    -0.175 N 
HETATM   12  C2  UNL     1      18.497 -38.323 -16.329  1.00  0.00     0.043 A 
ATOM     13  H1  UNL     1      18.631 -39.467 -14.668  1.00  0.00     0.184 HD
HETATM   14  C1  UNL     1      19.912 -37.831 -16.291  1.00  0.00     0.070 C 
HETATM   15  C17 UNL     1      17.678 -37.895 -17.344  1.00  0.00     0.078 A 
HETATM   16  C11 UNL     1      16.368 -38.355 -17.373  1.00  0.00     0.141 A 
HETATM   17 BR1  UNL     1      18.337 -36.695 -18.677  1.00  0.00    -0.045 Br
ATOM     18  H4  UNL     1      14.986 -39.524 -16.454  1.00  0.00     0.186 HD
ATOM     19  H2  UNL     1      15.286 -40.739 -14.607  1.00  0.00     0.178 HD
BRANCH  16  20
HETATM   20  N5  UNL     1      15.593 -37.956 -18.325  1.00  0.00    -0.339 N 
ATOM     21  H5  UNL     1      15.838 -38.122 -19.301  1.00  0.00     0.167 HD
BRANCH  20  22
HETATM   22  C12 UNL     1      14.403 -37.288 -17.991  1.00  0.00     0.068 A 
HETATM   23  C13 UNL     1      13.792 -37.285 -16.760  1.00  0.00     0.138 A 
HETATM   24  N6  UNL     1      12.691 -36.534 -16.866  1.00  0.00    -0.308 N 
HETATM   25  N7  UNL     1      12.601 -36.073 -18.118  1.00  0.00    -0.299 N 
ATOM     26  H6  UNL     1      12.029 -36.343 -16.115  1.00  0.00     0.186 HD
HETATM   27  C16 UNL     1      13.635 -36.511 -18.853  1.00  0.00     0.141 A 
BRANCH  25  28
HETATM   28  C14 UNL     1      11.524 -35.223 -18.581  1.00  0.00     0.174 C 
BRANCH  28  29
HETATM   29  C15 UNL     1      11.232 -34.209 -17.491  1.00  0.00     0.185 C 
BRANCH  29  30
HETATM   30  O2  UNL     1       9.846 -34.256 -17.259  1.00  0.00    -0.399 OA
ATOM     31  H2  UNL     1       9.686 -35.026 -16.726  1.00  0.00     0.209 HD
ENDBRANCH  29  30
ENDBRANCH  28  29
ENDBRANCH  25  28
ENDBRANCH  20  22
ENDBRANCH  16  20
ENDBRANCH   1   8
BRANCH   7  32
HETATM   32  C10 UNL     1      16.995 -40.537 -10.938  1.00  0.00     0.170 C 
BRANCH  32  33
HETATM   33  O1  UNL     1      17.251 -39.190 -11.199  1.00  0.00    -0.400 OA
ATOM     34  H1  UNL     1      18.189 -39.075 -11.116  1.00  0.00     0.209 HD
ENDBRANCH  32  33
ENDBRANCH   7  32
TORSDOF 8
ENDMDL
MODEL 5
REMARK VINA RESULT: -6.945732491      2.455      3.376
REMARK  8 active torsions:
REMARK  status: ('A' for Active; 'I' for Inactive)
REMARK    1  A    between atoms: N2_6  and  C4_8 
REMARK    2  A    between atoms: C9_14  and  C10_15 
REMARK    3  A    between atoms: C10_15  and  O1_16 
REMARK    4  A    between atoms: C11_20  and  N5_21 
REMARK    5  A    between atoms: N5_21  and  C12_23 
REMARK    6  A    between atoms: N7_27  and  C14_28 
REMARK    7  A    between atoms: C14_28  and  C15_29 
REMARK    8  A    between atoms: C15_29  and  O2_30 
ROOT
HETATM    1  C4  UNL     1      15.913 -41.042 -14.049  1.00  0.00     0.123 C 
HETATM    2  C5  UNL     1      15.351 -42.473 -14.030  1.00  0.00     0.116 C 
HETATM    3  C6  UNL     1      16.290 -43.370 -13.356  1.00  0.00     0.066 C 
HETATM    4  N3  UNL     1      17.013 -44.084 -12.831  1.00  0.00    -0.197 NA
HETATM    5  C7  UNL     1      14.105 -42.363 -13.174  1.00  0.00     0.022 C 
HETATM    6  C8  UNL     1      14.555 -41.463 -12.076  1.00  0.00     0.010 C 
HETATM    7  C9  UNL     1      15.500 -40.483 -12.716  1.00  0.00     0.034 C 
ENDROOT
BRANCH   1   8
HETATM    8  N2  UNL     1      15.301 -40.349 -15.152  1.00  0.00    -0.220 N 
HETATM    9  C3  UNL     1      15.975 -39.523 -15.869  1.00  0.00     0.680 A 
HETATM   10  N1  UNL     1      17.266 -39.206 -15.703  1.00  0.00    -0.195 N 
HETATM   11  N4  UNL     1      15.352 -38.886 -16.912  1.00  0.00    -0.175 N 
HETATM   12  C2  UNL     1      17.950 -38.342 -16.461  1.00  0.00     0.043 A 
ATOM     13  H1  UNL     1      17.766 -39.659 -14.939  1.00  0.00     0.184 HD
HETATM   14  C1  UNL     1      19.396 -38.031 -16.221  1.00  0.00     0.070 C 
HETATM   15  C17 UNL     1      17.305 -37.717 -17.498  1.00  0.00     0.078 A 
HETATM   16  C11 UNL     1      15.965 -38.009 -17.715  1.00  0.00     0.141 A 
HETATM   17 BR1  UNL     1      18.240 -36.474 -18.609  1.00  0.00    -0.045 Br
ATOM     18  H4  UNL     1      14.367 -39.092 -17.084  1.00  0.00     0.186 HD
ATOM     19  H2  UNL     1      14.318 -40.517 -15.369  1.00  0.00     0.178 HD
BRANCH  16  20
HETATM   20  N5  UNL     1      15.353 -37.424 -18.689  1.00  0.00    -0.339 N 
ATOM     21  H5  UNL     1      15.797 -37.331 -19.602  1.00  0.00     0.167 HD
BRANCH  20  22
HETATM   22  C12 UNL     1      14.062 -36.918 -18.467  1.00  0.00     0.068 A 
HETATM   23  C13 UNL     1      13.219 -37.265 -17.438  1.00  0.00     0.138 A 
HETATM   24  N6  UNL     1      12.095 -36.559 -17.591  1.00  0.00    -0.308 N 
HETATM   25  N7  UNL     1      12.213 -35.788 -18.677  1.00  0.00    -0.299 N 
ATOM     26  H6  UNL     1      11.280 -36.601 -16.979  1.00  0.00     0.186 HD
HETATM   27  C16 UNL     1      13.410 -35.974 -19.255  1.00  0.00     0.141 A 
BRANCH  25  28
HETATM   28  C14 UNL     1      11.173 -34.891 -19.137  1.00  0.00     0.174 C 
BRANCH  28  29
HETATM   29  C15 UNL     1      10.937 -33.858 -18.052  1.00  0.00     0.185 C 
BRANCH  29  30
HETATM   30  O2  UNL     1       9.872 -34.335 -17.267  1.00  0.00    -0.399 OA
ATOM     31  H2  UNL     1       9.633 -33.631 -16.677  1.00  0.00     0.209 HD
ENDBRANCH  29  30
ENDBRANCH  28  29
ENDBRANCH  25  28
ENDBRANCH  20  22
ENDBRANCH  16  20
ENDBRANCH   1   8
BRANCH   7  32
HETATM   32  C10 UNL     1      16.664 -40.299 -11.754  1.00  0.00     0.170 C 
BRANCH  32  33
HETATM   33  O1  UNL     1      17.632 -39.567 -12.443  1.00  0.00    -0.400 OA
ATOM     34  H1  UNL     1      17.688 -38.724 -12.010  1.00  0.00     0.209 HD
ENDBRANCH  32  33
ENDBRANCH   7  32
TORSDOF 8
ENDMDL
