MODEL 1
REMARK VINA RESULT: -7.846835918      0.000      0.000
REMARK  6 active torsions:
REMARK  status: ('A' for Active; 'I' for Inactive)
REMARK    1  A    between atoms: C2_2  and  C3_3 
REMARK    2  A    between atoms: C3_3  and  O1_4 
REMARK    3  A    between atoms: O1_4  and  C4_5 
REMARK    4  A    between atoms: C4_5  and  C5_7 
REMARK    5  A    between atoms: C7_10  and  O3_11 
REMARK    6  A    between atoms: C16_21  and  O4_22 
ROOT
HETATM    1  C1  UNL     1       4.857  -2.142  -0.994  1.00  0.00     0.018 C 
HETATM    2  C2  UNL     1       5.929  -2.382  -2.108  1.00  0.00    -0.013 C 
HETATM    3  C6  UNL     1       7.236  -2.066  -1.662  1.00  0.00     0.072 C 
HETATM    4  C7  UNL     1       8.228  -2.746  -0.828  1.00  0.00     0.134 C 
HETATM    5  C8  UNL     1       7.750  -3.337   0.478  1.00  0.00     0.087 C 
HETATM    6  C9  UNL     1       7.294  -4.717   0.188  1.00  0.00    -0.025 C 
HETATM    7  C10 UNL     1       6.200  -5.032  -0.671  1.00  0.00    -0.020 C 
HETATM    8  C11 UNL     1       6.104  -4.943  -2.116  1.00  0.00    -0.015 C 
HETATM    9  C12 UNL     1       5.036  -6.014  -2.487  1.00  0.00     0.020 C 
HETATM   10  C13 UNL     1       5.498  -3.678  -2.723  1.00  0.00     0.008 C 
HETATM   11  C14 UNL     1       5.657  -3.840  -4.216  1.00  0.00     0.009 C 
HETATM   12  C15 UNL     1       6.163  -5.150  -4.769  1.00  0.00     0.039 C 
HETATM   13  C16 UNL     1       7.189  -5.919  -4.067  1.00  0.00     0.067 A 
HETATM   14  C17 UNL     1       8.246  -5.948  -3.091  1.00  0.00     0.033 A 
HETATM   15  C18 UNL     1       9.638  -5.332  -3.156  1.00  0.00     0.052 C 
HETATM   16  C19 UNL     1       9.663  -3.919  -2.515  1.00  0.00     0.059 C 
HETATM   17  N1  UNL     1       9.038  -3.791  -1.311  1.00  0.00    -0.371 N 
ATOM     18  H1  UNL     1       9.178  -4.567  -0.665  1.00  0.00     0.161 HD
HETATM   19  C20 UNL     1       7.310  -5.013  -2.963  1.00  0.00     0.040 A 
ENDROOT
BRANCH   2  20
HETATM   20  C3  UNL     1       5.484  -1.336  -3.123  1.00  0.00     0.188 C 
BRANCH  20  21
HETATM   21  O1  UNL     1       5.079  -0.116  -2.784  1.00  0.00    -0.320 OA
BRANCH  21  22
HETATM   22  C4  UNL     1       4.348   0.924  -3.123  1.00  0.00     0.268 C 
HETATM   23  O2  UNL     1       4.870   2.068  -3.103  1.00  0.00    -0.264 OA
BRANCH  22  24
HETATM   24  C5  UNL     1       2.907   0.842  -3.537  1.00  0.00     0.196 C 
HETATM   25 BR1  UNL     1       2.296   2.477  -4.348  1.00  0.00    -0.086 Br
ENDBRANCH  22  24
ENDBRANCH  21  22
ENDBRANCH  20  21
ENDBRANCH   2  20
BRANCH   4  26
HETATM   26  O3  UNL     1       9.180  -1.749  -0.446  1.00  0.00    -0.371 OA
ATOM     27  H3  UNL     1       9.963  -2.218  -0.183  1.00  0.00     0.212 HD
ENDBRANCH   4  26
BRANCH  13  28
HETATM   28  O4  UNL     1       7.223  -7.184  -4.543  1.00  0.00    -0.389 OA
ATOM     29  H4  UNL     1       8.097  -7.390  -4.851  1.00  0.00     0.210 HD
ENDBRANCH  13  28
TORSDOF 6
ENDMDL
MODEL 2
REMARK VINA RESULT: -7.100336461      1.919      2.785
REMARK  6 active torsions:
REMARK  status: ('A' for Active; 'I' for Inactive)
REMARK    1  A    between atoms: C2_2  and  C3_3 
REMARK    2  A    between atoms: C3_3  and  O1_4 
REMARK    3  A    between atoms: O1_4  and  C4_5 
REMARK    4  A    between atoms: C4_5  and  C5_7 
REMARK    5  A    between atoms: C7_10  and  O3_11 
REMARK    6  A    between atoms: C16_21  and  O4_22 
ROOT
HETATM    1  C1  UNL     1       7.616  -2.745   0.146  1.00  0.00     0.018 C 
HETATM    2  C2  UNL     1       6.728  -2.806  -1.140  1.00  0.00    -0.013 C 
HETATM    3  C6  UNL     1       7.501  -2.705  -2.323  1.00  0.00     0.072 C 
HETATM    4  C7  UNL     1       8.335  -3.635  -3.086  1.00  0.00     0.134 C 
HETATM    5  C8  UNL     1       9.328  -4.471  -2.314  1.00  0.00     0.087 C 
HETATM    6  C9  UNL     1       8.624  -5.707  -1.897  1.00  0.00    -0.025 C 
HETATM    7  C10 UNL     1       7.504  -5.728  -1.014  1.00  0.00    -0.020 C 
HETATM    8  C11 UNL     1       6.137  -5.301  -1.245  1.00  0.00    -0.015 C 
HETATM    9  C12 UNL     1       5.301  -6.170  -0.258  1.00  0.00     0.020 C 
HETATM   10  C13 UNL     1       5.741  -3.886  -0.824  1.00  0.00     0.008 C 
HETATM   11  C14 UNL     1       4.321  -3.713  -1.306  1.00  0.00     0.009 C 
HETATM   12  C15 UNL     1       3.586  -4.896  -1.888  1.00  0.00     0.039 C 
HETATM   13  C16 UNL     1       4.280  -5.884  -2.711  1.00  0.00     0.067 A 
HETATM   14  C17 UNL     1       5.420  -6.221  -3.523  1.00  0.00     0.033 A 
HETATM   15  C18 UNL     1       5.799  -5.718  -4.910  1.00  0.00     0.052 C 
HETATM   16  C19 UNL     1       6.754  -4.497  -4.829  1.00  0.00     0.059 C 
HETATM   17  N1  UNL     1       7.795  -4.601  -3.955  1.00  0.00    -0.371 N 
ATOM     18  H1  UNL     1       8.248  -5.514  -3.927  1.00  0.00     0.161 HD
HETATM   19  C20 UNL     1       5.571  -5.269  -2.607  1.00  0.00     0.040 A 
ENDROOT
BRANCH   2  20
HETATM   20  C3  UNL     1       5.926  -1.522  -0.960  1.00  0.00     0.188 C 
BRANCH  20  21
HETATM   21  O1  UNL     1       5.751  -0.629  -1.929  1.00  0.00    -0.320 OA
BRANCH  21  22
HETATM   22  C4  UNL     1       4.889  -0.055  -2.741  1.00  0.00     0.268 C 
HETATM   23  O2  UNL     1       5.109   1.120  -3.131  1.00  0.00    -0.264 OA
BRANCH  22  24
HETATM   24  C5  UNL     1       3.637  -0.714  -3.243  1.00  0.00     0.196 C 
HETATM   25 BR1  UNL     1       4.003  -1.990  -4.636  1.00  0.00    -0.086 Br
ENDBRANCH  22  24
ENDBRANCH  21  22
ENDBRANCH  20  21
ENDBRANCH   2  20
BRANCH   4  26
HETATM   26  O3  UNL     1       9.138  -2.832  -3.955  1.00  0.00    -0.371 OA
ATOM     27  H3  UNL     1       9.651  -3.437  -4.477  1.00  0.00     0.212 HD
ENDBRANCH   4  26
BRANCH  13  28
HETATM   28  O4  UNL     1       3.530  -7.004  -2.817  1.00  0.00    -0.389 OA
ATOM     29  H4  UNL     1       4.074  -7.771  -2.690  1.00  0.00     0.210 HD
ENDBRANCH  13  28
TORSDOF 6
ENDMDL
MODEL 3
REMARK VINA RESULT: -7.069968729      1.818      2.721
REMARK  6 active torsions:
REMARK  status: ('A' for Active; 'I' for Inactive)
REMARK    1  A    between atoms: C2_2  and  C3_3 
REMARK    2  A    between atoms: C3_3  and  O1_4 
REMARK    3  A    between atoms: O1_4  and  C4_5 
REMARK    4  A    between atoms: C4_5  and  C5_7 
REMARK    5  A    between atoms: C7_10  and  O3_11 
REMARK    6  A    between atoms: C16_21  and  O4_22 
ROOT
HETATM    1  C1  UNL     1       7.085  -2.452  -0.136  1.00  0.00     0.018 C 
HETATM    2  C2  UNL     1       6.202  -2.644  -1.413  1.00  0.00    -0.013 C 
HETATM    3  C6  UNL     1       6.956  -2.503  -2.604  1.00  0.00     0.072 C 
HETATM    4  C7  UNL     1       7.877  -3.367  -3.344  1.00  0.00     0.134 C 
HETATM    5  C8  UNL     1       8.954  -4.072  -2.554  1.00  0.00     0.087 C 
HETATM    6  C9  UNL     1       8.381  -5.359  -2.093  1.00  0.00    -0.025 C 
HETATM    7  C10 UNL     1       7.273  -5.466  -1.201  1.00  0.00    -0.020 C 
HETATM    8  C11 UNL     1       5.869  -5.189  -1.434  1.00  0.00    -0.015 C 
HETATM    9  C12 UNL     1       5.131  -6.106  -0.414  1.00  0.00     0.020 C 
HETATM   10  C13 UNL     1       5.332  -3.809  -1.054  1.00  0.00     0.008 C 
HETATM   11  C14 UNL     1       3.900  -3.796  -1.531  1.00  0.00     0.009 C 
HETATM   12  C15 UNL     1       3.287  -5.066  -2.070  1.00  0.00     0.039 C 
HETATM   13  C16 UNL     1       4.074  -6.004  -2.867  1.00  0.00     0.067 A 
HETATM   14  C17 UNL     1       5.239  -6.249  -3.676  1.00  0.00     0.033 A 
HETATM   15  C18 UNL     1       5.558  -5.755  -5.082  1.00  0.00     0.052 C 
HETATM   16  C19 UNL     1       6.384  -4.441  -5.046  1.00  0.00     0.059 C 
HETATM   17  N1  UNL     1       7.434  -4.411  -4.178  1.00  0.00    -0.371 N 
ATOM     18  H1  UNL     1       7.978  -5.271  -4.125  1.00  0.00     0.161 HD
HETATM   19  C20 UNL     1       5.296  -5.258  -2.792  1.00  0.00     0.040 A 
ENDROOT
BRANCH   2  20
HETATM   20  C3  UNL     1       5.275  -1.443  -1.267  1.00  0.00     0.188 C 
BRANCH  20  21
HETATM   21  O1  UNL     1       5.097  -0.538  -2.224  1.00  0.00    -0.320 OA
BRANCH  21  22
HETATM   22  C4  UNL     1       4.228   0.197  -2.883  1.00  0.00     0.268 C 
HETATM   23  O2  UNL     1       3.063  -0.245  -3.056  1.00  0.00    -0.264 OA
BRANCH  22  24
HETATM   24  C5  UNL     1       4.533   1.551  -3.458  1.00  0.00     0.196 C 
HETATM   25 BR1  UNL     1       3.141   2.824  -3.080  1.00  0.00    -0.086 Br
ENDBRANCH  22  24
ENDBRANCH  21  22
ENDBRANCH  20  21
ENDBRANCH   2  20
BRANCH   4  26
HETATM   26  O3  UNL     1       8.589  -2.515  -4.244  1.00  0.00    -0.371 OA
ATOM     27  H3  UNL     1       8.202  -2.651  -5.101  1.00  0.00     0.212 HD
ENDBRANCH   4  26
BRANCH  13  28
HETATM   28  O4  UNL     1       3.442  -7.197  -2.931  1.00  0.00    -0.389 OA
ATOM     29  H4  UNL     1       3.665  -7.723  -2.173  1.00  0.00     0.210 HD
ENDBRANCH  13  28
TORSDOF 6
ENDMDL
MODEL 4
REMARK VINA RESULT: -7.023901721      3.179      5.318
REMARK  6 active torsions:
REMARK  status: ('A' for Active; 'I' for Inactive)
REMARK    1  A    between atoms: C2_2  and  C3_3 
REMARK    2  A    between atoms: C3_3  and  O1_4 
REMARK    3  A    between atoms: O1_4  and  C4_5 
REMARK    4  A    between atoms: C4_5  and  C5_7 
REMARK    5  A    between atoms: C7_10  and  O3_11 
REMARK    6  A    between atoms: C16_21  and  O4_22 
ROOT
HETATM    1  C1  UNL     1       3.580  -4.143  -3.001  1.00  0.00     0.018 C 
HETATM    2  C2  UNL     1       4.872  -4.645  -2.275  1.00  0.00    -0.013 C 
HETATM    3  C6  UNL     1       5.597  -5.572  -3.064  1.00  0.00     0.072 C 
HETATM    4  C7  UNL     1       6.510  -5.458  -4.201  1.00  0.00     0.134 C 
HETATM    5  C8  UNL     1       6.087  -4.567  -5.346  1.00  0.00     0.087 C 
HETATM    6  C9  UNL     1       6.570  -3.201  -5.034  1.00  0.00    -0.025 C 
HETATM    7  C10 UNL     1       6.130  -2.435  -3.914  1.00  0.00    -0.020 C 
HETATM    8  C11 UNL     1       6.419  -2.610  -2.504  1.00  0.00    -0.015 C 
HETATM    9  C12 UNL     1       6.275  -1.177  -1.911  1.00  0.00     0.020 C 
HETATM   10  C13 UNL     1       5.422  -3.398  -1.655  1.00  0.00     0.008 C 
HETATM   11  C14 UNL     1       6.062  -3.508  -0.292  1.00  0.00     0.009 C 
HETATM   12  C15 UNL     1       7.337  -2.752  -0.009  1.00  0.00     0.039 C 
HETATM   13  C16 UNL     1       8.365  -2.596  -1.037  1.00  0.00     0.067 A 
HETATM   14  C17 UNL     1       8.931  -3.043  -2.282  1.00  0.00     0.033 A 
HETATM   15  C18 UNL     1       9.704  -4.320  -2.588  1.00  0.00     0.052 C 
HETATM   16  C19 UNL     1       8.763  -5.442  -3.104  1.00  0.00     0.059 C 
HETATM   17  N1  UNL     1       7.859  -5.080  -4.056  1.00  0.00    -0.371 N 
ATOM     18  H1  UNL     1       8.211  -4.442  -4.769  1.00  0.00     0.161 HD
HETATM   19  C20 UNL     1       7.646  -3.298  -2.059  1.00  0.00     0.040 A 
ENDROOT
BRANCH   2  20
HETATM   20  C3  UNL     1       4.237  -5.382  -1.101  1.00  0.00     0.188 C 
BRANCH  20  21
HETATM   21  O1  UNL     1       2.959  -5.250  -0.761  1.00  0.00    -0.320 OA
BRANCH  21  22
HETATM   22  C4  UNL     1       1.833  -5.872  -0.488  1.00  0.00     0.268 C 
HETATM   23  O2  UNL     1       1.619  -6.256   0.690  1.00  0.00    -0.264 OA
BRANCH  22  24
HETATM   24  C5  UNL     1       0.764  -6.165  -1.502  1.00  0.00     0.196 C 
HETATM   25 BR1  UNL     1       1.411  -7.286  -2.927  1.00  0.00    -0.086 Br
ENDBRANCH  22  24
ENDBRANCH  21  22
ENDBRANCH  20  21
ENDBRANCH   2  20
BRANCH   4  26
HETATM   26  O3  UNL     1       6.601  -6.764  -4.775  1.00  0.00    -0.371 OA
ATOM     27  H3  UNL     1       5.750  -7.168  -4.650  1.00  0.00     0.212 HD
ENDBRANCH   4  26
BRANCH  13  28
HETATM   28  O4  UNL     1       9.222  -1.612  -0.685  1.00  0.00    -0.389 OA
ATOM     29  H4  UNL     1       9.722  -1.331  -1.442  1.00  0.00     0.210 HD
ENDBRANCH  13  28
TORSDOF 6
ENDMDL
MODEL 5
REMARK VINA RESULT: -6.837181910      2.684      4.017
REMARK  6 active torsions:
REMARK  status: ('A' for Active; 'I' for Inactive)
REMARK    1  A    between atoms: C2_2  and  C3_3 
REMARK    2  A    between atoms: C3_3  and  O1_4 
REMARK    3  A    between atoms: O1_4  and  C4_5 
REMARK    4  A    between atoms: C4_5  and  C5_7 
REMARK    5  A    between atoms: C7_10  and  O3_11 
REMARK    6  A    between atoms: C16_21  and  O4_22 
ROOT
HETATM    1  C1  UNL     1       7.070  -5.291  -0.200  1.00  0.00     0.018 C 
HETATM    2  C2  UNL     1       6.037  -4.731  -1.232  1.00  0.00    -0.013 C 
HETATM    3  C6  UNL     1       6.005  -3.314  -1.235  1.00  0.00     0.072 C 
HETATM    4  C7  UNL     1       6.855  -2.270  -1.807  1.00  0.00     0.134 C 
HETATM    5  C8  UNL     1       8.346  -2.398  -1.602  1.00  0.00     0.087 C 
HETATM    6  C9  UNL     1       8.871  -3.209  -2.726  1.00  0.00    -0.025 C 
HETATM    7  C10 UNL     1       8.510  -4.568  -2.967  1.00  0.00    -0.020 C 
HETATM    8  C11 UNL     1       7.261  -5.120  -3.454  1.00  0.00    -0.015 C 
HETATM    9  C12 UNL     1       7.682  -6.453  -4.139  1.00  0.00     0.020 C 
HETATM   10  C13 UNL     1       6.238  -5.609  -2.428  1.00  0.00     0.008 C 
HETATM   11  C14 UNL     1       5.023  -5.997  -3.235  1.00  0.00     0.009 C 
HETATM   12  C15 UNL     1       5.103  -5.997  -4.742  1.00  0.00     0.039 C 
HETATM   13  C16 UNL     1       5.878  -4.985  -5.456  1.00  0.00     0.067 A 
HETATM   14  C17 UNL     1       6.516  -3.695  -5.445  1.00  0.00     0.033 A 
HETATM   15  C18 UNL     1       5.886  -2.307  -5.434  1.00  0.00     0.052 C 
HETATM   16  C19 UNL     1       5.726  -1.768  -3.987  1.00  0.00     0.059 C 
HETATM   17  N1  UNL     1       6.805  -1.911  -3.167  1.00  0.00    -0.371 N 
ATOM     18  H1  UNL     1       7.709  -1.733  -3.604  1.00  0.00     0.161 HD
HETATM   19  C20 UNL     1       6.343  -4.311  -4.280  1.00  0.00     0.040 A 
ENDROOT
BRANCH   2  20
HETATM   20  C3  UNL     1       4.746  -5.255  -0.614  1.00  0.00     0.188 C 
BRANCH  20  21
HETATM   21  O1  UNL     1       3.569  -4.656  -0.764  1.00  0.00    -0.320 OA
BRANCH  21  22
HETATM   22  C4  UNL     1       2.263  -4.811  -0.806  1.00  0.00     0.268 C 
HETATM   23  O2  UNL     1       1.708  -5.547   0.048  1.00  0.00    -0.264 OA
BRANCH  22  24
HETATM   24  C5  UNL     1       1.370  -4.161  -1.824  1.00  0.00     0.196 C 
HETATM   25 BR1  UNL     1       2.377  -3.339  -3.244  1.00  0.00    -0.086 Br
ENDBRANCH  22  24
ENDBRANCH  21  22
ENDBRANCH  20  21
ENDBRANCH   2  20
BRANCH   4  26
HETATM   26  O3  UNL     1       6.502  -1.056  -1.140  1.00  0.00    -0.371 OA
ATOM     27  H3  UNL     1       5.843  -1.289  -0.496  1.00  0.00     0.212 HD
ENDBRANCH   4  26
BRANCH  13  28
HETATM   28  O4  UNL     1       6.093  -5.384  -6.730  1.00  0.00    -0.389 OA
ATOM     29  H4  UNL     1       5.850  -4.690  -7.331  1.00  0.00     0.210 HD
ENDBRANCH  13  28
TORSDOF 6
ENDMDL
