MODEL 1
REMARK VINA RESULT: -8.044340565      0.000      0.000
REMARK  8 active torsions:
REMARK  status: ('A' for Active; 'I' for Inactive)
REMARK    1  A    between atoms: C8_9  and  O2_11 
REMARK    2  A    between atoms: O2_11  and  C10_12 
REMARK    3  A    between atoms: C10_12  and  O4_14 
REMARK    4  A    between atoms: C12_16  and  O5_17 
REMARK    5  A    between atoms: O5_17  and  O6_18 
REMARK    6  A    between atoms: C18_25  and  C19_26 
REMARK    7  A    between atoms: C19_26  and  O8_28 
REMARK    8  A    between atoms: O8_28  and  C20_29 
ROOT
HETATM    1  C1  UNL     1       9.147   4.165  10.453  1.00  0.00     0.015 C 
HETATM    2  C2  UNL     1       9.418   5.447  10.286  1.00  0.00    -0.075 C 
HETATM    3  C3  UNL     1       8.259   6.292   9.820  1.00  0.00     0.039 C 
HETATM    4  C4  UNL     1       7.726   6.976  11.107  1.00  0.00    -0.007 C 
HETATM    5  C5  UNL     1       6.863   8.095  10.735  1.00  0.00     0.011 C 
HETATM    6  C6  UNL     1       8.901   7.150  11.961  1.00  0.00     0.035 A 
HETATM    7  C7  UNL     1       9.474   8.234  12.686  1.00  0.00     0.144 A 
HETATM    8  O1  UNL     1       8.740   9.362  12.960  1.00  0.00    -0.345 OA
HETATM    9  C8  UNL     1       9.496  10.429  13.423  1.00  0.00     0.204 C 
HETATM   10  C9  UNL     1       8.537  11.579  13.657  1.00  0.00     0.083 C 
HETATM   11  C12 UNL     1      10.462  10.916  12.332  1.00  0.00     0.245 C 
HETATM   12  C13 UNL     1       9.772  10.515  11.049  1.00  0.00     0.010 C 
HETATM   13  C14 UNL     1       9.526   9.292  10.617  1.00  0.00    -0.015 C 
HETATM   14  C15 UNL     1       9.872   8.032  11.296  1.00  0.00     0.015 A 
HETATM   15  C16 UNL     1      11.016   7.297  10.744  1.00  0.00     0.014 C 
HETATM   16  C17 UNL     1      11.401   7.830   9.378  1.00  0.00     0.012 C 
HETATM   17  C18 UNL     1      10.808   5.808  10.620  1.00  0.00     0.118 C 
ENDROOT
BRANCH   9  18
HETATM   18  O2  UNL     1      10.172  10.168  14.620  1.00  0.00    -0.257 OA
BRANCH  18  19
HETATM   19  C10 UNL     1      11.538  10.047  14.634  1.00  0.00     0.408 C 
HETATM   20  O3  UNL     1      12.232  11.063  14.892  1.00  0.00    -0.229 OA
BRANCH  19  21
HETATM   21  O4  UNL     1      12.221   8.868  14.383  1.00  0.00    -0.303 OA
HETATM   22  C11 UNL     1      13.222   8.808  13.381  1.00  0.00     0.215 C 
ENDBRANCH  19  21
ENDBRANCH  18  19
ENDBRANCH   9  18
BRANCH  11  23
HETATM   23  O5  UNL     1      10.558  12.282  12.413  1.00  0.00    -0.228 OA
BRANCH  23  24
HETATM   24  O6  UNL     1      11.810  12.664  12.356  1.00  0.00    -0.250 OA
ATOM     25  H6  UNL     1      11.885  13.514  11.938  1.00  0.00     0.253 HD
ENDBRANCH  23  24
ENDBRANCH  11  23
BRANCH  17  26
HETATM   26  C19 UNL     1      11.737   5.130   9.705  1.00  0.00     0.267 C 
HETATM   27  O7  UNL     1      11.515   5.104   8.452  1.00  0.00    -0.264 OA
BRANCH  26  28
HETATM   28  O8  UNL     1      12.902   4.479  10.084  1.00  0.00    -0.321 OA
BRANCH  28  29
HETATM   29  C20 UNL     1      12.911   3.117  10.490  1.00  0.00     0.174 C 
HETATM   30  C21 UNL     1      14.271   2.501  10.477  1.00  0.00     0.034 C 
ENDBRANCH  28  29
ENDBRANCH  26  28
ENDBRANCH  17  26
TORSDOF 8
ENDMDL
MODEL 2
REMARK VINA RESULT: -7.991155425      0.479      1.021
REMARK  8 active torsions:
REMARK  status: ('A' for Active; 'I' for Inactive)
REMARK    1  A    between atoms: C8_9  and  O2_11 
REMARK    2  A    between atoms: O2_11  and  C10_12 
REMARK    3  A    between atoms: C10_12  and  O4_14 
REMARK    4  A    between atoms: C12_16  and  O5_17 
REMARK    5  A    between atoms: O5_17  and  O6_18 
REMARK    6  A    between atoms: C18_25  and  C19_26 
REMARK    7  A    between atoms: C19_26  and  O8_28 
REMARK    8  A    between atoms: O8_28  and  C20_29 
ROOT
HETATM    1  C1  UNL     1       9.091   4.086  10.414  1.00  0.00     0.015 C 
HETATM    2  C2  UNL     1       9.366   5.367  10.254  1.00  0.00    -0.075 C 
HETATM    3  C3  UNL     1       8.210   6.218   9.790  1.00  0.00     0.039 C 
HETATM    4  C4  UNL     1       7.676   6.896  11.080  1.00  0.00    -0.007 C 
HETATM    5  C5  UNL     1       6.817   8.020  10.712  1.00  0.00     0.011 C 
HETATM    6  C6  UNL     1       8.849   7.062  11.938  1.00  0.00     0.035 A 
HETATM    7  C7  UNL     1       9.423   8.140  12.671  1.00  0.00     0.144 A 
HETATM    8  O1  UNL     1       8.692   9.269  12.949  1.00  0.00    -0.345 OA
HETATM    9  C8  UNL     1       9.450  10.331  13.420  1.00  0.00     0.204 C 
HETATM   10  C9  UNL     1       8.493  11.482  13.658  1.00  0.00     0.083 C 
HETATM   11  C12 UNL     1      10.420  10.822  12.334  1.00  0.00     0.245 C 
HETATM   12  C13 UNL     1       9.732  10.430  11.047  1.00  0.00     0.010 C 
HETATM   13  C14 UNL     1       9.483   9.210  10.608  1.00  0.00    -0.015 C 
HETATM   14  C15 UNL     1       9.825   7.946  11.281  1.00  0.00     0.015 A 
HETATM   15  C16 UNL     1      10.968   7.211  10.727  1.00  0.00     0.014 C 
HETATM   16  C17 UNL     1      11.358   7.750   9.365  1.00  0.00     0.012 C 
HETATM   17  C18 UNL     1      10.756   5.723  10.594  1.00  0.00     0.118 C 
ENDROOT
BRANCH   9  18
HETATM   18  O2  UNL     1      10.122  10.062  14.617  1.00  0.00    -0.257 OA
BRANCH  18  19
HETATM   19  C10 UNL     1      11.493  10.094  14.667  1.00  0.00     0.408 C 
HETATM   20  O3  UNL     1      12.129   9.030  14.461  1.00  0.00    -0.229 OA
BRANCH  19  21
HETATM   21  O4  UNL     1      12.238  11.231  14.931  1.00  0.00    -0.303 OA
HETATM   22  C11 UNL     1      11.783  12.198  15.863  1.00  0.00     0.215 C 
ENDBRANCH  19  21
ENDBRANCH  18  19
ENDBRANCH   9  18
BRANCH  11  23
HETATM   23  O5  UNL     1      10.520  12.187  12.424  1.00  0.00    -0.228 OA
BRANCH  23  24
HETATM   24  O6  UNL     1      11.760  12.575  12.254  1.00  0.00    -0.250 OA
ATOM     25  H6  UNL     1      12.346  12.090  12.823  1.00  0.00     0.253 HD
ENDBRANCH  23  24
ENDBRANCH  11  23
BRANCH  17  26
HETATM   26  C19 UNL     1      11.685   5.047   9.678  1.00  0.00     0.267 C 
HETATM   27  O7  UNL     1      11.428   4.963   8.434  1.00  0.00    -0.264 OA
BRANCH  26  28
HETATM   28  O8  UNL     1      12.887   4.459  10.045  1.00  0.00    -0.321 OA
BRANCH  28  29
HETATM   29  C20 UNL     1      12.967   3.111  10.486  1.00  0.00     0.174 C 
HETATM   30  C21 UNL     1      14.345   2.541  10.410  1.00  0.00     0.034 C 
ENDBRANCH  28  29
ENDBRANCH  26  28
ENDBRANCH  17  26
TORSDOF 8
ENDMDL
MODEL 3
REMARK VINA RESULT: -7.624233723      2.310      3.883
REMARK  8 active torsions:
REMARK  status: ('A' for Active; 'I' for Inactive)
REMARK    1  A    between atoms: C8_9  and  O2_11 
REMARK    2  A    between atoms: O2_11  and  C10_12 
REMARK    3  A    between atoms: C10_12  and  O4_14 
REMARK    4  A    between atoms: C12_16  and  O5_17 
REMARK    5  A    between atoms: O5_17  and  O6_18 
REMARK    6  A    between atoms: C18_25  and  C19_26 
REMARK    7  A    between atoms: C19_26  and  O8_28 
REMARK    8  A    between atoms: O8_28  and  C20_29 
ROOT
HETATM    1  C1  UNL     1       9.428   6.862   9.656  1.00  0.00     0.015 C 
HETATM    2  C2  UNL     1      10.663   7.308   9.800  1.00  0.00    -0.075 C 
HETATM    3  C3  UNL     1      10.846   8.782   9.538  1.00  0.00     0.039 C 
HETATM    4  C4  UNL     1      10.866   9.433  10.947  1.00  0.00    -0.007 C 
HETATM    5  C5  UNL     1      11.412  10.785  10.844  1.00  0.00     0.011 C 
HETATM    6  C6  UNL     1      11.451   8.422  11.828  1.00  0.00     0.035 A 
HETATM    7  C7  UNL     1      12.498   8.405  12.793  1.00  0.00     0.144 A 
HETATM    8  O1  UNL     1      12.986   9.575  13.321  1.00  0.00    -0.345 OA
HETATM    9  C8  UNL     1      14.170   9.424  14.030  1.00  0.00     0.204 C 
HETATM   10  C9  UNL     1      14.565  10.802  14.523  1.00  0.00     0.083 C 
HETATM   11  C12 UNL     1      15.304   8.982  13.093  1.00  0.00     0.245 C 
HETATM   12  C13 UNL     1      14.875   9.515  11.746  1.00  0.00     0.010 C 
HETATM   13  C14 UNL     1      13.825   9.148  11.035  1.00  0.00    -0.015 C 
HETATM   14  C15 UNL     1      12.827   8.127  11.398  1.00  0.00     0.015 A 
HETATM   15  C16 UNL     1      12.936   6.843  10.697  1.00  0.00     0.014 C 
HETATM   16  C17 UNL     1      13.859   6.950   9.499  1.00  0.00     0.012 C 
HETATM   17  C18 UNL     1      11.623   6.271  10.222  1.00  0.00     0.118 C 
ENDROOT
BRANCH   9  18
HETATM   18  O2  UNL     1      14.064   8.574  15.136  1.00  0.00    -0.257 OA
BRANCH  18  19
HETATM   19  C10 UNL     1      14.524   8.973  16.365  1.00  0.00     0.408 C 
HETATM   20  O3  UNL     1      15.705   8.690  16.689  1.00  0.00    -0.229 OA
BRANCH  19  21
HETATM   21  O4  UNL     1      13.770   9.676  17.291  1.00  0.00    -0.303 OA
HETATM   22  C11 UNL     1      12.356   9.578  17.301  1.00  0.00     0.215 C 
ENDBRANCH  19  21
ENDBRANCH  18  19
ENDBRANCH   9  18
BRANCH  11  23
HETATM   23  O5  UNL     1      16.465   9.590  13.497  1.00  0.00    -0.228 OA
BRANCH  23  24
HETATM   24  O6  UNL     1      17.202   8.766  14.200  1.00  0.00    -0.250 OA
ATOM     25  H6  UNL     1      17.890   9.235  14.657  1.00  0.00     0.253 HD
ENDBRANCH  23  24
ENDBRANCH  11  23
BRANCH  17  26
HETATM   26  C19 UNL     1      11.740   5.242   9.179  1.00  0.00     0.267 C 
HETATM   27  O7  UNL     1      12.007   5.559   7.976  1.00  0.00    -0.264 OA
BRANCH  26  28
HETATM   28  O8  UNL     1      11.586   3.878   9.380  1.00  0.00    -0.321 OA
BRANCH  28  29
HETATM   29  C20 UNL     1      12.077   3.223  10.542  1.00  0.00     0.174 C 
HETATM   30  C21 UNL     1      13.551   2.990  10.514  1.00  0.00     0.034 C 
ENDBRANCH  28  29
ENDBRANCH  26  28
ENDBRANCH  17  26
TORSDOF 8
ENDMDL
MODEL 4
REMARK VINA RESULT: -7.590592962      2.535      4.723
REMARK  8 active torsions:
REMARK  status: ('A' for Active; 'I' for Inactive)
REMARK    1  A    between atoms: C8_9  and  O2_11 
REMARK    2  A    between atoms: O2_11  and  C10_12 
REMARK    3  A    between atoms: C10_12  and  O4_14 
REMARK    4  A    between atoms: C12_16  and  O5_17 
REMARK    5  A    between atoms: O5_17  and  O6_18 
REMARK    6  A    between atoms: C18_25  and  C19_26 
REMARK    7  A    between atoms: C19_26  and  O8_28 
REMARK    8  A    between atoms: O8_28  and  C20_29 
ROOT
HETATM    1  C1  UNL     1       7.308   8.748  11.947  1.00  0.00     0.015 C 
HETATM    2  C2  UNL     1       8.536   8.640  11.474  1.00  0.00    -0.075 C 
HETATM    3  C3  UNL     1       9.130   9.917  10.935  1.00  0.00     0.039 C 
HETATM    4  C4  UNL     1      10.038  10.444  12.078  1.00  0.00    -0.007 C 
HETATM    5  C5  UNL     1      10.949  11.454  11.543  1.00  0.00     0.011 C 
HETATM    6  C6  UNL     1      10.521   9.246  12.765  1.00  0.00     0.035 A 
HETATM    7  C7  UNL     1      11.795   8.759  13.176  1.00  0.00     0.144 A 
HETATM    8  O1  UNL     1      12.877   9.601  13.254  1.00  0.00    -0.345 OA
HETATM    9  C8  UNL     1      14.093   8.947  13.398  1.00  0.00     0.204 C 
HETATM   10  C9  UNL     1      15.164  10.018  13.453  1.00  0.00     0.083 C 
HETATM   11  C12 UNL     1      14.407   8.116  12.145  1.00  0.00     0.245 C 
HETATM   12  C13 UNL     1      13.653   8.834  11.050  1.00  0.00     0.010 C 
HETATM   13  C14 UNL     1      12.345   8.962  10.926  1.00  0.00    -0.015 C 
HETATM   14  C15 UNL     1      11.317   8.428  11.837  1.00  0.00     0.015 A 
HETATM   15  C16 UNL     1      10.592   7.243  11.364  1.00  0.00     0.014 C 
HETATM   16  C17 UNL     1      10.829   7.010   9.885  1.00  0.00     0.012 C 
HETATM   17  C18 UNL     1       9.101   7.283  11.596  1.00  0.00     0.118 C 
ENDROOT
BRANCH   9  18
HETATM   18  O2  UNL     1      14.185   8.171  14.559  1.00  0.00    -0.257 OA
BRANCH  18  19
HETATM   19  C10 UNL     1      14.435   8.761  15.771  1.00  0.00     0.408 C 
HETATM   20  O3  UNL     1      15.463   8.419  16.409  1.00  0.00    -0.229 OA
BRANCH  19  21
HETATM   21  O4  UNL     1      13.626   9.723  16.354  1.00  0.00    -0.303 OA
HETATM   22  C11 UNL     1      12.322   9.397  16.806  1.00  0.00     0.215 C 
ENDBRANCH  19  21
ENDBRANCH  18  19
ENDBRANCH   9  18
BRANCH  11  23
HETATM   23  O5  UNL     1      15.757   8.175  11.910  1.00  0.00    -0.228 OA
BRANCH  23  24
HETATM   24  O6  UNL     1      16.169   7.098  11.288  1.00  0.00    -0.250 OA
ATOM     25  H6  UNL     1      16.884   7.302  10.698  1.00  0.00     0.253 HD
ENDBRANCH  23  24
ENDBRANCH  11  23
BRANCH  17  26
HETATM   26  C19 UNL     1       8.325   6.342  10.777  1.00  0.00     0.267 C 
HETATM   27  O7  UNL     1       8.196   5.125  11.127  1.00  0.00    -0.264 OA
BRANCH  26  28
HETATM   28  O8  UNL     1       7.674   6.658   9.593  1.00  0.00    -0.321 OA
BRANCH  28  29
HETATM   29  C20 UNL     1       6.413   6.099   9.250  1.00  0.00     0.174 C 
HETATM   30  C21 UNL     1       5.258   6.974   9.610  1.00  0.00     0.034 C 
ENDBRANCH  28  29
ENDBRANCH  26  28
ENDBRANCH  17  26
TORSDOF 8
ENDMDL
MODEL 5
REMARK VINA RESULT: -7.589342484      2.078      3.509
REMARK  8 active torsions:
REMARK  status: ('A' for Active; 'I' for Inactive)
REMARK    1  A    between atoms: C8_9  and  O2_11 
REMARK    2  A    between atoms: O2_11  and  C10_12 
REMARK    3  A    between atoms: C10_12  and  O4_14 
REMARK    4  A    between atoms: C12_16  and  O5_17 
REMARK    5  A    between atoms: O5_17  and  O6_18 
REMARK    6  A    between atoms: C18_25  and  C19_26 
REMARK    7  A    between atoms: C19_26  and  O8_28 
REMARK    8  A    between atoms: O8_28  and  C20_29 
ROOT
HETATM    1  C1  UNL     1       9.146   6.850   9.428  1.00  0.00     0.015 C 
HETATM    2  C2  UNL     1      10.361   7.297   9.684  1.00  0.00    -0.075 C 
HETATM    3  C3  UNL     1      10.577   8.764   9.405  1.00  0.00     0.039 C 
HETATM    4  C4  UNL     1      10.458   9.451  10.791  1.00  0.00    -0.007 C 
HETATM    5  C5  UNL     1      11.017  10.799  10.709  1.00  0.00     0.011 C 
HETATM    6  C6  UNL     1      10.946   8.462  11.752  1.00  0.00     0.035 A 
HETATM    7  C7  UNL     1      11.890   8.468  12.818  1.00  0.00     0.144 A 
HETATM    8  O1  UNL     1      12.328   9.651  13.362  1.00  0.00    -0.345 OA
HETATM    9  C8  UNL     1      13.433   9.516  14.191  1.00  0.00     0.204 C 
HETATM   10  C9  UNL     1      13.783  10.905  14.686  1.00  0.00     0.083 C 
HETATM   11  C12 UNL     1      14.654   9.047  13.386  1.00  0.00     0.245 C 
HETATM   12  C13 UNL     1      14.366   9.546  11.989  1.00  0.00     0.010 C 
HETATM   13  C14 UNL     1      13.391   9.163  11.184  1.00  0.00    -0.015 C 
HETATM   14  C15 UNL     1      12.357   8.154  11.471  1.00  0.00     0.015 A 
HETATM   15  C16 UNL     1      12.531   6.851  10.817  1.00  0.00     0.014 C 
HETATM   16  C17 UNL     1      13.571   6.926   9.717  1.00  0.00     0.012 C 
HETATM   17  C18 UNL     1      11.270   6.270  10.227  1.00  0.00     0.118 C 
ENDROOT
BRANCH   9  18
HETATM   18  O2  UNL     1      13.212   8.695  15.302  1.00  0.00    -0.257 OA
BRANCH  18  19
HETATM   19  C10 UNL     1      12.438   9.133  16.347  1.00  0.00     0.408 C 
HETATM   20  O3  UNL     1      11.188   9.075  16.237  1.00  0.00    -0.229 OA
BRANCH  19  21
HETATM   21  O4  UNL     1      12.942   9.639  17.533  1.00  0.00    -0.303 OA
HETATM   22  C11 UNL     1      12.133  10.434  18.385  1.00  0.00     0.215 C 
ENDBRANCH  19  21
ENDBRANCH  18  19
ENDBRANCH   9  18
BRANCH  11  23
HETATM   23  O5  UNL     1      15.771   9.663  13.889  1.00  0.00    -0.228 OA
BRANCH  23  24
HETATM   24  O6  UNL     1      16.742   8.800  14.061  1.00  0.00    -0.250 OA
ATOM     25  H6  UNL     1      17.263   8.716  13.271  1.00  0.00     0.253 HD
ENDBRANCH  23  24
ENDBRANCH  11  23
BRANCH  17  26
HETATM   26  C19 UNL     1      11.487   5.214   9.228  1.00  0.00     0.267 C 
HETATM   27  O7  UNL     1      11.888   5.498   8.054  1.00  0.00    -0.264 OA
BRANCH  26  28
HETATM   28  O8  UNL     1      11.295   3.856   9.443  1.00  0.00    -0.321 OA
BRANCH  28  29
HETATM   29  C20 UNL     1      11.876   3.175  10.547  1.00  0.00     0.174 C 
HETATM   30  C21 UNL     1      13.358   3.027  10.440  1.00  0.00     0.034 C 
ENDBRANCH  28  29
ENDBRANCH  26  28
ENDBRANCH  17  26
TORSDOF 8
ENDMDL
