MODEL 1
REMARK VINA RESULT: -5.749875075      0.000      0.000
REMARK  6 active torsions:
REMARK  status: ('A' for Active; 'I' for Inactive)
REMARK    1  A    between atoms: C2_2  and  C4_4 
REMARK    2  A    between atoms: C4_4  and  N1_5 
REMARK    3  A    between atoms: C4_4  and  C10_21 
REMARK       I    between atoms: N1_5  and  C5_7 
REMARK       I    between atoms: C5_7  and  N2_9 
REMARK    4  A    between atoms: N6_17  and  O2_18 
REMARK    5  A    between atoms: C10_21  and  O3_22 
REMARK    6  A    between atoms: C10_21  and  O4_24 
ROOT
HETATM    1  N1  UNL     1       3.482  22.088  20.726  1.00  0.00    -0.333 N 
ATOM      2  H1  UNL     1       3.053  22.040  19.802  1.00  0.00     0.164 HD
HETATM    3  C5  UNL     1       4.771  21.508  20.915  1.00  0.00     0.321 C 
HETATM    4  O1  UNL     1       5.263  21.593  22.081  1.00  0.00    -0.247 OA
HETATM    5  N2  UNL     1       5.472  20.867  19.854  1.00  0.00    -0.298 N 
HETATM    6  C6  UNL     1       4.844  20.814  18.563  1.00  0.00     0.151 C 
HETATM    7  C7  UNL     1       5.737  20.271  17.491  1.00  0.00     0.154 C 
HETATM    8  N3  UNL     1       7.130  20.379  17.778  1.00  0.00    -0.349 N 
ATOM      9  H3  UNL     1       7.786  20.734  17.083  1.00  0.00     0.174 HD
HETATM   10  N4  UNL     1       7.548  19.993  19.000  1.00  0.00    -0.179 NA
HETATM   11  C8  UNL     1       7.991  18.625  19.111  1.00  0.00     0.248 C 
HETATM   12  N5  UNL     1       7.798  18.366  20.533  1.00  0.00    -0.120 NA
HETATM   13  N6  UNL     1       6.569  19.005  20.768  1.00  0.00    -0.070 NA
HETATM   14  C9  UNL     1       6.756  20.311  20.120  1.00  0.00     0.306 C 
ENDROOT
BRANCH   1  15
HETATM   15  C4  UNL     1       2.761  22.742  21.796  1.00  0.00     0.144 C 
BRANCH  15  16
HETATM   16  C2  UNL     1       2.046  21.734  22.679  1.00  0.00     0.005 C 
HETATM   17  C1  UNL     1       0.869  22.330  23.374  1.00  0.00     0.012 C 
HETATM   18  C3  UNL     1       2.967  21.111  23.684  1.00  0.00     0.012 C 
ENDBRANCH  15  16
BRANCH  15  19
HETATM   19  C10 UNL     1       1.761  23.673  21.163  1.00  0.00     0.276 C 
BRANCH  19  20
HETATM   20  O3  UNL     1       1.306  23.131  19.977  1.00  0.00    -0.369 OA
ATOM     21  H3  UNL     1       1.224  23.816  19.323  1.00  0.00     0.212 HD
ENDBRANCH  19  20
BRANCH  19  22
HETATM   22  O4  UNL     1       2.469  24.852  20.838  1.00  0.00    -0.369 OA
ATOM     23  H4  UNL     1       1.925  25.577  21.125  1.00  0.00     0.212 HD
ENDBRANCH  19  22
ENDBRANCH  15  19
ENDBRANCH   1  15
BRANCH  13  24
HETATM   24  O2  UNL     1       5.653  18.349  19.989  1.00  0.00    -0.294 OA
ATOM     25  H2  UNL     1       4.805  18.695  20.241  1.00  0.00     0.238 HD
ENDBRANCH  13  24
TORSDOF 6
ENDMDL
MODEL 2
REMARK VINA RESULT: -5.501214697     10.192     11.774
REMARK  6 active torsions:
REMARK  status: ('A' for Active; 'I' for Inactive)
REMARK    1  A    between atoms: C2_2  and  C4_4 
REMARK    2  A    between atoms: C4_4  and  N1_5 
REMARK    3  A    between atoms: C4_4  and  C10_21 
REMARK       I    between atoms: N1_5  and  C5_7 
REMARK       I    between atoms: C5_7  and  N2_9 
REMARK    4  A    between atoms: N6_17  and  O2_18 
REMARK    5  A    between atoms: C10_21  and  O3_22 
REMARK    6  A    between atoms: C10_21  and  O4_24 
ROOT
HETATM    1  N1  UNL     1       0.290  22.610  29.853  1.00  0.00    -0.333 N 
ATOM      2  H1  UNL     1      -0.052  22.499  28.898  1.00  0.00     0.164 HD
HETATM    3  C5  UNL     1       0.520  23.926  30.351  1.00  0.00     0.321 C 
HETATM    4  O1  UNL     1       0.943  24.012  31.543  1.00  0.00    -0.247 OA
HETATM    5  N2  UNL     1       0.287  25.084  29.556  1.00  0.00    -0.298 N 
HETATM    6  C6  UNL     1      -0.194  24.899  28.215  1.00  0.00     0.151 C 
HETATM    7  C7  UNL     1      -0.562  26.181  27.535  1.00  0.00     0.154 C 
HETATM    8  N3  UNL     1      -0.860  27.254  28.426  1.00  0.00    -0.349 N 
ATOM      9  H3  UNL     1      -1.688  27.834  28.295  1.00  0.00     0.174 HD
HETATM   10  N4  UNL     1      -0.009  27.473  29.447  1.00  0.00    -0.179 NA
HETATM   11  C8  UNL     1       1.036  28.437  29.201  1.00  0.00     0.248 C 
HETATM   12  N5  UNL     1       2.053  28.024  30.161  1.00  0.00    -0.120 NA
HETATM   13  N6  UNL     1       1.985  26.625  30.054  1.00  0.00    -0.070 NA
HETATM   14  C9  UNL     1       0.540  26.366  30.124  1.00  0.00     0.306 C 
ENDROOT
BRANCH   1  15
HETATM   15  C4  UNL     1       0.522  21.426  30.651  1.00  0.00     0.144 C 
BRANCH  15  16
HETATM   16  C2  UNL     1       1.899  20.842  30.388  1.00  0.00     0.005 C 
HETATM   17  C1  UNL     1       1.936  20.027  29.140  1.00  0.00     0.012 C 
HETATM   18  C3  UNL     1       2.394  20.025  31.543  1.00  0.00     0.012 C 
ENDBRANCH  15  16
BRANCH  15  19
HETATM   19  C10 UNL     1      -0.541  20.422  30.290  1.00  0.00     0.276 C 
BRANCH  19  20
HETATM   20  O3  UNL     1      -1.435  20.990  29.404  1.00  0.00    -0.369 OA
ATOM     21  H3  UNL     1      -2.293  21.051  29.810  1.00  0.00     0.212 HD
ENDBRANCH  19  20
BRANCH  19  22
HETATM   22  O4  UNL     1      -1.250  20.151  31.482  1.00  0.00    -0.369 OA
ATOM     23  H4  UNL     1      -2.172  20.245  31.270  1.00  0.00     0.212 HD
ENDBRANCH  19  22
ENDBRANCH  15  19
ENDBRANCH   1  15
BRANCH  13  24
HETATM   24  O2  UNL     1       2.337  26.332  28.764  1.00  0.00    -0.294 OA
ATOM     25  H2  UNL     1       3.160  25.862  28.821  1.00  0.00     0.238 HD
ENDBRANCH  13  24
TORSDOF 6
ENDMDL
MODEL 3
REMARK VINA RESULT: -5.366240735     10.048     11.266
REMARK  6 active torsions:
REMARK  status: ('A' for Active; 'I' for Inactive)
REMARK    1  A    between atoms: C2_2  and  C4_4 
REMARK    2  A    between atoms: C4_4  and  N1_5 
REMARK    3  A    between atoms: C4_4  and  C10_21 
REMARK       I    between atoms: N1_5  and  C5_7 
REMARK       I    between atoms: C5_7  and  N2_9 
REMARK    4  A    between atoms: N6_17  and  O2_18 
REMARK    5  A    between atoms: C10_21  and  O3_22 
REMARK    6  A    between atoms: C10_21  and  O4_24 
ROOT
HETATM    1  N1  UNL     1       0.594  23.928  29.730  1.00  0.00    -0.333 N 
ATOM      2  H1  UNL     1       1.246  23.757  28.964  1.00  0.00     0.164 HD
HETATM    3  C5  UNL     1       0.259  22.849  30.601  1.00  0.00     0.321 C 
HETATM    4  O1  UNL     1      -0.555  23.111  31.537  1.00  0.00    -0.247 OA
HETATM    5  N2  UNL     1       0.806  21.546  30.430  1.00  0.00    -0.298 N 
HETATM    6  C6  UNL     1       1.722  21.332  29.344  1.00  0.00     0.151 C 
HETATM    7  C7  UNL     1       2.360  19.979  29.363  1.00  0.00     0.154 C 
HETATM    8  N3  UNL     1       2.369  19.353  30.645  1.00  0.00    -0.349 N 
ATOM      9  H3  UNL     1       3.214  18.916  31.013  1.00  0.00     0.174 HD
HETATM   10  N4  UNL     1       1.222  19.358  31.351  1.00  0.00    -0.179 NA
HETATM   11  C8  UNL     1       0.373  18.203  31.185  1.00  0.00     0.248 C 
HETATM   12  N5  UNL     1      -0.933  18.742  31.543  1.00  0.00    -0.120 NA
HETATM   13  N6  UNL     1      -0.892  20.005  30.930  1.00  0.00    -0.070 NA
HETATM   14  C9  UNL     1       0.424  20.518  31.340  1.00  0.00     0.306 C 
ENDROOT
BRANCH   1  15
HETATM   15  C4  UNL     1       0.045  25.256  29.893  1.00  0.00     0.144 C 
BRANCH  15  16
HETATM   16  C2  UNL     1      -1.020  25.547  28.850  1.00  0.00     0.005 C 
HETATM   17  C1  UNL     1      -0.432  26.007  27.559  1.00  0.00     0.012 C 
HETATM   18  C3  UNL     1      -2.025  26.548  29.335  1.00  0.00     0.012 C 
ENDBRANCH  15  16
BRANCH  15  19
HETATM   19  C10 UNL     1       1.181  26.235  29.756  1.00  0.00     0.276 C 
BRANCH  19  20
HETATM   20  O3  UNL     1       2.332  25.564  29.392  1.00  0.00    -0.369 OA
ATOM     21  H3  UNL     1       3.093  26.042  29.702  1.00  0.00     0.212 HD
ENDBRANCH  19  20
BRANCH  19  22
HETATM   22  O4  UNL     1       1.401  26.769  31.046  1.00  0.00    -0.369 OA
ATOM     23  H4  UNL     1       1.678  26.042  31.592  1.00  0.00     0.212 HD
ENDBRANCH  19  22
ENDBRANCH  15  19
ENDBRANCH   1  15
BRANCH  13  24
HETATM   24  O2  UNL     1      -0.777  19.764  29.588  1.00  0.00    -0.294 OA
ATOM     25  H2  UNL     1      -1.408  20.336  29.168  1.00  0.00     0.238 HD
ENDBRANCH  13  24
TORSDOF 6
ENDMDL
MODEL 4
REMARK VINA RESULT: -5.343062823      9.315     11.787
REMARK  6 active torsions:
REMARK  status: ('A' for Active; 'I' for Inactive)
REMARK    1  A    between atoms: C2_2  and  C4_4 
REMARK    2  A    between atoms: C4_4  and  N1_5 
REMARK    3  A    between atoms: C4_4  and  C10_21 
REMARK       I    between atoms: N1_5  and  C5_7 
REMARK       I    between atoms: C5_7  and  N2_9 
REMARK    4  A    between atoms: N6_17  and  O2_18 
REMARK    5  A    between atoms: C10_21  and  O3_22 
REMARK    6  A    between atoms: C10_21  and  O4_24 
ROOT
HETATM    1  N1  UNL     1      -0.082  28.129  25.393  1.00  0.00    -0.333 N 
ATOM      2  H1  UNL     1      -0.522  29.050  25.415  1.00  0.00     0.164 HD
HETATM    3  C5  UNL     1      -0.448  27.171  26.384  1.00  0.00     0.321 C 
HETATM    4  O1  UNL     1       0.125  26.042  26.316  1.00  0.00    -0.247 OA
HETATM    5  N2  UNL     1      -1.407  27.462  27.395  1.00  0.00    -0.298 N 
HETATM    6  C6  UNL     1      -2.011  28.765  27.402  1.00  0.00     0.151 C 
HETATM    7  C7  UNL     1      -3.119  28.901  28.399  1.00  0.00     0.154 C 
HETATM    8  N3  UNL     1      -3.714  27.664  28.786  1.00  0.00    -0.349 N 
ATOM      9  H3  UNL     1      -4.727  27.552  28.816  1.00  0.00     0.174 HD
HETATM   10  N4  UNL     1      -2.890  26.649  29.111  1.00  0.00    -0.179 NA
HETATM   11  C8  UNL     1      -2.565  26.524  30.511  1.00  0.00     0.248 C 
HETATM   12  N5  UNL     1      -1.296  25.808  30.458  1.00  0.00    -0.120 NA
HETATM   13  N6  UNL     1      -0.666  26.439  29.373  1.00  0.00    -0.070 NA
HETATM   14  C9  UNL     1      -1.722  26.452  28.350  1.00  0.00     0.306 C 
ENDROOT
BRANCH   1  15
HETATM   15  C4  UNL     1       0.890  27.845  24.361  1.00  0.00     0.144 C 
BRANCH  15  16
HETATM   16  C2  UNL     1       2.023  28.856  24.373  1.00  0.00     0.005 C 
HETATM   17  C1  UNL     1       2.821  28.824  23.113  1.00  0.00     0.012 C 
HETATM   18  C3  UNL     1       2.930  28.672  25.552  1.00  0.00     0.012 C 
ENDBRANCH  15  16
BRANCH  15  19
HETATM   19  C10 UNL     1       0.171  27.894  23.038  1.00  0.00     0.276 C 
BRANCH  19  20
HETATM   20  O3  UNL     1      -1.047  28.527  23.194  1.00  0.00    -0.369 OA
ATOM     21  H3  UNL     1      -1.751  27.918  23.000  1.00  0.00     0.212 HD
ENDBRANCH  19  20
BRANCH  19  22
HETATM   22  O4  UNL     1      -0.099  26.552  22.685  1.00  0.00    -0.369 OA
ATOM     23  H4  UNL     1      -0.516  26.157  23.442  1.00  0.00     0.212 HD
ENDBRANCH  19  22
ENDBRANCH  15  19
ENDBRANCH   1  15
BRANCH  13  24
HETATM   24  O2  UNL     1      -0.510  27.748  29.742  1.00  0.00    -0.294 OA
ATOM     25  H2  UNL     1       0.355  28.000  29.442  1.00  0.00     0.238 HD
ENDBRANCH  13  24
TORSDOF 6
ENDMDL
MODEL 5
REMARK VINA RESULT: -5.135215039      2.568      3.046
REMARK  6 active torsions:
REMARK  status: ('A' for Active; 'I' for Inactive)
REMARK    1  A    between atoms: C2_2  and  C4_4 
REMARK    2  A    between atoms: C4_4  and  N1_5 
REMARK    3  A    between atoms: C4_4  and  C10_21 
REMARK       I    between atoms: N1_5  and  C5_7 
REMARK       I    between atoms: C5_7  and  N2_9 
REMARK    4  A    between atoms: N6_17  and  O2_18 
REMARK    5  A    between atoms: C10_21  and  O3_22 
REMARK    6  A    between atoms: C10_21  and  O4_24 
ROOT
HETATM    1  N1  UNL     1       3.910  20.908  22.551  1.00  0.00    -0.333 N 
ATOM      2  H1  UNL     1       4.132  21.864  22.271  1.00  0.00     0.164 HD
HETATM    3  C5  UNL     1       4.729  19.844  22.069  1.00  0.00     0.321 C 
HETATM    4  O1  UNL     1       4.415  18.675  22.445  1.00  0.00    -0.247 OA
HETATM    5  N2  UNL     1       5.842  20.079  21.212  1.00  0.00    -0.298 N 
HETATM    6  C6  UNL     1       6.131  21.434  20.834  1.00  0.00     0.151 C 
HETATM    7  C7  UNL     1       7.413  21.577  20.074  1.00  0.00     0.154 C 
HETATM    8  N3  UNL     1       8.342  20.516  20.286  1.00  0.00    -0.349 N 
ATOM      9  H3  UNL     1       9.324  20.705  20.483  1.00  0.00     0.174 HD
HETATM   10  N4  UNL     1       7.875  19.254  20.217  1.00  0.00    -0.179 NA
HETATM   11  C8  UNL     1       7.978  18.613  18.928  1.00  0.00     0.248 C 
HETATM   12  N5  UNL     1       6.927  17.607  19.012  1.00  0.00    -0.120 NA
HETATM   13  N6  UNL     1       5.904  18.325  19.654  1.00  0.00    -0.070 NA
HETATM   14  C9  UNL     1       6.614  18.965  20.772  1.00  0.00     0.306 C 
ENDROOT
BRANCH   1  15
HETATM   15  C4  UNL     1       2.778  20.682  23.421  1.00  0.00     0.144 C 
BRANCH  15  16
HETATM   16  C2  UNL     1       1.658  21.669  23.142  1.00  0.00     0.005 C 
HETATM   17  C1  UNL     1       0.386  20.986  22.768  1.00  0.00     0.012 C 
HETATM   18  C3  UNL     1       2.033  22.661  22.082  1.00  0.00     0.012 C 
ENDBRANCH  15  16
BRANCH  15  19
HETATM   19  C10 UNL     1       3.261  20.839  24.840  1.00  0.00     0.276 C 
BRANCH  19  20
HETATM   20  O3  UNL     1       4.126  19.810  25.154  1.00  0.00    -0.369 OA
ATOM     21  H3  UNL     1       3.647  19.107  25.577  1.00  0.00     0.212 HD
ENDBRANCH  19  20
BRANCH  19  22
HETATM   22  O4  UNL     1       2.122  20.693  25.664  1.00  0.00    -0.369 OA
ATOM     23  H4  UNL     1       1.732  19.857  25.432  1.00  0.00     0.212 HD
ENDBRANCH  19  22
ENDBRANCH  15  19
ENDBRANCH   1  15
BRANCH  13  24
HETATM   24  O2  UNL     1       5.579  19.349  18.806  1.00  0.00    -0.294 OA
ATOM     25  H2  UNL     1       5.112  18.948  18.083  1.00  0.00     0.238 HD
ENDBRANCH  13  24
TORSDOF 6
ENDMDL
