MODEL 1
REMARK VINA RESULT: -4.599387982      0.000      0.000
REMARK  3 active torsions:
REMARK  status: ('A' for Active; 'I' for Inactive)
REMARK       I    between atoms: N1_3  and  C3_5 
REMARK       I    between atoms: C3_5  and  N3_11 
REMARK       I    between atoms: N2_6  and  C4_8 
REMARK    1  A    between atoms: N3_11  and  C6_13 
REMARK    2  A    between atoms: C7_17  and  N5_18 
REMARK    3  A    between atoms: C8_25  and  N7_26 
REMARK       I    between atoms: N7_26  and  C9_28 
ROOT
HETATM    1  C1  UNL     1      26.477  34.929  16.259  1.00  0.00     0.037 C 
HETATM    2  C2  UNL     1      25.654  35.751  15.985  1.00  0.00     0.015 C 
HETATM    3  N1  UNL     1      24.709  36.728  15.667  1.00  0.00    -0.149 N 
ATOM      4  H1  UNL     1      24.524  36.977  14.695  1.00  0.00     0.195 HD
HETATM    5  C3  UNL     1      24.014  37.364  16.718  1.00  0.00     0.690 C 
HETATM    6  N2  UNL     1      24.479  38.376  17.359  1.00  0.00    -0.160 N 
ATOM      7  H2  UNL     1      23.904  38.770  18.104  1.00  0.00     0.187 HD
HETATM    8  C4  UNL     1      25.730  38.981  17.104  1.00  0.00     0.231 C 
HETATM    9  C5  UNL     1      25.780  40.306  16.435  1.00  0.00     0.118 C 
HETATM   10  O1  UNL     1      26.830  38.454  17.415  1.00  0.00    -0.273 OA
HETATM   11  N3  UNL     1      22.741  36.861  17.083  1.00  0.00    -0.192 N 
ATOM     12  H3  UNL     1      22.664  35.965  17.564  1.00  0.00     0.180 HD
ENDROOT
BRANCH  11  13
HETATM   13  C6  UNL     1      21.547  37.621  16.773  1.00  0.00     0.354 C 
HETATM   14  N4  UNL     1      20.476  37.065  17.594  1.00  0.00     0.004 N 
HETATM   15  C7  UNL     1      19.681  36.231  16.731  1.00  0.00     0.582 C 
ATOM     16  H42 UNL     1      20.817  36.577  18.423  1.00  0.00     0.284 HD
ATOM     17  H41 UNL     1      19.931  37.778  18.079  1.00  0.00     0.284 HD
HETATM   18  N6  UNL     1      20.404  36.086  15.504  1.00  0.00     0.003 N 
HETATM   19  C8  UNL     1      21.167  37.303  15.343  1.00  0.00     0.342 C 
ATOM     20  H62 UNL     1      20.974  35.240  15.466  1.00  0.00     0.284 HD
ATOM     21  H61 UNL     1      19.809  35.870  14.705  1.00  0.00     0.284 HD
BRANCH  15  22
HETATM   22  N5  UNL     1      19.484  34.932  17.316  1.00  0.00    -0.025 N 
ATOM     23  H53 UNL     1      20.360  34.533  17.655  1.00  0.00     0.278 HD
ATOM     24  H52 UNL     1      18.988  34.989  18.206  1.00  0.00     0.278 HD
ATOM     25  H51 UNL     1      19.013  34.307  16.661  1.00  0.00     0.278 HD
ENDBRANCH  15  22
BRANCH  19  26
HETATM   26  N7  UNL     1      20.455  38.354  14.704  1.00  0.00    -0.330 N 
HETATM   27  C9  UNL     1      19.518  38.176  13.651  1.00  0.00     0.215 C 
HETATM   28  C10 UNL     1      18.800  39.281  13.014  1.00  0.00     0.117 C 
HETATM   29  O2  UNL     1      19.273  36.999  13.221  1.00  0.00    -0.274 OA
ATOM     30  H7  UNL     1      20.630  39.307  15.024  1.00  0.00     0.164 HD
ENDBRANCH  19  26
ENDBRANCH  11  13
TORSDOF 3
ENDMDL
MODEL 2
REMARK VINA RESULT: -3.801036808      1.984      5.851
REMARK  3 active torsions:
REMARK  status: ('A' for Active; 'I' for Inactive)
REMARK       I    between atoms: N1_3  and  C3_5 
REMARK       I    between atoms: C3_5  and  N3_11 
REMARK       I    between atoms: N2_6  and  C4_8 
REMARK    1  A    between atoms: N3_11  and  C6_13 
REMARK    2  A    between atoms: C7_17  and  N5_18 
REMARK    3  A    between atoms: C8_25  and  N7_26 
REMARK       I    between atoms: N7_26  and  C9_28 
ROOT
HETATM    1  C1  UNL     1      16.457  35.295  13.459  1.00  0.00     0.037 C 
HETATM    2  C2  UNL     1      17.313  35.792  14.129  1.00  0.00     0.015 C 
HETATM    3  N1  UNL     1      18.307  36.394  14.901  1.00  0.00    -0.149 N 
ATOM      4  H1  UNL     1      18.107  36.720  15.847  1.00  0.00     0.195 HD
HETATM    5  C3  UNL     1      19.597  36.544  14.346  1.00  0.00     0.690 C 
HETATM    6  N2  UNL     1      19.931  37.530  13.595  1.00  0.00    -0.160 N 
ATOM      7  H2  UNL     1      20.887  37.554  13.240  1.00  0.00     0.187 HD
HETATM    8  C4  UNL     1      19.066  38.585  13.226  1.00  0.00     0.231 C 
HETATM    9  C5  UNL     1      19.252  39.930  13.828  1.00  0.00     0.118 C 
HETATM   10  O1  UNL     1      18.126  38.453  12.398  1.00  0.00    -0.273 OA
HETATM   11  N3  UNL     1      20.570  35.555  14.634  1.00  0.00    -0.192 N 
ATOM     12  H3  UNL     1      20.491  34.625  14.222  1.00  0.00     0.180 HD
ENDROOT
BRANCH  11  13
HETATM   13  C6  UNL     1      21.678  35.866  15.515  1.00  0.00     0.354 C 
HETATM   14  N4  UNL     1      21.597  34.929  16.630  1.00  0.00     0.004 N 
HETATM   15  C7  UNL     1      21.037  35.653  17.742  1.00  0.00     0.582 C 
ATOM     16  H42 UNL     1      21.082  34.078  16.405  1.00  0.00     0.284 HD
ATOM     17  H41 UNL     1      22.490  34.486  16.848  1.00  0.00     0.284 HD
HETATM   18  N6  UNL     1      20.557  36.902  17.231  1.00  0.00     0.003 N 
HETATM   19  C8  UNL     1      21.411  37.231  16.112  1.00  0.00     0.342 C 
ATOM     20  H62 UNL     1      19.565  36.889  16.996  1.00  0.00     0.284 HD
ATOM     21  H61 UNL     1      20.509  37.637  17.936  1.00  0.00     0.284 HD
BRANCH  15  22
HETATM   22  N5  UNL     1      19.938  34.929  18.321  1.00  0.00    -0.025 N 
ATOM     23  H53 UNL     1      19.078  35.057  17.787  1.00  0.00     0.278 HD
ATOM     24  H52 UNL     1      20.044  33.921  18.203  1.00  0.00     0.278 HD
ATOM     25  H51 UNL     1      19.814  35.183  19.302  1.00  0.00     0.278 HD
ENDBRANCH  15  22
BRANCH  19  26
HETATM   26  N7  UNL     1      22.597  37.928  16.472  1.00  0.00    -0.330 N 
HETATM   27  C9  UNL     1      23.902  37.366  16.462  1.00  0.00     0.215 C 
HETATM   28  C10 UNL     1      25.104  38.112  16.839  1.00  0.00     0.117 C 
HETATM   29  O2  UNL     1      24.060  36.149  16.112  1.00  0.00    -0.274 OA
ATOM     30  H7  UNL     1      22.505  38.902  16.759  1.00  0.00     0.164 HD
ENDBRANCH  19  26
ENDBRANCH  11  13
TORSDOF 3
ENDMDL
MODEL 3
REMARK VINA RESULT: -3.770131967      1.844      6.455
REMARK  3 active torsions:
REMARK  status: ('A' for Active; 'I' for Inactive)
REMARK       I    between atoms: N1_3  and  C3_5 
REMARK       I    between atoms: C3_5  and  N3_11 
REMARK       I    between atoms: N2_6  and  C4_8 
REMARK    1  A    between atoms: N3_11  and  C6_13 
REMARK    2  A    between atoms: C7_17  and  N5_18 
REMARK    3  A    between atoms: C8_25  and  N7_26 
REMARK       I    between atoms: N7_26  and  C9_28 
ROOT
HETATM    1  C1  UNL     1      18.502  40.219  13.441  1.00  0.00     0.037 C 
HETATM    2  C2  UNL     1      19.199  39.252  13.348  1.00  0.00     0.015 C 
HETATM    3  N1  UNL     1      19.995  38.112  13.230  1.00  0.00    -0.149 N 
ATOM      4  H1  UNL     1      20.618  37.993  12.431  1.00  0.00     0.195 HD
HETATM    5  C3  UNL     1      19.920  37.127  14.238  1.00  0.00     0.690 C 
HETATM    6  N2  UNL     1      19.031  36.201  14.254  1.00  0.00    -0.160 N 
ATOM      7  H2  UNL     1      19.055  35.532  15.023  1.00  0.00     0.187 HD
HETATM    8  C4  UNL     1      18.020  36.044  13.278  1.00  0.00     0.231 C 
HETATM    9  C5  UNL     1      18.111  34.929  12.301  1.00  0.00     0.118 C 
HETATM   10  O1  UNL     1      17.023  36.808  13.185  1.00  0.00    -0.273 OA
HETATM   11  N3  UNL     1      20.875  37.163  15.284  1.00  0.00    -0.192 N 
ATOM     12  H3  UNL     1      20.834  37.899  15.989  1.00  0.00     0.180 HD
ENDROOT
BRANCH  11  13
HETATM   13  C6  UNL     1      21.911  36.152  15.352  1.00  0.00     0.354 C 
HETATM   14  N4  UNL     1      21.330  35.009  16.048  1.00  0.00     0.004 N 
HETATM   15  C7  UNL     1      21.836  35.041  17.396  1.00  0.00     0.582 C 
ATOM     16  H42 UNL     1      20.311  34.984  16.002  1.00  0.00     0.284 HD
ATOM     17  H41 UNL     1      21.502  34.121  15.576  1.00  0.00     0.284 HD
HETATM   18  N6  UNL     1      22.485  36.305  17.571  1.00  0.00     0.003 N 
HETATM   19  C8  UNL     1      22.994  36.677  16.270  1.00  0.00     0.342 C 
ATOM     20  H62 UNL     1      21.885  37.015  17.991  1.00  0.00     0.284 HD
ATOM     21  H61 UNL     1      23.198  36.298  18.299  1.00  0.00     0.284 HD
BRANCH  15  22
HETATM   22  N5  UNL     1      20.763  34.929  18.347  1.00  0.00    -0.025 N 
ATOM     23  H53 UNL     1      21.112  34.857  19.304  1.00  0.00     0.278 HD
ATOM     24  H52 UNL     1      20.245  35.804  18.438  1.00  0.00     0.278 HD
ATOM     25  H51 UNL     1      20.149  34.150  18.110  1.00  0.00     0.278 HD
ENDBRANCH  15  22
BRANCH  19  26
HETATM   26  N7  UNL     1      24.282  36.148  15.978  1.00  0.00    -0.330 N 
HETATM   27  C9  UNL     1      25.469  36.921  15.867  1.00  0.00     0.215 C 
HETATM   28  C10 UNL     1      26.781  36.345  15.565  1.00  0.00     0.117 C 
HETATM   29  O2  UNL     1      25.414  38.185  16.033  1.00  0.00    -0.274 OA
ATOM     30  H7  UNL     1      24.359  35.141  15.838  1.00  0.00     0.164 HD
ENDBRANCH  19  26
ENDBRANCH  11  13
TORSDOF 3
ENDMDL
MODEL 4
REMARK VINA RESULT: -3.017274956      2.040      6.331
REMARK  3 active torsions:
REMARK  status: ('A' for Active; 'I' for Inactive)
REMARK       I    between atoms: N1_3  and  C3_5 
REMARK       I    between atoms: C3_5  and  N3_11 
REMARK       I    between atoms: N2_6  and  C4_8 
REMARK    1  A    between atoms: N3_11  and  C6_13 
REMARK    2  A    between atoms: C7_17  and  N5_18 
REMARK    3  A    between atoms: C8_25  and  N7_26 
REMARK       I    between atoms: N7_26  and  C9_28 
ROOT
HETATM    1  C1  UNL     1      17.995  37.920  12.211  1.00  0.00     0.037 C 
HETATM    2  C2  UNL     1      18.598  37.063  12.786  1.00  0.00     0.015 C 
HETATM    3  N1  UNL     1      19.284  36.058  13.471  1.00  0.00    -0.149 N 
ATOM      4  H1  UNL     1      19.286  35.099  13.123  1.00  0.00     0.195 HD
HETATM    5  C3  UNL     1      19.974  36.397  14.655  1.00  0.00     0.690 C 
HETATM    6  N2  UNL     1      19.410  36.454  15.807  1.00  0.00    -0.160 N 
ATOM      7  H2  UNL     1      19.990  36.708  16.607  1.00  0.00     0.187 HD
HETATM    8  C4  UNL     1      18.042  36.190  16.044  1.00  0.00     0.231 C 
HETATM    9  C5  UNL     1      17.646  34.931  16.725  1.00  0.00     0.118 C 
HETATM   10  O1  UNL     1      17.117  36.975  15.707  1.00  0.00    -0.273 OA
HETATM   11  N3  UNL     1      21.358  36.688  14.566  1.00  0.00    -0.192 N 
ATOM     12  H3  UNL     1      21.671  37.553  14.126  1.00  0.00     0.180 HD
ENDROOT
BRANCH  11  13
HETATM   13  C6  UNL     1      22.328  35.755  15.101  1.00  0.00     0.354 C 
HETATM   14  N4  UNL     1      21.620  34.932  16.076  1.00  0.00     0.004 N 
HETATM   15  C7  UNL     1      21.980  35.428  17.379  1.00  0.00     0.582 C 
ATOM     16  H42 UNL     1      20.612  34.903  15.921  1.00  0.00     0.284 HD
ATOM     17  H41 UNL     1      21.796  33.934  15.962  1.00  0.00     0.284 HD
HETATM   18  N6  UNL     1      22.669  36.667  17.180  1.00  0.00     0.003 N 
HETATM   19  C8  UNL     1      23.333  36.556  15.901  1.00  0.00     0.342 C 
ATOM     20  H62 UNL     1      22.064  37.485  17.255  1.00  0.00     0.284 HD
ATOM     21  H61 UNL     1      23.299  36.908  17.945  1.00  0.00     0.284 HD
BRANCH  15  22
HETATM   22  N5  UNL     1      20.807  35.666  18.177  1.00  0.00    -0.025 N 
ATOM     23  H53 UNL     1      19.977  35.238  17.765  1.00  0.00     0.278 HD
ATOM     24  H52 UNL     1      20.833  35.141  19.052  1.00  0.00     0.278 HD
ATOM     25  H51 UNL     1      20.677  36.664  18.339  1.00  0.00     0.278 HD
ENDBRANCH  15  22
BRANCH  19  26
HETATM   26  N7  UNL     1      24.616  35.947  15.963  1.00  0.00    -0.330 N 
HETATM   27  C9  UNL     1      25.830  36.572  15.572  1.00  0.00     0.215 C 
HETATM   28  C10 UNL     1      27.136  35.916  15.649  1.00  0.00     0.117 C 
HETATM   29  O2  UNL     1      25.806  37.768  15.126  1.00  0.00    -0.274 OA
ATOM     30  H7  UNL     1      24.668  34.990  16.313  1.00  0.00     0.164 HD
ENDBRANCH  19  26
ENDBRANCH  11  13
TORSDOF 3
ENDMDL
MODEL 5
REMARK VINA RESULT: -2.873813667      2.228      6.380
REMARK  3 active torsions:
REMARK  status: ('A' for Active; 'I' for Inactive)
REMARK       I    between atoms: N1_3  and  C3_5 
REMARK       I    between atoms: C3_5  and  N3_11 
REMARK       I    between atoms: N2_6  and  C4_8 
REMARK    1  A    between atoms: N3_11  and  C6_13 
REMARK    2  A    between atoms: C7_17  and  N5_18 
REMARK    3  A    between atoms: C8_25  and  N7_26 
REMARK       I    between atoms: N7_26  and  C9_28 
ROOT
HETATM    1  C1  UNL     1      15.823  34.929  14.306  1.00  0.00     0.037 C 
HETATM    2  C2  UNL     1      16.620  35.539  14.955  1.00  0.00     0.015 C 
HETATM    3  N1  UNL     1      17.552  36.269  15.696  1.00  0.00    -0.149 N 
ATOM      4  H1  UNL     1      17.247  36.915  16.423  1.00  0.00     0.195 HD
HETATM    5  C3  UNL     1      18.925  36.092  15.418  1.00  0.00     0.690 C 
HETATM    6  N2  UNL     1      19.541  36.725  14.486  1.00  0.00    -0.160 N 
ATOM      7  H2  UNL     1      20.535  36.533  14.359  1.00  0.00     0.187 HD
HETATM    8  C4  UNL     1      18.939  37.670  13.624  1.00  0.00     0.231 C 
HETATM    9  C5  UNL     1      19.237  39.115  13.798  1.00  0.00     0.118 C 
HETATM   10  O1  UNL     1      18.148  37.355  12.696  1.00  0.00    -0.273 OA
HETATM   11  N3  UNL     1      19.657  35.172  16.207  1.00  0.00    -0.192 N 
ATOM     12  H3  UNL     1      19.498  34.170  16.102  1.00  0.00     0.180 HD
ENDROOT
BRANCH  11  13
HETATM   13  C6  UNL     1      20.631  35.655  17.164  1.00  0.00     0.354 C 
HETATM   14  N4  UNL     1      20.440  37.099  17.259  1.00  0.00     0.004 N 
HETATM   15  C7  UNL     1      21.492  37.709  16.488  1.00  0.00     0.582 C 
ATOM     16  H42 UNL     1      19.507  37.401  16.975  1.00  0.00     0.284 HD
ATOM     17  H41 UNL     1      20.398  37.436  18.220  1.00  0.00     0.284 HD
HETATM   18  N6  UNL     1      22.130  36.664  15.746  1.00  0.00     0.003 N 
HETATM   19  C8  UNL     1      22.001  35.468  16.548  1.00  0.00     0.342 C 
ATOM     20  H62 UNL     1      21.768  36.560  14.798  1.00  0.00     0.284 HD
ATOM     21  H61 UNL     1      23.093  36.879  15.488  1.00  0.00     0.284 HD
BRANCH  15  22
HETATM   22  N5  UNL     1      20.957  38.678  15.569  1.00  0.00    -0.025 N 
ATOM     23  H53 UNL     1      21.250  39.626  15.806  1.00  0.00     0.278 HD
ATOM     24  H52 UNL     1      21.393  38.608  14.649  1.00  0.00     0.278 HD
ATOM     25  H51 UNL     1      19.941  38.600  15.513  1.00  0.00     0.278 HD
ENDBRANCH  15  22
BRANCH  19  26
HETATM   26  N7  UNL     1      23.033  35.301  17.512  1.00  0.00    -0.330 N 
HETATM   27  C9  UNL     1      24.415  35.513  17.265  1.00  0.00     0.215 C 
HETATM   28  C10 UNL     1      25.454  35.332  18.281  1.00  0.00     0.117 C 
HETATM   29  O2  UNL     1      24.797  35.877  16.102  1.00  0.00    -0.274 OA
ATOM     30  H7  UNL     1      22.760  35.009  18.450  1.00  0.00     0.164 HD
ENDBRANCH  19  26
ENDBRANCH  11  13
TORSDOF 3
ENDMDL
