MODEL 1
REMARK VINA RESULT: -4.727035974      0.000      0.000
REMARK  0 active torsions:
REMARK  status: ('A' for Active; 'I' for Inactive)
ROOT
HETATM    1  C1  UNL     1       4.696  10.611   0.624  1.00  0.00     0.036 C 
HETATM    2  C2  UNL     1       3.903   9.356   0.573  1.00  0.00    -0.028 C 
HETATM    3  C3  UNL     1       2.744   9.221   1.196  1.00  0.00    -0.083 A 
HETATM    4  C4  UNL     1       1.488   8.540   1.653  1.00  0.00     0.038 A 
HETATM    5  C5  UNL     1       1.705   9.904   2.085  1.00  0.00     0.038 A 
ENDROOT
TORSDOF 0
ENDMDL
MODEL 2
REMARK VINA RESULT: -4.673602642      0.616      3.088
REMARK  0 active torsions:
REMARK  status: ('A' for Active; 'I' for Inactive)
ROOT
HETATM    1  C1  UNL     1       1.456   8.504   1.710  1.00  0.00     0.036 C 
HETATM    2  C2  UNL     1       2.115   9.834   1.771  1.00  0.00    -0.028 C 
HETATM    3  C3  UNL     1       3.330  10.049   1.293  1.00  0.00    -0.083 A 
HETATM    4  C4  UNL     1       4.568  10.825   0.954  1.00  0.00     0.038 A 
HETATM    5  C5  UNL     1       4.538   9.422   0.597  1.00  0.00     0.038 A 
ENDROOT
TORSDOF 0
ENDMDL
MODEL 3
REMARK VINA RESULT: -4.604217180      0.630      1.350
REMARK  0 active torsions:
REMARK  status: ('A' for Active; 'I' for Inactive)
ROOT
HETATM    1  C1  UNL     1       4.622   8.542   0.243  1.00  0.00     0.036 C 
HETATM    2  C2  UNL     1       3.937   9.730   0.812  1.00  0.00    -0.028 C 
HETATM    3  C3  UNL     1       2.756   9.655   1.404  1.00  0.00    -0.083 A 
HETATM    4  C4  UNL     1       1.532  10.144   2.119  1.00  0.00     0.038 A 
HETATM    5  C5  UNL     1       1.612   8.730   1.819  1.00  0.00     0.038 A 
ENDROOT
TORSDOF 0
ENDMDL
MODEL 4
REMARK VINA RESULT: -4.556478623      0.879      1.255
REMARK  0 active torsions:
REMARK  status: ('A' for Active; 'I' for Inactive)
ROOT
HETATM    1  C1  UNL     1       4.679  10.595   0.539  1.00  0.00     0.036 C 
HETATM    2  C2  UNL     1       3.535  10.397   1.466  1.00  0.00    -0.028 C 
HETATM    3  C3  UNL     1       2.667   9.409   1.324  1.00  0.00    -0.083 A 
HETATM    4  C4  UNL     1       1.473   8.559   1.640  1.00  0.00     0.038 A 
HETATM    5  C5  UNL     1       2.269   8.193   0.487  1.00  0.00     0.038 A 
ENDROOT
TORSDOF 0
ENDMDL
MODEL 5
REMARK VINA RESULT: -4.446952648      1.154      1.228
REMARK  0 active torsions:
REMARK  status: ('A' for Active; 'I' for Inactive)
ROOT
HETATM    1  C1  UNL     1       4.658   8.548   0.274  1.00  0.00     0.036 C 
HETATM    2  C2  UNL     1       3.299   8.002   0.522  1.00  0.00    -0.028 C 
HETATM    3  C3  UNL     1       2.386   8.657   1.221  1.00  0.00    -0.083 A 
HETATM    4  C4  UNL     1       1.060   8.910   1.873  1.00  0.00     0.038 A 
HETATM    5  C5  UNL     1       2.077   9.932   2.006  1.00  0.00     0.038 A 
ENDROOT
TORSDOF 0
ENDMDL
