MODEL 1
REMARK VINA RESULT: -4.852587840      0.000      0.000
REMARK  0 active torsions:
REMARK  status: ('A' for Active; 'I' for Inactive)
ROOT
HETATM    1  C1  UNL     1       1.859   8.848   2.199  1.00  0.00     0.008 C 
HETATM    2  C2  UNL     1       1.604  10.360   2.147  1.00  0.00     0.033 C 
HETATM    3  C3  UNL     1       2.361  10.709   0.866  1.00  0.00     0.186 C 
HETATM    4  C4  UNL     1       1.782   9.591  -0.016  1.00  0.00     0.039 C 
HETATM    5  C5  UNL     1       2.374   8.459   0.850  1.00  0.00     0.013 C 
HETATM    6  C6  UNL     1       3.821   8.887   0.769  1.00  0.00     0.237 C 
HETATM    7  N1  UNL     1       3.717  10.315   1.041  1.00  0.00    -0.070 N 
ATOM      8  H11 UNL     1       4.083  10.567   1.959  1.00  0.00     0.277 HD
ATOM      9  H12 UNL     1       4.362  10.869   0.478  1.00  0.00     0.277 HD
ENDROOT
TORSDOF 0
ENDMDL
MODEL 2
REMARK VINA RESULT: -4.600918031      1.092      2.435
REMARK  0 active torsions:
REMARK  status: ('A' for Active; 'I' for Inactive)
ROOT
HETATM    1  C1  UNL     1       3.570  10.577   1.028  1.00  0.00     0.008 C 
HETATM    2  C2  UNL     1       3.984   9.130   0.729  1.00  0.00     0.033 C 
HETATM    3  C3  UNL     1       2.627   8.439   0.849  1.00  0.00     0.186 C 
HETATM    4  C4  UNL     1       1.827   9.425  -0.019  1.00  0.00     0.039 C 
HETATM    5  C5  UNL     1       2.079  10.620   0.924  1.00  0.00     0.013 C 
HETATM    6  C6  UNL     1       1.512  10.002   2.180  1.00  0.00     0.237 C 
HETATM    7  N1  UNL     1       2.129   8.682   2.160  1.00  0.00    -0.070 N 
ATOM      8  H11 UNL     1       2.845   8.573   2.877  1.00  0.00     0.277 HD
ATOM      9  H12 UNL     1       1.497   7.949   2.481  1.00  0.00     0.277 HD
ENDROOT
TORSDOF 0
ENDMDL
MODEL 3
REMARK VINA RESULT: -4.554242167      1.068      1.498
REMARK  0 active torsions:
REMARK  status: ('A' for Active; 'I' for Inactive)
ROOT
HETATM    1  C1  UNL     1       2.802   8.549   1.318  1.00  0.00     0.008 C 
HETATM    2  C2  UNL     1       1.559   8.954   2.121  1.00  0.00     0.033 C 
HETATM    3  C3  UNL     1       1.602  10.469   1.923  1.00  0.00     0.186 C 
HETATM    4  C4  UNL     1       1.822  10.462   0.401  1.00  0.00     0.039 C 
HETATM    5  C5  UNL     1       3.182   9.738   0.497  1.00  0.00     0.013 C 
HETATM    6  C6  UNL     1       3.867  10.728   1.410  1.00  0.00     0.237 C 
HETATM    7  N1  UNL     1       2.847  10.938   2.429  1.00  0.00    -0.070 N 
ATOM      8  H11 UNL     1       3.092  10.512   3.322  1.00  0.00     0.277 HD
ATOM      9  H12 UNL     1       2.802  11.907   2.744  1.00  0.00     0.277 HD
ENDROOT
TORSDOF 0
ENDMDL
MODEL 4
REMARK VINA RESULT: -4.097905443      1.125      1.790
REMARK  0 active torsions:
REMARK  status: ('A' for Active; 'I' for Inactive)
ROOT
HETATM    1  C1  UNL     1       2.235  10.626   2.408  1.00  0.00     0.008 C 
HETATM    2  C2  UNL     1       3.446  10.788   1.480  1.00  0.00     0.033 C 
HETATM    3  C3  UNL     1       3.203   9.620   0.526  1.00  0.00     0.186 C 
HETATM    4  C4  UNL     1       1.716   9.899   0.249  1.00  0.00     0.039 C 
HETATM    5  C5  UNL     1       1.296   9.689   1.719  1.00  0.00     0.013 C 
HETATM    6  C6  UNL     1       1.842   8.289   1.881  1.00  0.00     0.237 C 
HETATM    7  N1  UNL     1       3.171   8.426   1.300  1.00  0.00    -0.070 N 
ATOM      8  H11 UNL     1       3.910   8.393   2.000  1.00  0.00     0.277 HD
ATOM      9  H12 UNL     1       3.450   7.604   0.764  1.00  0.00     0.277 HD
ENDROOT
TORSDOF 0
ENDMDL
MODEL 5
REMARK VINA RESULT: -3.807890258      1.152      2.067
REMARK  0 active torsions:
REMARK  status: ('A' for Active; 'I' for Inactive)
ROOT
HETATM    1  C1  UNL     1       4.103   9.507   0.614  1.00  0.00     0.008 C 
HETATM    2  C2  UNL     1       3.879  10.760   1.470  1.00  0.00     0.033 C 
HETATM    3  C3  UNL     1       2.394  10.596   1.790  1.00  0.00     0.186 C 
HETATM    4  C4  UNL     1       2.446   9.119   2.215  1.00  0.00     0.039 C 
HETATM    5  C5  UNL     1       2.913   8.629   0.829  1.00  0.00     0.013 C 
HETATM    6  C6  UNL     1       1.768   9.199   0.023  1.00  0.00     0.237 C 
HETATM    7  N1  UNL     1       1.685  10.553   0.556  1.00  0.00    -0.070 N 
ATOM      8  H11 UNL     1       2.011  11.256  -0.107  1.00  0.00     0.277 HD
ATOM      9  H12 UNL     1       0.723  10.880   0.645  1.00  0.00     0.277 HD
ENDROOT
TORSDOF 0
ENDMDL
