MODEL 1
REMARK VINA RESULT: -8.158397929      0.000      0.000
REMARK  14 active torsions:
REMARK  status: ('A' for Active; 'I' for Inactive)
REMARK    1  A    between atoms: S1_2  and  C2_3 
REMARK    2  A    between atoms: C2_3  and  C3_4 
REMARK       I    between atoms: C3_4  and  N1_6 
REMARK    3  A    between atoms: N1_6  and  C4_8 
REMARK    4  A    between atoms: C4_8  and  C5_9 
REMARK    5  A    between atoms: C4_8  and  C24_41 
REMARK       I    between atoms: C5_9  and  N2_11 
REMARK    6  A    between atoms: C10_17  and  C11_18 
REMARK       I    between atoms: C11_18  and  N3_20 
REMARK    7  A    between atoms: N3_20  and  C12_22 
REMARK    8  A    between atoms: C12_22  and  C13_23 
REMARK    9  A    between atoms: C12_22  and  C21_38 
REMARK       I    between atoms: C13_23  and  N4_25 
REMARK   10  A    between atoms: N4_25  and  C14_27 
REMARK   11  A    between atoms: C14_27  and  C15_28 
REMARK   12  A    between atoms: C14_27  and  C18_35 
REMARK       I    between atoms: C15_28  and  N5_30 
REMARK   13  A    between atoms: N5_30  and  C16_32 
REMARK   14  A    between atoms: C16_32  and  C17_33 
ROOT
HETATM    1  C11 UNL     1       7.603  15.576   2.997  1.00  0.00     0.242 C 
HETATM    2  O3  UNL     1       7.271  14.443   3.457  1.00  0.00    -0.271 OA
HETATM    3  N3  UNL     1       7.903  16.588   3.935  1.00  0.00    -0.346 N 
ATOM      4  H3  UNL     1       8.184  17.503   3.580  1.00  0.00     0.163 HD
ENDROOT
BRANCH   1   5
HETATM    5  C10 UNL     1       7.625  15.685   1.541  1.00  0.00     0.198 C 
HETATM    6  N2  UNL     1       8.912  15.885   0.934  1.00  0.00    -0.326 N 
HETATM    7  C5  UNL     1       9.700  14.878   0.332  1.00  0.00     0.244 C 
HETATM    8  C6  UNL     1       9.336  17.263   0.991  1.00  0.00     0.201 C 
HETATM    9  O2  UNL     1       9.233  13.691   0.315  1.00  0.00    -0.271 OA
HETATM   10  S2  UNL     1       7.741  18.127   0.776  1.00  0.00    -0.137 SA
HETATM   11  C7  UNL     1       6.652  16.667   0.968  1.00  0.00     0.032 C 
HETATM   12  C8  UNL     1       5.530  17.079   1.866  1.00  0.00     0.029 C 
HETATM   13  C9  UNL     1       6.109  16.227  -0.372  1.00  0.00     0.029 C 
BRANCH   7  14
HETATM   14  C4  UNL     1      11.023  15.078  -0.286  1.00  0.00     0.180 C 
BRANCH  14  15
HETATM   15  N1  UNL     1      10.971  14.841  -1.724  1.00  0.00    -0.347 N 
HETATM   16  C3  UNL     1      10.647  15.863  -2.661  1.00  0.00     0.227 C 
HETATM   17  O1  UNL     1      10.387  17.045  -2.272  1.00  0.00    -0.273 OA
ATOM     18  H1  UNL     1      11.176  13.905  -2.073  1.00  0.00     0.163 HD
BRANCH  16  19
HETATM   19  C2  UNL     1      10.599  15.591  -4.109  1.00  0.00     0.176 C 
BRANCH  19  20
HETATM   20  S1  UNL     1       8.887  15.366  -4.688  1.00  0.00    -0.164 SA
HETATM   21  C1  UNL     1       8.491  16.714  -5.806  1.00  0.00     0.090 C 
ENDBRANCH  19  20
ENDBRANCH  16  19
ENDBRANCH  14  15
BRANCH  14  22
HETATM   22  C24 UNL     1      12.109  14.185   0.328  1.00  0.00     0.009 C 
HETATM   23  C25 UNL     1      12.234  12.948  -0.551  1.00  0.00     0.012 C 
HETATM   24  C26 UNL     1      13.447  14.887   0.304  1.00  0.00     0.012 C 
ENDBRANCH  14  22
ENDBRANCH   7  14
ENDBRANCH   1   5
BRANCH   3  25
HETATM   25  C12 UNL     1       7.834  16.401   5.398  1.00  0.00     0.180 C 
BRANCH  25  26
HETATM   26  C13 UNL     1       6.835  17.266   5.998  1.00  0.00     0.241 C 
HETATM   27  O4  UNL     1       7.107  18.521   6.063  1.00  0.00    -0.271 OA
HETATM   28  N4  UNL     1       5.613  16.896   6.509  1.00  0.00    -0.346 N 
ATOM     29  H4  UNL     1       5.363  15.908   6.468  1.00  0.00     0.163 HD
BRANCH  28  30
HETATM   30  C14 UNL     1       4.639  17.824   7.110  1.00  0.00     0.180 C 
BRANCH  30  31
HETATM   31  C15 UNL     1       3.470  17.957   6.241  1.00  0.00     0.241 C 
HETATM   32  O5  UNL     1       2.720  18.980   6.484  1.00  0.00    -0.271 OA
HETATM   33  N5  UNL     1       3.066  17.125   5.188  1.00  0.00    -0.353 N 
ATOM     34  H5  UNL     1       3.610  16.296   4.948  1.00  0.00     0.162 HD
BRANCH  33  35
HETATM   35  C16 UNL     1       1.843  17.461   4.430  1.00  0.00     0.192 C 
BRANCH  35  36
HETATM   36  C17 UNL     1       0.852  16.368   4.485  1.00  0.00     0.250 C 
HETATM   37  O6  UNL     1       1.124  15.280   4.027  1.00  0.00    -0.305 OA
ENDBRANCH  35  36
ENDBRANCH  33  35
ENDBRANCH  30  31
BRANCH  30  38
HETATM   38  C18 UNL     1       4.232  17.335   8.475  1.00  0.00     0.009 C 
HETATM   39  C19 UNL     1       5.322  17.438   9.514  1.00  0.00     0.012 C 
HETATM   40  C20 UNL     1       3.693  15.945   8.460  1.00  0.00     0.012 C 
ENDBRANCH  30  38
ENDBRANCH  28  30
ENDBRANCH  25  26
BRANCH  25  41
HETATM   41  C21 UNL     1       9.205  16.359   5.957  1.00  0.00     0.009 C 
HETATM   42  C22 UNL     1       9.875  14.998   5.599  1.00  0.00     0.012 C 
HETATM   43  C23 UNL     1       9.420  16.661   7.392  1.00  0.00     0.012 C 
ENDBRANCH  25  41
ENDBRANCH   3  25
TORSDOF 14
ENDMDL
MODEL 2
REMARK VINA RESULT: -8.137805631      0.983      1.062
REMARK  14 active torsions:
REMARK  status: ('A' for Active; 'I' for Inactive)
REMARK    1  A    between atoms: S1_2  and  C2_3 
REMARK    2  A    between atoms: C2_3  and  C3_4 
REMARK       I    between atoms: C3_4  and  N1_6 
REMARK    3  A    between atoms: N1_6  and  C4_8 
REMARK    4  A    between atoms: C4_8  and  C5_9 
REMARK    5  A    between atoms: C4_8  and  C24_41 
REMARK       I    between atoms: C5_9  and  N2_11 
REMARK    6  A    between atoms: C10_17  and  C11_18 
REMARK       I    between atoms: C11_18  and  N3_20 
REMARK    7  A    between atoms: N3_20  and  C12_22 
REMARK    8  A    between atoms: C12_22  and  C13_23 
REMARK    9  A    between atoms: C12_22  and  C21_38 
REMARK       I    between atoms: C13_23  and  N4_25 
REMARK   10  A    between atoms: N4_25  and  C14_27 
REMARK   11  A    between atoms: C14_27  and  C15_28 
REMARK   12  A    between atoms: C14_27  and  C18_35 
REMARK       I    between atoms: C15_28  and  N5_30 
REMARK   13  A    between atoms: N5_30  and  C16_32 
REMARK   14  A    between atoms: C16_32  and  C17_33 
ROOT
HETATM    1  C11 UNL     1       7.725  15.459   3.131  1.00  0.00     0.242 C 
HETATM    2  O3  UNL     1       7.370  14.323   3.562  1.00  0.00    -0.271 OA
HETATM    3  N3  UNL     1       8.081  16.430   4.092  1.00  0.00    -0.346 N 
ATOM      4  H3  UNL     1       8.382  17.347   3.761  1.00  0.00     0.163 HD
ENDROOT
BRANCH   1   5
HETATM    5  C10 UNL     1       7.714  15.617   1.679  1.00  0.00     0.198 C 
HETATM    6  N2  UNL     1       8.986  15.846   1.050  1.00  0.00    -0.326 N 
HETATM    7  C5  UNL     1       9.766  14.865   0.397  1.00  0.00     0.244 C 
HETATM    8  C6  UNL     1       9.402  17.223   1.143  1.00  0.00     0.201 C 
HETATM    9  O2  UNL     1       9.306  13.675   0.351  1.00  0.00    -0.271 OA
HETATM   10  S2  UNL     1       7.798  18.083   0.992  1.00  0.00    -0.137 SA
HETATM   11  C7  UNL     1       6.722  16.611   1.160  1.00  0.00     0.032 C 
HETATM   12  C8  UNL     1       5.619  16.985   2.097  1.00  0.00     0.029 C 
HETATM   13  C9  UNL     1       6.151  16.211  -0.181  1.00  0.00     0.029 C 
BRANCH   7  14
HETATM   14  C4  UNL     1      11.073  15.093  -0.244  1.00  0.00     0.180 C 
BRANCH  14  15
HETATM   15  N1  UNL     1      10.997  14.872  -1.683  1.00  0.00    -0.347 N 
HETATM   16  C3  UNL     1      10.613  15.893  -2.599  1.00  0.00     0.227 C 
HETATM   17  O1  UNL     1      10.318  17.059  -2.189  1.00  0.00    -0.273 OA
ATOM     18  H1  UNL     1      11.229  13.949  -2.050  1.00  0.00     0.163 HD
BRANCH  16  19
HETATM   19  C2  UNL     1      10.543  15.638  -4.049  1.00  0.00     0.176 C 
BRANCH  19  20
HETATM   20  S1  UNL     1       8.817  15.504  -4.618  1.00  0.00    -0.164 SA
HETATM   21  C1  UNL     1       8.498  16.851  -5.760  1.00  0.00     0.090 C 
ENDBRANCH  19  20
ENDBRANCH  16  19
ENDBRANCH  14  15
BRANCH  14  22
HETATM   22  C24 UNL     1      12.185  14.212   0.338  1.00  0.00     0.009 C 
HETATM   23  C25 UNL     1      12.344  13.009  -0.582  1.00  0.00     0.012 C 
HETATM   24  C26 UNL     1      13.502  14.952   0.337  1.00  0.00     0.012 C 
ENDBRANCH  14  22
ENDBRANCH   7  14
ENDBRANCH   1   5
BRANCH   3  25
HETATM   25  C12 UNL     1       8.044  16.196   5.550  1.00  0.00     0.180 C 
BRANCH  25  26
HETATM   26  C13 UNL     1       6.975  16.947   6.182  1.00  0.00     0.241 C 
HETATM   27  O4  UNL     1       7.222  18.169   6.496  1.00  0.00    -0.271 OA
HETATM   28  N4  UNL     1       5.710  16.500   6.484  1.00  0.00    -0.346 N 
ATOM     29  H4  UNL     1       5.479  15.536   6.242  1.00  0.00     0.163 HD
BRANCH  28  30
HETATM   30  C14 UNL     1       4.664  17.313   7.131  1.00  0.00     0.180 C 
BRANCH  30  31
HETATM   31  C15 UNL     1       3.858  17.993   6.117  1.00  0.00     0.241 C 
HETATM   32  O5  UNL     1       3.913  19.282   6.146  1.00  0.00    -0.271 OA
HETATM   33  N5  UNL     1       3.042  17.426   5.128  1.00  0.00    -0.353 N 
ATOM     34  H5  UNL     1       2.948  16.413   5.053  1.00  0.00     0.162 HD
BRANCH  33  35
HETATM   35  C16 UNL     1       2.318  18.313   4.193  1.00  0.00     0.192 C 
BRANCH  35  36
HETATM   36  C17 UNL     1       0.984  18.675   4.710  1.00  0.00     0.250 C 
HETATM   37  O6  UNL     1       0.816  19.741   5.261  1.00  0.00    -0.305 OA
ENDBRANCH  35  36
ENDBRANCH  33  35
ENDBRANCH  30  31
BRANCH  30  38
HETATM   38  C18 UNL     1       3.798  16.443   8.003  1.00  0.00     0.009 C 
HETATM   39  C19 UNL     1       2.548  17.127   8.503  1.00  0.00     0.012 C 
HETATM   40  C20 UNL     1       4.536  15.854   9.156  1.00  0.00     0.012 C 
ENDBRANCH  30  38
ENDBRANCH  28  30
ENDBRANCH  25  26
BRANCH  25  41
HETATM   41  C21 UNL     1       9.418  16.266   6.098  1.00  0.00     0.009 C 
HETATM   42  C22 UNL     1      10.389  15.462   5.182  1.00  0.00     0.012 C 
HETATM   43  C23 UNL     1       9.659  15.911   7.516  1.00  0.00     0.012 C 
ENDBRANCH  25  41
ENDBRANCH   3  25
TORSDOF 14
ENDMDL
MODEL 3
REMARK VINA RESULT: -8.065738009      1.479      1.566
REMARK  14 active torsions:
REMARK  status: ('A' for Active; 'I' for Inactive)
REMARK    1  A    between atoms: S1_2  and  C2_3 
REMARK    2  A    between atoms: C2_3  and  C3_4 
REMARK       I    between atoms: C3_4  and  N1_6 
REMARK    3  A    between atoms: N1_6  and  C4_8 
REMARK    4  A    between atoms: C4_8  and  C5_9 
REMARK    5  A    between atoms: C4_8  and  C24_41 
REMARK       I    between atoms: C5_9  and  N2_11 
REMARK    6  A    between atoms: C10_17  and  C11_18 
REMARK       I    between atoms: C11_18  and  N3_20 
REMARK    7  A    between atoms: N3_20  and  C12_22 
REMARK    8  A    between atoms: C12_22  and  C13_23 
REMARK    9  A    between atoms: C12_22  and  C21_38 
REMARK       I    between atoms: C13_23  and  N4_25 
REMARK   10  A    between atoms: N4_25  and  C14_27 
REMARK   11  A    between atoms: C14_27  and  C15_28 
REMARK   12  A    between atoms: C14_27  and  C18_35 
REMARK       I    between atoms: C15_28  and  N5_30 
REMARK   13  A    between atoms: N5_30  and  C16_32 
REMARK   14  A    between atoms: C16_32  and  C17_33 
ROOT
HETATM    1  C11 UNL     1       7.214  16.436   3.400  1.00  0.00     0.242 C 
HETATM    2  O3  UNL     1       7.636  17.583   3.731  1.00  0.00    -0.271 OA
HETATM    3  N3  UNL     1       7.074  15.480   4.430  1.00  0.00    -0.346 N 
ATOM      4  H3  UNL     1       6.724  14.554   4.182  1.00  0.00     0.163 HD
ENDROOT
BRANCH   1   5
HETATM    5  C10 UNL     1       6.932  16.252   1.979  1.00  0.00     0.198 C 
HETATM    6  N2  UNL     1       8.062  16.289   1.092  1.00  0.00    -0.326 N 
HETATM    7  C5  UNL     1       8.720  15.160   0.555  1.00  0.00     0.244 C 
HETATM    8  C6  UNL     1       8.469  17.637   0.782  1.00  0.00     0.201 C 
HETATM    9  O2  UNL     1       8.276  14.006   0.874  1.00  0.00    -0.271 OA
HETATM   10  S2  UNL     1       6.854  18.487   0.731  1.00  0.00    -0.137 SA
HETATM   11  C7  UNL     1       5.847  17.128   1.433  1.00  0.00     0.032 C 
HETATM   12  C8  UNL     1       4.932  17.742   2.442  1.00  0.00     0.029 C 
HETATM   13  C9  UNL     1       5.043  16.445   0.351  1.00  0.00     0.029 C 
BRANCH   7  14
HETATM   14  C4  UNL     1       9.883  15.194  -0.350  1.00  0.00     0.180 C 
BRANCH  14  15
HETATM   15  N1  UNL     1       9.548  14.633  -1.654  1.00  0.00    -0.347 N 
HETATM   16  C3  UNL     1       9.297  15.444  -2.798  1.00  0.00     0.227 C 
HETATM   17  O1  UNL     1       9.357  16.711  -2.724  1.00  0.00    -0.273 OA
ATOM     18  H1  UNL     1       9.492  13.620  -1.752  1.00  0.00     0.163 HD
BRANCH  16  19
HETATM   19  C2  UNL     1       8.957  14.848  -4.103  1.00  0.00     0.176 C 
BRANCH  19  20
HETATM   20  S1  UNL     1       8.560  16.128  -5.336  1.00  0.00    -0.164 SA
HETATM   21  C1  UNL     1       9.942  16.256  -6.475  1.00  0.00     0.090 C 
ENDBRANCH  19  20
ENDBRANCH  16  19
ENDBRANCH  14  15
BRANCH  14  22
HETATM   22  C24 UNL     1      11.100  14.450   0.214  1.00  0.00     0.009 C 
HETATM   23  C25 UNL     1      11.320  13.214  -0.646  1.00  0.00     0.012 C 
HETATM   24  C26 UNL     1      12.342  15.303   0.097  1.00  0.00     0.012 C 
ENDBRANCH  14  22
ENDBRANCH   7  14
ENDBRANCH   1   5
BRANCH   3  25
HETATM   25  C12 UNL     1       7.405  15.741   5.845  1.00  0.00     0.180 C 
BRANCH  25  26
HETATM   26  C13 UNL     1       6.522  16.738   6.422  1.00  0.00     0.241 C 
HETATM   27  O4  UNL     1       7.033  17.886   6.698  1.00  0.00    -0.271 OA
HETATM   28  N4  UNL     1       5.184  16.599   6.709  1.00  0.00    -0.346 N 
ATOM     29  H4  UNL     1       4.746  15.703   6.497  1.00  0.00     0.163 HD
BRANCH  28  30
HETATM   30  C14 UNL     1       4.338  17.652   7.299  1.00  0.00     0.180 C 
BRANCH  30  31
HETATM   31  C15 UNL     1       3.533  18.291   6.259  1.00  0.00     0.241 C 
HETATM   32  O5  UNL     1       4.013  19.395   5.793  1.00  0.00    -0.271 OA
HETATM   33  N5  UNL     1       2.318  17.859   5.707  1.00  0.00    -0.353 N 
ATOM     34  H5  UNL     1       1.880  16.998   6.034  1.00  0.00     0.162 HD
BRANCH  33  35
HETATM   35  C16 UNL     1       1.679  18.666   4.647  1.00  0.00     0.192 C 
BRANCH  35  36
HETATM   36  C17 UNL     1       0.438  19.308   5.126  1.00  0.00     0.250 C 
HETATM   37  O6  UNL     1       0.318  20.512   5.067  1.00  0.00    -0.305 OA
ENDBRANCH  35  36
ENDBRANCH  33  35
ENDBRANCH  30  31
BRANCH  30  38
HETATM   38  C18 UNL     1       3.455  17.067   8.369  1.00  0.00     0.009 C 
HETATM   39  C19 UNL     1       2.928  18.083   9.353  1.00  0.00     0.012 C 
HETATM   40  C20 UNL     1       4.101  15.947   9.111  1.00  0.00     0.012 C 
ENDBRANCH  30  38
ENDBRANCH  28  30
ENDBRANCH  25  26
BRANCH  25  41
HETATM   41  C21 UNL     1       8.872  15.880   5.994  1.00  0.00     0.009 C 
HETATM   42  C22 UNL     1       9.591  14.786   5.148  1.00  0.00     0.012 C 
HETATM   43  C23 UNL     1       9.468  15.938   7.349  1.00  0.00     0.012 C 
ENDBRANCH  25  41
ENDBRANCH   3  25
TORSDOF 14
ENDMDL
MODEL 4
REMARK VINA RESULT: -7.953305440      3.864     11.884
REMARK  14 active torsions:
REMARK  status: ('A' for Active; 'I' for Inactive)
REMARK    1  A    between atoms: S1_2  and  C2_3 
REMARK    2  A    between atoms: C2_3  and  C3_4 
REMARK       I    between atoms: C3_4  and  N1_6 
REMARK    3  A    between atoms: N1_6  and  C4_8 
REMARK    4  A    between atoms: C4_8  and  C5_9 
REMARK    5  A    between atoms: C4_8  and  C24_41 
REMARK       I    between atoms: C5_9  and  N2_11 
REMARK    6  A    between atoms: C10_17  and  C11_18 
REMARK       I    between atoms: C11_18  and  N3_20 
REMARK    7  A    between atoms: N3_20  and  C12_22 
REMARK    8  A    between atoms: C12_22  and  C13_23 
REMARK    9  A    between atoms: C12_22  and  C21_38 
REMARK       I    between atoms: C13_23  and  N4_25 
REMARK   10  A    between atoms: N4_25  and  C14_27 
REMARK   11  A    between atoms: C14_27  and  C15_28 
REMARK   12  A    between atoms: C14_27  and  C18_35 
REMARK       I    between atoms: C15_28  and  N5_30 
REMARK   13  A    between atoms: N5_30  and  C16_32 
REMARK   14  A    between atoms: C16_32  and  C17_33 
ROOT
HETATM    1  C11 UNL     1       9.777  14.144  -3.185  1.00  0.00     0.242 C 
HETATM    2  O3  UNL     1       8.923  13.330  -3.643  1.00  0.00    -0.271 OA
HETATM    3  N3  UNL     1      10.313  15.090  -4.086  1.00  0.00    -0.346 N 
ATOM      4  H3  UNL     1      10.993  15.762  -3.730  1.00  0.00     0.163 HD
ENDROOT
BRANCH   1   5
HETATM    5  C10 UNL     1      10.101  13.991  -1.769  1.00  0.00     0.198 C 
HETATM    6  N2  UNL     1       9.632  15.026  -0.890  1.00  0.00    -0.326 N 
HETATM    7  C5  UNL     1       8.477  14.952  -0.078  1.00  0.00     0.244 C 
HETATM    8  C6  UNL     1      10.488  16.187  -0.905  1.00  0.00     0.201 C 
HETATM    9  O2  UNL     1       7.792  13.876  -0.120  1.00  0.00    -0.271 OA
HETATM   10  S2  UNL     1      12.128  15.408  -1.102  1.00  0.00    -0.137 SA
HETATM   11  C7  UNL     1      11.544  13.714  -1.479  1.00  0.00     0.032 C 
HETATM   12  C8  UNL     1      12.360  13.220  -2.629  1.00  0.00     0.029 C 
HETATM   13  C9  UNL     1      11.729  12.807  -0.284  1.00  0.00     0.029 C 
BRANCH   7  14
HETATM   14  C4  UNL     1       7.989  16.013   0.820  1.00  0.00     0.180 C 
BRANCH  14  15
HETATM   15  N1  UNL     1       7.490  15.453   2.070  1.00  0.00    -0.347 N 
HETATM   16  C3  UNL     1       8.337  15.168   3.179  1.00  0.00     0.227 C 
HETATM   17  O1  UNL     1       9.586  15.397   3.120  1.00  0.00    -0.273 OA
ATOM     18  H1  UNL     1       6.492  15.257   2.155  1.00  0.00     0.163 HD
BRANCH  16  19
HETATM   19  C2  UNL     1       7.802  14.598   4.429  1.00  0.00     0.176 C 
BRANCH  19  20
HETATM   20  S1  UNL     1       8.033  15.736   5.832  1.00  0.00    -0.164 SA
HETATM   21  C1  UNL     1       9.561  15.297   6.665  1.00  0.00     0.090 C 
ENDBRANCH  19  20
ENDBRANCH  16  19
ENDBRANCH  14  15
BRANCH  14  22
HETATM   22  C24 UNL     1       6.890  16.874   0.185  1.00  0.00     0.009 C 
HETATM   23  C25 UNL     1       5.574  16.501   0.854  1.00  0.00     0.012 C 
HETATM   24  C26 UNL     1       7.136  18.338   0.467  1.00  0.00     0.012 C 
ENDBRANCH  14  22
ENDBRANCH   7  14
ENDBRANCH   1   5
BRANCH   3  25
HETATM   25  C12 UNL     1       9.946  15.164  -5.514  1.00  0.00     0.180 C 
BRANCH  25  26
HETATM   26  C13 UNL     1      11.041  14.741  -6.367  1.00  0.00     0.241 C 
HETATM   27  O4  UNL     1      11.595  15.639  -7.102  1.00  0.00    -0.271 OA
HETATM   28  N4  UNL     1      11.567  13.475  -6.480  1.00  0.00    -0.346 N 
ATOM     29  H4  UNL     1      11.154  12.739  -5.907  1.00  0.00     0.163 HD
BRANCH  28  30
HETATM   30  C14 UNL     1      12.682  13.105  -7.370  1.00  0.00     0.180 C 
BRANCH  30  31
HETATM   31  C15 UNL     1      13.480  12.041  -6.759  1.00  0.00     0.241 C 
HETATM   32  O5  UNL     1      14.674  11.910  -7.232  1.00  0.00    -0.271 OA
HETATM   33  N5  UNL     1      13.116  11.157  -5.733  1.00  0.00    -0.353 N 
ATOM     34  H5  UNL     1      12.185  11.202  -5.319  1.00  0.00     0.162 HD
BRANCH  33  35
HETATM   35  C16 UNL     1      14.096  10.158  -5.259  1.00  0.00     0.192 C 
BRANCH  35  36
HETATM   36  C17 UNL     1      14.658  10.529  -3.945  1.00  0.00     0.250 C 
HETATM   37  O6  UNL     1      15.205  11.600  -3.802  1.00  0.00    -0.305 OA
ENDBRANCH  35  36
ENDBRANCH  33  35
ENDBRANCH  30  31
BRANCH  30  38
HETATM   38  C18 UNL     1      12.153  12.667  -8.710  1.00  0.00     0.009 C 
HETATM   39  C19 UNL     1      11.654  11.242  -8.737  1.00  0.00     0.012 C 
HETATM   40  C20 UNL     1      13.128  12.873  -9.818  1.00  0.00     0.012 C 
ENDBRANCH  30  38
ENDBRANCH  28  30
ENDBRANCH  25  26
BRANCH  25  41
HETATM   41  C21 UNL     1       9.256  16.447  -5.784  1.00  0.00     0.009 C 
HETATM   42  C22 UNL     1       8.492  16.909  -4.506  1.00  0.00     0.012 C 
HETATM   43  C23 UNL     1       8.372  16.568  -6.966  1.00  0.00     0.012 C 
ENDBRANCH  25  41
ENDBRANCH   3  25
TORSDOF 14
ENDMDL
MODEL 5
REMARK VINA RESULT: -7.909557719      2.711      5.499
REMARK  14 active torsions:
REMARK  status: ('A' for Active; 'I' for Inactive)
REMARK    1  A    between atoms: S1_2  and  C2_3 
REMARK    2  A    between atoms: C2_3  and  C3_4 
REMARK       I    between atoms: C3_4  and  N1_6 
REMARK    3  A    between atoms: N1_6  and  C4_8 
REMARK    4  A    between atoms: C4_8  and  C5_9 
REMARK    5  A    between atoms: C4_8  and  C24_41 
REMARK       I    between atoms: C5_9  and  N2_11 
REMARK    6  A    between atoms: C10_17  and  C11_18 
REMARK       I    between atoms: C11_18  and  N3_20 
REMARK    7  A    between atoms: N3_20  and  C12_22 
REMARK    8  A    between atoms: C12_22  and  C13_23 
REMARK    9  A    between atoms: C12_22  and  C21_38 
REMARK       I    between atoms: C13_23  and  N4_25 
REMARK   10  A    between atoms: N4_25  and  C14_27 
REMARK   11  A    between atoms: C14_27  and  C15_28 
REMARK   12  A    between atoms: C14_27  and  C18_35 
REMARK       I    between atoms: C15_28  and  N5_30 
REMARK   13  A    between atoms: N5_30  and  C16_32 
REMARK   14  A    between atoms: C16_32  and  C17_33 
ROOT
HETATM    1  C11 UNL     1       9.100  16.147  -1.744  1.00  0.00     0.242 C 
HETATM    2  O3  UNL     1       9.552  17.270  -2.115  1.00  0.00    -0.271 OA
HETATM    3  N3  UNL     1       8.268  16.133  -0.604  1.00  0.00    -0.346 N 
ATOM      4  H3  UNL     1       7.885  15.237  -0.300  1.00  0.00     0.163 HD
ENDROOT
BRANCH   1   5
HETATM    5  C10 UNL     1       9.511  15.002  -2.553  1.00  0.00     0.198 C 
HETATM    6  N2  UNL     1      10.910  14.675  -2.535  1.00  0.00    -0.326 N 
HETATM    7  C5  UNL     1      11.503  13.653  -1.759  1.00  0.00     0.244 C 
HETATM    8  C6  UNL     1      11.679  15.511  -3.424  1.00  0.00     0.201 C 
HETATM    9  O2  UNL     1      10.738  12.954  -1.015  1.00  0.00    -0.271 OA
HETATM   10  S2  UNL     1      10.499  15.734  -4.800  1.00  0.00    -0.137 SA
HETATM   11  C7  UNL     1       9.028  15.026  -3.970  1.00  0.00     0.032 C 
HETATM   12  C8  UNL     1       7.884  15.944  -4.257  1.00  0.00     0.029 C 
HETATM   13  C9  UNL     1       8.730  13.643  -4.502  1.00  0.00     0.029 C 
BRANCH   7  14
HETATM   14  C4  UNL     1      12.938  13.318  -1.733  1.00  0.00     0.180 C 
BRANCH  14  15
HETATM   15  N1  UNL     1      13.153  11.908  -2.036  1.00  0.00    -0.347 N 
HETATM   16  C3  UNL     1      14.017  11.469  -3.079  1.00  0.00     0.227 C 
HETATM   17  O1  UNL     1      14.648  12.305  -3.798  1.00  0.00    -0.273 OA
ATOM     18  H1  UNL     1      12.664  11.208  -1.479  1.00  0.00     0.163 HD
BRANCH  16  19
HETATM   19  C2  UNL     1      14.210  10.035  -3.364  1.00  0.00     0.176 C 
BRANCH  19  20
HETATM   20  S1  UNL     1      13.793   9.638  -5.092  1.00  0.00    -0.164 SA
HETATM   21  C1  UNL     1      12.849   8.111  -5.104  1.00  0.00     0.090 C 
ENDBRANCH  19  20
ENDBRANCH  16  19
ENDBRANCH  14  15
BRANCH  14  22
HETATM   22  C24 UNL     1      13.603  13.646  -0.390  1.00  0.00     0.009 C 
HETATM   23  C25 UNL     1      12.934  14.900   0.157  1.00  0.00     0.012 C 
HETATM   24  C26 UNL     1      13.357  12.538   0.607  1.00  0.00     0.012 C 
ENDBRANCH  14  22
ENDBRANCH   7  14
ENDBRANCH   1   5
BRANCH   3  25
HETATM   25  C12 UNL     1       7.918  17.338   0.174  1.00  0.00     0.180 C 
BRANCH  25  26
HETATM   26  C13 UNL     1       8.452  17.274   1.522  1.00  0.00     0.241 C 
HETATM   27  O4  UNL     1       9.622  17.772   1.714  1.00  0.00    -0.271 OA
HETATM   28  N4  UNL     1       7.844  16.741   2.634  1.00  0.00    -0.346 N 
ATOM     29  H4  UNL     1       6.912  16.343   2.518  1.00  0.00     0.163 HD
BRANCH  28  30
HETATM   30  C14 UNL     1       8.441  16.704   3.981  1.00  0.00     0.180 C 
BRANCH  30  31
HETATM   31  C15 UNL     1       7.468  17.159   4.974  1.00  0.00     0.241 C 
HETATM   32  O5  UNL     1       7.974  17.712   6.025  1.00  0.00    -0.271 OA
HETATM   33  N5  UNL     1       6.069  17.073   4.928  1.00  0.00    -0.353 N 
ATOM     34  H5  UNL     1       5.605  16.642   4.129  1.00  0.00     0.162 HD
BRANCH  33  35
HETATM   35  C16 UNL     1       5.275  17.614   6.051  1.00  0.00     0.192 C 
BRANCH  35  36
HETATM   36  C17 UNL     1       4.613  18.883   5.687  1.00  0.00     0.250 C 
HETATM   37  O6  UNL     1       5.275  19.821   5.299  1.00  0.00    -0.305 OA
ENDBRANCH  35  36
ENDBRANCH  33  35
ENDBRANCH  30  31
BRANCH  30  38
HETATM   38  C18 UNL     1       8.912  15.310   4.300  1.00  0.00     0.009 C 
HETATM   39  C19 UNL     1       7.801  14.357   4.673  1.00  0.00     0.012 C 
HETATM   40  C20 UNL     1       9.967  15.276   5.352  1.00  0.00     0.012 C 
ENDBRANCH  30  38
ENDBRANCH  28  30
ENDBRANCH  25  26
BRANCH  25  41
HETATM   41  C21 UNL     1       6.490  17.668  -0.039  1.00  0.00     0.009 C 
HETATM   42  C22 UNL     1       6.120  18.943   0.778  1.00  0.00     0.012 C 
HETATM   43  C23 UNL     1       5.459  16.625   0.168  1.00  0.00     0.012 C 
ENDBRANCH  25  41
ENDBRANCH   3  25
TORSDOF 14
ENDMDL
