MODEL 1
REMARK VINA RESULT: -8.447355020      0.000      0.000
REMARK  16 active torsions:
REMARK  status: ('A' for Active; 'I' for Inactive)
REMARK    1  A    between atoms: C2_2  and  N1_3 
REMARK       I    between atoms: N1_3  and  C3_5 
REMARK       I    between atoms: C3_5  and  N2_7 
REMARK    2  A    between atoms: N2_7  and  C4_9 
REMARK    3  A    between atoms: C4_9  and  C5_10 
REMARK    4  A    between atoms: C5_10  and  C6_11 
REMARK    5  A    between atoms: C6_11  and  C7_12 
REMARK    6  A    between atoms: C7_12  and  S1_13 
REMARK    7  A    between atoms: S1_13  and  C8_14 
REMARK    8  A    between atoms: C9_15  and  C10_16 
REMARK    9  A    between atoms: C10_16  and  N3_17 
REMARK   10  A    between atoms: N3_17  and  C13_20 
REMARK   11  A    between atoms: C13_20  and  C14_21 
REMARK   12  A    between atoms: C14_21  and  C15_22 
REMARK   13  A    between atoms: C15_22  and  N4_23 
REMARK   14  A    between atoms: N4_23  and  S2_25 
REMARK   15  A    between atoms: S2_25  and  C17_28 
REMARK   16  A    between atoms: C22_33  and  O3_34 
ROOT
HETATM    1  C8  UNL     1       6.877  16.412   2.442  1.00  0.00     0.093 A 
HETATM    2  C9  UNL     1       7.226  16.004   1.134  1.00  0.00     0.062 A 
HETATM    3  N5  UNL     1       6.341  16.200   0.146  1.00  0.00    -0.309 N 
ATOM      4  H5  UNL     1       6.582  15.910  -0.801  1.00  0.00     0.170 HD
HETATM    5  C23 UNL     1       5.133  16.776   0.376  1.00  0.00     0.329 A 
HETATM    6  O4  UNL     1       4.326  16.944  -0.582  1.00  0.00    -0.246 OA
HETATM    7  N6  UNL     1       4.816  17.157   1.614  1.00  0.00    -0.270 N 
HETATM    8  C24 UNL     1       3.511  17.770   1.826  1.00  0.00     0.164 C 
HETATM    9  C25 UNL     1       5.658  16.989   2.652  1.00  0.00     0.270 A 
HETATM   10  O5  UNL     1       5.261  17.380   3.767  1.00  0.00    -0.266 OA
ENDROOT
BRANCH   2  11
HETATM   11  C10 UNL     1       8.536  15.391   0.943  1.00  0.00     0.295 C 
BRANCH  11  12
HETATM   12  N3  UNL     1       9.554  16.154   0.296  1.00  0.00    -0.069 N 
HETATM   13  C11 UNL     1      10.822  15.661   0.944  1.00  0.00     0.272 C 
HETATM   14  C12 UNL     1       9.516  17.541   0.620  1.00  0.00     0.272 C 
BRANCH  12  15
HETATM   15  C13 UNL     1       9.682  15.785  -1.069  1.00  0.00     0.238 C 
BRANCH  15  16
HETATM   16  C14 UNL     1      10.231  14.432  -1.364  1.00  0.00     0.048 C 
BRANCH  16  17
HETATM   17  C15 UNL     1      11.420  14.533  -2.344  1.00  0.00     0.131 C 
BRANCH  17  18
HETATM   18  N4  UNL     1      11.240  13.532  -3.375  1.00  0.00    -0.348 N 
ATOM     19  H4  UNL     1      10.967  12.568  -3.181  1.00  0.00     0.169 HD
BRANCH  18  20
HETATM   20  S2  UNL     1      11.530  14.121  -4.938  1.00  0.00     0.047 S 
HETATM   21  C16 UNL     1      13.073  14.927  -5.142  1.00  0.00     0.142 C 
HETATM   22  O2  UNL     1      11.473  12.985  -5.983  1.00  0.00    -0.245 OA
BRANCH  20  23
HETATM   23  C17 UNL     1      10.316  14.935  -5.563  1.00  0.00     0.044 C 
HETATM   24  C18 UNL     1      10.578  15.915  -6.562  1.00  0.00     0.052 C 
HETATM   25  C19 UNL     1       9.231  16.355  -7.126  1.00  0.00     0.006 C 
HETATM   26  C20 UNL     1       8.328  16.713  -5.992  1.00  0.00     0.007 C 
HETATM   27  C21 UNL     1       7.917  15.574  -5.113  1.00  0.00     0.065 C 
HETATM   28  C22 UNL     1       9.002  14.563  -5.109  1.00  0.00     0.059 C 
BRANCH  28  29
HETATM   29  O3  UNL     1       8.805  13.341  -4.708  1.00  0.00    -0.364 OA
ATOM     30  H3  UNL     1       8.390  13.200  -3.865  1.00  0.00     0.217 HD
ENDBRANCH  28  29
ENDBRANCH  20  23
ENDBRANCH  18  20
ENDBRANCH  17  18
ENDBRANCH  16  17
ENDBRANCH  15  16
ENDBRANCH  12  15
ENDBRANCH  11  12
ENDBRANCH   2  11
BRANCH   1  31
HETATM   31  S1  UNL     1       8.036  16.150   3.745  1.00  0.00    -0.122 SA
BRANCH  31  32
HETATM   32  C7  UNL     1       7.768  14.652   4.688  1.00  0.00     0.080 C 
BRANCH  32  33
HETATM   33  C6  UNL     1       8.832  14.317   5.678  1.00  0.00     0.012 C 
BRANCH  33  34
HETATM   34  C5  UNL     1       9.856  15.403   5.864  1.00  0.00     0.020 C 
BRANCH  34  35
HETATM   35  C4  UNL     1       9.987  15.750   7.336  1.00  0.00     0.124 C 
BRANCH  35  36
HETATM   36  N2  UNL     1       8.732  15.515   8.035  1.00  0.00    -0.343 N 
HETATM   37  C3  UNL     1       7.851  16.609   8.250  1.00  0.00     0.316 C 
HETATM   38  N1  UNL     1       6.617  16.437   8.926  1.00  0.00    -0.344 N 
HETATM   39  O1  UNL     1       8.141  17.766   7.845  1.00  0.00    -0.247 OA
ATOM     40  H1  UNL     1       6.368  15.506   9.260  1.00  0.00     0.164 HD
ATOM     41  H2  UNL     1       8.489  14.581   8.365  1.00  0.00     0.164 HD
BRANCH  38  42
HETATM   42  C2  UNL     1       5.702  17.524   9.159  1.00  0.00     0.120 C 
HETATM   43  C1  UNL     1       4.507  17.442   8.220  1.00  0.00     0.026 C 
ENDBRANCH  38  42
ENDBRANCH  35  36
ENDBRANCH  34  35
ENDBRANCH  33  34
ENDBRANCH  32  33
ENDBRANCH  31  32
ENDBRANCH   1  31
TORSDOF 16
ENDMDL
MODEL 2
REMARK VINA RESULT: -8.426582290      1.500      1.768
REMARK  16 active torsions:
REMARK  status: ('A' for Active; 'I' for Inactive)
REMARK    1  A    between atoms: C2_2  and  N1_3 
REMARK       I    between atoms: N1_3  and  C3_5 
REMARK       I    between atoms: C3_5  and  N2_7 
REMARK    2  A    between atoms: N2_7  and  C4_9 
REMARK    3  A    between atoms: C4_9  and  C5_10 
REMARK    4  A    between atoms: C5_10  and  C6_11 
REMARK    5  A    between atoms: C6_11  and  C7_12 
REMARK    6  A    between atoms: C7_12  and  S1_13 
REMARK    7  A    between atoms: S1_13  and  C8_14 
REMARK    8  A    between atoms: C9_15  and  C10_16 
REMARK    9  A    between atoms: C10_16  and  N3_17 
REMARK   10  A    between atoms: N3_17  and  C13_20 
REMARK   11  A    between atoms: C13_20  and  C14_21 
REMARK   12  A    between atoms: C14_21  and  C15_22 
REMARK   13  A    between atoms: C15_22  and  N4_23 
REMARK   14  A    between atoms: N4_23  and  S2_25 
REMARK   15  A    between atoms: S2_25  and  C17_28 
REMARK   16  A    between atoms: C22_33  and  O3_34 
ROOT
HETATM    1  C8  UNL     1       8.147  16.565   2.017  1.00  0.00     0.093 A 
HETATM    2  C9  UNL     1       8.718  17.267   0.932  1.00  0.00     0.062 A 
HETATM    3  N5  UNL     1       7.994  18.228   0.340  1.00  0.00    -0.309 N 
ATOM      4  H5  UNL     1       8.395  18.741  -0.444  1.00  0.00     0.170 HD
HETATM    5  C23 UNL     1       6.740  18.534   0.759  1.00  0.00     0.329 A 
HETATM    6  O4  UNL     1       6.088  19.447   0.176  1.00  0.00    -0.246 OA
HETATM    7  N6  UNL     1       6.212  17.864   1.786  1.00  0.00    -0.270 N 
HETATM    8  C24 UNL     1       4.863  18.217   2.210  1.00  0.00     0.164 C 
HETATM    9  C25 UNL     1       6.885  16.888   2.424  1.00  0.00     0.270 A 
HETATM   10  O5  UNL     1       6.298  16.326   3.370  1.00  0.00    -0.266 OA
ENDROOT
BRANCH   2  11
HETATM   11  C10 UNL     1      10.069  16.898   0.521  1.00  0.00     0.295 C 
BRANCH  11  12
HETATM   12  N3  UNL     1      10.224  16.049  -0.616  1.00  0.00    -0.069 N 
HETATM   13  C11 UNL     1      10.439  17.020  -1.747  1.00  0.00     0.272 C 
HETATM   14  C12 UNL     1       9.031  15.357  -0.974  1.00  0.00     0.272 C 
BRANCH  12  15
HETATM   15  C13 UNL     1      11.434  15.310  -0.542  1.00  0.00     0.238 C 
BRANCH  15  16
HETATM   16  C14 UNL     1      11.402  13.894  -1.005  1.00  0.00     0.048 C 
BRANCH  16  17
HETATM   17  C15 UNL     1      12.167  13.744  -2.337  1.00  0.00     0.131 C 
BRANCH  17  18
HETATM   18  N4  UNL     1      11.209  13.414  -3.373  1.00  0.00    -0.348 N 
ATOM     19  H4  UNL     1      10.403  12.808  -3.219  1.00  0.00     0.169 HD
BRANCH  18  20
HETATM   20  S2  UNL     1      11.561  14.135  -4.866  1.00  0.00     0.047 S 
HETATM   21  C16 UNL     1      13.092  14.986  -4.924  1.00  0.00     0.142 C 
HETATM   22  O2  UNL     1      11.584  13.087  -6.000  1.00  0.00    -0.245 OA
BRANCH  20  23
HETATM   23  C17 UNL     1      10.360  14.972  -5.485  1.00  0.00     0.044 C 
HETATM   24  C18 UNL     1      10.639  15.968  -6.463  1.00  0.00     0.052 C 
HETATM   25  C19 UNL     1       9.301  16.432  -7.029  1.00  0.00     0.006 C 
HETATM   26  C20 UNL     1       8.393  16.777  -5.896  1.00  0.00     0.007 C 
HETATM   27  C21 UNL     1       7.964  15.626  -5.041  1.00  0.00     0.065 C 
HETATM   28  C22 UNL     1       9.040  14.605  -5.047  1.00  0.00     0.059 C 
BRANCH  28  29
HETATM   29  O3  UNL     1       8.827  13.377  -4.671  1.00  0.00    -0.364 OA
ATOM     30  H3  UNL     1       8.168  13.213  -4.006  1.00  0.00     0.217 HD
ENDBRANCH  28  29
ENDBRANCH  20  23
ENDBRANCH  18  20
ENDBRANCH  17  18
ENDBRANCH  16  17
ENDBRANCH  15  16
ENDBRANCH  12  15
ENDBRANCH  11  12
ENDBRANCH   2  11
BRANCH   1  31
HETATM   31  S1  UNL     1       9.095  15.297   2.794  1.00  0.00    -0.122 SA
BRANCH  31  32
HETATM   32  C7  UNL     1       9.578  15.657   4.480  1.00  0.00     0.080 C 
BRANCH  32  33
HETATM   33  C6  UNL     1       8.955  14.794   5.525  1.00  0.00     0.012 C 
BRANCH  33  34
HETATM   34  C5  UNL     1       9.480  15.040   6.913  1.00  0.00     0.020 C 
BRANCH  34  35
HETATM   35  C4  UNL     1       8.411  15.700   7.766  1.00  0.00     0.124 C 
BRANCH  35  36
HETATM   36  N2  UNL     1       7.143  15.752   7.053  1.00  0.00    -0.343 N 
HETATM   37  C3  UNL     1       6.540  17.017   6.815  1.00  0.00     0.316 C 
HETATM   38  N1  UNL     1       5.305  17.124   6.128  1.00  0.00    -0.344 N 
HETATM   39  O1  UNL     1       7.087  18.081   7.209  1.00  0.00    -0.247 OA
ATOM     40  H1  UNL     1       4.850  16.272   5.803  1.00  0.00     0.164 HD
ATOM     41  H2  UNL     1       6.694  14.895   6.730  1.00  0.00     0.164 HD
BRANCH  38  42
HETATM   42  C2  UNL     1       4.669  18.390   5.871  1.00  0.00     0.120 C 
HETATM   43  C1  UNL     1       3.178  18.209   5.620  1.00  0.00     0.026 C 
ENDBRANCH  38  42
ENDBRANCH  35  36
ENDBRANCH  34  35
ENDBRANCH  33  34
ENDBRANCH  32  33
ENDBRANCH  31  32
ENDBRANCH   1  31
TORSDOF 16
ENDMDL
MODEL 3
REMARK VINA RESULT: -8.423147825      1.401      1.595
REMARK  16 active torsions:
REMARK  status: ('A' for Active; 'I' for Inactive)
REMARK    1  A    between atoms: C2_2  and  N1_3 
REMARK       I    between atoms: N1_3  and  C3_5 
REMARK       I    between atoms: C3_5  and  N2_7 
REMARK    2  A    between atoms: N2_7  and  C4_9 
REMARK    3  A    between atoms: C4_9  and  C5_10 
REMARK    4  A    between atoms: C5_10  and  C6_11 
REMARK    5  A    between atoms: C6_11  and  C7_12 
REMARK    6  A    between atoms: C7_12  and  S1_13 
REMARK    7  A    between atoms: S1_13  and  C8_14 
REMARK    8  A    between atoms: C9_15  and  C10_16 
REMARK    9  A    between atoms: C10_16  and  N3_17 
REMARK   10  A    between atoms: N3_17  and  C13_20 
REMARK   11  A    between atoms: C13_20  and  C14_21 
REMARK   12  A    between atoms: C14_21  and  C15_22 
REMARK   13  A    between atoms: C15_22  and  N4_23 
REMARK   14  A    between atoms: N4_23  and  S2_25 
REMARK   15  A    between atoms: S2_25  and  C17_28 
REMARK   16  A    between atoms: C22_33  and  O3_34 
ROOT
HETATM    1  C8  UNL     1       8.315  16.214   2.127  1.00  0.00     0.093 A 
HETATM    2  C9  UNL     1       8.427  15.635   0.843  1.00  0.00     0.062 A 
HETATM    3  N5  UNL     1       7.360  15.668   0.032  1.00  0.00    -0.309 N 
ATOM      4  H5  UNL     1       7.429  15.253  -0.898  1.00  0.00     0.170 HD
HETATM    5  C23 UNL     1       6.191  16.239   0.416  1.00  0.00     0.329 A 
HETATM    6  O4  UNL     1       5.207  16.251  -0.377  1.00  0.00    -0.246 OA
HETATM    7  N6  UNL     1       6.098  16.783   1.631  1.00  0.00    -0.270 N 
HETATM    8  C24 UNL     1       4.828  17.388   2.012  1.00  0.00     0.164 C 
HETATM    9  C25 UNL     1       7.131  16.784   2.495  1.00  0.00     0.270 A 
HETATM   10  O5  UNL     1       6.935  17.319   3.604  1.00  0.00    -0.266 OA
ENDROOT
BRANCH   2  11
HETATM   11  C10 UNL     1       9.706  15.033   0.480  1.00  0.00     0.295 C 
BRANCH  11  12
HETATM   12  N3  UNL     1      10.494  15.670  -0.526  1.00  0.00    -0.069 N 
HETATM   13  C11 UNL     1      11.908  15.379  -0.096  1.00  0.00     0.272 C 
HETATM   14  C12 UNL     1      10.409  17.091  -0.499  1.00  0.00     0.272 C 
BRANCH  12  15
HETATM   15  C13 UNL     1      10.356  15.011  -1.776  1.00  0.00     0.238 C 
BRANCH  15  16
HETATM   16  C14 UNL     1      11.515  14.207  -2.258  1.00  0.00     0.048 C 
BRANCH  16  17
HETATM   17  C15 UNL     1      11.853  14.567  -3.720  1.00  0.00     0.131 C 
BRANCH  17  18
HETATM   18  N4  UNL     1      11.645  13.387  -4.535  1.00  0.00    -0.348 N 
ATOM     19  H4  UNL     1      11.777  12.436  -4.189  1.00  0.00     0.169 HD
BRANCH  18  20
HETATM   20  S2  UNL     1      11.161  13.744  -6.119  1.00  0.00     0.047 S 
HETATM   21  C16 UNL     1      12.475  14.113  -7.220  1.00  0.00     0.142 C 
HETATM   22  O2  UNL     1      10.370  12.571  -6.739  1.00  0.00    -0.245 OA
BRANCH  20  23
HETATM   23  C17 UNL     1       9.959  14.779  -6.217  1.00  0.00     0.044 C 
HETATM   24  C18 UNL     1       9.954  15.741  -7.266  1.00  0.00     0.052 C 
HETATM   25  C19 UNL     1       8.593  16.429  -7.241  1.00  0.00     0.006 C 
HETATM   26  C20 UNL     1       8.310  16.887  -5.849  1.00  0.00     0.007 C 
HETATM   27  C21 UNL     1       8.105  15.799  -4.842  1.00  0.00     0.065 C 
HETATM   28  C22 UNL     1       8.904  14.618  -5.252  1.00  0.00     0.059 C 
BRANCH  28  29
HETATM   29  O3  UNL     1       8.680  13.432  -4.767  1.00  0.00    -0.364 OA
ATOM     30  H3  UNL     1       8.558  13.340  -3.829  1.00  0.00     0.217 HD
ENDBRANCH  28  29
ENDBRANCH  20  23
ENDBRANCH  18  20
ENDBRANCH  17  18
ENDBRANCH  16  17
ENDBRANCH  15  16
ENDBRANCH  12  15
ENDBRANCH  11  12
ENDBRANCH   2  11
BRANCH   1  31
HETATM   31  S1  UNL     1       9.714  16.168   3.199  1.00  0.00    -0.122 SA
BRANCH  31  32
HETATM   32  C7  UNL     1       9.473  15.216   4.696  1.00  0.00     0.080 C 
BRANCH  32  33
HETATM   33  C6  UNL     1       9.890  15.890   5.960  1.00  0.00     0.012 C 
BRANCH  33  34
HETATM   34  C5  UNL     1       9.537  15.123   7.205  1.00  0.00     0.020 C 
BRANCH  34  35
HETATM   35  C4  UNL     1       8.513  15.894   8.019  1.00  0.00     0.124 C 
BRANCH  35  36
HETATM   36  N2  UNL     1       7.198  15.815   7.400  1.00  0.00    -0.343 N 
HETATM   37  C3  UNL     1       6.565  17.015   6.978  1.00  0.00     0.316 C 
HETATM   38  N1  UNL     1       5.284  16.996   6.372  1.00  0.00    -0.344 N 
HETATM   39  O1  UNL     1       7.125  18.134   7.131  1.00  0.00    -0.247 OA
ATOM     40  H1  UNL     1       4.817  16.099   6.241  1.00  0.00     0.164 HD
ATOM     41  H2  UNL     1       6.738  14.914   7.272  1.00  0.00     0.164 HD
BRANCH  38  42
HETATM   42  C2  UNL     1       4.616  18.194   5.933  1.00  0.00     0.120 C 
HETATM   43  C1  UNL     1       3.228  17.876   5.393  1.00  0.00     0.026 C 
ENDBRANCH  38  42
ENDBRANCH  35  36
ENDBRANCH  34  35
ENDBRANCH  33  34
ENDBRANCH  32  33
ENDBRANCH  31  32
ENDBRANCH   1  31
TORSDOF 16
ENDMDL
MODEL 4
REMARK VINA RESULT: -8.389835545      2.533     10.918
REMARK  16 active torsions:
REMARK  status: ('A' for Active; 'I' for Inactive)
REMARK    1  A    between atoms: C2_2  and  N1_3 
REMARK       I    between atoms: N1_3  and  C3_5 
REMARK       I    between atoms: C3_5  and  N2_7 
REMARK    2  A    between atoms: N2_7  and  C4_9 
REMARK    3  A    between atoms: C4_9  and  C5_10 
REMARK    4  A    between atoms: C5_10  and  C6_11 
REMARK    5  A    between atoms: C6_11  and  C7_12 
REMARK    6  A    between atoms: C7_12  and  S1_13 
REMARK    7  A    between atoms: S1_13  and  C8_14 
REMARK    8  A    between atoms: C9_15  and  C10_16 
REMARK    9  A    between atoms: C10_16  and  N3_17 
REMARK   10  A    between atoms: N3_17  and  C13_20 
REMARK   11  A    between atoms: C13_20  and  C14_21 
REMARK   12  A    between atoms: C14_21  and  C15_22 
REMARK   13  A    between atoms: C15_22  and  N4_23 
REMARK   14  A    between atoms: N4_23  and  S2_25 
REMARK   15  A    between atoms: S2_25  and  C17_28 
REMARK   16  A    between atoms: C22_33  and  O3_34 
ROOT
HETATM    1  C8  UNL     1      10.445  15.334  -1.452  1.00  0.00     0.093 A 
HETATM    2  C9  UNL     1      10.598  15.980  -0.204  1.00  0.00     0.062 A 
HETATM    3  N5  UNL     1      11.775  15.877   0.428  1.00  0.00    -0.309 N 
ATOM      4  H5  UNL     1      11.898  16.338   1.330  1.00  0.00     0.170 HD
HETATM    5  C23 UNL     1      12.809  15.174  -0.101  1.00  0.00     0.329 A 
HETATM    6  O4  UNL     1      13.905  15.101   0.525  1.00  0.00    -0.246 OA
HETATM    7  N6  UNL     1      12.653  14.570  -1.280  1.00  0.00    -0.270 N 
HETATM    8  C24 UNL     1      13.782  13.823  -1.820  1.00  0.00     0.164 C 
HETATM    9  C25 UNL     1      11.497  14.633  -1.968  1.00  0.00     0.270 A 
HETATM   10  O5  UNL     1      11.458  14.031  -3.059  1.00  0.00    -0.266 OA
ENDROOT
BRANCH   2  11
HETATM   11  C10 UNL     1       9.455  16.721   0.320  1.00  0.00     0.295 C 
BRANCH  11  12
HETATM   12  N3  UNL     1       8.806  16.227   1.490  1.00  0.00    -0.069 N 
HETATM   13  C11 UNL     1       9.290  17.155   2.574  1.00  0.00     0.272 C 
HETATM   14  C12 UNL     1       9.271  14.944   1.899  1.00  0.00     0.272 C 
BRANCH  12  15
HETATM   15  C13 UNL     1       7.404  16.447   1.430  1.00  0.00     0.238 C 
BRANCH  15  16
HETATM   16  C14 UNL     1       6.898  17.770   1.890  1.00  0.00     0.048 C 
BRANCH  16  17
HETATM   17  C15 UNL     1       5.685  17.589   2.827  1.00  0.00     0.131 C 
BRANCH  17  18
HETATM   18  N4  UNL     1       6.017  16.570   3.802  1.00  0.00    -0.348 N 
ATOM     19  H4  UNL     1       5.997  15.571   3.599  1.00  0.00     0.169 HD
BRANCH  18  20
HETATM   20  S2  UNL     1       6.440  17.205   5.316  1.00  0.00     0.047 S 
HETATM   21  C16 UNL     1       6.436  18.956   5.402  1.00  0.00     0.142 C 
HETATM   22  O2  UNL     1       5.488  16.697   6.421  1.00  0.00    -0.245 OA
BRANCH  20  23
HETATM   23  C17 UNL     1       7.742  16.554   5.955  1.00  0.00     0.044 C 
HETATM   24  C18 UNL     1       8.473  17.282   6.935  1.00  0.00     0.052 C 
HETATM   25  C19 UNL     1       9.512  16.332   7.521  1.00  0.00     0.006 C 
HETATM   26  C20 UNL     1      10.261  15.688   6.401  1.00  0.00     0.007 C 
HETATM   27  C21 UNL     1       9.464  14.755   5.545  1.00  0.00     0.065 C 
HETATM   28  C22 UNL     1       8.053  15.214   5.532  1.00  0.00     0.059 C 
BRANCH  28  29
HETATM   29  O3  UNL     1       7.079  14.439   5.151  1.00  0.00    -0.364 OA
ATOM     30  H3  UNL     1       7.291  13.640   4.683  1.00  0.00     0.217 HD
ENDBRANCH  28  29
ENDBRANCH  20  23
ENDBRANCH  18  20
ENDBRANCH  17  18
ENDBRANCH  16  17
ENDBRANCH  15  16
ENDBRANCH  12  15
ENDBRANCH  11  12
ENDBRANCH   2  11
BRANCH   1  31
HETATM   31  S1  UNL     1       8.896  15.462  -2.284  1.00  0.00    -0.122 SA
BRANCH  31  32
HETATM   32  C7  UNL     1       8.920  16.496  -3.746  1.00  0.00     0.080 C 
BRANCH  32  33
HETATM   33  C6  UNL     1       8.215  15.942  -4.937  1.00  0.00     0.012 C 
BRANCH  33  34
HETATM   34  C5  UNL     1       8.367  16.776  -6.180  1.00  0.00     0.020 C 
BRANCH  34  35
HETATM   35  C4  UNL     1       9.171  16.019  -7.221  1.00  0.00     0.124 C 
BRANCH  35  36
HETATM   36  N2  UNL     1       9.715  14.790  -6.660  1.00  0.00    -0.343 N 
HETATM   37  C3  UNL     1      11.125  14.620  -6.617  1.00  0.00     0.316 C 
HETATM   38  N1  UNL     1      11.707  13.444  -6.083  1.00  0.00    -0.344 N 
HETATM   39  O1  UNL     1      11.900  15.512  -7.054  1.00  0.00    -0.247 OA
ATOM     40  H1  UNL     1      11.092  12.712  -5.726  1.00  0.00     0.164 HD
ATOM     41  H2  UNL     1       9.094  14.064  -6.303  1.00  0.00     0.164 HD
BRANCH  38  42
HETATM   42  C2  UNL     1      13.131  13.240  -6.025  1.00  0.00     0.120 C 
HETATM   43  C1  UNL     1      13.462  11.774  -5.785  1.00  0.00     0.026 C 
ENDBRANCH  38  42
ENDBRANCH  35  36
ENDBRANCH  34  35
ENDBRANCH  33  34
ENDBRANCH  32  33
ENDBRANCH  31  32
ENDBRANCH   1  31
TORSDOF 16
ENDMDL
MODEL 5
REMARK VINA RESULT: -8.382403528      2.020      2.583
REMARK  16 active torsions:
REMARK  status: ('A' for Active; 'I' for Inactive)
REMARK    1  A    between atoms: C2_2  and  N1_3 
REMARK       I    between atoms: N1_3  and  C3_5 
REMARK       I    between atoms: C3_5  and  N2_7 
REMARK    2  A    between atoms: N2_7  and  C4_9 
REMARK    3  A    between atoms: C4_9  and  C5_10 
REMARK    4  A    between atoms: C5_10  and  C6_11 
REMARK    5  A    between atoms: C6_11  and  C7_12 
REMARK    6  A    between atoms: C7_12  and  S1_13 
REMARK    7  A    between atoms: S1_13  and  C8_14 
REMARK    8  A    between atoms: C9_15  and  C10_16 
REMARK    9  A    between atoms: C10_16  and  N3_17 
REMARK   10  A    between atoms: N3_17  and  C13_20 
REMARK   11  A    between atoms: C13_20  and  C14_21 
REMARK   12  A    between atoms: C14_21  and  C15_22 
REMARK   13  A    between atoms: C15_22  and  N4_23 
REMARK   14  A    between atoms: N4_23  and  S2_25 
REMARK   15  A    between atoms: S2_25  and  C17_28 
REMARK   16  A    between atoms: C22_33  and  O3_34 
ROOT
HETATM    1  C8  UNL     1       7.814  16.657   2.440  1.00  0.00     0.093 A 
HETATM    2  C9  UNL     1       8.605  17.309   1.468  1.00  0.00     0.062 A 
HETATM    3  N5  UNL     1       8.053  18.300   0.755  1.00  0.00    -0.309 N 
ATOM      4  H5  UNL     1       8.615  18.778   0.050  1.00  0.00     0.170 HD
HETATM    5  C23 UNL     1       6.765  18.684   0.947  1.00  0.00     0.329 A 
HETATM    6  O4  UNL     1       6.280  19.624   0.255  1.00  0.00    -0.246 OA
HETATM    7  N6  UNL     1       6.029  18.061   1.868  1.00  0.00    -0.270 N 
HETATM    8  C24 UNL     1       4.650  18.497   2.049  1.00  0.00     0.164 C 
HETATM    9  C25 UNL     1       6.521  17.057   2.619  1.00  0.00     0.270 A 
HETATM   10  O5  UNL     1       5.746  16.544   3.450  1.00  0.00    -0.266 OA
ENDROOT
BRANCH   2  11
HETATM   11  C10 UNL     1       9.983  16.857   1.302  1.00  0.00     0.295 C 
BRANCH  11  12
HETATM   12  N3  UNL     1      10.285  15.990   0.208  1.00  0.00    -0.069 N 
HETATM   13  C11 UNL     1      10.810  16.931  -0.845  1.00  0.00     0.272 C 
HETATM   14  C12 UNL     1       9.130  15.409  -0.391  1.00  0.00     0.272 C 
BRANCH  12  15
HETATM   15  C13 UNL     1      11.383  15.144   0.514  1.00  0.00     0.238 C 
BRANCH  15  16
HETATM   16  C14 UNL     1      12.729  15.569   0.036  1.00  0.00     0.048 C 
BRANCH  16  17
HETATM   17  C15 UNL     1      13.509  14.362  -0.527  1.00  0.00     0.131 C 
BRANCH  17  18
HETATM   18  N4  UNL     1      13.706  14.575  -1.946  1.00  0.00    -0.348 N 
ATOM     19  H4  UNL     1      14.343  15.275  -2.326  1.00  0.00     0.169 HD
BRANCH  18  20
HETATM   20  S2  UNL     1      12.770  13.545  -2.914  1.00  0.00     0.047 S 
HETATM   21  C16 UNL     1      13.685  12.331  -3.788  1.00  0.00     0.142 C 
HETATM   22  O2  UNL     1      11.715  12.794  -2.072  1.00  0.00    -0.245 OA
BRANCH  20  23
HETATM   23  C17 UNL     1      11.704  14.294  -3.824  1.00  0.00     0.044 C 
HETATM   24  C18 UNL     1      10.324  14.217  -3.484  1.00  0.00     0.052 C 
HETATM   25  C19 UNL     1       9.583  15.202  -4.382  1.00  0.00     0.006 C 
HETATM   26  C20 UNL     1       9.986  14.960  -5.798  1.00  0.00     0.007 C 
HETATM   27  C21 UNL     1      11.410  15.282  -6.127  1.00  0.00     0.065 C 
HETATM   28  C22 UNL     1      12.235  15.071  -4.912  1.00  0.00     0.059 C 
BRANCH  28  29
HETATM   29  O3  UNL     1      13.431  15.571  -4.796  1.00  0.00    -0.364 OA
ATOM     30  H3  UNL     1      13.651  16.040  -4.000  1.00  0.00     0.217 HD
ENDBRANCH  28  29
ENDBRANCH  20  23
ENDBRANCH  18  20
ENDBRANCH  17  18
ENDBRANCH  16  17
ENDBRANCH  15  16
ENDBRANCH  12  15
ENDBRANCH  11  12
ENDBRANCH   2  11
BRANCH   1  31
HETATM   31  S1  UNL     1       8.535  15.348   3.376  1.00  0.00    -0.122 SA
BRANCH  31  32
HETATM   32  C7  UNL     1       9.391  15.877   4.858  1.00  0.00     0.080 C 
BRANCH  32  33
HETATM   33  C6  UNL     1       9.345  14.922   6.002  1.00  0.00     0.012 C 
BRANCH  33  34
HETATM   34  C5  UNL     1       9.413  15.583   7.352  1.00  0.00     0.020 C 
BRANCH  34  35
HETATM   35  C4  UNL     1       8.946  17.024   7.251  1.00  0.00     0.124 C 
BRANCH  35  36
HETATM   36  N2  UNL     1       7.526  17.128   7.558  1.00  0.00    -0.343 N 
HETATM   37  C3  UNL     1       6.696  17.909   6.710  1.00  0.00     0.316 C 
HETATM   38  N1  UNL     1       5.308  18.046   6.963  1.00  0.00    -0.344 N 
HETATM   39  O1  UNL     1       7.170  18.504   5.706  1.00  0.00    -0.247 OA
ATOM     40  H1  UNL     1       4.909  17.570   7.773  1.00  0.00     0.164 HD
ATOM     41  H2  UNL     1       7.134  16.648   8.368  1.00  0.00     0.164 HD
BRANCH  38  42
HETATM   42  C2  UNL     1       4.440  18.829   6.124  1.00  0.00     0.120 C 
HETATM   43  C1  UNL     1       3.226  18.019   5.689  1.00  0.00     0.026 C 
ENDBRANCH  38  42
ENDBRANCH  35  36
ENDBRANCH  34  35
ENDBRANCH  33  34
ENDBRANCH  32  33
ENDBRANCH  31  32
ENDBRANCH   1  31
TORSDOF 16
ENDMDL
