MODEL 1
REMARK VINA RESULT: -8.595761525      0.000      0.000
REMARK  16 active torsions:
REMARK  status: ('A' for Active; 'I' for Inactive)
REMARK    1  A    between atoms: C2_2  and  N1_3 
REMARK    2  A    between atoms: N1_3  and  C3_5 
REMARK    3  A    between atoms: C6_10  and  C7_11 
REMARK       I    between atoms: C7_11  and  N3_13 
REMARK    4  A    between atoms: N3_13  and  C8_15 
REMARK    5  A    between atoms: C8_15  and  C9_16 
REMARK    6  A    between atoms: C9_16  and  N4_17 
REMARK    7  A    between atoms: C12_20  and  N5_21 
REMARK    8  A    between atoms: N5_21  and  C13_23 
REMARK    9  A    between atoms: C13_23  and  C14_24 
REMARK   10  A    between atoms: C14_24  and  C15_25 
REMARK   11  A    between atoms: C18_28  and  O2_29 
REMARK   12  A    between atoms: O2_29  and  C19_30 
REMARK   13  A    between atoms: C19_30  and  O3_31 
REMARK   14  A    between atoms: C21_33  and  O4_34 
REMARK   15  A    between atoms: C24_39  and  N7_40 
REMARK   16  A    between atoms: N7_40  and  C25_42 
ROOT
HETATM    1  C3  UNL     1     -17.155  -1.537   3.757  1.00  0.00     0.146 C 
HETATM    2  N2  UNL     1     -17.379  -0.204   3.607  1.00  0.00    -0.342 N 
ATOM      3  H2  UNL     1     -17.134   0.402   4.391  1.00  0.00     0.167 HD
HETATM    4  C4  UNL     1     -17.907   0.393   2.490  1.00  0.00     0.026 C 
HETATM    5  C5  UNL     1     -18.786   1.559   2.736  1.00  0.00     0.069 C 
HETATM    6  C6  UNL     1     -17.741   0.040   1.177  1.00  0.00     0.098 C 
HETATM    7  C12 UNL     1     -17.582  -1.296   0.707  1.00  0.00     0.124 C 
HETATM    8  N6  UNL     1     -17.570  -2.399   1.494  1.00  0.00    -0.325 N 
ATOM      9  H6  UNL     1     -17.847  -3.262   1.027  1.00  0.00     0.169 HD
HETATM   10  C24 UNL     1     -17.243  -2.541   2.817  1.00  0.00     0.147 C 
ENDROOT
BRANCH   7  11
HETATM   11  N5  UNL     1     -17.449  -1.398  -0.499  1.00  0.00    -0.355 N 
ATOM     12  H5  UNL     1     -16.871  -0.604  -0.773  1.00  0.00     0.166 HD
BRANCH  11  13
HETATM   13  C13 UNL     1     -17.708  -2.072  -1.660  1.00  0.00     0.067 C 
BRANCH  13  14
HETATM   14  C14 UNL     1     -18.900  -1.697  -2.497  1.00  0.00     0.083 C 
BRANCH  14  15
HETATM   15  C15 UNL     1     -18.523  -0.938  -3.713  1.00  0.00    -0.051 A 
HETATM   16  C16 UNL     1     -18.607  -1.652  -4.920  1.00  0.00     0.010 A 
HETATM   17  C17 UNL     1     -18.284  -1.058  -6.125  1.00  0.00     0.040 A 
HETATM   18  C18 UNL     1     -17.871   0.246  -6.178  1.00  0.00     0.104 A 
HETATM   19  C21 UNL     1     -17.781   0.966  -4.990  1.00  0.00     0.102 A 
HETATM   20  C23 UNL     1     -18.112   0.347  -3.785  1.00  0.00     0.047 A 
BRANCH  18  21
HETATM   21  O2  UNL     1     -17.538   0.878  -7.371  1.00  0.00    -0.323 OA
BRANCH  21  22
HETATM   22  C19 UNL     1     -18.468   0.769  -8.430  1.00  0.00     0.344 C 
BRANCH  22  23
HETATM   23  O3  UNL     1     -19.116   1.933  -8.739  1.00  0.00    -0.371 OA
HETATM   24  C20 UNL     1     -18.343   3.070  -8.747  1.00  0.00     0.204 C 
ENDBRANCH  22  23
ENDBRANCH  21  22
ENDBRANCH  18  21
BRANCH  19  25
HETATM   25  O4  UNL     1     -17.363   2.286  -5.033  1.00  0.00    -0.353 OA
HETATM   26  C22 UNL     1     -18.311   3.333  -5.019  1.00  0.00     0.210 C 
ENDBRANCH  19  25
ENDBRANCH  14  15
ENDBRANCH  13  14
ENDBRANCH  11  13
ENDBRANCH   7  11
BRANCH   6  27
HETATM   27  C7  UNL     1     -17.669   1.093   0.215  1.00  0.00     0.257 C 
HETATM   28  O1  UNL     1     -16.469   1.509  -0.043  1.00  0.00    -0.267 OA
HETATM   29  N3  UNL     1     -18.682   1.743  -0.484  1.00  0.00    -0.355 N 
ATOM     30  H3  UNL     1     -19.647   1.464  -0.308  1.00  0.00     0.162 HD
BRANCH  29  31
HETATM   31  C8  UNL     1     -18.435   2.798  -1.451  1.00  0.00     0.153 C 
BRANCH  31  32
HETATM   32  C9  UNL     1     -18.718   4.160  -0.864  1.00  0.00     0.291 C 
BRANCH  32  33
HETATM   33  N4  UNL     1     -17.561   5.025  -0.849  1.00  0.00     0.081 N 
HETATM   34  C10 UNL     1     -16.505   4.616  -1.728  1.00  0.00     0.309 C 
HETATM   35  C11 UNL     1     -17.017   4.993   0.518  1.00  0.00     0.309 C 
ENDBRANCH  32  33
ENDBRANCH  31  32
ENDBRANCH  29  31
ENDBRANCH   6  27
BRANCH  10  36
HETATM   36  N7  UNL     1     -17.024  -3.697   3.172  1.00  0.00    -0.367 N 
ATOM     37  H7  UNL     1     -16.197  -3.751   3.765  1.00  0.00     0.161 HD
BRANCH  36  38
HETATM   38  C25 UNL     1     -17.602  -4.969   2.984  1.00  0.00     0.100 A 
HETATM   39  C26 UNL     1     -18.755  -5.439   3.752  1.00  0.00    -0.018 A 
HETATM   40  C27 UNL     1     -19.467  -4.571   4.750  1.00  0.00     0.018 C 
HETATM   41  C28 UNL     1     -19.688  -6.451   3.084  1.00  0.00     0.018 C 
HETATM   42  C29 UNL     1     -17.403  -5.919   4.178  1.00  0.00    -0.018 A 
HETATM   43  C30 UNL     1     -17.129  -7.379   3.884  1.00  0.00     0.018 C 
HETATM   44  C31 UNL     1     -16.723  -5.348   5.403  1.00  0.00     0.018 C 
ENDBRANCH  36  38
ENDBRANCH  10  36
BRANCH   1  45
HETATM   45  N1  UNL     1     -16.828  -1.876   4.912  1.00  0.00    -0.374 N 
ATOM     46  H1  UNL     1     -16.613  -2.865   5.032  1.00  0.00     0.161 HD
BRANCH  45  47
HETATM   47  C2  UNL     1     -16.712  -1.079   6.082  1.00  0.00     0.117 C 
HETATM   48  C1  UNL     1     -17.034  -1.790   7.373  1.00  0.00     0.026 C 
ENDBRANCH  45  47
ENDBRANCH   1  45
TORSDOF 16
ENDMDL
MODEL 2
REMARK VINA RESULT: -8.542281813      0.974      1.426
REMARK  16 active torsions:
REMARK  status: ('A' for Active; 'I' for Inactive)
REMARK    1  A    between atoms: C2_2  and  N1_3 
REMARK    2  A    between atoms: N1_3  and  C3_5 
REMARK    3  A    between atoms: C6_10  and  C7_11 
REMARK       I    between atoms: C7_11  and  N3_13 
REMARK    4  A    between atoms: N3_13  and  C8_15 
REMARK    5  A    between atoms: C8_15  and  C9_16 
REMARK    6  A    between atoms: C9_16  and  N4_17 
REMARK    7  A    between atoms: C12_20  and  N5_21 
REMARK    8  A    between atoms: N5_21  and  C13_23 
REMARK    9  A    between atoms: C13_23  and  C14_24 
REMARK   10  A    between atoms: C14_24  and  C15_25 
REMARK   11  A    between atoms: C18_28  and  O2_29 
REMARK   12  A    between atoms: O2_29  and  C19_30 
REMARK   13  A    between atoms: C19_30  and  O3_31 
REMARK   14  A    between atoms: C21_33  and  O4_34 
REMARK   15  A    between atoms: C24_39  and  N7_40 
REMARK   16  A    between atoms: N7_40  and  C25_42 
ROOT
HETATM    1  C3  UNL     1     -18.031  -1.608   4.015  1.00  0.00     0.146 C 
HETATM    2  N2  UNL     1     -17.895  -0.269   3.822  1.00  0.00    -0.342 N 
ATOM      3  H2  UNL     1     -17.358   0.251   4.516  1.00  0.00     0.167 HD
HETATM    4  C4  UNL     1     -18.419   0.440   2.771  1.00  0.00     0.026 C 
HETATM    5  C5  UNL     1     -18.879   1.812   3.084  1.00  0.00     0.069 C 
HETATM    6  C6  UNL     1     -18.589   0.037   1.473  1.00  0.00     0.098 C 
HETATM    7  C12 UNL     1     -18.896  -1.294   1.066  1.00  0.00     0.124 C 
HETATM    8  N6  UNL     1     -19.057  -2.344   1.908  1.00  0.00    -0.325 N 
ATOM      9  H6  UNL     1     -19.642  -3.097   1.547  1.00  0.00     0.169 HD
HETATM   10  C24 UNL     1     -18.559  -2.556   3.167  1.00  0.00     0.147 C 
ENDROOT
BRANCH   7  11
HETATM   11  N5  UNL     1     -19.008  -1.445  -0.137  1.00  0.00    -0.355 N 
ATOM     12  H5  UNL     1     -19.716  -0.770  -0.427  1.00  0.00     0.166 HD
BRANCH  11  13
HETATM   13  C13 UNL     1     -18.636  -2.091  -1.282  1.00  0.00     0.067 C 
BRANCH  13  14
HETATM   14  C14 UNL     1     -17.436  -1.617  -2.056  1.00  0.00     0.083 C 
BRANCH  14  15
HETATM   15  C15 UNL     1     -17.809  -0.930  -3.315  1.00  0.00    -0.051 A 
HETATM   16  C16 UNL     1     -18.525  -1.710  -4.239  1.00  0.00     0.010 A 
HETATM   17  C17 UNL     1     -18.933  -1.188  -5.451  1.00  0.00     0.040 A 
HETATM   18  C18 UNL     1     -18.650   0.108  -5.789  1.00  0.00     0.104 A 
HETATM   19  C21 UNL     1     -17.940   0.894  -4.884  1.00  0.00     0.102 A 
HETATM   20  C23 UNL     1     -17.538   0.346  -3.666  1.00  0.00     0.047 A 
BRANCH  18  21
HETATM   21  O2  UNL     1     -19.045   0.670  -6.998  1.00  0.00    -0.323 OA
BRANCH  21  22
HETATM   22  C19 UNL     1     -18.246   0.379  -8.126  1.00  0.00     0.344 C 
BRANCH  22  23
HETATM   23  O3  UNL     1     -18.378   1.265  -9.160  1.00  0.00    -0.371 OA
HETATM   24  C20 UNL     1     -18.559   2.581  -8.807  1.00  0.00     0.204 C 
ENDBRANCH  22  23
ENDBRANCH  21  22
ENDBRANCH  18  21
BRANCH  19  25
HETATM   25  O4  UNL     1     -17.648   2.206  -5.217  1.00  0.00    -0.353 OA
HETATM   26  C22 UNL     1     -18.531   3.246  -4.851  1.00  0.00     0.210 C 
ENDBRANCH  19  25
ENDBRANCH  14  15
ENDBRANCH  13  14
ENDBRANCH  11  13
ENDBRANCH   7  11
BRANCH   6  27
HETATM   27  C7  UNL     1     -18.393   1.013   0.448  1.00  0.00     0.257 C 
HETATM   28  O1  UNL     1     -17.164   1.146   0.056  1.00  0.00    -0.267 OA
HETATM   29  N3  UNL     1     -19.309   1.843  -0.191  1.00  0.00    -0.355 N 
ATOM     30  H3  UNL     1     -20.288   1.789   0.090  1.00  0.00     0.162 HD
BRANCH  29  31
HETATM   31  C8  UNL     1     -18.943   2.782  -1.236  1.00  0.00     0.153 C 
BRANCH  31  32
HETATM   32  C9  UNL     1     -18.939   4.203  -0.724  1.00  0.00     0.291 C 
BRANCH  32  33
HETATM   33  N4  UNL     1     -17.629   4.810  -0.741  1.00  0.00     0.081 N 
HETATM   34  C10 UNL     1     -16.708   4.207  -1.660  1.00  0.00     0.309 C 
HETATM   35  C11 UNL     1     -17.059   4.643   0.607  1.00  0.00     0.309 C 
ENDBRANCH  32  33
ENDBRANCH  31  32
ENDBRANCH  29  31
ENDBRANCH   6  27
BRANCH  10  36
HETATM   36  N7  UNL     1     -18.615  -3.722   3.552  1.00  0.00    -0.367 N 
ATOM     37  H7  UNL     1     -19.568  -3.985   3.800  1.00  0.00     0.161 HD
BRANCH  36  38
HETATM   38  C25 UNL     1     -17.723  -4.796   3.745  1.00  0.00     0.100 A 
HETATM   39  C26 UNL     1     -17.130  -5.545   2.638  1.00  0.00    -0.018 A 
HETATM   40  C27 UNL     1     -17.361  -5.177   1.200  1.00  0.00     0.018 C 
HETATM   41  C28 UNL     1     -15.756  -6.181   2.866  1.00  0.00     0.018 C 
HETATM   42  C29 UNL     1     -18.303  -6.161   3.334  1.00  0.00    -0.018 A 
HETATM   43  C30 UNL     1     -17.969  -7.362   4.194  1.00  0.00     0.018 C 
HETATM   44  C31 UNL     1     -19.676  -6.159   2.697  1.00  0.00     0.018 C 
ENDBRANCH  36  38
ENDBRANCH  10  36
BRANCH   1  45
HETATM   45  N1  UNL     1     -17.617  -2.012   5.121  1.00  0.00    -0.374 N 
ATOM     46  H1  UNL     1     -17.907  -2.955   5.378  1.00  0.00     0.161 HD
BRANCH  45  47
HETATM   47  C2  UNL     1     -16.799  -1.344   6.072  1.00  0.00     0.117 C 
HETATM   48  C1  UNL     1     -17.470  -1.037   7.387  1.00  0.00     0.026 C 
ENDBRANCH  45  47
ENDBRANCH   1  45
TORSDOF 16
ENDMDL
MODEL 3
REMARK VINA RESULT: -8.541546046      2.185      4.853
REMARK  16 active torsions:
REMARK  status: ('A' for Active; 'I' for Inactive)
REMARK    1  A    between atoms: C2_2  and  N1_3 
REMARK    2  A    between atoms: N1_3  and  C3_5 
REMARK    3  A    between atoms: C6_10  and  C7_11 
REMARK       I    between atoms: C7_11  and  N3_13 
REMARK    4  A    between atoms: N3_13  and  C8_15 
REMARK    5  A    between atoms: C8_15  and  C9_16 
REMARK    6  A    between atoms: C9_16  and  N4_17 
REMARK    7  A    between atoms: C12_20  and  N5_21 
REMARK    8  A    between atoms: N5_21  and  C13_23 
REMARK    9  A    between atoms: C13_23  and  C14_24 
REMARK   10  A    between atoms: C14_24  and  C15_25 
REMARK   11  A    between atoms: C18_28  and  O2_29 
REMARK   12  A    between atoms: O2_29  and  C19_30 
REMARK   13  A    between atoms: C19_30  and  O3_31 
REMARK   14  A    between atoms: C21_33  and  O4_34 
REMARK   15  A    between atoms: C24_39  and  N7_40 
REMARK   16  A    between atoms: N7_40  and  C25_42 
ROOT
HETATM    1  C3  UNL     1     -17.785  -4.265   2.436  1.00  0.00     0.146 C 
HETATM    2  N2  UNL     1     -17.804  -4.533   1.104  1.00  0.00    -0.342 N 
ATOM      3  H2  UNL     1     -18.154  -5.447   0.816  1.00  0.00     0.167 HD
HETATM    4  C4  UNL     1     -17.390  -3.677   0.114  1.00  0.00     0.026 C 
HETATM    5  C5  UNL     1     -16.735  -4.309  -1.054  1.00  0.00     0.069 C 
HETATM    6  C6  UNL     1     -17.488  -2.311   0.075  1.00  0.00     0.098 C 
HETATM    7  C12 UNL     1     -17.403  -1.456   1.211  1.00  0.00     0.124 C 
HETATM    8  N6  UNL     1     -17.219  -1.876   2.487  1.00  0.00    -0.325 N 
ATOM      9  H6  UNL     1     -16.790  -1.188   3.106  1.00  0.00     0.169 HD
HETATM   10  C24 UNL     1     -17.516  -3.076   3.077  1.00  0.00     0.147 C 
ENDROOT
BRANCH   7  11
HETATM   11  N5  UNL     1     -17.514  -0.269   0.962  1.00  0.00    -0.355 N 
ATOM     12  H5  UNL     1     -17.001  -0.128   0.092  1.00  0.00     0.166 HD
BRANCH  11  13
HETATM   13  C13 UNL     1     -17.998   0.965   1.297  1.00  0.00     0.067 C 
BRANCH  13  14
HETATM   14  C14 UNL     1     -17.121   2.179   1.160  1.00  0.00     0.083 C 
BRANCH  14  15
HETATM   15  C15 UNL     1     -17.598   3.105   0.105  1.00  0.00    -0.051 A 
HETATM   16  C16 UNL     1     -18.949   2.966  -0.254  1.00  0.00     0.010 A 
HETATM   17  C17 UNL     1     -19.517   3.770  -1.224  1.00  0.00     0.040 A 
HETATM   18  C18 UNL     1     -18.777   4.726  -1.866  1.00  0.00     0.104 A 
HETATM   19  C21 UNL     1     -17.435   4.874  -1.523  1.00  0.00     0.102 A 
HETATM   20  C23 UNL     1     -16.883   4.053  -0.541  1.00  0.00     0.047 A 
BRANCH  18  21
HETATM   21  O2  UNL     1     -19.313   5.554  -2.847  1.00  0.00    -0.323 OA
BRANCH  21  22
HETATM   22  C19 UNL     1     -19.498   4.987  -4.128  1.00  0.00     0.344 C 
BRANCH  22  23
HETATM   23  O3  UNL     1     -18.760   5.572  -5.120  1.00  0.00    -0.371 OA
HETATM   24  C20 UNL     1     -18.199   4.717  -6.038  1.00  0.00     0.204 C 
ENDBRANCH  22  23
ENDBRANCH  21  22
ENDBRANCH  18  21
BRANCH  19  25
HETATM   25  O4  UNL     1     -16.678   5.838  -2.168  1.00  0.00    -0.353 OA
HETATM   26  C22 UNL     1     -15.809   5.474  -3.219  1.00  0.00     0.210 C 
ENDBRANCH  19  25
ENDBRANCH  14  15
ENDBRANCH  13  14
ENDBRANCH  11  13
ENDBRANCH   7  11
BRANCH   6  27
HETATM   27  C7  UNL     1     -17.746  -1.705  -1.193  1.00  0.00     0.257 C 
HETATM   28  O1  UNL     1     -16.731  -1.093  -1.717  1.00  0.00    -0.267 OA
HETATM   29  N3  UNL     1     -18.915  -1.665  -1.948  1.00  0.00    -0.355 N 
ATOM     30  H3  UNL     1     -19.748  -2.119  -1.575  1.00  0.00     0.162 HD
BRANCH  29  31
HETATM   31  C8  UNL     1     -19.007  -1.010  -3.241  1.00  0.00     0.153 C 
BRANCH  31  32
HETATM   32  C9  UNL     1     -19.238   0.475  -3.090  1.00  0.00     0.291 C 
BRANCH  32  33
HETATM   33  N4  UNL     1     -18.665   1.252  -4.164  1.00  0.00     0.081 N 
HETATM   34  C10 UNL     1     -18.375   0.500  -5.350  1.00  0.00     0.309 C 
HETATM   35  C11 UNL     1     -17.384   1.787  -3.673  1.00  0.00     0.309 C 
ENDBRANCH  32  33
ENDBRANCH  31  32
ENDBRANCH  29  31
ENDBRANCH   6  27
BRANCH  10  36
HETATM   36  N7  UNL     1     -17.525  -3.056   4.306  1.00  0.00    -0.367 N 
ATOM     37  H7  UNL     1     -16.853  -3.718   4.691  1.00  0.00     0.161 HD
BRANCH  36  38
HETATM   38  C25 UNL     1     -18.209  -2.368   5.329  1.00  0.00     0.100 A 
HETATM   39  C26 UNL     1     -17.632  -1.231   6.044  1.00  0.00    -0.018 A 
HETATM   40  C27 UNL     1     -16.292  -0.650   5.691  1.00  0.00     0.018 C 
HETATM   41  C28 UNL     1     -18.595  -0.181   6.604  1.00  0.00     0.018 C 
HETATM   42  C29 UNL     1     -17.589  -2.564   6.724  1.00  0.00    -0.018 A 
HETATM   43  C30 UNL     1     -18.528  -2.702   7.904  1.00  0.00     0.018 C 
HETATM   44  C31 UNL     1     -16.304  -3.359   6.798  1.00  0.00     0.018 C 
ENDBRANCH  36  38
ENDBRANCH  10  36
BRANCH   1  45
HETATM   45  N1  UNL     1     -18.048  -5.246   3.161  1.00  0.00    -0.374 N 
ATOM     46  H1  UNL     1     -17.660  -5.209   4.103  1.00  0.00     0.161 HD
BRANCH  45  47
HETATM   47  C2  UNL     1     -18.810  -6.407   2.859  1.00  0.00     0.117 C 
HETATM   48  C1  UNL     1     -20.188  -6.443   3.471  1.00  0.00     0.026 C 
ENDBRANCH  45  47
ENDBRANCH   1  45
TORSDOF 16
ENDMDL
MODEL 4
REMARK VINA RESULT: -8.394283531      2.046      4.994
REMARK  16 active torsions:
REMARK  status: ('A' for Active; 'I' for Inactive)
REMARK    1  A    between atoms: C2_2  and  N1_3 
REMARK    2  A    between atoms: N1_3  and  C3_5 
REMARK    3  A    between atoms: C6_10  and  C7_11 
REMARK       I    between atoms: C7_11  and  N3_13 
REMARK    4  A    between atoms: N3_13  and  C8_15 
REMARK    5  A    between atoms: C8_15  and  C9_16 
REMARK    6  A    between atoms: C9_16  and  N4_17 
REMARK    7  A    between atoms: C12_20  and  N5_21 
REMARK    8  A    between atoms: N5_21  and  C13_23 
REMARK    9  A    between atoms: C13_23  and  C14_24 
REMARK   10  A    between atoms: C14_24  and  C15_25 
REMARK   11  A    between atoms: C18_28  and  O2_29 
REMARK   12  A    between atoms: O2_29  and  C19_30 
REMARK   13  A    between atoms: C19_30  and  O3_31 
REMARK   14  A    between atoms: C21_33  and  O4_34 
REMARK   15  A    between atoms: C24_39  and  N7_40 
REMARK   16  A    between atoms: N7_40  and  C25_42 
ROOT
HETATM    1  C3  UNL     1     -18.566  -2.785   1.416  1.00  0.00     0.146 C 
HETATM    2  N2  UNL     1     -18.683  -2.780   0.062  1.00  0.00    -0.342 N 
ATOM      3  H2  UNL     1     -19.247  -3.518  -0.361  1.00  0.00     0.167 HD
HETATM    4  C4  UNL     1     -18.104  -1.867  -0.783  1.00  0.00     0.026 C 
HETATM    5  C5  UNL     1     -17.649  -2.394  -2.089  1.00  0.00     0.069 C 
HETATM    6  C6  UNL     1     -17.877  -0.533  -0.568  1.00  0.00     0.098 C 
HETATM    7  C12 UNL     1     -17.562   0.046   0.695  1.00  0.00     0.124 C 
HETATM    8  N6  UNL     1     -17.449  -0.643   1.858  1.00  0.00    -0.325 N 
ATOM      9  H6  UNL     1     -16.853  -0.203   2.559  1.00  0.00     0.169 HD
HETATM   10  C24 UNL     1     -18.006  -1.834   2.241  1.00  0.00     0.147 C 
ENDROOT
BRANCH   7  11
HETATM   11  N5  UNL     1     -17.396   1.252   0.675  1.00  0.00    -0.355 N 
ATOM     12  H5  UNL     1     -16.633   1.406   0.015  1.00  0.00     0.166 HD
BRANCH  11  13
HETATM   13  C13 UNL     1     -17.745   2.497   1.116  1.00  0.00     0.067 C 
BRANCH  13  14
HETATM   14  C14 UNL     1     -16.914   3.691   0.733  1.00  0.00     0.083 C 
BRANCH  14  15
HETATM   15  C15 UNL     1     -17.291   4.242  -0.591  1.00  0.00    -0.051 A 
HETATM   16  C16 UNL     1     -18.671   4.308  -0.846  1.00  0.00     0.010 A 
HETATM   17  C17 UNL     1     -19.154   4.803  -2.042  1.00  0.00     0.040 A 
HETATM   18  C18 UNL     1     -18.300   5.243  -3.017  1.00  0.00     0.104 A 
HETATM   19  C21 UNL     1     -16.929   5.182  -2.779  1.00  0.00     0.102 A 
HETATM   20  C23 UNL     1     -16.463   4.680  -1.565  1.00  0.00     0.047 A 
BRANCH  18  21
HETATM   21  O2  UNL     1     -18.747   5.748  -4.232  1.00  0.00    -0.323 OA
BRANCH  21  22
HETATM   22  C19 UNL     1     -19.268   4.815  -5.157  1.00  0.00     0.344 C 
BRANCH  22  23
HETATM   23  O3  UNL     1     -18.338   4.273  -6.001  1.00  0.00    -0.371 OA
HETATM   24  C20 UNL     1     -17.632   5.164  -6.774  1.00  0.00     0.204 C 
ENDBRANCH  22  23
ENDBRANCH  21  22
ENDBRANCH  18  21
BRANCH  19  25
HETATM   25  O4  UNL     1     -16.056   5.624  -3.760  1.00  0.00    -0.353 OA
HETATM   26  C22 UNL     1     -15.668   6.981  -3.807  1.00  0.00     0.210 C 
ENDBRANCH  19  25
ENDBRANCH  14  15
ENDBRANCH  13  14
ENDBRANCH  11  13
ENDBRANCH   7  11
BRANCH   6  27
HETATM   27  C7  UNL     1     -18.019   0.349  -1.683  1.00  0.00     0.257 C 
HETATM   28  O1  UNL     1     -19.220   0.799  -1.868  1.00  0.00    -0.267 OA
HETATM   29  N3  UNL     1     -17.073   0.795  -2.601  1.00  0.00    -0.355 N 
ATOM     30  H3  UNL     1     -16.114   0.460  -2.510  1.00  0.00     0.162 HD
BRANCH  29  31
HETATM   31  C8  UNL     1     -17.382   1.714  -3.682  1.00  0.00     0.153 C 
BRANCH  31  32
HETATM   32  C9  UNL     1     -17.256   1.042  -5.029  1.00  0.00     0.291 C 
BRANCH  32  33
HETATM   33  N4  UNL     1     -18.500   0.482  -5.503  1.00  0.00     0.081 N 
HETATM   34  C10 UNL     1     -18.567  -0.949  -5.441  1.00  0.00     0.309 C 
HETATM   35  C11 UNL     1     -18.627   0.855  -6.922  1.00  0.00     0.309 C 
ENDBRANCH  32  33
ENDBRANCH  31  32
ENDBRANCH  29  31
ENDBRANCH   6  27
BRANCH  10  36
HETATM   36  N7  UNL     1     -17.977  -2.050   3.451  1.00  0.00    -0.367 N 
ATOM     37  H7  UNL     1     -17.526  -2.941   3.657  1.00  0.00     0.161 HD
BRANCH  36  38
HETATM   38  C25 UNL     1     -18.396  -1.404   4.631  1.00  0.00     0.100 A 
HETATM   39  C26 UNL     1     -17.465  -0.758   5.556  1.00  0.00    -0.018 A 
HETATM   40  C27 UNL     1     -15.992  -0.660   5.281  1.00  0.00     0.018 C 
HETATM   41  C28 UNL     1     -17.987   0.423   6.379  1.00  0.00     0.018 C 
HETATM   42  C29 UNL     1     -17.956  -2.125   5.918  1.00  0.00    -0.018 A 
HETATM   43  C30 UNL     1     -18.928  -2.161   7.078  1.00  0.00     0.018 C 
HETATM   44  C31 UNL     1     -17.069  -3.340   5.754  1.00  0.00     0.018 C 
ENDBRANCH  36  38
ENDBRANCH  10  36
BRANCH   1  45
HETATM   45  N1  UNL     1     -19.034  -3.802   1.968  1.00  0.00    -0.374 N 
ATOM     46  H1  UNL     1     -19.797  -3.631   2.622  1.00  0.00     0.161 HD
BRANCH  45  47
HETATM   47  C2  UNL     1     -18.653  -5.162   1.815  1.00  0.00     0.117 C 
HETATM   48  C1  UNL     1     -17.187  -5.444   2.030  1.00  0.00     0.026 C 
ENDBRANCH  45  47
ENDBRANCH   1  45
TORSDOF 16
ENDMDL
MODEL 5
REMARK VINA RESULT: -8.384277207      2.833      9.487
REMARK  16 active torsions:
REMARK  status: ('A' for Active; 'I' for Inactive)
REMARK    1  A    between atoms: C2_2  and  N1_3 
REMARK    2  A    between atoms: N1_3  and  C3_5 
REMARK    3  A    between atoms: C6_10  and  C7_11 
REMARK       I    between atoms: C7_11  and  N3_13 
REMARK    4  A    between atoms: N3_13  and  C8_15 
REMARK    5  A    between atoms: C8_15  and  C9_16 
REMARK    6  A    between atoms: C9_16  and  N4_17 
REMARK    7  A    between atoms: C12_20  and  N5_21 
REMARK    8  A    between atoms: N5_21  and  C13_23 
REMARK    9  A    between atoms: C13_23  and  C14_24 
REMARK   10  A    between atoms: C14_24  and  C15_25 
REMARK   11  A    between atoms: C18_28  and  O2_29 
REMARK   12  A    between atoms: O2_29  and  C19_30 
REMARK   13  A    between atoms: C19_30  and  O3_31 
REMARK   14  A    between atoms: C21_33  and  O4_34 
REMARK   15  A    between atoms: C24_39  and  N7_40 
REMARK   16  A    between atoms: N7_40  and  C25_42 
ROOT
HETATM    1  C3  UNL     1     -17.755   4.357  -3.092  1.00  0.00     0.146 C 
HETATM    2  N2  UNL     1     -17.773   4.644  -1.763  1.00  0.00    -0.342 N 
ATOM      3  H2  UNL     1     -18.129   5.560  -1.488  1.00  0.00     0.167 HD
HETATM    4  C4  UNL     1     -17.351   3.805  -0.762  1.00  0.00     0.026 C 
HETATM    5  C5  UNL     1     -16.698   4.458   0.395  1.00  0.00     0.069 C 
HETATM    6  C6  UNL     1     -17.440   2.440  -0.703  1.00  0.00     0.098 C 
HETATM    7  C12 UNL     1     -17.352   1.568  -1.826  1.00  0.00     0.124 C 
HETATM    8  N6  UNL     1     -17.173   1.971  -3.108  1.00  0.00    -0.325 N 
ATOM      9  H6  UNL     1     -16.741   1.277  -3.719  1.00  0.00     0.169 HD
HETATM   10  C24 UNL     1     -17.480   3.160  -3.715  1.00  0.00     0.147 C 
ENDROOT
BRANCH   7  11
HETATM   11  N5  UNL     1     -17.454   0.384  -1.560  1.00  0.00    -0.355 N 
ATOM     12  H5  UNL     1     -17.592   0.347  -0.550  1.00  0.00     0.166 HD
BRANCH  11  13
HETATM   13  C13 UNL     1     -17.471  -0.919  -1.973  1.00  0.00     0.067 C 
BRANCH  13  14
HETATM   14  C14 UNL     1     -18.601  -1.823  -1.561  1.00  0.00     0.083 C 
BRANCH  14  15
HETATM   15  C15 UNL     1     -18.148  -2.933  -0.688  1.00  0.00    -0.051 A 
HETATM   16  C16 UNL     1     -16.843  -3.395  -0.930  1.00  0.00     0.010 A 
HETATM   17  C17 UNL     1     -16.301  -4.425  -0.185  1.00  0.00     0.040 A 
HETATM   18  C18 UNL     1     -17.021  -5.026   0.812  1.00  0.00     0.104 A 
HETATM   19  C21 UNL     1     -18.317  -4.580   1.062  1.00  0.00     0.102 A 
HETATM   20  C23 UNL     1     -18.844  -3.539   0.298  1.00  0.00     0.047 A 
BRANCH  18  21
HETATM   21  O2  UNL     1     -16.510  -6.064   1.583  1.00  0.00    -0.323 OA
BRANCH  21  22
HETATM   22  C19 UNL     1     -15.595  -5.710   2.600  1.00  0.00     0.344 C 
BRANCH  22  23
HETATM   23  O3  UNL     1     -15.879  -6.239   3.830  1.00  0.00    -0.371 OA
HETATM   24  C20 UNL     1     -16.554  -7.436   3.830  1.00  0.00     0.204 C 
ENDBRANCH  22  23
ENDBRANCH  21  22
ENDBRANCH  18  21
BRANCH  19  25
HETATM   25  O4  UNL     1     -19.054  -5.183   2.067  1.00  0.00    -0.353 OA
HETATM   26  C22 UNL     1     -19.036  -4.654   3.377  1.00  0.00     0.210 C 
ENDBRANCH  19  25
ENDBRANCH  14  15
ENDBRANCH  13  14
ENDBRANCH  11  13
ENDBRANCH   7  11
BRANCH   6  27
HETATM   27  C7  UNL     1     -17.692   1.850   0.574  1.00  0.00     0.257 C 
HETATM   28  O1  UNL     1     -16.670   1.259   1.109  1.00  0.00    -0.267 OA
HETATM   29  N3  UNL     1     -18.860   1.807   1.329  1.00  0.00    -0.355 N 
ATOM     30  H3  UNL     1     -19.699   2.245   0.948  1.00  0.00     0.162 HD
BRANCH  29  31
HETATM   31  C8  UNL     1     -18.946   1.171   2.632  1.00  0.00     0.153 C 
BRANCH  31  32
HETATM   32  C9  UNL     1     -19.162  -0.318   2.505  1.00  0.00     0.291 C 
BRANCH  32  33
HETATM   33  N4  UNL     1     -18.506  -1.079   3.541  1.00  0.00     0.081 N 
HETATM   34  C10 UNL     1     -18.212  -0.332   4.729  1.00  0.00     0.309 C 
HETATM   35  C11 UNL     1     -17.218  -1.534   2.992  1.00  0.00     0.309 C 
ENDBRANCH  32  33
ENDBRANCH  31  32
ENDBRANCH  29  31
ENDBRANCH   6  27
BRANCH  10  36
HETATM   36  N7  UNL     1     -17.490   3.122  -4.944  1.00  0.00    -0.367 N 
ATOM     37  H7  UNL     1     -16.823   3.782  -5.340  1.00  0.00     0.161 HD
BRANCH  36  38
HETATM   38  C25 UNL     1     -18.173   2.416  -5.955  1.00  0.00     0.100 A 
HETATM   39  C26 UNL     1     -17.592   1.270  -6.654  1.00  0.00    -0.018 A 
HETATM   40  C27 UNL     1     -16.249   0.701  -6.293  1.00  0.00     0.018 C 
HETATM   41  C28 UNL     1     -18.552   0.208  -7.196  1.00  0.00     0.018 C 
HETATM   42  C29 UNL     1     -17.555   2.592  -7.354  1.00  0.00    -0.018 A 
HETATM   43  C30 UNL     1     -18.496   2.709  -8.535  1.00  0.00     0.018 C 
HETATM   44  C31 UNL     1     -16.273   3.392  -7.442  1.00  0.00     0.018 C 
ENDBRANCH  36  38
ENDBRANCH  10  36
BRANCH   1  45
HETATM   45  N1  UNL     1     -18.026   5.325  -3.830  1.00  0.00    -0.374 N 
ATOM     46  H1  UNL     1     -18.874   5.227  -4.387  1.00  0.00     0.161 HD
BRANCH  45  47
HETATM   47  C2  UNL     1     -17.320   6.546  -4.005  1.00  0.00     0.117 C 
HETATM   48  C1  UNL     1     -15.835   6.399  -4.226  1.00  0.00     0.026 C 
ENDBRANCH  45  47
ENDBRANCH   1  45
TORSDOF 16
ENDMDL
