MODEL 1
REMARK VINA RESULT: -7.405318029      0.000      0.000
REMARK  7 active torsions:
REMARK  status: ('A' for Active; 'I' for Inactive)
REMARK    1  A    between atoms: C2_2  and  C3_3 
REMARK    2  A    between atoms: C3_3  and  C4_4 
REMARK    3  A    between atoms: C4_4  and  C5_5 
REMARK    4  A    between atoms: C6_8  and  C7_9 
REMARK    5  A    between atoms: C11_16  and  C12_17 
REMARK    6  A    between atoms: C12_17  and  O2_18 
REMARK    7  A    between atoms: C12_17  and  C13_20 
ROOT
HETATM    1  C7  UNL     1      14.381  12.723  31.301  1.00  0.00     0.051 A 
HETATM    2  C8  UNL     1      13.289  12.948  30.504  1.00  0.00     0.049 A 
HETATM    3  C9  UNL     1      13.005  12.215  29.368  1.00  0.00     0.047 A 
HETATM    4  N2  UNL     1      11.944  12.444  28.591  1.00  0.00    -0.322 N 
ATOM      5  H2  UNL     1      11.300  13.191  28.853  1.00  0.00     0.169 HD
HETATM    6  C10 UNL     1      11.688  11.745  27.492  1.00  0.00     0.255 A 
HETATM    7  O1  UNL     1      10.649  12.043  26.822  1.00  0.00    -0.268 OA
HETATM    8  C11 UNL     1      12.522  10.675  27.027  1.00  0.00     0.045 A 
HETATM    9  C15 UNL     1      13.582  10.448  27.829  1.00  0.00    -0.035 A 
HETATM   10  C16 UNL     1      14.434   9.251  27.691  1.00  0.00     0.050 C 
HETATM   11  C17 UNL     1      13.859  11.200  29.005  1.00  0.00     0.000 A 
HETATM   12  C18 UNL     1      14.957  10.948  29.780  1.00  0.00     0.057 A 
HETATM   13  C19 UNL     1      15.219  11.694  30.909  1.00  0.00     0.131 A 
HETATM   14  F1  UNL     1      16.314  11.461  31.691  1.00  0.00    -0.205 F 
ENDROOT
BRANCH   1  15
HETATM   15  C6  UNL     1      14.671  13.549  32.462  1.00  0.00     0.141 A 
HETATM   16  N1  UNL     1      14.673  13.202  33.756  1.00  0.00    -0.323 N 
HETATM   17  C5  UNL     1      15.059  14.270  34.482  1.00  0.00     0.148 A 
ATOM     18  H1  UNL     1      14.425  12.285  34.129  1.00  0.00     0.169 HD
HETATM   19  O3  UNL     1      15.289  15.251  33.650  1.00  0.00    -0.223 OA
HETATM   20  N3  UNL     1      15.066  14.861  32.442  1.00  0.00    -0.242 N 
ATOM     21  H3  UNL     1      15.169  15.436  31.605  1.00  0.00     0.196 HD
BRANCH  17  22
HETATM   22  C4  UNL     1      15.205  14.362  35.959  1.00  0.00     0.087 C 
BRANCH  22  23
HETATM   23  C3  UNL     1      14.098  15.204  36.521  1.00  0.00     0.008 C 
BRANCH  23  24
HETATM   24  C2  UNL     1      12.735  14.709  36.092  1.00  0.00    -0.004 C 
HETATM   25  C1  UNL     1      12.006  13.990  37.188  1.00  0.00     0.005 C 
ENDBRANCH  23  24
ENDBRANCH  22  23
ENDBRANCH  17  22
ENDBRANCH   1  15
BRANCH   8  26
HETATM   26  C12 UNL     1      12.073   9.978  25.859  1.00  0.00     0.157 C 
BRANCH  26  27
HETATM   27  O2  UNL     1      11.168   8.905  26.296  1.00  0.00    -0.391 OA
ATOM     28  H2  UNL     1      10.728   8.565  25.527  1.00  0.00     0.210 HD
ENDBRANCH  26  27
BRANCH  26  29
HETATM   29  C13 UNL     1      12.888   9.390  24.815  1.00  0.00     0.032 C 
HETATM   30  C14 UNL     1      13.987   9.937  24.067  1.00  0.00     0.008 C 
ENDBRANCH  26  29
ENDBRANCH   8  26
TORSDOF 7
ENDMDL
MODEL 2
REMARK VINA RESULT: -7.355111507      0.805      1.049
REMARK  7 active torsions:
REMARK  status: ('A' for Active; 'I' for Inactive)
REMARK    1  A    between atoms: C2_2  and  C3_3 
REMARK    2  A    between atoms: C3_3  and  C4_4 
REMARK    3  A    between atoms: C4_4  and  C5_5 
REMARK    4  A    between atoms: C6_8  and  C7_9 
REMARK    5  A    between atoms: C11_16  and  C12_17 
REMARK    6  A    between atoms: C12_17  and  O2_18 
REMARK    7  A    between atoms: C12_17  and  C13_20 
ROOT
HETATM    1  C7  UNL     1      14.436  12.712  31.424  1.00  0.00     0.051 A 
HETATM    2  C8  UNL     1      13.329  12.924  30.645  1.00  0.00     0.049 A 
HETATM    3  C9  UNL     1      13.045  12.201  29.502  1.00  0.00     0.047 A 
HETATM    4  N2  UNL     1      11.969  12.417  28.742  1.00  0.00    -0.322 N 
ATOM      5  H2  UNL     1      11.313  13.146  29.023  1.00  0.00     0.169 HD
HETATM    6  C10 UNL     1      11.713  11.728  27.637  1.00  0.00     0.255 A 
HETATM    7  O1  UNL     1      10.660  12.012  26.984  1.00  0.00    -0.268 OA
HETATM    8  C11 UNL     1      12.564  10.683  27.145  1.00  0.00     0.045 A 
HETATM    9  C15 UNL     1      13.640  10.468  27.930  1.00  0.00    -0.035 A 
HETATM   10  C16 UNL     1      14.516   9.292  27.765  1.00  0.00     0.050 C 
HETATM   11  C17 UNL     1      13.916  11.210  29.113  1.00  0.00     0.000 A 
HETATM   12  C18 UNL     1      15.030  10.971  29.870  1.00  0.00     0.057 A 
HETATM   13  C19 UNL     1      15.290  11.707  31.006  1.00  0.00     0.131 A 
HETATM   14  F1  UNL     1      16.401  11.487  31.770  1.00  0.00    -0.205 F 
ENDROOT
BRANCH   1  15
HETATM   15  C6  UNL     1      14.722  13.528  32.593  1.00  0.00     0.141 A 
HETATM   16  N1  UNL     1      14.714  13.172  33.884  1.00  0.00    -0.323 N 
HETATM   17  C5  UNL     1      15.102  14.233  34.620  1.00  0.00     0.148 A 
ATOM     18  H1  UNL     1      14.457  12.254  34.249  1.00  0.00     0.169 HD
HETATM   19  O3  UNL     1      15.344  15.218  33.796  1.00  0.00    -0.223 OA
HETATM   20  N3  UNL     1      15.127  14.837  32.584  1.00  0.00    -0.242 N 
ATOM     21  H3  UNL     1      15.239  15.417  31.752  1.00  0.00     0.196 HD
BRANCH  17  22
HETATM   22  C4  UNL     1      15.238  14.314  36.098  1.00  0.00     0.087 C 
BRANCH  22  23
HETATM   23  C3  UNL     1      14.146  15.177  36.656  1.00  0.00     0.008 C 
BRANCH  23  24
HETATM   24  C2  UNL     1      12.775  14.716  36.212  1.00  0.00    -0.004 C 
HETATM   25  C1  UNL     1      12.019  14.010  37.297  1.00  0.00     0.005 C 
ENDBRANCH  23  24
ENDBRANCH  22  23
ENDBRANCH  17  22
ENDBRANCH   1  15
BRANCH   8  26
HETATM   26  C12 UNL     1      12.115   9.993  25.974  1.00  0.00     0.157 C 
BRANCH  26  27
HETATM   27  O2  UNL     1      12.008  10.976  24.886  1.00  0.00    -0.391 OA
ATOM     28  H2  UNL     1      11.219  10.781  24.395  1.00  0.00     0.210 HD
ENDBRANCH  26  27
BRANCH  26  29
HETATM   29  C13 UNL     1      10.945   9.147  25.842  1.00  0.00     0.032 C 
HETATM   30  C14 UNL     1      10.815   7.799  25.359  1.00  0.00     0.008 C 
ENDBRANCH  26  29
ENDBRANCH   8  26
TORSDOF 7
ENDMDL
MODEL 3
REMARK VINA RESULT: -7.304978839      0.973      1.025
REMARK  7 active torsions:
REMARK  status: ('A' for Active; 'I' for Inactive)
REMARK    1  A    between atoms: C2_2  and  C3_3 
REMARK    2  A    between atoms: C3_3  and  C4_4 
REMARK    3  A    between atoms: C4_4  and  C5_5 
REMARK    4  A    between atoms: C6_8  and  C7_9 
REMARK    5  A    between atoms: C11_16  and  C12_17 
REMARK    6  A    between atoms: C12_17  and  O2_18 
REMARK    7  A    between atoms: C12_17  and  C13_20 
ROOT
HETATM    1  C7  UNL     1      13.937  12.810  30.466  1.00  0.00     0.051 A 
HETATM    2  C8  UNL     1      12.818  12.964  29.690  1.00  0.00     0.049 A 
HETATM    3  C9  UNL     1      12.458  12.089  28.682  1.00  0.00     0.047 A 
HETATM    4  N2  UNL     1      11.371  12.248  27.924  1.00  0.00    -0.322 N 
ATOM      5  H2  UNL     1      10.765  13.049  28.103  1.00  0.00     0.169 HD
HETATM    6  C10 UNL     1      11.042  11.412  26.947  1.00  0.00     0.255 A 
HETATM    7  O1  UNL     1       9.985  11.653  26.283  1.00  0.00    -0.268 OA
HETATM    8  C11 UNL     1      11.819  10.256  26.605  1.00  0.00     0.045 A 
HETATM    9  C15 UNL     1      12.907  10.102  27.388  1.00  0.00    -0.035 A 
HETATM   10  C16 UNL     1      13.712   8.865  27.387  1.00  0.00     0.050 C 
HETATM   11  C17 UNL     1      13.261  11.001  28.433  1.00  0.00     0.000 A 
HETATM   12  C18 UNL     1      14.385  10.817  29.191  1.00  0.00     0.057 A 
HETATM   13  C19 UNL     1      14.722  11.705  30.191  1.00  0.00     0.131 A 
HETATM   14  F1  UNL     1      15.843  11.540  30.953  1.00  0.00    -0.205 F 
ENDROOT
BRANCH   1  15
HETATM   15  C6  UNL     1      14.306  13.779  31.485  1.00  0.00     0.141 A 
HETATM   16  N1  UNL     1      14.319  13.629  32.816  1.00  0.00    -0.323 N 
HETATM   17  C5  UNL     1      14.789  14.767  33.368  1.00  0.00     0.148 A 
ATOM     18  H1  UNL     1      14.023  12.797  33.327  1.00  0.00     0.169 HD
HETATM   19  O3  UNL     1      15.059  15.595  32.394  1.00  0.00    -0.223 OA
HETATM   20  N3  UNL     1      14.783  15.044  31.262  1.00  0.00    -0.242 N 
ATOM     21  H3  UNL     1      14.901  15.480  30.347  1.00  0.00     0.196 HD
BRANCH  17  22
HETATM   22  C4  UNL     1      14.976  15.068  34.811  1.00  0.00     0.087 C 
BRANCH  22  23
HETATM   23  C3  UNL     1      14.109  14.159  35.630  1.00  0.00     0.008 C 
BRANCH  23  24
HETATM   24  C2  UNL     1      12.790  14.805  35.990  1.00  0.00    -0.004 C 
HETATM   25  C1  UNL     1      12.043  14.052  37.050  1.00  0.00     0.005 C 
ENDBRANCH  23  24
ENDBRANCH  22  23
ENDBRANCH  17  22
ENDBRANCH   1  15
BRANCH   8  26
HETATM   26  C12 UNL     1      11.295   9.420  25.567  1.00  0.00     0.157 C 
BRANCH  26  27
HETATM   27  O2  UNL     1      10.250   8.570  26.159  1.00  0.00    -0.391 OA
ATOM     28  H2  UNL     1      10.284   7.725  25.727  1.00  0.00     0.210 HD
ENDBRANCH  26  27
BRANCH  26  29
HETATM   29  C13 UNL     1      12.036   8.550  24.676  1.00  0.00     0.032 C 
HETATM   30  C14 UNL     1      12.926   8.862  23.591  1.00  0.00     0.008 C 
ENDBRANCH  26  29
ENDBRANCH   8  26
TORSDOF 7
ENDMDL
MODEL 4
REMARK VINA RESULT: -7.265757749      2.372      9.113
REMARK  7 active torsions:
REMARK  status: ('A' for Active; 'I' for Inactive)
REMARK    1  A    between atoms: C2_2  and  C3_3 
REMARK    2  A    between atoms: C3_3  and  C4_4 
REMARK    3  A    between atoms: C4_4  and  C5_5 
REMARK    4  A    between atoms: C6_8  and  C7_9 
REMARK    5  A    between atoms: C11_16  and  C12_17 
REMARK    6  A    between atoms: C12_17  and  O2_18 
REMARK    7  A    between atoms: C12_17  and  C13_20 
ROOT
HETATM    1  C7  UNL     1      13.236  10.192  27.397  1.00  0.00     0.051 A 
HETATM    2  C8  UNL     1      12.648  11.318  27.910  1.00  0.00     0.049 A 
HETATM    3  C9  UNL     1      13.091  11.963  29.049  1.00  0.00     0.047 A 
HETATM    4  N2  UNL     1      12.510  13.056  29.550  1.00  0.00    -0.322 N 
ATOM      5  H2  UNL     1      11.703  13.445  29.062  1.00  0.00     0.169 HD
HETATM    6  C10 UNL     1      12.932  13.659  30.654  1.00  0.00     0.255 A 
HETATM    7  O1  UNL     1      12.308  14.694  31.047  1.00  0.00    -0.268 OA
HETATM    8  C11 UNL     1      14.053  13.200  31.422  1.00  0.00     0.045 A 
HETATM    9  C15 UNL     1      14.637  12.103  30.898  1.00  0.00    -0.035 A 
HETATM   10  C16 UNL     1      15.942  11.601  31.369  1.00  0.00     0.050 C 
HETATM   11  C17 UNL     1      14.181  11.454  29.716  1.00  0.00     0.000 A 
HETATM   12  C18 UNL     1      14.793  10.332  29.228  1.00  0.00     0.057 A 
HETATM   13  C19 UNL     1      14.331   9.708  28.089  1.00  0.00     0.131 A 
HETATM   14  F1  UNL     1      14.925   8.583  27.592  1.00  0.00    -0.205 F 
ENDROOT
BRANCH   1  15
HETATM   15  C6  UNL     1      12.710   9.516  26.222  1.00  0.00     0.141 A 
HETATM   16  N1  UNL     1      13.186   9.523  24.969  1.00  0.00    -0.323 N 
HETATM   17  C5  UNL     1      12.417   8.708  24.218  1.00  0.00     0.148 A 
ATOM     18  H1  UNL     1      13.992  10.054  24.640  1.00  0.00     0.169 HD
HETATM   19  O3  UNL     1      11.490   8.213  24.995  1.00  0.00    -0.223 OA
HETATM   20  N3  UNL     1      11.631   8.672  26.192  1.00  0.00    -0.242 N 
ATOM     21  H3  UNL     1      11.035   8.443  26.987  1.00  0.00     0.196 HD
BRANCH  17  22
HETATM   22  C4  UNL     1      12.558   8.405  22.770  1.00  0.00     0.087 C 
BRANCH  22  23
HETATM   23  C3  UNL     1      13.978   8.634  22.345  1.00  0.00     0.008 C 
BRANCH  23  24
HETATM   24  C2  UNL     1      14.312   7.902  21.064  1.00  0.00    -0.004 C 
HETATM   25  C1  UNL     1      13.432   6.713  20.827  1.00  0.00     0.005 C 
ENDBRANCH  23  24
ENDBRANCH  22  23
ENDBRANCH  17  22
ENDBRANCH   1  15
BRANCH   8  26
HETATM   26  C12 UNL     1      14.421  13.998  32.553  1.00  0.00     0.157 C 
BRANCH  26  27
HETATM   27  O2  UNL     1      15.216  15.133  32.062  1.00  0.00    -0.391 OA
ATOM     28  H2  UNL     1      16.018  15.167  32.569  1.00  0.00     0.210 HD
ENDBRANCH  26  27
BRANCH  26  29
HETATM   29  C13 UNL     1      15.086  13.559  33.764  1.00  0.00     0.032 C 
HETATM   30  C14 UNL     1      15.441  14.287  34.952  1.00  0.00     0.008 C 
ENDBRANCH  26  29
ENDBRANCH   8  26
TORSDOF 7
ENDMDL
MODEL 5
REMARK VINA RESULT: -7.181660564      1.676      2.159
REMARK  7 active torsions:
REMARK  status: ('A' for Active; 'I' for Inactive)
REMARK    1  A    between atoms: C2_2  and  C3_3 
REMARK    2  A    between atoms: C3_3  and  C4_4 
REMARK    3  A    between atoms: C4_4  and  C5_5 
REMARK    4  A    between atoms: C6_8  and  C7_9 
REMARK    5  A    between atoms: C11_16  and  C12_17 
REMARK    6  A    between atoms: C12_17  and  O2_18 
REMARK    7  A    between atoms: C12_17  and  C13_20 
ROOT
HETATM    1  C7  UNL     1      14.054  12.996  31.147  1.00  0.00     0.051 A 
HETATM    2  C8  UNL     1      12.994  13.167  30.296  1.00  0.00     0.049 A 
HETATM    3  C9  UNL     1      12.757  12.368  29.194  1.00  0.00     0.047 A 
HETATM    4  N2  UNL     1      11.727  12.544  28.363  1.00  0.00    -0.322 N 
ATOM      5  H2  UNL     1      11.070  13.301  28.556  1.00  0.00     0.169 HD
HETATM    6  C10 UNL     1      11.518  11.781  27.298  1.00  0.00     0.255 A 
HETATM    7  O1  UNL     1      10.506  12.033  26.571  1.00  0.00    -0.268 OA
HETATM    8  C11 UNL     1      12.374  10.692  26.928  1.00  0.00     0.045 A 
HETATM    9  C15 UNL     1      13.403  10.518  27.783  1.00  0.00    -0.035 A 
HETATM   10  C16 UNL     1      14.265   9.321  27.749  1.00  0.00     0.050 C 
HETATM   11  C17 UNL     1      13.630  11.339  28.924  1.00  0.00     0.000 A 
HETATM   12  C18 UNL     1      14.697  11.139  29.755  1.00  0.00     0.057 A 
HETATM   13  C19 UNL     1      14.910  11.951  30.848  1.00  0.00     0.131 A 
HETATM   14  F1  UNL     1      15.975  11.770  31.685  1.00  0.00    -0.205 F 
ENDROOT
BRANCH   1  15
HETATM   15  C6  UNL     1      14.293  13.889  32.269  1.00  0.00     0.141 A 
HETATM   16  N1  UNL     1      15.119  14.941  32.339  1.00  0.00    -0.323 N 
HETATM   17  C5  UNL     1      14.974  15.515  33.550  1.00  0.00     0.148 A 
ATOM     18  H1  UNL     1      15.751  15.255  31.601  1.00  0.00     0.169 HD
HETATM   19  O3  UNL     1      14.077  14.829  34.208  1.00  0.00    -0.223 OA
HETATM   20  N3  UNL     1      13.652  13.854  33.479  1.00  0.00    -0.242 N 
ATOM     21  H3  UNL     1      12.951  13.168  33.759  1.00  0.00     0.196 HD
BRANCH  17  22
HETATM   22  C4  UNL     1      15.686  16.707  34.083  1.00  0.00     0.087 C 
BRANCH  22  23
HETATM   23  C3  UNL     1      14.689  17.774  34.427  1.00  0.00     0.008 C 
BRANCH  23  24
HETATM   24  C2  UNL     1      15.326  19.144  34.500  1.00  0.00    -0.004 C 
HETATM   25  C1  UNL     1      16.824  19.087  34.545  1.00  0.00     0.005 C 
ENDBRANCH  23  24
ENDBRANCH  22  23
ENDBRANCH  17  22
ENDBRANCH   1  15
BRANCH   8  26
HETATM   26  C12 UNL     1      11.975   9.926  25.786  1.00  0.00     0.157 C 
BRANCH  26  27
HETATM   27  O2  UNL     1      11.050   8.881  26.248  1.00  0.00    -0.391 OA
ATOM     28  H2  UNL     1      11.527   8.311  26.839  1.00  0.00     0.210 HD
ENDBRANCH  26  27
BRANCH  26  29
HETATM   29  C13 UNL     1      12.834   9.276  24.816  1.00  0.00     0.032 C 
HETATM   30  C14 UNL     1      13.881   9.810  23.988  1.00  0.00     0.008 C 
ENDBRANCH  26  29
ENDBRANCH   8  26
TORSDOF 7
ENDMDL
