MODEL 1
REMARK VINA RESULT: -8.136156379      0.000      0.000
REMARK  6 active torsions:
REMARK  status: ('A' for Active; 'I' for Inactive)
REMARK    1  A    between atoms: C2_2  and  C3_3 
REMARK    2  A    between atoms: C2_2  and  C13_15 
REMARK    3  A    between atoms: C3_3  and  C4_4 
REMARK    4  A    between atoms: C19_22  and  S1_23 
REMARK    5  A    between atoms: S1_23  and  N2_26 
REMARK    6  A    between atoms: N2_26  and  C20_28 
ROOT
HETATM    1  C13 UNL     1       2.056  22.331   2.484  1.00  0.00    -0.027 A 
HETATM    2  C14 UNL     1       0.962  22.785   3.195  1.00  0.00     0.011 A 
HETATM    3  C15 UNL     1       0.776  22.470   4.501  1.00  0.00     0.023 A 
HETATM    4  C16 UNL     1       1.673  21.676   5.186  1.00  0.00     0.046 A 
HETATM    5  C17 UNL     1       1.485  21.330   6.586  1.00  0.00     0.099 C 
HETATM    6  N1  UNL     1       1.341  21.044   7.697  1.00  0.00    -0.191 NA
HETATM    7  C18 UNL     1       2.752  21.230   4.480  1.00  0.00     0.048 A 
HETATM    8  C19 UNL     1       2.974  21.536   3.139  1.00  0.00     0.087 A 
ENDROOT
BRANCH   8   9
HETATM    9  S1  UNL     1       4.407  20.886   2.367  1.00  0.00     0.259 S 
HETATM   10  O1  UNL     1       5.433  21.879   1.991  1.00  0.00    -0.201 OA
HETATM   11  O2  UNL     1       4.081  19.890   1.278  1.00  0.00    -0.201 OA
BRANCH   9  12
HETATM   12  N2  UNL     1       5.208  19.856   3.566  1.00  0.00    -0.309 N 
ATOM     13  H2  UNL     1       4.711  19.211   4.181  1.00  0.00     0.172 HD
BRANCH  12  14
HETATM   14  C20 UNL     1       6.623  20.026   3.578  1.00  0.00     0.123 C 
HETATM   15  C21 UNL     1       7.187  19.017   2.494  1.00  0.00     0.029 C 
HETATM   16  C22 UNL     1       8.675  19.047   2.516  1.00  0.00     0.029 C 
HETATM   17  C23 UNL     1       9.188  20.106   3.457  1.00  0.00     0.233 C 
HETATM   18  N3  UNL     1       8.717  19.915   4.795  1.00  0.00    -0.069 N 
HETATM   19  C24 UNL     1       7.282  19.701   4.872  1.00  0.00     0.205 C 
ATOM     20  H32 UNL     1       9.222  19.156   5.252  1.00  0.00     0.277 HD
ATOM     21  H31 UNL     1       9.001  20.690   5.393  1.00  0.00     0.277 HD
HETATM   22  C25 UNL     1       6.983  18.242   5.224  1.00  0.00     0.042 C 
ENDBRANCH  12  14
ENDBRANCH   9  12
ENDBRANCH   8   9
BRANCH   1  23
HETATM   23  C2  UNL     1       2.175  22.703   1.035  1.00  0.00     0.039 C 
HETATM   24  C1  UNL     1       2.861  24.064   0.961  1.00  0.00     0.019 C 
BRANCH  23  25
HETATM   25  C3  UNL     1       1.019  22.533   0.199  1.00  0.00    -0.009 C 
BRANCH  25  26
HETATM   26  C4  UNL     1       0.852  21.713  -1.010  1.00  0.00    -0.012 C 
HETATM   27  C5  UNL     1       1.896  21.825  -2.080  1.00  0.00     0.040 C 
HETATM   28  C6  UNL     1       1.541  22.318  -3.416  1.00  0.00     0.004 C 
HETATM   29  C7  UNL     1       1.886  21.378  -4.566  1.00  0.00     0.000 C 
HETATM   30  C8  UNL     1       0.668  20.984  -5.367  1.00  0.00     0.000 C 
HETATM   31  C9  UNL     1      -0.027  19.784  -4.762  1.00  0.00     0.000 C 
HETATM   32  C10 UNL     1      -1.001  20.264  -3.707  1.00  0.00     0.006 C 
HETATM   33  C11 UNL     1      -0.361  20.082  -2.374  1.00  0.00     0.084 C 
HETATM   34  C12 UNL     1      -0.514  21.316  -1.458  1.00  0.00     0.267 C 
HETATM   35  F1  UNL     1      -1.188  20.840  -0.344  1.00  0.00    -0.201 F 
HETATM   36  F2  UNL     1      -1.315  22.162  -2.081  1.00  0.00    -0.201 F 
ENDBRANCH  25  26
ENDBRANCH  23  25
ENDBRANCH   1  23
TORSDOF 6
ENDMDL
MODEL 2
REMARK VINA RESULT: -8.052987769      1.030      1.498
REMARK  6 active torsions:
REMARK  status: ('A' for Active; 'I' for Inactive)
REMARK    1  A    between atoms: C2_2  and  C3_3 
REMARK    2  A    between atoms: C2_2  and  C13_15 
REMARK    3  A    between atoms: C3_3  and  C4_4 
REMARK    4  A    between atoms: C19_22  and  S1_23 
REMARK    5  A    between atoms: S1_23  and  N2_26 
REMARK    6  A    between atoms: N2_26  and  C20_28 
ROOT
HETATM    1  C13 UNL     1       2.174  22.376   2.400  1.00  0.00    -0.027 A 
HETATM    2  C14 UNL     1       1.443  23.287   3.139  1.00  0.00     0.011 A 
HETATM    3  C15 UNL     1       1.123  23.063   4.438  1.00  0.00     0.023 A 
HETATM    4  C16 UNL     1       1.513  21.909   5.087  1.00  0.00     0.046 A 
HETATM    5  C17 UNL     1       1.176  21.657   6.480  1.00  0.00     0.099 C 
HETATM    6  N1  UNL     1       0.907  21.444   7.584  1.00  0.00    -0.191 NA
HETATM    7  C18 UNL     1       2.234  21.013   4.355  1.00  0.00     0.048 A 
HETATM    8  C19 UNL     1       2.581  21.213   3.020  1.00  0.00     0.087 A 
ENDROOT
BRANCH   8   9
HETATM    9  S1  UNL     1       3.511  19.967   2.210  1.00  0.00     0.259 S 
HETATM   10  O1  UNL     1       3.145  19.714   0.802  1.00  0.00    -0.201 OA
HETATM   11  O2  UNL     1       3.659  18.716   3.045  1.00  0.00    -0.201 OA
BRANCH   9  12
HETATM   12  N2  UNL     1       5.184  20.547   2.136  1.00  0.00    -0.309 N 
ATOM     13  H2  UNL     1       5.483  21.341   1.569  1.00  0.00     0.172 HD
BRANCH  12  14
HETATM   14  C20 UNL     1       6.066  19.784   2.955  1.00  0.00     0.123 C 
HETATM   15  C21 UNL     1       6.820  20.836   3.870  1.00  0.00     0.029 C 
HETATM   16  C22 UNL     1       7.849  20.135   4.686  1.00  0.00     0.029 C 
HETATM   17  C23 UNL     1       7.776  18.642   4.494  1.00  0.00     0.233 C 
HETATM   18  N3  UNL     1       7.946  18.263   3.125  1.00  0.00    -0.069 N 
HETATM   19  C24 UNL     1       7.103  19.017   2.213  1.00  0.00     0.205 C 
ATOM     20  H32 UNL     1       8.926  18.327   2.850  1.00  0.00     0.277 HD
ATOM     21  H31 UNL     1       7.803  17.260   3.006  1.00  0.00     0.277 HD
HETATM   22  C25 UNL     1       7.950  19.996   1.397  1.00  0.00     0.042 C 
ENDBRANCH  12  14
ENDBRANCH   9  12
ENDBRANCH   8   9
BRANCH   1  23
HETATM   23  C2  UNL     1       2.463  22.687   0.961  1.00  0.00     0.039 C 
HETATM   24  C1  UNL     1       3.381  23.907   0.927  1.00  0.00     0.019 C 
BRANCH  23  25
HETATM   25  C3  UNL     1       1.361  22.701   0.040  1.00  0.00    -0.009 C 
BRANCH  25  26
HETATM   26  C4  UNL     1       1.067  21.795  -1.079  1.00  0.00    -0.012 C 
HETATM   27  C5  UNL     1       1.981  21.831  -2.267  1.00  0.00     0.040 C 
HETATM   28  C6  UNL     1       1.472  22.225  -3.586  1.00  0.00     0.004 C 
HETATM   29  C7  UNL     1       1.694  21.204  -4.697  1.00  0.00     0.000 C 
HETATM   30  C8  UNL     1       0.397  20.750  -5.323  1.00  0.00     0.000 C 
HETATM   31  C9  UNL     1      -0.212  19.595  -4.557  1.00  0.00     0.000 C 
HETATM   32  C10 UNL     1      -1.064  20.148  -3.436  1.00  0.00     0.006 C 
HETATM   33  C11 UNL     1      -0.276  20.065  -2.175  1.00  0.00     0.084 C 
HETATM   34  C12 UNL     1      -0.336  21.363  -1.339  1.00  0.00     0.267 C 
HETATM   35  F1  UNL     1      -0.874  20.968  -0.124  1.00  0.00    -0.201 F 
HETATM   36  F2  UNL     1      -1.212  22.159  -1.926  1.00  0.00    -0.201 F 
ENDBRANCH  25  26
ENDBRANCH  23  25
ENDBRANCH   1  23
TORSDOF 6
ENDMDL
MODEL 3
REMARK VINA RESULT: -7.929532653      1.193      1.422
REMARK  6 active torsions:
REMARK  status: ('A' for Active; 'I' for Inactive)
REMARK    1  A    between atoms: C2_2  and  C3_3 
REMARK    2  A    between atoms: C2_2  and  C13_15 
REMARK    3  A    between atoms: C3_3  and  C4_4 
REMARK    4  A    between atoms: C19_22  and  S1_23 
REMARK    5  A    between atoms: S1_23  and  N2_26 
REMARK    6  A    between atoms: N2_26  and  C20_28 
ROOT
HETATM    1  C13 UNL     1       1.769  22.183   2.576  1.00  0.00    -0.027 A 
HETATM    2  C14 UNL     1       1.124  23.154   3.317  1.00  0.00     0.011 A 
HETATM    3  C15 UNL     1       0.945  23.030   4.656  1.00  0.00     0.023 A 
HETATM    4  C16 UNL     1       1.400  21.925   5.345  1.00  0.00     0.046 A 
HETATM    5  C17 UNL     1       1.214  21.780   6.781  1.00  0.00     0.099 C 
HETATM    6  N1  UNL     1       1.065  21.652   7.920  1.00  0.00    -0.191 NA
HETATM    7  C18 UNL     1       2.037  20.969   4.609  1.00  0.00     0.048 A 
HETATM    8  C19 UNL     1       2.239  21.066   3.233  1.00  0.00     0.087 A 
ENDROOT
BRANCH   8   9
HETATM    9  S1  UNL     1       3.074  19.754   2.425  1.00  0.00     0.259 S 
HETATM   10  O1  UNL     1       3.494  20.027   1.036  1.00  0.00    -0.201 OA
HETATM   11  O2  UNL     1       2.385  18.421   2.612  1.00  0.00    -0.201 OA
BRANCH   9  12
HETATM   12  N2  UNL     1       4.592  19.498   3.304  1.00  0.00    -0.309 N 
ATOM     13  H2  UNL     1       4.647  19.379   4.316  1.00  0.00     0.172 HD
BRANCH  12  14
HETATM   14  C20 UNL     1       5.727  19.476   2.443  1.00  0.00     0.123 C 
HETATM   15  C21 UNL     1       6.705  18.385   3.048  1.00  0.00     0.029 C 
HETATM   16  C22 UNL     1       7.975  18.372   2.271  1.00  0.00     0.029 C 
HETATM   17  C23 UNL     1       7.899  19.295   1.083  1.00  0.00     0.233 C 
HETATM   18  N3  UNL     1       7.612  20.644   1.463  1.00  0.00    -0.069 N 
HETATM   19  C24 UNL     1       6.483  20.756   2.370  1.00  0.00     0.205 C 
ATOM     20  H32 UNL     1       8.439  21.094   1.855  1.00  0.00     0.277 HD
ATOM     21  H31 UNL     1       7.476  21.232   0.640  1.00  0.00     0.277 HD
HETATM   22  C25 UNL     1       6.966  21.123   3.774  1.00  0.00     0.042 C 
ENDBRANCH  12  14
ENDBRANCH   9  12
ENDBRANCH   8   9
BRANCH   1  23
HETATM   23  C2  UNL     1       1.903  22.384   1.094  1.00  0.00     0.039 C 
HETATM   24  C1  UNL     1       2.654  23.694   0.870  1.00  0.00     0.019 C 
BRANCH  23  25
HETATM   25  C3  UNL     1       0.739  22.176   0.279  1.00  0.00    -0.009 C 
BRANCH  25  26
HETATM   26  C4  UNL     1       0.615  21.494  -1.017  1.00  0.00    -0.012 C 
HETATM   27  C5  UNL     1       1.770  21.585  -1.969  1.00  0.00     0.040 C 
HETATM   28  C6  UNL     1       1.607  22.235  -3.275  1.00  0.00     0.004 C 
HETATM   29  C7  UNL     1       1.971  21.370  -4.478  1.00  0.00     0.000 C 
HETATM   30  C8  UNL     1       0.809  21.189  -5.423  1.00  0.00     0.000 C 
HETATM   31  C9  UNL     1      -0.064  20.023  -5.011  1.00  0.00     0.000 C 
HETATM   32  C10 UNL     1      -1.087  20.511  -4.008  1.00  0.00     0.006 C 
HETATM   33  C11 UNL     1      -0.610  20.138  -2.646  1.00  0.00     0.084 C 
HETATM   34  C12 UNL     1      -0.730  21.294  -1.628  1.00  0.00     0.267 C 
HETATM   35  F1  UNL     1      -1.560  20.796  -0.635  1.00  0.00    -0.201 F 
HETATM   36  F2  UNL     1      -1.372  22.277  -2.234  1.00  0.00    -0.201 F 
ENDBRANCH  25  26
ENDBRANCH  23  25
ENDBRANCH   1  23
TORSDOF 6
ENDMDL
MODEL 4
REMARK VINA RESULT: -7.837457916      3.419      7.611
REMARK  6 active torsions:
REMARK  status: ('A' for Active; 'I' for Inactive)
REMARK    1  A    between atoms: C2_2  and  C3_3 
REMARK    2  A    between atoms: C2_2  and  C13_15 
REMARK    3  A    between atoms: C3_3  and  C4_4 
REMARK    4  A    between atoms: C19_22  and  S1_23 
REMARK    5  A    between atoms: S1_23  and  N2_26 
REMARK    6  A    between atoms: N2_26  and  C20_28 
ROOT
HETATM    1  C13 UNL     1       2.072  21.666   3.560  1.00  0.00    -0.027 A 
HETATM    2  C14 UNL     1       1.260  21.584   4.675  1.00  0.00     0.011 A 
HETATM    3  C15 UNL     1       0.444  22.604   5.041  1.00  0.00     0.023 A 
HETATM    4  C16 UNL     1       0.384  23.776   4.316  1.00  0.00     0.046 A 
HETATM    5  C17 UNL     1      -0.487  24.877   4.699  1.00  0.00     0.099 C 
HETATM    6  N1  UNL     1      -1.171  25.759   4.998  1.00  0.00    -0.191 NA
HETATM    7  C18 UNL     1       1.186  23.852   3.216  1.00  0.00     0.048 A 
HETATM    8  C19 UNL     1       2.035  22.823   2.810  1.00  0.00     0.087 A 
ENDROOT
BRANCH   8   9
HETATM    9  S1  UNL     1       3.008  23.070   1.373  1.00  0.00     0.259 S 
HETATM   10  O1  UNL     1       4.469  23.010   1.577  1.00  0.00    -0.201 OA
HETATM   11  O2  UNL     1       2.545  24.252   0.552  1.00  0.00    -0.201 OA
BRANCH   9  12
HETATM   12  N2  UNL     1       2.658  21.717   0.283  1.00  0.00    -0.309 N 
ATOM     13  H2  UNL     1       3.048  20.782   0.398  1.00  0.00     0.172 HD
BRANCH  12  14
HETATM   14  C20 UNL     1       1.771  22.079  -0.773  1.00  0.00     0.123 C 
HETATM   15  C21 UNL     1       0.453  21.231  -0.537  1.00  0.00     0.029 C 
HETATM   16  C22 UNL     1      -0.493  21.463  -1.662  1.00  0.00     0.029 C 
HETATM   17  C23 UNL     1       0.025  22.518  -2.605  1.00  0.00     0.233 C 
HETATM   18  N3  UNL     1       1.303  22.177  -3.149  1.00  0.00    -0.069 N 
HETATM   19  C24 UNL     1       2.263  21.763  -2.141  1.00  0.00     0.205 C 
ATOM     20  H32 UNL     1       1.210  21.466  -3.875  1.00  0.00     0.277 HD
ATOM     21  H31 UNL     1       1.674  22.943  -3.712  1.00  0.00     0.277 HD
HETATM   22  C25 UNL     1       2.516  20.258  -2.237  1.00  0.00     0.042 C 
ENDBRANCH  12  14
ENDBRANCH   9  12
ENDBRANCH   8   9
BRANCH   1  23
HETATM   23  C2  UNL     1       2.966  20.504   3.237  1.00  0.00     0.039 C 
HETATM   24  C1  UNL     1       2.140  19.229   3.388  1.00  0.00     0.019 C 
BRANCH  23  25
HETATM   25  C3  UNL     1       4.277  20.480   3.824  1.00  0.00    -0.009 C 
BRANCH  25  26
HETATM   26  C4  UNL     1       5.564  20.105   3.221  1.00  0.00    -0.012 C 
HETATM   27  C5  UNL     1       5.675  18.746   2.600  1.00  0.00     0.040 C 
HETATM   28  C6  UNL     1       6.624  17.760   3.133  1.00  0.00     0.004 C 
HETATM   29  C7  UNL     1       7.625  17.212   2.120  1.00  0.00     0.000 C 
HETATM   30  C8  UNL     1       9.054  17.481   2.526  1.00  0.00     0.000 C 
HETATM   31  C9  UNL     1       9.516  18.843   2.054  1.00  0.00     0.000 C 
HETATM   32  C10 UNL     1       9.133  19.875   3.093  1.00  0.00     0.006 C 
HETATM   33  C11 UNL     1       7.895  20.560   2.626  1.00  0.00     0.084 C 
HETATM   34  C12 UNL     1       6.830  20.702   3.736  1.00  0.00     0.267 C 
HETATM   35  F1  UNL     1       6.623  22.069   3.844  1.00  0.00    -0.201 F 
HETATM   36  F2  UNL     1       7.386  20.289   4.861  1.00  0.00    -0.201 F 
ENDBRANCH  25  26
ENDBRANCH  23  25
ENDBRANCH   1  23
TORSDOF 6
ENDMDL
MODEL 5
REMARK VINA RESULT: -7.790238860      1.110      1.655
REMARK  6 active torsions:
REMARK  status: ('A' for Active; 'I' for Inactive)
REMARK    1  A    between atoms: C2_2  and  C3_3 
REMARK    2  A    between atoms: C2_2  and  C13_15 
REMARK    3  A    between atoms: C3_3  and  C4_4 
REMARK    4  A    between atoms: C19_22  and  S1_23 
REMARK    5  A    between atoms: S1_23  and  N2_26 
REMARK    6  A    between atoms: N2_26  and  C20_28 
ROOT
HETATM    1  C13 UNL     1       1.851  22.289   2.716  1.00  0.00    -0.027 A 
HETATM    2  C14 UNL     1       0.777  22.723   3.468  1.00  0.00     0.011 A 
HETATM    3  C15 UNL     1       0.650  22.410   4.781  1.00  0.00     0.023 A 
HETATM    4  C16 UNL     1       1.591  21.639   5.433  1.00  0.00     0.046 A 
HETATM    5  C17 UNL     1       1.467  21.295   6.841  1.00  0.00     0.099 C 
HETATM    6  N1  UNL     1       1.373  21.011   7.958  1.00  0.00    -0.191 NA
HETATM    7  C18 UNL     1       2.650  21.212   4.686  1.00  0.00     0.048 A 
HETATM    8  C19 UNL     1       2.812  21.517   3.336  1.00  0.00     0.087 A 
ENDROOT
BRANCH   8   9
HETATM    9  S1  UNL     1       4.227  20.894   2.510  1.00  0.00     0.259 S 
HETATM   10  O1  UNL     1       5.212  21.908   2.084  1.00  0.00    -0.201 OA
HETATM   11  O2  UNL     1       3.879  19.881   1.443  1.00  0.00    -0.201 OA
BRANCH   9  12
HETATM   12  N2  UNL     1       5.101  19.893   3.682  1.00  0.00    -0.309 N 
ATOM     13  H2  UNL     1       4.642  19.279   4.356  1.00  0.00     0.172 HD
BRANCH  12  14
HETATM   14  C20 UNL     1       6.515  20.038   3.580  1.00  0.00     0.123 C 
HETATM   15  C21 UNL     1       6.973  19.013   2.461  1.00  0.00     0.029 C 
HETATM   16  C22 UNL     1       8.458  19.016   2.364  1.00  0.00     0.029 C 
HETATM   17  C23 UNL     1       9.063  20.070   3.255  1.00  0.00     0.233 C 
HETATM   18  N3  UNL     1       8.697  19.894   4.627  1.00  0.00    -0.069 N 
HETATM   19  C24 UNL     1       7.269  19.707   4.820  1.00  0.00     0.205 C 
ATOM     20  H32 UNL     1       9.224  19.129   5.047  1.00  0.00     0.277 HD
ATOM     21  H31 UNL     1       9.042  20.667   5.196  1.00  0.00     0.277 HD
HETATM   22  C25 UNL     1       6.974  18.256   5.203  1.00  0.00     0.042 C 
ENDBRANCH  12  14
ENDBRANCH   9  12
ENDBRANCH   8   9
BRANCH   1  23
HETATM   23  C2  UNL     1       1.904  22.657   1.261  1.00  0.00     0.039 C 
HETATM   24  C1  UNL     1       2.126  24.165   1.173  1.00  0.00     0.019 C 
BRANCH  23  25
HETATM   25  C3  UNL     1       0.896  22.115   0.393  1.00  0.00    -0.009 C 
BRANCH  25  26
HETATM   26  C4  UNL     1       0.910  21.955  -1.068  1.00  0.00    -0.012 C 
HETATM   27  C5  UNL     1      -0.397  22.053  -1.795  1.00  0.00     0.040 C 
HETATM   28  C6  UNL     1      -0.921  20.904  -2.542  1.00  0.00     0.004 C 
HETATM   29  C7  UNL     1      -1.219  21.170  -4.015  1.00  0.00     0.000 C 
HETATM   30  C8  UNL     1      -0.428  20.268  -4.930  1.00  0.00     0.000 C 
HETATM   31  C9  UNL     1       0.937  20.847  -5.233  1.00  0.00     0.000 C 
HETATM   32  C10 UNL     1       1.901  20.421  -4.146  1.00  0.00     0.006 C 
HETATM   33  C11 UNL     1       2.054  21.558  -3.196  1.00  0.00     0.084 C 
HETATM   34  C12 UNL     1       1.965  21.123  -1.717  1.00  0.00     0.267 C 
HETATM   35  F1  UNL     1       3.180  21.506  -1.169  1.00  0.00    -0.201 F 
HETATM   36  F2  UNL     1       1.916  19.803  -1.704  1.00  0.00    -0.201 F 
ENDBRANCH  25  26
ENDBRANCH  23  25
ENDBRANCH   1  23
TORSDOF 6
ENDMDL
