MODEL 1
REMARK VINA RESULT: -6.600468854      0.000      0.000
REMARK  7 active torsions:
REMARK  status: ('A' for Active; 'I' for Inactive)
REMARK    1  A    between atoms: C7_7  and  N1_8 
REMARK    2  A    between atoms: N1_8  and  C8_9 
REMARK    3  A    between atoms: C13_17  and  C14_18 
REMARK    4  A    between atoms: C17_25  and  O1_26 
REMARK    5  A    between atoms: O1_26  and  C18_27 
REMARK    6  A    between atoms: C18_27  and  C19_28 
REMARK    7  A    between atoms: C19_28  and  N5_29 
ROOT
HETATM    1  C8  UNL     1       0.843  23.385   3.443  1.00  0.00     0.159 A 
HETATM    2  C9  UNL     1       1.256  24.736   3.676  1.00  0.00     0.173 A 
HETATM    3  F1  UNL     1       0.912  25.266   4.855  1.00  0.00    -0.201 F 
HETATM    4  C10 UNL     1       1.940  25.385   2.699  1.00  0.00     0.134 A 
HETATM    5  N2  UNL     1       2.237  24.820   1.540  1.00  0.00    -0.362 N 
ATOM      6  H2  UNL     1       2.758  25.349   0.841  1.00  0.00     0.165 HD
HETATM    7  C11 UNL     1       1.855  23.540   1.266  1.00  0.00     0.046 A 
HETATM    8  C12 UNL     1       2.139  22.960   0.045  1.00  0.00     0.045 A 
HETATM    9  C13 UNL     1       1.733  21.688  -0.282  1.00  0.00     0.013 A 
HETATM   10  C17 UNL     1       0.986  20.921   0.643  1.00  0.00     0.081 A 
HETATM   11  C25 UNL     1       0.740  21.526   1.845  1.00  0.00     0.055 A 
HETATM   12  C26 UNL     1       1.150  22.792   2.191  1.00  0.00     0.037 A 
ENDROOT
BRANCH   1  13
HETATM   13  N1  UNL     1       0.484  22.704   4.366  1.00  0.00    -0.410 NA
BRANCH  13  14
HETATM   14  C7  UNL     1       0.109  21.953   5.384  1.00  0.00     0.064 C 
HETATM   15  C6  UNL     1       0.377  22.407   6.835  1.00  0.00     0.068 C 
HETATM   16  C5  UNL     1       1.100  21.226   7.512  1.00  0.00     0.007 C 
HETATM   17  C4  UNL     1       0.575  19.895   7.041  1.00  0.00     0.009 C 
HETATM   18  C2  UNL     1      -0.768  19.917   6.465  1.00  0.00    -0.042 C 
HETATM   19  C1  UNL     1      -1.752  19.878   7.647  1.00  0.00     0.015 C 
HETATM   20  C3  UNL     1      -0.964  18.583   5.721  1.00  0.00     0.015 C 
HETATM   21  C27 UNL     1      -1.106  21.060   5.508  1.00  0.00     0.076 C 
ENDBRANCH  13  14
ENDBRANCH   1  13
BRANCH  10  22
HETATM   22  O1  UNL     1       0.610  19.714   0.199  1.00  0.00    -0.349 OA
BRANCH  22  23
HETATM   23  C18 UNL     1      -0.492  18.951   0.073  1.00  0.00     0.195 C 
BRANCH  23  24
HETATM   24  C19 UNL     1      -0.486  18.455  -1.396  1.00  0.00     0.148 C 
BRANCH  24  25
HETATM   25  N5  UNL     1      -1.348  19.195  -2.195  1.00  0.00    -0.391 N 
HETATM   26  C20 UNL     1      -1.082  19.709  -3.453  1.00  0.00     0.058 C 
HETATM   27  C21 UNL     1      -1.322  21.190  -3.608  1.00  0.00     0.044 C 
HETATM   28  C22 UNL     1      -1.766  21.859  -2.327  1.00  0.00     0.007 C 
HETATM   29  C23 UNL     1      -2.940  21.078  -1.751  1.00  0.00     0.020 C 
HETATM   30  C24 UNL     1      -2.524  19.675  -1.472  1.00  0.00     0.122 C 
ENDBRANCH  24  25
ENDBRANCH  23  24
ENDBRANCH  22  23
ENDBRANCH  10  22
BRANCH   9  31
HETATM   31  C14 UNL     1       2.198  21.096  -1.541  1.00  0.00     0.011 A 
HETATM   32  C15 UNL     1       2.919  19.972  -1.799  1.00  0.00     0.120 A 
HETATM   33  N3  UNL     1       3.127  19.971  -3.141  1.00  0.00    -0.311 N 
HETATM   34  N4  UNL     1       2.570  21.023  -3.722  1.00  0.00    -0.311 N 
ATOM     35  H3  UNL     1       3.648  19.250  -3.640  1.00  0.00     0.186 HD
HETATM   36  C16 UNL     1       1.982  21.757  -2.780  1.00  0.00     0.120 A 
ATOM     37  H4  UNL     1       2.589  21.234  -4.720  1.00  0.00     0.186 HD
ENDBRANCH   9  31
TORSDOF 7
ENDMDL
MODEL 2
REMARK VINA RESULT: -6.480408673      5.099      7.116
REMARK  7 active torsions:
REMARK  status: ('A' for Active; 'I' for Inactive)
REMARK    1  A    between atoms: C7_7  and  N1_8 
REMARK    2  A    between atoms: N1_8  and  C8_9 
REMARK    3  A    between atoms: C13_17  and  C14_18 
REMARK    4  A    between atoms: C17_25  and  O1_26 
REMARK    5  A    between atoms: O1_26  and  C18_27 
REMARK    6  A    between atoms: C18_27  and  C19_28 
REMARK    7  A    between atoms: C19_28  and  N5_29 
ROOT
HETATM    1  C8  UNL     1       6.648  19.290   4.859  1.00  0.00     0.159 A 
HETATM    2  C9  UNL     1       8.053  19.533   4.739  1.00  0.00     0.173 A 
HETATM    3  F1  UNL     1       8.848  18.837   5.559  1.00  0.00    -0.201 F 
HETATM    4  C10 UNL     1       8.479  20.451   3.835  1.00  0.00     0.134 A 
HETATM    5  N2  UNL     1       7.647  21.131   3.061  1.00  0.00    -0.362 N 
ATOM      6  H2  UNL     1       8.020  21.805   2.393  1.00  0.00     0.165 HD
HETATM    7  C11 UNL     1       6.300  20.942   3.146  1.00  0.00     0.046 A 
HETATM    8  C12 UNL     1       5.430  21.672   2.360  1.00  0.00     0.045 A 
HETATM    9  C13 UNL     1       4.065  21.539   2.447  1.00  0.00     0.013 A 
HETATM   10  C17 UNL     1       3.497  20.635   3.376  1.00  0.00     0.081 A 
HETATM   11  C25 UNL     1       4.394  19.921   4.124  1.00  0.00     0.055 A 
HETATM   12  C26 UNL     1       5.761  20.034   4.038  1.00  0.00     0.037 A 
ENDROOT
BRANCH   1  13
HETATM   13  N1  UNL     1       6.260  18.312   5.441  1.00  0.00    -0.410 NA
BRANCH  13  14
HETATM   14  C7  UNL     1       5.843  17.227   6.065  1.00  0.00     0.064 C 
HETATM   15  C6  UNL     1       4.393  16.728   5.891  1.00  0.00     0.068 C 
HETATM   16  C5  UNL     1       3.837  16.559   7.317  1.00  0.00     0.007 C 
HETATM   17  C4  UNL     1       4.882  16.049   8.275  1.00  0.00     0.009 C 
HETATM   18  C2  UNL     1       6.012  15.355   7.663  1.00  0.00    -0.042 C 
HETATM   19  C1  UNL     1       5.551  13.909   7.407  1.00  0.00     0.015 C 
HETATM   20  C3  UNL     1       7.116  15.253   8.732  1.00  0.00     0.015 C 
HETATM   21  C27 UNL     1       6.616  15.969   6.399  1.00  0.00     0.076 C 
ENDBRANCH  13  14
ENDBRANCH   1  13
BRANCH  10  22
HETATM   22  O1  UNL     1       2.158  20.621   3.402  1.00  0.00    -0.349 OA
BRANCH  22  23
HETATM   23  C18 UNL     1       1.127  19.756   3.349  1.00  0.00     0.195 C 
BRANCH  23  24
HETATM   24  C19 UNL     1      -0.077  20.509   3.972  1.00  0.00     0.148 C 
BRANCH  24  25
HETATM   25  N5  UNL     1      -0.048  20.469   5.360  1.00  0.00    -0.391 N 
HETATM   26  C20 UNL     1       0.219  21.522   6.218  1.00  0.00     0.058 C 
HETATM   27  C21 UNL     1       1.323  21.277   7.216  1.00  0.00     0.044 C 
HETATM   28  C22 UNL     1       1.978  19.924   7.059  1.00  0.00     0.007 C 
HETATM   29  C23 UNL     1       0.892  18.856   7.031  1.00  0.00     0.020 C 
HETATM   30  C24 UNL     1      -0.032  19.106   5.890  1.00  0.00     0.122 C 
ENDBRANCH  24  25
ENDBRANCH  23  24
ENDBRANCH  22  23
ENDBRANCH  10  22
BRANCH   9  31
HETATM   31  C14 UNL     1       3.218  22.245   1.478  1.00  0.00     0.011 A 
HETATM   32  C15 UNL     1       2.646  21.838   0.314  1.00  0.00     0.120 A 
HETATM   33  N3  UNL     1       2.046  22.942  -0.203  1.00  0.00    -0.311 N 
HETATM   34  N4  UNL     1       2.211  23.998   0.578  1.00  0.00    -0.311 N 
ATOM     35  H3  UNL     1       1.533  22.956  -1.084  1.00  0.00     0.186 HD
HETATM   36  C16 UNL     1       2.932  23.627   1.635  1.00  0.00     0.120 A 
ATOM     37  H4  UNL     1       1.847  24.935   0.401  1.00  0.00     0.186 HD
ENDBRANCH   9  31
TORSDOF 7
ENDMDL
MODEL 3
REMARK VINA RESULT: -6.447820599      5.130      6.932
REMARK  7 active torsions:
REMARK  status: ('A' for Active; 'I' for Inactive)
REMARK    1  A    between atoms: C7_7  and  N1_8 
REMARK    2  A    between atoms: N1_8  and  C8_9 
REMARK    3  A    between atoms: C13_17  and  C14_18 
REMARK    4  A    between atoms: C17_25  and  O1_26 
REMARK    5  A    between atoms: O1_26  and  C18_27 
REMARK    6  A    between atoms: C18_27  and  C19_28 
REMARK    7  A    between atoms: C19_28  and  N5_29 
ROOT
HETATM    1  C8  UNL     1       6.708  19.327   4.827  1.00  0.00     0.159 A 
HETATM    2  C9  UNL     1       8.110  19.600   4.723  1.00  0.00     0.173 A 
HETATM    3  F1  UNL     1       8.911  18.911   5.543  1.00  0.00    -0.201 F 
HETATM    4  C10 UNL     1       8.525  20.535   3.831  1.00  0.00     0.134 A 
HETATM    5  N2  UNL     1       7.687  21.206   3.056  1.00  0.00    -0.362 N 
ATOM      6  H2  UNL     1       8.051  21.894   2.398  1.00  0.00     0.165 HD
HETATM    7  C11 UNL     1       6.343  20.989   3.127  1.00  0.00     0.046 A 
HETATM    8  C12 UNL     1       5.465  21.709   2.340  1.00  0.00     0.045 A 
HETATM    9  C13 UNL     1       4.102  21.549   2.414  1.00  0.00     0.013 A 
HETATM   10  C17 UNL     1       3.545  20.624   3.329  1.00  0.00     0.081 A 
HETATM   11  C25 UNL     1       4.449  19.920   4.078  1.00  0.00     0.055 A 
HETATM   12  C26 UNL     1       5.814  20.061   4.006  1.00  0.00     0.037 A 
ENDROOT
BRANCH   1  13
HETATM   13  N1  UNL     1       6.336  18.336   5.396  1.00  0.00    -0.410 NA
BRANCH  13  14
HETATM   14  C7  UNL     1       5.926  17.238   6.002  1.00  0.00     0.064 C 
HETATM   15  C6  UNL     1       4.495  16.704   5.779  1.00  0.00     0.068 C 
HETATM   16  C5  UNL     1       3.898  16.515   7.187  1.00  0.00     0.007 C 
HETATM   17  C4  UNL     1       4.924  16.026   8.176  1.00  0.00     0.009 C 
HETATM   18  C2  UNL     1       6.090  15.363   7.597  1.00  0.00    -0.042 C 
HETATM   19  C1  UNL     1       5.673  13.908   7.321  1.00  0.00     0.015 C 
HETATM   20  C3  UNL     1       7.162  15.283   8.700  1.00  0.00     0.015 C 
HETATM   21  C27 UNL     1       6.718  15.998   6.355  1.00  0.00     0.076 C 
ENDBRANCH  13  14
ENDBRANCH   1  13
BRANCH  10  22
HETATM   22  O1  UNL     1       2.206  20.583   3.342  1.00  0.00    -0.349 OA
BRANCH  22  23
HETATM   23  C18 UNL     1       1.181  20.388   4.195  1.00  0.00     0.195 C 
BRANCH  23  24
HETATM   24  C19 UNL     1       1.197  21.611   5.147  1.00  0.00     0.148 C 
BRANCH  24  25
HETATM   25  N5  UNL     1       0.308  22.596   4.736  1.00  0.00    -0.391 N 
HETATM   26  C20 UNL     1       0.524  23.562   3.768  1.00  0.00     0.058 C 
HETATM   27  C21 UNL     1       0.291  24.984   4.212  1.00  0.00     0.044 C 
HETATM   28  C22 UNL     1      -0.092  25.098   5.669  1.00  0.00     0.007 C 
HETATM   29  C23 UNL     1      -1.247  24.144   5.946  1.00  0.00     0.020 C 
HETATM   30  C24 UNL     1      -0.832  22.747   5.639  1.00  0.00     0.122 C 
ENDBRANCH  24  25
ENDBRANCH  23  24
ENDBRANCH  22  23
ENDBRANCH  10  22
BRANCH   9  31
HETATM   31  C14 UNL     1       3.250  22.246   1.445  1.00  0.00     0.011 A 
HETATM   32  C15 UNL     1       2.543  21.795   0.375  1.00  0.00     0.120 A 
HETATM   33  N3  UNL     1       2.014  22.904  -0.206  1.00  0.00    -0.311 N 
HETATM   34  N4  UNL     1       2.348  24.005   0.449  1.00  0.00    -0.311 N 
ATOM     35  H3  UNL     1       1.431  22.890  -1.043  1.00  0.00     0.186 HD
HETATM   36  C16 UNL     1       3.117  23.660   1.480  1.00  0.00     0.120 A 
ATOM     37  H4  UNL     1       2.066  24.955   0.205  1.00  0.00     0.186 HD
ENDBRANCH   9  31
TORSDOF 7
ENDMDL
MODEL 4
REMARK VINA RESULT: -6.349421796      4.681      8.400
REMARK  7 active torsions:
REMARK  status: ('A' for Active; 'I' for Inactive)
REMARK    1  A    between atoms: C7_7  and  N1_8 
REMARK    2  A    between atoms: N1_8  and  C8_9 
REMARK    3  A    between atoms: C13_17  and  C14_18 
REMARK    4  A    between atoms: C17_25  and  O1_26 
REMARK    5  A    between atoms: O1_26  and  C18_27 
REMARK    6  A    between atoms: C18_27  and  C19_28 
REMARK    7  A    between atoms: C19_28  and  N5_29 
ROOT
HETATM    1  C8  UNL     1       3.934  17.725  -1.022  1.00  0.00     0.159 A 
HETATM    2  C9  UNL     1       4.286  16.618  -1.858  1.00  0.00     0.173 A 
HETATM    3  F1  UNL     1       3.435  16.330  -2.849  1.00  0.00    -0.201 F 
HETATM    4  C10 UNL     1       5.425  15.933  -1.585  1.00  0.00     0.134 A 
HETATM    5  N2  UNL     1       6.222  16.246  -0.576  1.00  0.00    -0.362 N 
ATOM      6  H2  UNL     1       7.071  15.703  -0.418  1.00  0.00     0.165 HD
HETATM    7  C11 UNL     1       5.925  17.286   0.255  1.00  0.00     0.046 A 
HETATM    8  C12 UNL     1       6.741  17.595   1.325  1.00  0.00     0.045 A 
HETATM    9  C13 UNL     1       6.452  18.607   2.208  1.00  0.00     0.013 A 
HETATM   10  C17 UNL     1       5.273  19.375   2.047  1.00  0.00     0.081 A 
HETATM   11  C25 UNL     1       4.501  19.047   0.966  1.00  0.00     0.055 A 
HETATM   12  C26 UNL     1       4.785  18.045   0.067  1.00  0.00     0.037 A 
ENDROOT
BRANCH   1  13
HETATM   13  N1  UNL     1       3.097  18.506  -1.389  1.00  0.00    -0.410 NA
BRANCH  13  14
HETATM   14  C7  UNL     1       2.189  19.367  -1.808  1.00  0.00     0.064 C 
HETATM   15  C6  UNL     1       0.702  19.182  -1.438  1.00  0.00     0.068 C 
HETATM   16  C5  UNL     1      -0.067  19.239  -2.772  1.00  0.00     0.007 C 
HETATM   17  C4  UNL     1       0.531  20.236  -3.729  1.00  0.00     0.009 C 
HETATM   18  C2  UNL     1       1.350  21.281  -3.119  1.00  0.00    -0.042 C 
HETATM   19  C1  UNL     1       0.377  22.360  -2.613  1.00  0.00     0.015 C 
HETATM   20  C3  UNL     1       2.154  21.947  -4.251  1.00  0.00     0.015 C 
HETATM   21  C27 UNL     1       2.323  20.860  -2.016  1.00  0.00     0.076 C 
ENDBRANCH  13  14
ENDBRANCH   1  13
BRANCH  10  22
HETATM   22  O1  UNL     1       5.074  20.305   2.990  1.00  0.00    -0.349 OA
BRANCH  22  23
HETATM   23  C18 UNL     1       4.616  21.565   3.127  1.00  0.00     0.195 C 
BRANCH  23  24
HETATM   24  C19 UNL     1       3.133  21.421   3.555  1.00  0.00     0.148 C 
BRANCH  24  25
HETATM   25  N5  UNL     1       2.290  22.189   2.763  1.00  0.00    -0.391 N 
HETATM   26  C20 UNL     1       2.257  22.232   1.379  1.00  0.00     0.058 C 
HETATM   27  C21 UNL     1       2.388  23.607   0.773  1.00  0.00     0.044 C 
HETATM   28  C22 UNL     1       2.583  24.695   1.803  1.00  0.00     0.007 C 
HETATM   29  C23 UNL     1       1.499  24.564   2.864  1.00  0.00     0.020 C 
HETATM   30  C24 UNL     1       1.590  23.228   3.517  1.00  0.00     0.122 C 
ENDBRANCH  24  25
ENDBRANCH  23  24
ENDBRANCH  22  23
ENDBRANCH  10  22
BRANCH   9  31
HETATM   31  C14 UNL     1       7.441  18.963   3.231  1.00  0.00     0.011 A 
HETATM   32  C15 UNL     1       8.436  19.891   3.242  1.00  0.00     0.120 A 
HETATM   33  N3  UNL     1       9.088  19.711   4.421  1.00  0.00    -0.311 N 
HETATM   34  N4  UNL     1       8.548  18.736   5.134  1.00  0.00    -0.311 N 
ATOM     35  H3  UNL     1       9.894  20.260   4.718  1.00  0.00     0.186 HD
HETATM   36  C16 UNL     1       7.524  18.233   4.447  1.00  0.00     0.120 A 
ATOM     37  H4  UNL     1       8.862  18.423   6.053  1.00  0.00     0.186 HD
ENDBRANCH   9  31
TORSDOF 7
ENDMDL
MODEL 5
REMARK VINA RESULT: -6.275403295      5.043      7.004
REMARK  7 active torsions:
REMARK  status: ('A' for Active; 'I' for Inactive)
REMARK    1  A    between atoms: C7_7  and  N1_8 
REMARK    2  A    between atoms: N1_8  and  C8_9 
REMARK    3  A    between atoms: C13_17  and  C14_18 
REMARK    4  A    between atoms: C17_25  and  O1_26 
REMARK    5  A    between atoms: O1_26  and  C18_27 
REMARK    6  A    between atoms: C18_27  and  C19_28 
REMARK    7  A    between atoms: C19_28  and  N5_29 
ROOT
HETATM    1  C8  UNL     1       6.701  19.283   4.898  1.00  0.00     0.159 A 
HETATM    2  C9  UNL     1       8.107  19.520   4.766  1.00  0.00     0.173 A 
HETATM    3  F1  UNL     1       8.904  18.836   5.594  1.00  0.00    -0.201 F 
HETATM    4  C10 UNL     1       8.531  20.420   3.842  1.00  0.00     0.134 A 
HETATM    5  N2  UNL     1       7.697  21.088   3.061  1.00  0.00    -0.362 N 
ATOM      6  H2  UNL     1       8.068  21.749   2.379  1.00  0.00     0.165 HD
HETATM    7  C11 UNL     1       6.349  20.906   3.157  1.00  0.00     0.046 A 
HETATM    8  C12 UNL     1       5.478  21.624   2.363  1.00  0.00     0.045 A 
HETATM    9  C13 UNL     1       4.112  21.498   2.460  1.00  0.00     0.013 A 
HETATM   10  C17 UNL     1       3.547  20.613   3.409  1.00  0.00     0.081 A 
HETATM   11  C25 UNL     1       4.445  19.909   4.165  1.00  0.00     0.055 A 
HETATM   12  C26 UNL     1       5.813  20.016   4.069  1.00  0.00     0.037 A 
ENDROOT
BRANCH   1  13
HETATM   13  N1  UNL     1       6.314  18.318   5.499  1.00  0.00    -0.410 NA
BRANCH  13  14
HETATM   14  C7  UNL     1       5.887  17.269   6.177  1.00  0.00     0.064 C 
HETATM   15  C6  UNL     1       6.855  16.466   7.073  1.00  0.00     0.068 C 
HETATM   16  C5  UNL     1       6.706  14.997   6.632  1.00  0.00     0.007 C 
HETATM   17  C4  UNL     1       5.286  14.656   6.268  1.00  0.00     0.009 C 
HETATM   18  C2  UNL     1       4.263  15.533   6.834  1.00  0.00    -0.042 C 
HETATM   19  C1  UNL     1       4.006  15.036   8.268  1.00  0.00     0.015 C 
HETATM   20  C3  UNL     1       2.956  15.263   6.063  1.00  0.00     0.015 C 
HETATM   21  C27 UNL     1       4.535  17.037   6.815  1.00  0.00     0.076 C 
ENDBRANCH  13  14
ENDBRANCH   1  13
BRANCH  10  22
HETATM   22  O1  UNL     1       2.208  20.604   3.442  1.00  0.00    -0.349 OA
BRANCH  22  23
HETATM   23  C18 UNL     1       1.171  19.752   3.327  1.00  0.00     0.195 C 
BRANCH  23  24
HETATM   24  C19 UNL     1      -0.029  20.466   4.000  1.00  0.00     0.148 C 
BRANCH  24  25
HETATM   25  N5  UNL     1       0.013  20.354   5.384  1.00  0.00    -0.391 N 
HETATM   26  C20 UNL     1       0.204  21.378   6.297  1.00  0.00     0.058 C 
HETATM   27  C21 UNL     1       1.331  21.167   7.276  1.00  0.00     0.044 C 
HETATM   28  C22 UNL     1       2.089  19.880   7.044  1.00  0.00     0.007 C 
HETATM   29  C23 UNL     1       1.090  18.733   6.962  1.00  0.00     0.020 C 
HETATM   30  C24 UNL     1       0.140  18.971   5.839  1.00  0.00     0.122 C 
ENDBRANCH  24  25
ENDBRANCH  23  24
ENDBRANCH  22  23
ENDBRANCH  10  22
BRANCH   9  31
HETATM   31  C14 UNL     1       3.263  22.189   1.484  1.00  0.00     0.011 A 
HETATM   32  C15 UNL     1       2.689  21.765   0.326  1.00  0.00     0.120 A 
HETATM   33  N3  UNL     1       2.086  22.861  -0.205  1.00  0.00    -0.311 N 
HETATM   34  N4  UNL     1       2.251  23.928   0.562  1.00  0.00    -0.311 N 
ATOM     35  H3  UNL     1       1.571  22.862  -1.085  1.00  0.00     0.186 HD
HETATM   36  C16 UNL     1       2.974  23.573   1.622  1.00  0.00     0.120 A 
ATOM     37  H4  UNL     1       1.885  24.862   0.373  1.00  0.00     0.186 HD
ENDBRANCH   9  31
TORSDOF 7
ENDMDL
