MODEL 1
REMARK VINA RESULT: -7.554299685      0.000      0.000
REMARK  6 active torsions:
REMARK  status: ('A' for Active; 'I' for Inactive)
REMARK    1  A    between atoms: O1_2  and  C2_3 
REMARK    2  A    between atoms: C5_6  and  N1_7 
REMARK       I    between atoms: N1_7  and  C6_9 
REMARK    3  A    between atoms: C6_9  and  C7_11 
REMARK    4  A    between atoms: C10_14  and  O3_15 
REMARK    5  A    between atoms: O3_15  and  C11_16 
REMARK    6  A    between atoms: C21_30  and  C22_31 
ROOT
HETATM    1  C2  UNL     1       6.775  17.482   1.731  1.00  0.00     0.077 A 
HETATM    2  C3  UNL     1       5.535  17.246   2.285  1.00  0.00     0.039 A 
HETATM    3  C4  UNL     1       4.667  18.333   2.520  1.00  0.00     0.032 A 
HETATM    4  C5  UNL     1       5.049  19.606   2.204  1.00  0.00     0.035 A 
HETATM    5  C20 UNL     1       6.324  19.844   1.635  1.00  0.00     0.042 A 
HETATM    6  C21 UNL     1       7.153  18.775   1.414  1.00  0.00     0.005 A 
ENDROOT
BRANCH   4   7
HETATM    7  N1  UNL     1       4.196  20.704   2.455  1.00  0.00    -0.323 N 
HETATM    8  C6  UNL     1       3.357  21.380   1.572  1.00  0.00     0.257 C 
HETATM    9  O2  UNL     1       3.253  21.064   0.369  1.00  0.00    -0.267 OA
ATOM     10  H1  UNL     1       4.194  21.049   3.415  1.00  0.00     0.169 HD
BRANCH   8  11
HETATM   11  C7  UNL     1       2.552  22.523   2.059  1.00  0.00     0.047 A 
HETATM   12  C8  UNL     1       2.589  23.749   1.464  1.00  0.00     0.022 A 
HETATM   13  C9  UNL     1       1.833  24.831   1.911  1.00  0.00     0.057 A 
HETATM   14  C10 UNL     1       1.022  24.622   3.004  1.00  0.00     0.142 A 
HETATM   15  N2  UNL     1       0.989  23.386   3.600  1.00  0.00    -0.346 N 
HETATM   16  C19 UNL     1       1.729  22.356   3.149  1.00  0.00     0.107 A 
ATOM     17  H2  UNL     1       0.385  23.243   4.409  1.00  0.00     0.167 HD
BRANCH  14  18
HETATM   18  O3  UNL     1       0.229  25.624   3.535  1.00  0.00    -0.330 OA
BRANCH  18  19
HETATM   19  C11 UNL     1      -0.955  25.449   4.254  1.00  0.00     0.134 C 
HETATM   20  C12 UNL     1      -1.794  26.719   4.067  1.00  0.00     0.036 C 
HETATM   21  C13 UNL     1      -3.050  26.688   4.874  1.00  0.00     0.049 C 
HETATM   22  C14 UNL     1      -2.736  26.436   6.330  1.00  0.00     0.135 C 
HETATM   23  C15 UNL     1      -4.051  26.275   7.088  1.00  0.00     0.055 C 
HETATM   24  F1  UNL     1      -1.957  27.438   6.857  1.00  0.00    -0.240 F 
HETATM   25  C16 UNL     1      -1.998  25.116   6.435  1.00  0.00     0.137 C 
HETATM   26  C17 UNL     1      -1.821  24.827   7.911  1.00  0.00     0.055 C 
HETATM   27  F2  UNL     1      -2.758  24.144   5.821  1.00  0.00    -0.240 F 
HETATM   28  C18 UNL     1      -0.667  25.270   5.739  1.00  0.00     0.079 C 
ENDBRANCH  18  19
ENDBRANCH  14  18
ENDBRANCH   8  11
ENDBRANCH   4   7
BRANCH   6  29
HETATM   29  C22 UNL     1       8.506  19.003   0.848  1.00  0.00     0.058 C 
HETATM   30  C23 UNL     1       9.481  19.294   2.006  1.00  0.00     0.044 C 
HETATM   31  C24 UNL     1       9.065  17.850   0.079  1.00  0.00     0.037 C 
HETATM   32  C25 UNL     1       8.814  18.016  -1.428  1.00  0.00     0.024 C 
HETATM   33  C26 UNL     1       9.741  19.136  -1.849  1.00  0.00     0.060 C 
HETATM   34  C27 UNL     1      11.195  18.765  -1.979  1.00  0.00     0.187 C 
HETATM   35  C28 UNL     1       9.826  19.368  -3.335  1.00  0.00     0.187 C 
HETATM   36  C29 UNL     1       9.452  20.314  -1.017  1.00  0.00     0.084 C 
HETATM   37  O4  UNL     1      11.215  19.519  -3.163  1.00  0.00    -0.389 OA
HETATM   38  N3  UNL     1      10.038  21.438  -1.269  1.00  0.00    -0.388 N 
HETATM   39  N4  UNL     1       8.526  20.226   0.054  1.00  0.00    -0.366 N 
ATOM     40  H32 UNL     1      10.704  21.501  -2.039  1.00  0.00     0.157 HD
ATOM     41  H31 UNL     1       9.838  22.255  -0.692  1.00  0.00     0.157 HD
ATOM     42  H4  UNL     1       7.892  20.997   0.263  1.00  0.00     0.162 HD
ENDBRANCH   6  29
BRANCH   1  43
HETATM   43  O1  UNL     1       7.672  16.456   1.474  1.00  0.00    -0.355 OA
HETATM   44  C1  UNL     1       7.758  15.398   2.409  1.00  0.00     0.210 C 
ENDBRANCH   1  43
TORSDOF 6
ENDMDL
MODEL 2
REMARK VINA RESULT: -7.515488523      5.528      7.130
REMARK  6 active torsions:
REMARK  status: ('A' for Active; 'I' for Inactive)
REMARK    1  A    between atoms: O1_2  and  C2_3 
REMARK    2  A    between atoms: C5_6  and  N1_7 
REMARK       I    between atoms: N1_7  and  C6_9 
REMARK    3  A    between atoms: C6_9  and  C7_11 
REMARK    4  A    between atoms: C10_14  and  O3_15 
REMARK    5  A    between atoms: O3_15  and  C11_16 
REMARK    6  A    between atoms: C21_30  and  C22_31 
ROOT
HETATM    1  C2  UNL     1       8.005  19.693   3.715  1.00  0.00     0.077 A 
HETATM    2  C3  UNL     1       7.211  20.795   3.951  1.00  0.00     0.039 A 
HETATM    3  C4  UNL     1       5.973  20.907   3.283  1.00  0.00     0.032 A 
HETATM    4  C5  UNL     1       5.565  19.938   2.411  1.00  0.00     0.035 A 
HETATM    5  C20 UNL     1       6.384  18.808   2.173  1.00  0.00     0.042 A 
HETATM    6  C21 UNL     1       7.583  18.716   2.831  1.00  0.00     0.005 A 
ENDROOT
BRANCH   4   7
HETATM    7  N1  UNL     1       4.337  20.051   1.721  1.00  0.00    -0.323 N 
HETATM    8  C6  UNL     1       3.791  21.162   1.083  1.00  0.00     0.257 C 
HETATM    9  O2  UNL     1       4.373  22.266   1.040  1.00  0.00    -0.267 OA
ATOM     10  H1  UNL     1       3.772  19.202   1.686  1.00  0.00     0.169 HD
BRANCH   8  11
HETATM   11  C7  UNL     1       2.469  21.051   0.425  1.00  0.00     0.047 A 
HETATM   12  C8  UNL     1       1.983  22.016  -0.407  1.00  0.00     0.022 A 
HETATM   13  C9  UNL     1       0.742  21.919  -1.033  1.00  0.00     0.057 A 
HETATM   14  C10 UNL     1      -0.004  20.790  -0.781  1.00  0.00     0.142 A 
HETATM   15  N2  UNL     1       0.490  19.823   0.058  1.00  0.00    -0.346 N 
HETATM   16  C19 UNL     1       1.692  19.938   0.651  1.00  0.00     0.107 A 
ATOM     17  H2  UNL     1      -0.072  18.990   0.236  1.00  0.00     0.167 HD
BRANCH  14  18
HETATM   18  O3  UNL     1      -1.250  20.589  -1.348  1.00  0.00    -0.330 OA
BRANCH  18  19
HETATM   19  C11 UNL     1      -1.521  20.380  -2.701  1.00  0.00     0.134 C 
HETATM   20  C12 UNL     1      -3.045  20.368  -2.866  1.00  0.00     0.036 C 
HETATM   21  C13 UNL     1      -3.458  20.053  -4.265  1.00  0.00     0.049 C 
HETATM   22  C14 UNL     1      -2.838  18.752  -4.719  1.00  0.00     0.135 C 
HETATM   23  C15 UNL     1      -3.174  18.544  -6.193  1.00  0.00     0.055 C 
HETATM   24  F1  UNL     1      -3.254  17.698  -3.943  1.00  0.00    -0.240 F 
HETATM   25  C16 UNL     1      -1.331  18.886  -4.622  1.00  0.00     0.137 C 
HETATM   26  C17 UNL     1      -0.738  17.623  -5.211  1.00  0.00     0.055 C 
HETATM   27  F2  UNL     1      -0.947  20.000  -5.335  1.00  0.00    -0.240 F 
HETATM   28  C18 UNL     1      -0.970  19.037  -3.163  1.00  0.00     0.079 C 
ENDBRANCH  18  19
ENDBRANCH  14  18
ENDBRANCH   8  11
ENDBRANCH   4   7
BRANCH   6  29
HETATM   29  C22 UNL     1       8.473  17.557   2.573  1.00  0.00     0.058 C 
HETATM   30  C23 UNL     1       8.404  16.603   3.782  1.00  0.00     0.044 C 
HETATM   31  C24 UNL     1       8.123  16.758   1.359  1.00  0.00     0.037 C 
HETATM   32  C25 UNL     1       8.961  17.196   0.148  1.00  0.00     0.024 C 
HETATM   33  C26 UNL     1      10.357  16.695   0.446  1.00  0.00     0.060 C 
HETATM   34  C27 UNL     1      10.575  15.217   0.252  1.00  0.00     0.187 C 
HETATM   35  C28 UNL     1      11.340  16.832  -0.687  1.00  0.00     0.187 C 
HETATM   36  C29 UNL     1      10.777  17.239   1.747  1.00  0.00     0.084 C 
HETATM   37  O4  UNL     1      11.797  15.542  -0.358  1.00  0.00    -0.389 OA
HETATM   38  N3  UNL     1      11.984  17.044   2.165  1.00  0.00    -0.388 N 
HETATM   39  N4  UNL     1       9.868  17.984   2.540  1.00  0.00    -0.366 N 
ATOM     40  H32 UNL     1      12.638  16.509   1.595  1.00  0.00     0.157 HD
ATOM     41  H31 UNL     1      12.276  17.422   3.067  1.00  0.00     0.157 HD
ATOM     42  H4  UNL     1      10.179  18.796   3.073  1.00  0.00     0.162 HD
ENDBRANCH   6  29
BRANCH   1  43
HETATM   43  O1  UNL     1       9.230  19.524   4.342  1.00  0.00    -0.355 OA
HETATM   44  C1  UNL     1       9.387  20.044   5.648  1.00  0.00     0.210 C 
ENDBRANCH   1  43
TORSDOF 6
ENDMDL
MODEL 3
REMARK VINA RESULT: -7.455647366      6.097      7.681
REMARK  6 active torsions:
REMARK  status: ('A' for Active; 'I' for Inactive)
REMARK    1  A    between atoms: O1_2  and  C2_3 
REMARK    2  A    between atoms: C5_6  and  N1_7 
REMARK       I    between atoms: N1_7  and  C6_9 
REMARK    3  A    between atoms: C6_9  and  C7_11 
REMARK    4  A    between atoms: C10_14  and  O3_15 
REMARK    5  A    between atoms: O3_15  and  C11_16 
REMARK    6  A    between atoms: C21_30  and  C22_31 
ROOT
HETATM    1  C2  UNL     1       7.835  19.483   4.572  1.00  0.00     0.077 A 
HETATM    2  C3  UNL     1       7.472  20.742   4.146  1.00  0.00     0.039 A 
HETATM    3  C4  UNL     1       6.277  20.904   3.414  1.00  0.00     0.032 A 
HETATM    4  C5  UNL     1       5.488  19.826   3.128  1.00  0.00     0.035 A 
HETATM    5  C20 UNL     1       5.865  18.534   3.568  1.00  0.00     0.042 A 
HETATM    6  C21 UNL     1       7.029  18.397   4.279  1.00  0.00     0.005 A 
ENDROOT
BRANCH   4   7
HETATM    7  N1  UNL     1       4.300  19.974   2.377  1.00  0.00    -0.323 N 
HETATM    8  C6  UNL     1       4.012  20.887   1.365  1.00  0.00     0.257 C 
HETATM    9  O2  UNL     1       4.837  21.739   0.974  1.00  0.00    -0.267 OA
ATOM     10  H1  UNL     1       3.549  19.322   2.608  1.00  0.00     0.169 HD
BRANCH   8  11
HETATM   11  C7  UNL     1       2.680  20.865   0.718  1.00  0.00     0.047 A 
HETATM   12  C8  UNL     1       2.262  21.850  -0.127  1.00  0.00     0.022 A 
HETATM   13  C9  UNL     1       1.013  21.837  -0.744  1.00  0.00     0.057 A 
HETATM   14  C10 UNL     1       0.187  20.771  -0.470  1.00  0.00     0.142 A 
HETATM   15  N2  UNL     1       0.613  19.782   0.381  1.00  0.00    -0.346 N 
HETATM   16  C19 UNL     1       1.825  19.816   0.965  1.00  0.00     0.107 A 
ATOM     17  H2  UNL     1      -0.008  18.997   0.576  1.00  0.00     0.167 HD
BRANCH  14  18
HETATM   18  O3  UNL     1      -1.075  20.655  -1.026  1.00  0.00    -0.330 OA
BRANCH  18  19
HETATM   19  C11 UNL     1      -1.372  20.488  -2.380  1.00  0.00     0.134 C 
HETATM   20  C12 UNL     1      -2.898  20.529  -2.522  1.00  0.00     0.036 C 
HETATM   21  C13 UNL     1      -3.341  20.263  -3.922  1.00  0.00     0.049 C 
HETATM   22  C14 UNL     1      -2.769  18.956  -4.418  1.00  0.00     0.135 C 
HETATM   23  C15 UNL     1      -3.133  18.796  -5.891  1.00  0.00     0.055 C 
HETATM   24  F1  UNL     1      -3.208  17.896  -3.662  1.00  0.00    -0.240 F 
HETATM   25  C16 UNL     1      -1.257  19.039  -4.340  1.00  0.00     0.137 C 
HETATM   26  C17 UNL     1      -0.714  17.773  -4.969  1.00  0.00     0.055 C 
HETATM   27  F2  UNL     1      -0.848  20.158  -5.031  1.00  0.00    -0.240 F 
HETATM   28  C18 UNL     1      -0.871  19.141  -2.884  1.00  0.00     0.079 C 
ENDBRANCH  18  19
ENDBRANCH  14  18
ENDBRANCH   8  11
ENDBRANCH   4   7
BRANCH   6  29
HETATM   29  C22 UNL     1       7.461  17.048   4.722  1.00  0.00     0.058 C 
HETATM   30  C23 UNL     1       7.460  17.013   6.264  1.00  0.00     0.044 C 
HETATM   31  C24 UNL     1       6.590  15.927   4.254  1.00  0.00     0.037 C 
HETATM   32  C25 UNL     1       7.157  15.281   2.981  1.00  0.00     0.024 C 
HETATM   33  C26 UNL     1       8.388  14.533   3.445  1.00  0.00     0.060 C 
HETATM   34  C27 UNL     1       8.129  13.237   4.168  1.00  0.00     0.187 C 
HETATM   35  C28 UNL     1       9.026  13.648   2.407  1.00  0.00     0.187 C 
HETATM   36  C29 UNL     1       9.276  15.483   4.133  1.00  0.00     0.084 C 
HETATM   37  O4  UNL     1       9.182  12.684   3.421  1.00  0.00    -0.389 OA
HETATM   38  N3  UNL     1      10.449  15.102   4.519  1.00  0.00    -0.388 N 
HETATM   39  N4  UNL     1       8.856  16.818   4.365  1.00  0.00    -0.366 N 
ATOM     40  H32 UNL     1      10.751  14.142   4.352  1.00  0.00     0.157 HD
ATOM     41  H31 UNL     1      11.065  15.761   4.995  1.00  0.00     0.157 HD
ATOM     42  H4  UNL     1       9.511  17.595   4.285  1.00  0.00     0.162 HD
ENDBRANCH   6  29
BRANCH   1  43
HETATM   43  O1  UNL     1       8.995  19.258   5.297  1.00  0.00    -0.355 OA
HETATM   44  C1  UNL     1       9.754  20.382   5.701  1.00  0.00     0.210 C 
ENDBRANCH   1  43
TORSDOF 6
ENDMDL
MODEL 4
REMARK VINA RESULT: -7.418392046      5.436      8.031
REMARK  6 active torsions:
REMARK  status: ('A' for Active; 'I' for Inactive)
REMARK    1  A    between atoms: O1_2  and  C2_3 
REMARK    2  A    between atoms: C5_6  and  N1_7 
REMARK       I    between atoms: N1_7  and  C6_9 
REMARK    3  A    between atoms: C6_9  and  C7_11 
REMARK    4  A    between atoms: C10_14  and  O3_15 
REMARK    5  A    between atoms: O3_15  and  C11_16 
REMARK    6  A    between atoms: C21_30  and  C22_31 
ROOT
HETATM    1  C2  UNL     1       8.099  16.569   4.666  1.00  0.00     0.077 A 
HETATM    2  C3  UNL     1       8.536  17.167   3.504  1.00  0.00     0.039 A 
HETATM    3  C4  UNL     1       7.634  17.944   2.747  1.00  0.00     0.032 A 
HETATM    4  C5  UNL     1       6.341  18.101   3.157  1.00  0.00     0.035 A 
HETATM    5  C20 UNL     1       5.896  17.484   4.352  1.00  0.00     0.042 A 
HETATM    6  C21 UNL     1       6.787  16.735   5.075  1.00  0.00     0.005 A 
ENDROOT
BRANCH   4   7
HETATM    7  N1  UNL     1       5.423  18.858   2.395  1.00  0.00    -0.323 N 
HETATM    8  C6  UNL     1       5.124  20.216   2.482  1.00  0.00     0.257 C 
HETATM    9  O2  UNL     1       5.679  20.975   3.303  1.00  0.00    -0.267 OA
ATOM     10  H1  UNL     1       4.909  18.339   1.683  1.00  0.00     0.169 HD
BRANCH   8  11
HETATM   11  C7  UNL     1       4.107  20.800   1.578  1.00  0.00     0.047 A 
HETATM   12  C8  UNL     1       3.870  22.141   1.514  1.00  0.00     0.022 A 
HETATM   13  C9  UNL     1       2.919  22.701   0.664  1.00  0.00     0.057 A 
HETATM   14  C10 UNL     1       2.203  21.839  -0.135  1.00  0.00     0.142 A 
HETATM   15  N2  UNL     1       2.446  20.489  -0.067  1.00  0.00    -0.346 N 
HETATM   16  C19 UNL     1       3.370  19.971   0.763  1.00  0.00     0.107 A 
ATOM     17  H2  UNL     1       1.909  19.860  -0.663  1.00  0.00     0.167 HD
BRANCH  14  18
HETATM   18  O3  UNL     1       1.233  22.283  -1.016  1.00  0.00    -0.330 OA
BRANCH  18  19
HETATM   19  C11 UNL     1       0.388  21.486  -1.788  1.00  0.00     0.134 C 
HETATM   20  C12 UNL     1       0.010  22.294  -3.035  1.00  0.00     0.036 C 
HETATM   21  C13 UNL     1      -0.977  21.576  -3.895  1.00  0.00     0.049 C 
HETATM   22  C14 UNL     1      -2.196  21.188  -3.091  1.00  0.00     0.135 C 
HETATM   23  C15 UNL     1      -3.107  20.340  -3.972  1.00  0.00     0.055 C 
HETATM   24  F1  UNL     1      -2.843  22.294  -2.594  1.00  0.00    -0.240 F 
HETATM   25  C16 UNL     1      -1.745  20.309  -1.941  1.00  0.00     0.137 C 
HETATM   26  C17 UNL     1      -2.997  19.828  -1.239  1.00  0.00     0.055 C 
HETATM   27  F2  UNL     1      -1.023  19.256  -2.457  1.00  0.00    -0.240 F 
HETATM   28  C18 UNL     1      -0.886  21.146  -1.024  1.00  0.00     0.079 C 
ENDBRANCH  18  19
ENDBRANCH  14  18
ENDBRANCH   8  11
ENDBRANCH   4   7
BRANCH   6  29
HETATM   29  C22 UNL     1       6.336  16.053   6.313  1.00  0.00     0.058 C 
HETATM   30  C23 UNL     1       5.439  17.021   7.110  1.00  0.00     0.044 C 
HETATM   31  C24 UNL     1       5.547  14.804   6.087  1.00  0.00     0.037 C 
HETATM   32  C25 UNL     1       6.443  13.560   6.174  1.00  0.00     0.024 C 
HETATM   33  C26 UNL     1       6.787  13.437   7.642  1.00  0.00     0.060 C 
HETATM   34  C27 UNL     1       5.694  12.895   8.525  1.00  0.00     0.187 C 
HETATM   35  C28 UNL     1       7.510  12.172   8.024  1.00  0.00     0.187 C 
HETATM   36  C29 UNL     1       7.400  14.700   8.082  1.00  0.00     0.084 C 
HETATM   37  O4  UNL     1       6.677  12.117   9.157  1.00  0.00    -0.389 OA
HETATM   38  N3  UNL     1       7.886  14.796   9.275  1.00  0.00    -0.388 N 
HETATM   39  N4  UNL     1       7.467  15.809   7.201  1.00  0.00    -0.366 N 
ATOM     40  H32 UNL     1       7.837  13.999   9.909  1.00  0.00     0.157 HD
ATOM     41  H31 UNL     1       8.311  15.672   9.581  1.00  0.00     0.157 HD
ATOM     42  H4  UNL     1       8.284  16.420   7.188  1.00  0.00     0.162 HD
ENDBRANCH   6  29
BRANCH   1  43
HETATM   43  O1  UNL     1       8.938  15.797   5.455  1.00  0.00    -0.355 OA
HETATM   44  C1  UNL     1       9.749  14.831   4.815  1.00  0.00     0.210 C 
ENDBRANCH   1  43
TORSDOF 6
ENDMDL
MODEL 5
REMARK VINA RESULT: -7.415397431      5.615      6.888
REMARK  6 active torsions:
REMARK  status: ('A' for Active; 'I' for Inactive)
REMARK    1  A    between atoms: O1_2  and  C2_3 
REMARK    2  A    between atoms: C5_6  and  N1_7 
REMARK       I    between atoms: N1_7  and  C6_9 
REMARK    3  A    between atoms: C6_9  and  C7_11 
REMARK    4  A    between atoms: C10_14  and  O3_15 
REMARK    5  A    between atoms: O3_15  and  C11_16 
REMARK    6  A    between atoms: C21_30  and  C22_31 
ROOT
HETATM    1  C2  UNL     1       6.780  16.565   6.356  1.00  0.00     0.077 A 
HETATM    2  C3  UNL     1       6.005  17.629   6.763  1.00  0.00     0.039 A 
HETATM    3  C4  UNL     1       5.270  18.354   5.802  1.00  0.00     0.032 A 
HETATM    4  C5  UNL     1       5.327  18.009   4.481  1.00  0.00     0.035 A 
HETATM    5  C20 UNL     1       6.125  16.915   4.067  1.00  0.00     0.042 A 
HETATM    6  C21 UNL     1       6.831  16.222   5.016  1.00  0.00     0.005 A 
ENDROOT
BRANCH   4   7
HETATM    7  N1  UNL     1       4.612  18.742   3.507  1.00  0.00    -0.323 N 
HETATM    8  C6  UNL     1       4.916  19.980   2.946  1.00  0.00     0.257 C 
HETATM    9  O2  UNL     1       5.935  20.629   3.261  1.00  0.00    -0.267 OA
ATOM     10  H1  UNL     1       3.755  18.304   3.168  1.00  0.00     0.169 HD
BRANCH   8  11
HETATM   11  C7  UNL     1       4.005  20.569   1.938  1.00  0.00     0.047 A 
HETATM   12  C8  UNL     1       3.765  21.909   1.864  1.00  0.00     0.022 A 
HETATM   13  C9  UNL     1       2.913  22.474   0.917  1.00  0.00     0.057 A 
HETATM   14  C10 UNL     1       2.301  21.617   0.031  1.00  0.00     0.142 A 
HETATM   15  N2  UNL     1       2.547  20.269   0.110  1.00  0.00    -0.346 N 
HETATM   16  C19 UNL     1       3.374  19.746   1.033  1.00  0.00     0.107 A 
ATOM     17  H2  UNL     1       2.088  19.644  -0.553  1.00  0.00     0.167 HD
BRANCH  14  18
HETATM   18  O3  UNL     1       1.436  22.067  -0.951  1.00  0.00    -0.330 OA
BRANCH  18  19
HETATM   19  C11 UNL     1       0.541  21.288  -1.686  1.00  0.00     0.134 C 
HETATM   20  C12 UNL     1       0.179  22.078  -2.949  1.00  0.00     0.036 C 
HETATM   21  C13 UNL     1      -0.855  21.382  -3.772  1.00  0.00     0.049 C 
HETATM   22  C14 UNL     1      -2.076  21.073  -2.937  1.00  0.00     0.135 C 
HETATM   23  C15 UNL     1      -3.040  20.244  -3.779  1.00  0.00     0.055 C 
HETATM   24  F1  UNL     1      -2.663  22.221  -2.462  1.00  0.00    -0.240 F 
HETATM   25  C16 UNL     1      -1.646  20.206  -1.770  1.00  0.00     0.137 C 
HETATM   26  C17 UNL     1      -2.906  19.803  -1.035  1.00  0.00     0.055 C 
HETATM   27  F2  UNL     1      -0.981  19.107  -2.268  1.00  0.00    -0.240 F 
HETATM   28  C18 UNL     1      -0.733  21.028  -0.892  1.00  0.00     0.079 C 
ENDBRANCH  18  19
ENDBRANCH  14  18
ENDBRANCH   8  11
ENDBRANCH   4   7
BRANCH   6  29
HETATM   29  C22 UNL     1       7.699  15.092   4.602  1.00  0.00     0.058 C 
HETATM   30  C23 UNL     1       7.016  13.771   5.008  1.00  0.00     0.044 C 
HETATM   31  C24 UNL     1       7.970  15.017   3.135  1.00  0.00     0.037 C 
HETATM   32  C25 UNL     1       9.308  15.686   2.784  1.00  0.00     0.024 C 
HETATM   33  C26 UNL     1      10.361  14.748   3.333  1.00  0.00     0.060 C 
HETATM   34  C27 UNL     1      10.604  13.498   2.529  1.00  0.00     0.187 C 
HETATM   35  C28 UNL     1      11.778  15.085   2.949  1.00  0.00     0.187 C 
HETATM   36  C29 UNL     1      10.101  14.548   4.767  1.00  0.00     0.084 C 
HETATM   37  O4  UNL     1      11.977  13.708   2.736  1.00  0.00    -0.389 OA
HETATM   38  N3  UNL     1      10.939  13.875   5.484  1.00  0.00    -0.388 N 
HETATM   39  N4  UNL     1       8.940  15.097   5.369  1.00  0.00    -0.366 N 
ATOM     40  H32 UNL     1      11.774  13.479   5.051  1.00  0.00     0.157 HD
ATOM     41  H31 UNL     1      10.759  13.735   6.479  1.00  0.00     0.157 HD
ATOM     42  H4  UNL     1       8.972  15.485   6.312  1.00  0.00     0.162 HD
ENDBRANCH   6  29
BRANCH   1  43
HETATM   43  O1  UNL     1       7.523  15.812   7.252  1.00  0.00    -0.355 OA
HETATM   44  C1  UNL     1       6.973  15.570   8.533  1.00  0.00     0.210 C 
ENDBRANCH   1  43
TORSDOF 6
ENDMDL
