MODEL 1
REMARK VINA RESULT: -8.052592712      0.000      0.000
REMARK  9 active torsions:
REMARK  status: ('A' for Active; 'I' for Inactive)
REMARK    1  A    between atoms: C2_2  and  C3_3 
REMARK    2  A    between atoms: C3_3  and  N1_4 
REMARK    3  A    between atoms: C3_3  and  C25_37 
REMARK    4  A    between atoms: N1_4  and  C4_6 
REMARK    5  A    between atoms: C6_10  and  C7_11 
REMARK    6  A    between atoms: C7_11  and  N3_13 
REMARK    7  A    between atoms: N3_13  and  C9_14 
REMARK    8  A    between atoms: N4_17  and  C12_18 
REMARK    9  A    between atoms: C15_21  and  O1_22 
ROOT
HETATM    1  C9  UNL     1       1.136  24.054   2.985  1.00  0.00     0.116 A 
HETATM    2  C10 UNL     1       1.056  25.460   3.040  1.00  0.00     0.062 A 
HETATM    3  C11 UNL     1       0.114  26.078   3.834  1.00  0.00     0.096 A 
HETATM    4  N4  UNL     1      -0.745  25.357   4.569  1.00  0.00    -0.338 N 
HETATM    5  C19 UNL     1      -0.714  24.001   4.555  1.00  0.00     0.121 A 
HETATM    6  N5  UNL     1      -1.573  23.281   5.291  1.00  0.00    -0.350 N 
ATOM      7  H5  UNL     1      -2.254  23.780   5.863  1.00  0.00     0.166 HD
HETATM    8  C20 UNL     1      -1.584  21.945   5.316  1.00  0.00     0.112 A 
HETATM    9  C21 UNL     1      -0.658  21.294   4.537  1.00  0.00     0.061 A 
HETATM   10  C22 UNL     1      -0.635  19.849   4.534  1.00  0.00     0.101 C 
HETATM   11  N6  UNL     1      -0.623  18.692   4.551  1.00  0.00    -0.191 NA
HETATM   12  C23 UNL     1       0.245  21.986   3.763  1.00  0.00     0.042 A 
HETATM   13  C24 UNL     1       0.209  23.366   3.778  1.00  0.00     0.050 A 
ENDROOT
BRANCH   1  14
HETATM   14  N3  UNL     1       1.951  23.534   2.298  1.00  0.00    -0.436 NA
BRANCH  14  15
HETATM   15  C7  UNL     1       2.768  23.145   1.306  1.00  0.00     0.211 C 
HETATM   16  C8  UNL     1       3.832  22.168   1.878  1.00  0.00     0.054 C 
BRANCH  15  17
HETATM   17  C6  UNL     1       2.020  22.273   0.316  1.00  0.00     0.077 A 
HETATM   18  C5  UNL     1       1.851  20.906   0.395  1.00  0.00     0.135 A 
HETATM   19  N2  UNL     1       1.133  20.545  -0.699  1.00  0.00    -0.200 N 
HETATM   20  C4  UNL     1       0.867  21.637  -1.428  1.00  0.00     0.678 A 
ATOM     21  H2  UNL     1       0.842  19.595  -0.929  1.00  0.00     0.183 HD
HETATM   22  N7  UNL     1       1.412  22.703  -0.806  1.00  0.00    -0.191 N 
ATOM     23  H7  UNL     1       1.370  23.669  -1.130  1.00  0.00     0.184 HD
BRANCH  20  24
HETATM   24  N1  UNL     1       0.214  21.668  -2.525  1.00  0.00    -0.220 N 
ATOM     25  H1  UNL     1       0.262  22.532  -3.065  1.00  0.00     0.178 HD
BRANCH  24  26
HETATM   26  C3  UNL     1      -0.580  20.605  -3.073  1.00  0.00     0.121 C 
BRANCH  26  27
HETATM   27  C2  UNL     1      -2.043  20.884  -3.064  1.00  0.00     0.023 C 
HETATM   28  C1  UNL     1      -2.423  22.328  -2.960  1.00  0.00     0.007 C 
ENDBRANCH  26  27
BRANCH  26  29
HETATM   29  C25 UNL     1      -0.006  20.138  -4.364  1.00  0.00     0.051 C 
HETATM   30  C26 UNL     1      -0.878  19.283  -5.210  1.00  0.00     0.034 C 
HETATM   31  C27 UNL     1       0.438  21.341  -5.210  1.00  0.00     0.034 C 
HETATM   32 CL1  UNL     1       1.512  19.202  -4.088  1.00  0.00    -0.118 Cl
ENDBRANCH  26  29
ENDBRANCH  24  26
ENDBRANCH  20  24
ENDBRANCH  15  17
ENDBRANCH  14  15
ENDBRANCH   1  14
BRANCH   4  33
HETATM   33  C12 UNL     1      -1.713  26.041   5.385  1.00  0.00     0.091 C 
HETATM   34  C13 UNL     1      -1.114  26.828   6.519  1.00  0.00     0.028 C 
HETATM   35  C14 UNL     1      -2.290  27.367   7.328  1.00  0.00     0.034 C 
HETATM   36  C15 UNL     1      -2.922  28.523   6.546  1.00  0.00     0.120 C 
HETATM   37  C17 UNL     1      -2.585  28.384   5.082  1.00  0.00     0.034 C 
HETATM   38  C18 UNL     1      -2.590  26.973   4.585  1.00  0.00     0.028 C 
BRANCH  36  39
HETATM   39  O1  UNL     1      -2.318  29.685   7.023  1.00  0.00    -0.391 OA
HETATM   40  C16 UNL     1      -2.401  29.822   8.389  1.00  0.00     0.202 C 
ENDBRANCH  36  39
ENDBRANCH   4  33
TORSDOF 9
ENDMDL
MODEL 2
REMARK VINA RESULT: -7.672696152      1.644      2.134
REMARK  9 active torsions:
REMARK  status: ('A' for Active; 'I' for Inactive)
REMARK    1  A    between atoms: C2_2  and  C3_3 
REMARK    2  A    between atoms: C3_3  and  N1_4 
REMARK    3  A    between atoms: C3_3  and  C25_37 
REMARK    4  A    between atoms: N1_4  and  C4_6 
REMARK    5  A    between atoms: C6_10  and  C7_11 
REMARK    6  A    between atoms: C7_11  and  N3_13 
REMARK    7  A    between atoms: N3_13  and  C9_14 
REMARK    8  A    between atoms: N4_17  and  C12_18 
REMARK    9  A    between atoms: C15_21  and  O1_22 
ROOT
HETATM    1  C9  UNL     1       0.582  23.404   4.030  1.00  0.00     0.116 A 
HETATM    2  C10 UNL     1       0.868  24.781   4.119  1.00  0.00     0.062 A 
HETATM    3  C11 UNL     1      -0.018  25.643   4.730  1.00  0.00     0.096 A 
HETATM    4  N4  UNL     1      -1.167  25.190   5.251  1.00  0.00    -0.338 N 
HETATM    5  C19 UNL     1      -1.495  23.875   5.194  1.00  0.00     0.121 A 
HETATM    6  N5  UNL     1      -2.644  23.424   5.717  1.00  0.00    -0.350 N 
ATOM      7  H5  UNL     1      -3.270  24.097   6.158  1.00  0.00     0.166 HD
HETATM    8  C20 UNL     1      -3.013  22.141   5.690  1.00  0.00     0.112 A 
HETATM    9  C21 UNL     1      -2.155  21.251   5.090  1.00  0.00     0.061 A 
HETATM   10  C22 UNL     1      -2.515  19.853   5.039  1.00  0.00     0.101 C 
HETATM   11  N6  UNL     1      -2.812  18.735   5.016  1.00  0.00    -0.191 NA
HETATM   12  C23 UNL     1      -0.963  21.663   4.537  1.00  0.00     0.042 A 
HETATM   13  C24 UNL     1      -0.634  23.003   4.595  1.00  0.00     0.050 A 
ENDROOT
BRANCH   1  14
HETATM   14  N3  UNL     1       1.353  22.673   3.502  1.00  0.00    -0.436 NA
BRANCH  14  15
HETATM   15  C7  UNL     1       2.264  22.085   2.710  1.00  0.00     0.211 C 
HETATM   16  C8  UNL     1       2.292  20.561   3.012  1.00  0.00     0.054 C 
BRANCH  15  17
HETATM   17  C6  UNL     1       1.813  22.125   1.263  1.00  0.00     0.077 A 
HETATM   18  C5  UNL     1       2.242  23.012   0.297  1.00  0.00     0.135 A 
HETATM   19  N2  UNL     1       1.575  22.690  -0.841  1.00  0.00    -0.200 N 
HETATM   20  C4  UNL     1       0.766  21.652  -0.596  1.00  0.00     0.678 A 
ATOM     21  H2  UNL     1       1.674  23.165  -1.739  1.00  0.00     0.183 HD
HETATM   22  N7  UNL     1       0.910  21.301   0.699  1.00  0.00    -0.191 N 
ATOM     23  H7  UNL     1       0.418  20.541   1.170  1.00  0.00     0.184 HD
BRANCH  20  24
HETATM   24  N1  UNL     1      -0.012  21.090  -1.439  1.00  0.00    -0.220 N 
ATOM     25  H1  UNL     1       0.324  20.232  -1.875  1.00  0.00     0.178 HD
BRANCH  24  26
HETATM   26  C3  UNL     1      -1.314  21.548  -1.831  1.00  0.00     0.121 C 
BRANCH  26  27
HETATM   27  C2  UNL     1      -1.350  22.162  -3.188  1.00  0.00     0.023 C 
HETATM   28  C1  UNL     1      -0.254  21.739  -4.115  1.00  0.00     0.007 C 
ENDBRANCH  26  27
BRANCH  26  29
HETATM   29  C25 UNL     1      -2.339  20.506  -1.552  1.00  0.00     0.051 C 
HETATM   30  C26 UNL     1      -3.712  20.772  -2.055  1.00  0.00     0.034 C 
HETATM   31  C27 UNL     1      -1.884  19.153  -2.118  1.00  0.00     0.034 C 
HETATM   32 CL1  UNL     1      -2.494  20.219   0.222  1.00  0.00    -0.118 Cl
ENDBRANCH  26  29
ENDBRANCH  24  26
ENDBRANCH  20  24
ENDBRANCH  15  17
ENDBRANCH  14  15
ENDBRANCH   1  14
BRANCH   4  33
HETATM   33  C12 UNL     1      -2.065  26.123   5.880  1.00  0.00     0.091 C 
HETATM   34  C13 UNL     1      -1.408  27.016   6.898  1.00  0.00     0.028 C 
HETATM   35  C14 UNL     1      -2.530  27.832   7.533  1.00  0.00     0.034 C 
HETATM   36  C15 UNL     1      -2.973  28.902   6.530  1.00  0.00     0.120 C 
HETATM   37  C17 UNL     1      -2.605  28.466   5.134  1.00  0.00     0.034 C 
HETATM   38  C18 UNL     1      -2.780  27.002   4.883  1.00  0.00     0.028 C 
BRANCH  36  39
HETATM   39  O1  UNL     1      -2.237  30.045   6.838  1.00  0.00    -0.391 OA
HETATM   40  C16 UNL     1      -2.251  30.989   5.839  1.00  0.00     0.202 C 
ENDBRANCH  36  39
ENDBRANCH   4  33
TORSDOF 9
ENDMDL
MODEL 3
REMARK VINA RESULT: -7.586962919      0.981      1.630
REMARK  9 active torsions:
REMARK  status: ('A' for Active; 'I' for Inactive)
REMARK    1  A    between atoms: C2_2  and  C3_3 
REMARK    2  A    between atoms: C3_3  and  N1_4 
REMARK    3  A    between atoms: C3_3  and  C25_37 
REMARK    4  A    between atoms: N1_4  and  C4_6 
REMARK    5  A    between atoms: C6_10  and  C7_11 
REMARK    6  A    between atoms: C7_11  and  N3_13 
REMARK    7  A    between atoms: N3_13  and  C9_14 
REMARK    8  A    between atoms: N4_17  and  C12_18 
REMARK    9  A    between atoms: C15_21  and  O1_22 
ROOT
HETATM    1  C9  UNL     1       1.122  23.957   2.996  1.00  0.00     0.116 A 
HETATM    2  C10 UNL     1       1.051  25.364   3.037  1.00  0.00     0.062 A 
HETATM    3  C11 UNL     1       0.123  25.996   3.838  1.00  0.00     0.096 A 
HETATM    4  N4  UNL     1      -0.729  25.287   4.592  1.00  0.00    -0.338 N 
HETATM    5  C19 UNL     1      -0.707  23.931   4.591  1.00  0.00     0.121 A 
HETATM    6  N5  UNL     1      -1.559  23.223   5.347  1.00  0.00    -0.350 N 
ATOM      7  H5  UNL     1      -2.229  23.732   5.923  1.00  0.00     0.166 HD
HETATM    8  C20 UNL     1      -1.577  21.888   5.386  1.00  0.00     0.112 A 
HETATM    9  C21 UNL     1      -0.666  21.223   4.601  1.00  0.00     0.061 A 
HETATM   10  C22 UNL     1      -0.651  19.778   4.613  1.00  0.00     0.101 C 
HETATM   11  N6  UNL     1      -0.645  18.622   4.642  1.00  0.00    -0.191 NA
HETATM   12  C23 UNL     1       0.230  21.902   3.807  1.00  0.00     0.042 A 
HETATM   13  C24 UNL     1       0.202  23.283   3.808  1.00  0.00     0.050 A 
ENDROOT
BRANCH   1  14
HETATM   14  N3  UNL     1       1.925  23.426   2.303  1.00  0.00    -0.436 NA
BRANCH  14  15
HETATM   15  C7  UNL     1       2.766  23.057   1.324  1.00  0.00     0.211 C 
HETATM   16  C8  UNL     1       3.987  22.329   1.951  1.00  0.00     0.054 C 
BRANCH  15  17
HETATM   17  C6  UNL     1       2.141  21.973   0.468  1.00  0.00     0.077 A 
HETATM   18  C5  UNL     1       2.495  20.640   0.450  1.00  0.00     0.135 A 
HETATM   19  N2  UNL     1       1.687  20.041  -0.462  1.00  0.00    -0.200 N 
HETATM   20  C4  UNL     1       0.867  20.958  -0.990  1.00  0.00     0.678 A 
ATOM     21  H2  UNL     1       1.702  19.050  -0.706  1.00  0.00     0.183 HD
HETATM   22  N7  UNL     1       1.143  22.150  -0.419  1.00  0.00    -0.191 N 
ATOM     23  H7  UNL     1       0.677  23.033  -0.625  1.00  0.00     0.184 HD
BRANCH  20  24
HETATM   24  N1  UNL     1      -0.022  20.748  -1.882  1.00  0.00    -0.220 N 
ATOM     25  H1  UNL     1      -0.092  19.798  -2.248  1.00  0.00     0.178 HD
BRANCH  24  26
HETATM   26  C3  UNL     1      -0.933  21.717  -2.421  1.00  0.00     0.121 C 
BRANCH  26  27
HETATM   27  C2  UNL     1      -0.518  22.260  -3.744  1.00  0.00     0.023 C 
HETATM   28  C1  UNL     1       0.383  21.376  -4.549  1.00  0.00     0.007 C 
ENDBRANCH  26  27
BRANCH  26  29
HETATM   29  C25 UNL     1      -2.335  21.228  -2.320  1.00  0.00     0.051 C 
HETATM   30  C26 UNL     1      -2.724  20.580  -1.040  1.00  0.00     0.034 C 
HETATM   31  C27 UNL     1      -3.316  22.380  -2.583  1.00  0.00     0.034 C 
HETATM   32 CL1  UNL     1      -2.690  20.031  -3.623  1.00  0.00    -0.118 Cl
ENDBRANCH  26  29
ENDBRANCH  24  26
ENDBRANCH  20  24
ENDBRANCH  15  17
ENDBRANCH  14  15
ENDBRANCH   1  14
BRANCH   4  33
HETATM   33  C12 UNL     1      -1.683  25.985   5.414  1.00  0.00     0.091 C 
HETATM   34  C13 UNL     1      -1.067  26.740   6.561  1.00  0.00     0.028 C 
HETATM   35  C14 UNL     1      -2.232  27.299   7.373  1.00  0.00     0.034 C 
HETATM   36  C15 UNL     1      -2.829  28.482   6.606  1.00  0.00     0.120 C 
HETATM   37  C17 UNL     1      -2.490  28.355   5.141  1.00  0.00     0.034 C 
HETATM   38  C18 UNL     1      -2.531  26.952   4.624  1.00  0.00     0.028 C 
BRANCH  36  39
HETATM   39  O1  UNL     1      -2.196  29.621   7.102  1.00  0.00    -0.391 OA
HETATM   40  C16 UNL     1      -2.454  29.853   8.433  1.00  0.00     0.202 C 
ENDBRANCH  36  39
ENDBRANCH   4  33
TORSDOF 9
ENDMDL
MODEL 4
REMARK VINA RESULT: -7.567346618      1.400      1.879
REMARK  9 active torsions:
REMARK  status: ('A' for Active; 'I' for Inactive)
REMARK    1  A    between atoms: C2_2  and  C3_3 
REMARK    2  A    between atoms: C3_3  and  N1_4 
REMARK    3  A    between atoms: C3_3  and  C25_37 
REMARK    4  A    between atoms: N1_4  and  C4_6 
REMARK    5  A    between atoms: C6_10  and  C7_11 
REMARK    6  A    between atoms: C7_11  and  N3_13 
REMARK    7  A    between atoms: N3_13  and  C9_14 
REMARK    8  A    between atoms: N4_17  and  C12_18 
REMARK    9  A    between atoms: C15_21  and  O1_22 
ROOT
HETATM    1  C9  UNL     1       0.573  23.399   4.059  1.00  0.00     0.116 A 
HETATM    2  C10 UNL     1       0.859  24.777   4.133  1.00  0.00     0.062 A 
HETATM    3  C11 UNL     1      -0.029  25.645   4.734  1.00  0.00     0.096 A 
HETATM    4  N4  UNL     1      -1.179  25.197   5.258  1.00  0.00    -0.338 N 
HETATM    5  C19 UNL     1      -1.506  23.882   5.214  1.00  0.00     0.121 A 
HETATM    6  N5  UNL     1      -2.656  23.436   5.740  1.00  0.00    -0.350 N 
ATOM      7  H5  UNL     1      -3.283  24.113   6.174  1.00  0.00     0.166 HD
HETATM    8  C20 UNL     1      -3.024  22.152   5.726  1.00  0.00     0.112 A 
HETATM    9  C21 UNL     1      -2.165  21.257   5.137  1.00  0.00     0.061 A 
HETATM   10  C22 UNL     1      -2.524  19.858   5.100  1.00  0.00     0.101 C 
HETATM   11  N6  UNL     1      -2.822  18.739   5.089  1.00  0.00    -0.191 NA
HETATM   12  C23 UNL     1      -0.972  21.663   4.582  1.00  0.00     0.042 A 
HETATM   13  C24 UNL     1      -0.644  23.004   4.626  1.00  0.00     0.050 A 
ENDROOT
BRANCH   1  14
HETATM   14  N3  UNL     1       1.345  22.663   3.539  1.00  0.00    -0.436 NA
BRANCH  14  15
HETATM   15  C7  UNL     1       2.256  22.067   2.755  1.00  0.00     0.211 C 
HETATM   16  C8  UNL     1       2.260  20.541   3.049  1.00  0.00     0.054 C 
BRANCH  15  17
HETATM   17  C6  UNL     1       1.821  22.120   1.303  1.00  0.00     0.077 A 
HETATM   18  C5  UNL     1       2.298  22.982   0.337  1.00  0.00     0.135 A 
HETATM   19  N2  UNL     1       1.628  22.685  -0.806  1.00  0.00    -0.200 N 
HETATM   20  C4  UNL     1       0.772  21.685  -0.564  1.00  0.00     0.678 A 
ATOM     21  H2  UNL     1       1.757  23.151  -1.705  1.00  0.00     0.183 HD
HETATM   22  N7  UNL     1       0.888  21.334   0.733  1.00  0.00    -0.191 N 
ATOM     23  H7  UNL     1       0.358  20.599   1.203  1.00  0.00     0.184 HD
BRANCH  20  24
HETATM   24  N1  UNL     1      -0.023  21.154  -1.412  1.00  0.00    -0.220 N 
ATOM     25  H1  UNL     1      -1.017  21.172  -1.185  1.00  0.00     0.178 HD
BRANCH  24  26
HETATM   26  C3  UNL     1       0.347  20.534  -2.652  1.00  0.00     0.121 C 
BRANCH  26  27
HETATM   27  C2  UNL     1       0.651  19.081  -2.529  1.00  0.00     0.023 C 
HETATM   28  C1  UNL     1       1.840  18.605  -3.304  1.00  0.00     0.007 C 
ENDBRANCH  26  27
BRANCH  26  29
HETATM   29  C25 UNL     1      -0.603  20.919  -3.731  1.00  0.00     0.051 C 
HETATM   30  C26 UNL     1      -1.660  19.932  -4.071  1.00  0.00     0.034 C 
HETATM   31  C27 UNL     1      -1.293  22.246  -3.377  1.00  0.00     0.034 C 
HETATM   32 CL1  UNL     1       0.279  21.269  -5.265  1.00  0.00    -0.118 Cl
ENDBRANCH  26  29
ENDBRANCH  24  26
ENDBRANCH  20  24
ENDBRANCH  15  17
ENDBRANCH  14  15
ENDBRANCH   1  14
BRANCH   4  33
HETATM   33  C12 UNL     1      -2.078  26.136   5.876  1.00  0.00     0.091 C 
HETATM   34  C13 UNL     1      -1.423  27.037   6.889  1.00  0.00     0.028 C 
HETATM   35  C14 UNL     1      -2.547  27.860   7.512  1.00  0.00     0.034 C 
HETATM   36  C15 UNL     1      -2.984  28.922   6.499  1.00  0.00     0.120 C 
HETATM   37  C17 UNL     1      -2.611  28.474   5.108  1.00  0.00     0.034 C 
HETATM   38  C18 UNL     1      -2.788  27.008   4.869  1.00  0.00     0.028 C 
BRANCH  36  39
HETATM   39  O1  UNL     1      -2.248  30.067   6.801  1.00  0.00    -0.391 OA
HETATM   40  C16 UNL     1      -2.285  31.017   5.808  1.00  0.00     0.202 C 
ENDBRANCH  36  39
ENDBRANCH   4  33
TORSDOF 9
ENDMDL
MODEL 5
REMARK VINA RESULT: -7.336546257      3.061      5.317
REMARK  9 active torsions:
REMARK  status: ('A' for Active; 'I' for Inactive)
REMARK    1  A    between atoms: C2_2  and  C3_3 
REMARK    2  A    between atoms: C3_3  and  N1_4 
REMARK    3  A    between atoms: C3_3  and  C25_37 
REMARK    4  A    between atoms: N1_4  and  C4_6 
REMARK    5  A    between atoms: C6_10  and  C7_11 
REMARK    6  A    between atoms: C7_11  and  N3_13 
REMARK    7  A    between atoms: N3_13  and  C9_14 
REMARK    8  A    between atoms: N4_17  and  C12_18 
REMARK    9  A    between atoms: C15_21  and  O1_22 
ROOT
HETATM    1  C9  UNL     1       0.998  20.254   3.465  1.00  0.00     0.116 A 
HETATM    2  C10 UNL     1       0.507  19.089   4.086  1.00  0.00     0.062 A 
HETATM    3  C11 UNL     1      -0.436  19.173   5.090  1.00  0.00     0.096 A 
HETATM    4  N4  UNL     1      -0.903  20.362   5.494  1.00  0.00    -0.338 N 
HETATM    5  C19 UNL     1      -0.467  21.517   4.932  1.00  0.00     0.121 A 
HETATM    6  N5  UNL     1      -0.936  22.706   5.337  1.00  0.00    -0.350 N 
ATOM      7  H5  UNL     1      -1.632  22.721   6.083  1.00  0.00     0.166 HD
HETATM    8  C20 UNL     1      -0.542  23.871   4.816  1.00  0.00     0.112 A 
HETATM    9  C21 UNL     1       0.396  23.827   3.813  1.00  0.00     0.061 A 
HETATM   10  C22 UNL     1       0.850  25.065   3.221  1.00  0.00     0.101 C 
HETATM   11  N6  UNL     1       1.195  26.063   2.750  1.00  0.00    -0.191 NA
HETATM   12  C23 UNL     1       0.910  22.633   3.362  1.00  0.00     0.042 A 
HETATM   13  C24 UNL     1       0.465  21.459   3.938  1.00  0.00     0.050 A 
ENDROOT
BRANCH   1  14
HETATM   14  N3  UNL     1       1.808  20.168   2.603  1.00  0.00    -0.436 NA
BRANCH  14  15
HETATM   15  C7  UNL     1       2.487  19.958   1.465  1.00  0.00     0.211 C 
HETATM   16  C8  UNL     1       2.116  18.558   0.902  1.00  0.00     0.054 C 
BRANCH  15  17
HETATM   17  C6  UNL     1       1.995  20.891   0.375  1.00  0.00     0.077 A 
HETATM   18  C5  UNL     1       2.212  22.251   0.303  1.00  0.00     0.135 A 
HETATM   19  N2  UNL     1       1.588  22.680  -0.824  1.00  0.00    -0.200 N 
HETATM   20  C4  UNL     1       1.007  21.635  -1.427  1.00  0.00     0.678 A 
ATOM     21  H2  UNL     1       1.566  23.644  -1.157  1.00  0.00     0.183 HD
HETATM   22  N7  UNL     1       1.255  20.531  -0.692  1.00  0.00    -0.191 N 
ATOM     23  H7  UNL     1       0.937  19.587  -0.907  1.00  0.00     0.184 HD
BRANCH  20  24
HETATM   24  N1  UNL     1       0.330  21.673  -2.510  1.00  0.00    -0.220 N 
ATOM     25  H1  UNL     1       0.316  22.560  -3.013  1.00  0.00     0.178 HD
BRANCH  24  26
HETATM   26  C3  UNL     1      -0.412  20.589  -3.087  1.00  0.00     0.121 C 
BRANCH  26  27
HETATM   27  C2  UNL     1      -1.887  20.794  -3.067  1.00  0.00     0.023 C 
HETATM   28  C1  UNL     1      -2.338  22.219  -2.978  1.00  0.00     0.007 C 
ENDBRANCH  26  27
BRANCH  26  29
HETATM   29  C25 UNL     1       0.180  20.190  -4.392  1.00  0.00     0.051 C 
HETATM   30  C26 UNL     1      -0.675  19.368  -5.288  1.00  0.00     0.034 C 
HETATM   31  C27 UNL     1       0.621  21.436  -5.175  1.00  0.00     0.034 C 
HETATM   32 CL1  UNL     1       1.703  19.254  -4.145  1.00  0.00    -0.118 Cl
ENDBRANCH  26  29
ENDBRANCH  24  26
ENDBRANCH  20  24
ENDBRANCH  15  17
ENDBRANCH  14  15
ENDBRANCH   1  14
BRANCH   4  33
HETATM   33  C12 UNL     1      -1.887  20.407   6.544  1.00  0.00     0.091 C 
HETATM   34  C13 UNL     1      -3.229  19.851   6.151  1.00  0.00     0.028 C 
HETATM   35  C14 UNL     1      -4.154  20.100   7.340  1.00  0.00     0.034 C 
HETATM   36  C15 UNL     1      -3.798  19.099   8.443  1.00  0.00     0.120 C 
HETATM   37  C17 UNL     1      -2.378  18.625   8.254  1.00  0.00     0.034 C 
HETATM   38  C18 UNL     1      -1.434  19.690   7.793  1.00  0.00     0.028 C 
BRANCH  36  39
HETATM   39  O1  UNL     1      -4.649  18.010   8.263  1.00  0.00    -0.391 OA
HETATM   40  C16 UNL     1      -4.613  17.111   9.304  1.00  0.00     0.202 C 
ENDBRANCH  36  39
ENDBRANCH   4  33
TORSDOF 9
ENDMDL
