MODEL 1
REMARK VINA RESULT: -7.417183020      0.000      0.000
REMARK  7 active torsions:
REMARK  status: ('A' for Active; 'I' for Inactive)
REMARK    1  A    between atoms: C4_7  and  C5_8 
REMARK    2  A    between atoms: C5_8  and  O1_9 
REMARK    3  A    between atoms: C5_8  and  C6_11 
REMARK    4  A    between atoms: C10_15  and  N2_16 
REMARK       I    between atoms: N2_16  and  C11_18 
REMARK    5  A    between atoms: C11_18  and  C12_20 
REMARK    6  A    between atoms: C22_31  and  N4_32 
REMARK    7  A    between atoms: C26_36  and  C27_37 
ROOT
HETATM    1  C12 UNL     1      -0.232  20.093   7.817  1.00  0.00     0.129 C 
HETATM    2  C13 UNL     1      -0.115  21.400   8.530  1.00  0.00     0.079 C 
HETATM    3  N3  UNL     1      -0.028  22.406   9.093  1.00  0.00    -0.196 NA
HETATM    4  C14 UNL     1       1.009  19.334   8.040  1.00  0.00     0.034 C 
HETATM    5  C15 UNL     1       0.838  17.879   8.448  1.00  0.00     0.002 C 
HETATM    6  C16 UNL     1       1.034  17.674   9.928  1.00  0.00     0.000 C 
HETATM    7  C17 UNL     1      -0.161  17.328  10.720  1.00  0.00     0.000 C 
HETATM    8  C18 UNL     1      -1.482  17.743  10.150  1.00  0.00     0.000 C 
HETATM    9  C19 UNL     1      -1.516  19.211   9.776  1.00  0.00     0.002 C 
HETATM   10  C20 UNL     1      -1.501  19.423   8.292  1.00  0.00     0.034 C 
ENDROOT
BRANCH   1  11
HETATM   11  C11 UNL     1      -0.339  20.473   6.382  1.00  0.00     0.240 C 
HETATM   12  N2  UNL     1      -0.125  21.809   5.943  1.00  0.00    -0.355 N 
ATOM     13  H2  UNL     1       0.105  22.516   6.641  1.00  0.00     0.162 HD
HETATM   14  O2  UNL     1      -0.624  19.582   5.555  1.00  0.00    -0.272 OA
BRANCH  12  15
HETATM   15  C10 UNL     1      -0.215  22.214   4.575  1.00  0.00     0.084 C 
HETATM   16  C9  UNL     1      -0.730  23.635   4.427  1.00  0.00     0.025 C 
HETATM   17  C8  UNL     1       0.378  24.654   4.339  1.00  0.00     0.002 C 
HETATM   18  C7  UNL     1       1.010  24.491   2.981  1.00  0.00     0.007 C 
HETATM   19  C6  UNL     1       0.921  23.019   2.558  1.00  0.00     0.021 C 
HETATM   20  C21 UNL     1       1.102  22.155   3.855  1.00  0.00     0.032 C 
BRANCH  19  21
HETATM   21  C5  UNL     1       2.059  22.750   1.650  1.00  0.00     0.163 C 
BRANCH  21  22
HETATM   22  C4  UNL     1       2.130  21.505   0.912  1.00  0.00     0.071 A 
HETATM   23  C3  UNL     1       1.216  21.375  -0.191  1.00  0.00     0.202 A 
HETATM   24  N1  UNL     1       1.252  20.307  -0.952  1.00  0.00    -0.322 N 
HETATM   25  F1  UNL     1       0.336  22.406  -0.399  1.00  0.00    -0.185 F 
HETATM   26  C2  UNL     1       2.134  19.305  -0.735  1.00  0.00     0.080 A 
ATOM     27  H1  UNL     1       0.595  20.230  -1.729  1.00  0.00     0.169 HD
HETATM   28  C1  UNL     1       2.138  18.116  -1.621  1.00  0.00     0.089 C 
HETATM   29  N5  UNL     1       2.970  19.421   0.269  1.00  0.00    -0.332 N 
HETATM   30  C22 UNL     1       3.019  20.501   1.127  1.00  0.00     0.118 A 
ATOM     31  H5  UNL     1       3.631  18.659   0.426  1.00  0.00     0.168 HD
BRANCH  30  32
HETATM   32  N4  UNL     1       4.104  20.527   2.030  1.00  0.00    -0.366 N 
HETATM   33  C23 UNL     1       5.372  21.088   1.510  1.00  0.00     0.124 C 
HETATM   34  C24 UNL     1       6.396  20.008   1.501  1.00  0.00     0.020 C 
HETATM   35  C25 UNL     1       6.112  18.814   2.350  1.00  0.00     0.017 C 
HETATM   36  C26 UNL     1       5.319  19.102   3.598  1.00  0.00     0.111 C 
HETATM   37  C28 UNL     1       4.149  20.003   3.360  1.00  0.00     0.138 C 
BRANCH  36  38
HETATM   38  C27 UNL     1       6.261  19.561   4.680  1.00  0.00     0.393 C 
HETATM   39  F2  UNL     1       5.703  19.303   5.937  1.00  0.00    -0.171 F 
HETATM   40  F3  UNL     1       7.442  18.799   4.681  1.00  0.00    -0.171 F 
HETATM   41  F4  UNL     1       6.538  20.905   4.634  1.00  0.00    -0.171 F 
ENDBRANCH  36  38
ENDBRANCH  30  32
ENDBRANCH  21  22
BRANCH  21  42
HETATM   42  O1  UNL     1       2.246  23.849   0.760  1.00  0.00    -0.390 OA
ATOM     43  H1  UNL     1       1.551  23.857   0.110  1.00  0.00     0.210 HD
ENDBRANCH  21  42
ENDBRANCH  19  21
ENDBRANCH  12  15
ENDBRANCH   1  11
TORSDOF 7
ENDMDL
MODEL 2
REMARK VINA RESULT: -7.386200582      4.496     10.628
REMARK  7 active torsions:
REMARK  status: ('A' for Active; 'I' for Inactive)
REMARK    1  A    between atoms: C4_7  and  C5_8 
REMARK    2  A    between atoms: C5_8  and  O1_9 
REMARK    3  A    between atoms: C5_8  and  C6_11 
REMARK    4  A    between atoms: C10_15  and  N2_16 
REMARK       I    between atoms: N2_16  and  C11_18 
REMARK    5  A    between atoms: C11_18  and  C12_20 
REMARK    6  A    between atoms: C22_31  and  N4_32 
REMARK    7  A    between atoms: C26_36  and  C27_37 
ROOT
HETATM    1  C12 UNL     1       8.584  17.476  -2.998  1.00  0.00     0.129 C 
HETATM    2  C13 UNL     1       9.260  18.796  -3.164  1.00  0.00     0.079 C 
HETATM    3  N3  UNL     1       9.788  19.816  -3.305  1.00  0.00    -0.196 NA
HETATM    4  C14 UNL     1       7.312  17.513  -3.739  1.00  0.00     0.034 C 
HETATM    5  C15 UNL     1       7.024  16.315  -4.630  1.00  0.00     0.002 C 
HETATM    6  C16 UNL     1       7.305  16.602  -6.083  1.00  0.00     0.000 C 
HETATM    7  C17 UNL     1       8.459  15.915  -6.690  1.00  0.00     0.000 C 
HETATM    8  C18 UNL     1       9.537  15.466  -5.752  1.00  0.00     0.000 C 
HETATM    9  C19 UNL     1      10.017  16.581  -4.845  1.00  0.00     0.002 C 
HETATM   10  C20 UNL     1       9.558  16.404  -3.429  1.00  0.00     0.034 C 
ENDROOT
BRANCH   1  11
HETATM   11  C11 UNL     1       8.313  17.389  -1.538  1.00  0.00     0.240 C 
HETATM   12  N2  UNL     1       8.282  18.547  -0.712  1.00  0.00    -0.355 N 
ATOM     13  H2  UNL     1       8.454  19.454  -1.145  1.00  0.00     0.162 HD
HETATM   14  O2  UNL     1       8.109  16.262  -1.040  1.00  0.00    -0.272 OA
BRANCH  12  15
HETATM   15  C10 UNL     1       8.023  18.507   0.693  1.00  0.00     0.084 C 
HETATM   16  C9  UNL     1       9.255  18.840   1.517  1.00  0.00     0.025 C 
HETATM   17  C8  UNL     1       9.339  20.300   1.883  1.00  0.00     0.002 C 
HETATM   18  C7  UNL     1       8.283  20.546   2.929  1.00  0.00     0.007 C 
HETATM   19  C6  UNL     1       7.096  19.609   2.677  1.00  0.00     0.021 C 
HETATM   20  C21 UNL     1       6.946  19.463   1.121  1.00  0.00     0.032 C 
BRANCH  19  21
HETATM   21  C5  UNL     1       5.885  20.276   3.205  1.00  0.00     0.163 C 
BRANCH  21  22
HETATM   22  C4  UNL     1       4.980  19.565   4.085  1.00  0.00     0.071 A 
HETATM   23  C3  UNL     1       5.586  18.905   5.210  1.00  0.00     0.202 A 
HETATM   24  N1  UNL     1       4.837  18.288   6.093  1.00  0.00    -0.322 N 
HETATM   25  F1  UNL     1       6.953  18.963   5.307  1.00  0.00    -0.185 F 
HETATM   26  C2  UNL     1       3.490  18.249   5.983  1.00  0.00     0.080 A 
ATOM     27  H1  UNL     1       5.284  17.824   6.884  1.00  0.00     0.169 HD
HETATM   28  C1  UNL     1       2.683  17.539   7.004  1.00  0.00     0.089 C 
HETATM   29  N5  UNL     1       2.933  18.851   4.960  1.00  0.00    -0.332 N 
HETATM   30  C22 UNL     1       3.627  19.531   3.978  1.00  0.00     0.118 A 
ATOM     31  H5  UNL     1       1.916  18.816   4.884  1.00  0.00     0.168 HD
BRANCH  30  32
HETATM   32  N4  UNL     1       2.843  20.265   3.061  1.00  0.00    -0.366 N 
HETATM   33  C23 UNL     1       2.338  19.515   1.889  1.00  0.00     0.124 C 
HETATM   34  C24 UNL     1       2.946  20.095   0.661  1.00  0.00     0.020 C 
HETATM   35  C25 UNL     1       3.530  21.462   0.789  1.00  0.00     0.017 C 
HETATM   36  C26 UNL     1       2.841  22.351   1.791  1.00  0.00     0.111 C 
HETATM   37  C28 UNL     1       2.546  21.664   3.086  1.00  0.00     0.138 C 
BRANCH  36  38
HETATM   38  C27 UNL     1       1.651  22.997   1.133  1.00  0.00     0.393 C 
HETATM   39  F2  UNL     1       1.692  24.382   1.329  1.00  0.00    -0.171 F 
HETATM   40  F3  UNL     1       1.707  22.861  -0.265  1.00  0.00    -0.171 F 
HETATM   41  F4  UNL     1       0.445  22.561   1.626  1.00  0.00    -0.171 F 
ENDBRANCH  36  38
ENDBRANCH  30  32
ENDBRANCH  21  22
BRANCH  21  42
HETATM   42  O1  UNL     1       6.232  21.533   3.785  1.00  0.00    -0.390 OA
ATOM     43  H1  UNL     1       6.823  22.001   3.206  1.00  0.00     0.210 HD
ENDBRANCH  21  42
ENDBRANCH  19  21
ENDBRANCH  12  15
ENDBRANCH   1  11
TORSDOF 7
ENDMDL
MODEL 3
REMARK VINA RESULT: -7.340260482      1.792      4.870
REMARK  7 active torsions:
REMARK  status: ('A' for Active; 'I' for Inactive)
REMARK    1  A    between atoms: C4_7  and  C5_8 
REMARK    2  A    between atoms: C5_8  and  O1_9 
REMARK    3  A    between atoms: C5_8  and  C6_11 
REMARK    4  A    between atoms: C10_15  and  N2_16 
REMARK       I    between atoms: N2_16  and  C11_18 
REMARK    5  A    between atoms: C11_18  and  C12_20 
REMARK    6  A    between atoms: C22_31  and  N4_32 
REMARK    7  A    between atoms: C26_36  and  C27_37 
ROOT
HETATM    1  C12 UNL     1       0.007  19.967   7.680  1.00  0.00     0.129 C 
HETATM    2  C13 UNL     1       0.080  21.270   8.406  1.00  0.00     0.079 C 
HETATM    3  N3  UNL     1       0.133  22.273   8.978  1.00  0.00    -0.196 NA
HETATM    4  C14 UNL     1       1.268  19.241   7.908  1.00  0.00     0.034 C 
HETATM    5  C15 UNL     1       1.134  17.779   8.303  1.00  0.00     0.002 C 
HETATM    6  C16 UNL     1       1.323  17.566   9.783  1.00  0.00     0.000 C 
HETATM    7  C17 UNL     1       0.131  17.180  10.561  1.00  0.00     0.000 C 
HETATM    8  C18 UNL     1      -1.196  17.562   9.982  1.00  0.00     0.000 C 
HETATM    9  C19 UNL     1      -1.269  19.031   9.619  1.00  0.00     0.002 C 
HETATM   10  C20 UNL     1      -1.246  19.256   8.137  1.00  0.00     0.034 C 
ENDROOT
BRANCH   1  11
HETATM   11  C11 UNL     1      -0.098  20.355   6.248  1.00  0.00     0.240 C 
HETATM   12  N2  UNL     1       0.066  21.703   5.823  1.00  0.00    -0.355 N 
ATOM     13  H2  UNL     1       0.258  22.412   6.531  1.00  0.00     0.162 HD
HETATM   14  O2  UNL     1      -0.335  19.461   5.409  1.00  0.00    -0.272 OA
BRANCH  12  15
HETATM   15  C10 UNL     1      -0.023  22.117   4.458  1.00  0.00     0.084 C 
HETATM   16  C9  UNL     1      -0.637  23.500   4.315  1.00  0.00     0.025 C 
HETATM   17  C8  UNL     1       0.396  24.597   4.261  1.00  0.00     0.002 C 
HETATM   18  C7  UNL     1       1.067  24.496   2.917  1.00  0.00     0.007 C 
HETATM   19  C6  UNL     1       1.094  23.028   2.476  1.00  0.00     0.021 C 
HETATM   20  C21 UNL     1       1.310  22.163   3.768  1.00  0.00     0.032 C 
BRANCH  19  21
HETATM   21  C5  UNL     1       2.268  22.852   1.591  1.00  0.00     0.163 C 
BRANCH  21  22
HETATM   22  C4  UNL     1       2.680  21.528   1.172  1.00  0.00     0.071 A 
HETATM   23  C3  UNL     1       3.881  21.021   1.779  1.00  0.00     0.202 A 
HETATM   24  N1  UNL     1       4.295  19.807   1.505  1.00  0.00    -0.322 N 
HETATM   25  F1  UNL     1       4.544  21.854   2.644  1.00  0.00    -0.185 F 
HETATM   26  C2  UNL     1       3.622  18.998   0.655  1.00  0.00     0.080 A 
ATOM     27  H1  UNL     1       5.150  19.464   1.944  1.00  0.00     0.169 HD
HETATM   28  C1  UNL     1       4.128  17.633   0.373  1.00  0.00     0.089 C 
HETATM   29  N5  UNL     1       2.525  19.456   0.100  1.00  0.00    -0.332 N 
HETATM   30  C22 UNL     1       2.001  20.714   0.323  1.00  0.00     0.118 A 
ATOM     31  H5  UNL     1       2.025  18.840  -0.541  1.00  0.00     0.168 HD
BRANCH  30  32
HETATM   32  N4  UNL     1       0.721  20.957  -0.221  1.00  0.00    -0.366 N 
HETATM   33  C23 UNL     1      -0.429  20.490   0.586  1.00  0.00     0.124 C 
HETATM   34  C24 UNL     1      -1.145  19.434  -0.180  1.00  0.00     0.020 C 
HETATM   35  C25 UNL     1      -0.869  19.372  -1.645  1.00  0.00     0.017 C 
HETATM   36  C26 UNL     1      -0.559  20.700  -2.285  1.00  0.00     0.111 C 
HETATM   37  C28 UNL     1       0.403  21.527  -1.494  1.00  0.00     0.138 C 
BRANCH  36  38
HETATM   38  C27 UNL     1      -1.852  21.390  -2.629  1.00  0.00     0.393 C 
HETATM   39  F2  UNL     1      -1.595  22.526  -3.403  1.00  0.00    -0.171 F 
HETATM   40  F3  UNL     1      -2.646  20.591  -3.470  1.00  0.00    -0.171 F 
HETATM   41  F4  UNL     1      -2.561  21.809  -1.529  1.00  0.00    -0.171 F 
ENDBRANCH  36  38
ENDBRANCH  30  32
ENDBRANCH  21  22
BRANCH  21  42
HETATM   42  O1  UNL     1       2.154  23.704   0.452  1.00  0.00    -0.390 OA
ATOM     43  H1  UNL     1       1.846  23.202  -0.294  1.00  0.00     0.210 HD
ENDBRANCH  21  42
ENDBRANCH  19  21
ENDBRANCH  12  15
ENDBRANCH   1  11
TORSDOF 7
ENDMDL
MODEL 4
REMARK VINA RESULT: -7.242040203      4.488      7.874
REMARK  7 active torsions:
REMARK  status: ('A' for Active; 'I' for Inactive)
REMARK    1  A    between atoms: C4_7  and  C5_8 
REMARK    2  A    between atoms: C5_8  and  O1_9 
REMARK    3  A    between atoms: C5_8  and  C6_11 
REMARK    4  A    between atoms: C10_15  and  N2_16 
REMARK       I    between atoms: N2_16  and  C11_18 
REMARK    5  A    between atoms: C11_18  and  C12_20 
REMARK    6  A    between atoms: C22_31  and  N4_32 
REMARK    7  A    between atoms: C26_36  and  C27_37 
ROOT
HETATM    1  C12 UNL     1       1.873  23.012   2.149  1.00  0.00     0.129 C 
HETATM    2  C13 UNL     1       1.050  22.246   1.168  1.00  0.00     0.079 C 
HETATM    3  N3  UNL     1       0.401  21.655   0.414  1.00  0.00    -0.196 NA
HETATM    4  C14 UNL     1       1.759  24.444   1.828  1.00  0.00     0.034 C 
HETATM    5  C15 UNL     1       1.479  25.371   3.000  1.00  0.00     0.002 C 
HETATM    6  C16 UNL     1       0.030  25.781   3.070  1.00  0.00     0.000 C 
HETATM    7  C17 UNL     1      -0.766  25.239   4.188  1.00  0.00     0.000 C 
HETATM    8  C18 UNL     1      -0.277  23.960   4.795  1.00  0.00     0.000 C 
HETATM    9  C19 UNL     1      -0.038  22.881   3.760  1.00  0.00     0.002 C 
HETATM   10  C20 UNL     1       1.421  22.617   3.536  1.00  0.00     0.034 C 
ENDROOT
BRANCH   1  11
HETATM   11  C11 UNL     1       3.264  22.548   1.894  1.00  0.00     0.240 C 
HETATM   12  N2  UNL     1       3.779  21.363   2.490  1.00  0.00    -0.355 N 
ATOM     13  H2  UNL     1       3.169  20.829   3.108  1.00  0.00     0.162 HD
HETATM   14  O2  UNL     1       3.984  23.228   1.134  1.00  0.00    -0.272 OA
BRANCH  12  15
HETATM   15  C10 UNL     1       5.107  20.882   2.269  1.00  0.00     0.084 C 
HETATM   16  C9  UNL     1       6.058  21.281   3.385  1.00  0.00     0.025 C 
HETATM   17  C8  UNL     1       6.181  20.225   4.455  1.00  0.00     0.002 C 
HETATM   18  C7  UNL     1       6.978  19.095   3.859  1.00  0.00     0.007 C 
HETATM   19  C6  UNL     1       6.691  19.013   2.355  1.00  0.00     0.021 C 
HETATM   20  C21 UNL     1       5.180  19.386   2.153  1.00  0.00     0.032 C 
BRANCH  19  21
HETATM   21  C5  UNL     1       6.888  17.606   1.941  1.00  0.00     0.163 C 
BRANCH  21  22
HETATM   22  C4  UNL     1       8.216  17.030   1.905  1.00  0.00     0.071 A 
HETATM   23  C3  UNL     1       8.441  15.913   2.783  1.00  0.00     0.202 A 
HETATM   24  N1  UNL     1       9.596  15.291   2.773  1.00  0.00    -0.322 N 
HETATM   25  F1  UNL     1       7.405  15.542   3.601  1.00  0.00    -0.185 F 
HETATM   26  C2  UNL     1      10.603  15.667   1.952  1.00  0.00     0.080 A 
ATOM     27  H1  UNL     1       9.739  14.501   3.403  1.00  0.00     0.169 HD
HETATM   28  C1  UNL     1      11.892  14.935   1.975  1.00  0.00     0.089 C 
HETATM   29  N5  UNL     1      10.401  16.684   1.149  1.00  0.00    -0.332 N 
HETATM   30  C22 UNL     1       9.225  17.404   1.078  1.00  0.00     0.118 A 
ATOM     31  H5  UNL     1      11.166  16.962   0.534  1.00  0.00     0.168 HD
BRANCH  30  32
HETATM   32  N4  UNL     1       9.137  18.344   0.027  1.00  0.00    -0.366 N 
HETATM   33  C23 UNL     1       8.624  17.831  -1.264  1.00  0.00     0.124 C 
HETATM   34  C24 UNL     1       9.707  17.944  -2.279  1.00  0.00     0.020 C 
HETATM   35  C25 UNL     1      10.831  18.869  -1.953  1.00  0.00     0.017 C 
HETATM   36  C26 UNL     1      10.444  20.061  -1.116  1.00  0.00     0.111 C 
HETATM   37  C28 UNL     1       9.558  19.711   0.036  1.00  0.00     0.138 C 
BRANCH  36  38
HETATM   38  C27 UNL     1       9.910  21.139  -2.021  1.00  0.00     0.393 C 
HETATM   39  F2  UNL     1       8.524  21.247  -1.866  1.00  0.00    -0.171 F 
HETATM   40  F3  UNL     1      10.383  22.405  -1.636  1.00  0.00    -0.171 F 
HETATM   41  F4  UNL     1      10.145  20.906  -3.354  1.00  0.00    -0.171 F 
ENDBRANCH  36  38
ENDBRANCH  30  32
ENDBRANCH  21  22
BRANCH  21  42
HETATM   42  O1  UNL     1       6.012  16.752   2.678  1.00  0.00    -0.390 OA
ATOM     43  H1  UNL     1       5.311  16.448   2.113  1.00  0.00     0.210 HD
ENDBRANCH  21  42
ENDBRANCH  19  21
ENDBRANCH  12  15
ENDBRANCH   1  11
TORSDOF 7
ENDMDL
MODEL 5
REMARK VINA RESULT: -7.076396804      4.598     10.647
REMARK  7 active torsions:
REMARK  status: ('A' for Active; 'I' for Inactive)
REMARK    1  A    between atoms: C4_7  and  C5_8 
REMARK    2  A    between atoms: C5_8  and  O1_9 
REMARK    3  A    between atoms: C5_8  and  C6_11 
REMARK    4  A    between atoms: C10_15  and  N2_16 
REMARK       I    between atoms: N2_16  and  C11_18 
REMARK    5  A    between atoms: C11_18  and  C12_20 
REMARK    6  A    between atoms: C22_31  and  N4_32 
REMARK    7  A    between atoms: C26_36  and  C27_37 
ROOT
HETATM    1  C12 UNL     1      10.347  17.307  -1.413  1.00  0.00     0.129 C 
HETATM    2  C13 UNL     1      11.635  16.587  -1.182  1.00  0.00     0.079 C 
HETATM    3  N3  UNL     1      12.634  16.030  -1.015  1.00  0.00    -0.196 NA
HETATM    4  C14 UNL     1      10.651  18.723  -1.676  1.00  0.00     0.034 C 
HETATM    5  C15 UNL     1       9.947  19.345  -2.872  1.00  0.00     0.002 C 
HETATM    6  C16 UNL     1      10.848  19.442  -4.078  1.00  0.00     0.000 C 
HETATM    7  C17 UNL     1      10.539  18.559  -5.217  1.00  0.00     0.000 C 
HETATM    8  C18 UNL     1       9.771  17.312  -4.905  1.00  0.00     0.000 C 
HETATM    9  C19 UNL     1      10.400  16.509  -3.784  1.00  0.00     0.002 C 
HETATM   10  C20 UNL     1       9.608  16.583  -2.514  1.00  0.00     0.034 C 
ENDROOT
BRANCH   1  11
HETATM   11  C11 UNL     1       9.624  17.180  -0.118  1.00  0.00     0.240 C 
HETATM   12  N2  UNL     1       9.090  18.313   0.556  1.00  0.00    -0.355 N 
ATOM     13  H2  UNL     1       9.215  19.231   0.130  1.00  0.00     0.162 HD
HETATM   14  O2  UNL     1       9.491  16.040   0.375  1.00  0.00    -0.272 OA
BRANCH  12  15
HETATM   15  C10 UNL     1       8.386  18.234   1.797  1.00  0.00     0.084 C 
HETATM   16  C9  UNL     1       9.293  18.488   2.990  1.00  0.00     0.025 C 
HETATM   17  C8  UNL     1       9.291  19.930   3.431  1.00  0.00     0.002 C 
HETATM   18  C7  UNL     1       7.959  20.180   4.089  1.00  0.00     0.007 C 
HETATM   19  C6  UNL     1       6.894  19.301   3.423  1.00  0.00     0.021 C 
HETATM   20  C21 UNL     1       7.255  19.216   1.898  1.00  0.00     0.032 C 
BRANCH  19  21
HETATM   21  C5  UNL     1       5.595  19.996   3.561  1.00  0.00     0.163 C 
BRANCH  21  22
HETATM   22  C4  UNL     1       4.535  19.420   4.363  1.00  0.00     0.071 A 
HETATM   23  C3  UNL     1       4.950  18.757   5.570  1.00  0.00     0.202 A 
HETATM   24  N1  UNL     1       4.053  18.258   6.388  1.00  0.00    -0.322 N 
HETATM   25  F1  UNL     1       6.297  18.685   5.813  1.00  0.00    -0.185 F 
HETATM   26  C2  UNL     1       2.728  18.347   6.134  1.00  0.00     0.080 A 
ATOM     27  H1  UNL     1       4.365  17.790   7.239  1.00  0.00     0.169 HD
HETATM   28  C1  UNL     1       1.750  17.768   7.087  1.00  0.00     0.089 C 
HETATM   29  N5  UNL     1       2.346  18.952   5.035  1.00  0.00    -0.332 N 
HETATM   30  C22 UNL     1       3.204  19.513   4.111  1.00  0.00     0.118 A 
ATOM     31  H5  UNL     1       1.344  19.013   4.851  1.00  0.00     0.168 HD
BRANCH  30  32
HETATM   32  N4  UNL     1       2.600  20.278   3.088  1.00  0.00    -0.366 N 
HETATM   33  C23 UNL     1       2.206  19.536   1.868  1.00  0.00     0.124 C 
HETATM   34  C24 UNL     1       3.008  20.050   0.725  1.00  0.00     0.020 C 
HETATM   35  C25 UNL     1       3.661  21.378   0.913  1.00  0.00     0.017 C 
HETATM   36  C26 UNL     1       2.906  22.331   1.803  1.00  0.00     0.111 C 
HETATM   37  C28 UNL     1       2.397  21.693   3.056  1.00  0.00     0.138 C 
BRANCH  36  38
HETATM   38  C27 UNL     1       1.860  23.039   0.984  1.00  0.00     0.393 C 
HETATM   39  F2  UNL     1       2.019  22.721  -0.369  1.00  0.00    -0.171 F 
HETATM   40  F3  UNL     1       0.572  22.564   1.284  1.00  0.00    -0.171 F 
HETATM   41  F4  UNL     1       1.919  24.408   1.080  1.00  0.00    -0.171 F 
ENDBRANCH  36  38
ENDBRANCH  30  32
ENDBRANCH  21  22
BRANCH  21  42
HETATM   42  O1  UNL     1       5.805  21.355   3.946  1.00  0.00    -0.390 OA
ATOM     43  H1  UNL     1       5.891  21.898   3.170  1.00  0.00     0.210 HD
ENDBRANCH  21  42
ENDBRANCH  19  21
ENDBRANCH  12  15
ENDBRANCH   1  11
TORSDOF 7
ENDMDL
