MODEL 1
REMARK VINA RESULT: -6.090090553      0.000      0.000
REMARK  8 active torsions:
REMARK  status: ('A' for Active; 'I' for Inactive)
REMARK    1  A    between atoms: N1_2  and  C2_4 
REMARK    2  A    between atoms: C5_7  and  O1_8 
REMARK    3  A    between atoms: C7_10  and  N2_11 
REMARK    4  A    between atoms: N3_14  and  C10_15 
REMARK    5  A    between atoms: C10_15  and  C11_16 
REMARK    6  A    between atoms: C12_17  and  O2_18 
REMARK    7  A    between atoms: C16_24  and  C17_25 
REMARK    8  A    between atoms: C18_29  and  C19_30 
ROOT
HETATM    1  C11 UNL     1       9.229  18.828   0.458  1.00  0.00     0.016 A 
HETATM    2  C12 UNL     1       9.654  20.077  -0.038  1.00  0.00     0.079 A 
HETATM    3  C13 UNL     1       9.965  20.196  -1.348  1.00  0.00     0.060 A 
HETATM    4  C14 UNL     1       9.856  19.106  -2.180  1.00  0.00     0.058 A 
HETATM    5  C15 UNL     1      10.287  19.261  -3.567  1.00  0.00     0.100 C 
HETATM    6  N4  UNL     1      10.673  19.416  -4.677  1.00  0.00    -0.191 NA
HETATM    7  C16 UNL     1       9.426  17.834  -1.729  1.00  0.00     0.025 A 
HETATM    8  C18 UNL     1       9.123  17.706  -0.373  1.00  0.00    -0.009 A 
ENDROOT
BRANCH   7   9
HETATM    9  C17 UNL     1       9.170  16.835  -2.714  1.00  0.00     0.218 C 
HETATM   10 CL1  UNL     1       8.206  17.888  -3.993  1.00  0.00    -0.078 Cl
HETATM   11 CL2  UNL     1      10.456  16.307  -3.777  1.00  0.00    -0.078 Cl
HETATM   12 CL3  UNL     1       7.792  15.721  -2.577  1.00  0.00    -0.078 Cl
ENDBRANCH   7   9
BRANCH   2  13
HETATM   13  O2  UNL     1       9.747  21.192   0.837  1.00  0.00    -0.360 OA
ATOM     14  H2  UNL     1       9.259  21.985   0.646  1.00  0.00     0.217 HD
ENDBRANCH   2  13
BRANCH   8  15
HETATM   15  C19 UNL     1       8.900  16.411   0.206  1.00  0.00     0.058 C 
HETATM   16  C20 UNL     1       7.506  15.963   0.488  1.00  0.00     0.037 C 
HETATM   17  C21 UNL     1       9.567  16.528   1.644  1.00  0.00     0.037 C 
HETATM   18 CL4  UNL     1       9.837  15.002  -0.313  1.00  0.00    -0.115 Cl
ENDBRANCH   8  15
BRANCH   1  19
HETATM   19  C10 UNL     1       8.743  18.900   1.821  1.00  0.00     0.074 C 
BRANCH  19  20
HETATM   20  N3  UNL     1       7.547  19.702   2.010  1.00  0.00    -0.289 NA
HETATM   21  C9  UNL     1       6.455  18.682   1.899  1.00  0.00     0.114 C 
HETATM   22  C8  UNL     1       5.137  19.411   1.692  1.00  0.00     0.138 C 
HETATM   23  N2  UNL     1       5.042  20.543   2.551  1.00  0.00    -0.376 N 
HETATM   24  C23 UNL     1       6.089  21.082   3.373  1.00  0.00     0.138 C 
HETATM   25  C22 UNL     1       7.334  20.271   3.300  1.00  0.00     0.114 C 
BRANCH  23  26
HETATM   26  C7  UNL     1       3.772  21.234   2.619  1.00  0.00     0.066 A 
HETATM   27  C5  UNL     1       2.776  20.781   3.438  1.00  0.00     0.094 A 
HETATM   28  C4  UNL     1       1.574  21.460   3.470  1.00  0.00     0.041 A 
HETATM   29  C3  UNL     1       1.333  22.581   2.705  1.00  0.00     0.032 A 
HETATM   30  C2  UNL     1       2.362  23.007   1.891  1.00  0.00     0.029 A 
HETATM   31  C24 UNL     1       3.569  22.348   1.841  1.00  0.00     0.061 A 
BRANCH  27  32
HETATM   32  O1  UNL     1       2.984  19.645   4.233  1.00  0.00    -0.354 OA
HETATM   33  C6  UNL     1       2.274  18.463   3.996  1.00  0.00     0.210 C 
ENDBRANCH  27  32
BRANCH  30  34
HETATM   34  N1  UNL     1       2.138  24.163   1.090  1.00  0.00    -0.394 N 
HETATM   35  C1  UNL     1       1.752  25.420   1.694  1.00  0.00     0.146 C 
ATOM     36  H1  UNL     1       2.252  24.104   0.078  1.00  0.00     0.159 HD
ENDBRANCH  30  34
ENDBRANCH  23  26
ENDBRANCH  19  20
ENDBRANCH   1  19
TORSDOF 8
ENDMDL
MODEL 2
REMARK VINA RESULT: -5.944739341      5.225      9.806
REMARK  8 active torsions:
REMARK  status: ('A' for Active; 'I' for Inactive)
REMARK    1  A    between atoms: N1_2  and  C2_4 
REMARK    2  A    between atoms: C5_7  and  O1_8 
REMARK    3  A    between atoms: C7_10  and  N2_11 
REMARK    4  A    between atoms: N3_14  and  C10_15 
REMARK    5  A    between atoms: C10_15  and  C11_16 
REMARK    6  A    between atoms: C12_17  and  O2_18 
REMARK    7  A    between atoms: C16_24  and  C17_25 
REMARK    8  A    between atoms: C18_29  and  C19_30 
ROOT
HETATM    1  C11 UNL     1       1.154  22.313   1.995  1.00  0.00     0.016 A 
HETATM    2  C12 UNL     1       1.498  23.681   1.982  1.00  0.00     0.079 A 
HETATM    3  C13 UNL     1       1.010  24.493   2.944  1.00  0.00     0.060 A 
HETATM    4  C14 UNL     1       0.194  23.981   3.926  1.00  0.00     0.058 A 
HETATM    5  C15 UNL     1      -0.380  24.913   4.892  1.00  0.00     0.100 C 
HETATM    6  N4  UNL     1      -0.850  25.704   5.640  1.00  0.00    -0.191 NA
HETATM    7  C16 UNL     1      -0.172  22.613   3.985  1.00  0.00     0.025 A 
HETATM    8  C18 UNL     1       0.317  21.777   2.981  1.00  0.00    -0.009 A 
ENDROOT
BRANCH   7   9
HETATM    9  C17 UNL     1      -0.861  22.163   5.150  1.00  0.00     0.218 C 
HETATM   10 CL1  UNL     1       0.258  22.936   6.500  1.00  0.00    -0.078 Cl
HETATM   11 CL2  UNL     1      -2.359  22.931   5.629  1.00  0.00    -0.078 Cl
HETATM   12 CL3  UNL     1      -0.585  20.545   5.831  1.00  0.00    -0.078 Cl
ENDBRANCH   7   9
BRANCH   2  13
HETATM   13  O2  UNL     1       2.352  24.185   0.966  1.00  0.00    -0.360 OA
ATOM     14  H2  UNL     1       3.203  24.542   1.196  1.00  0.00     0.217 HD
ENDBRANCH   2  13
BRANCH   8  15
HETATM   15  C19 UNL     1      -0.183  20.439   2.837  1.00  0.00     0.058 C 
HETATM   16  C20 UNL     1       0.669  19.288   3.254  1.00  0.00     0.037 C 
HETATM   17  C21 UNL     1      -0.329  20.264   1.264  1.00  0.00     0.037 C 
HETATM   18 CL4  UNL     1      -1.866  20.044   3.219  1.00  0.00    -0.115 Cl
ENDBRANCH   8  15
BRANCH   1  19
HETATM   19  C10 UNL     1       1.905  21.535   1.031  1.00  0.00     0.074 C 
BRANCH  19  20
HETATM   20  N3  UNL     1       3.164  20.996   1.516  1.00  0.00    -0.289 NA
HETATM   21  C9  UNL     1       3.259  19.692   0.784  1.00  0.00     0.114 C 
HETATM   22  C8  UNL     1       4.317  18.837   1.462  1.00  0.00     0.138 C 
HETATM   23  N2  UNL     1       5.464  19.615   1.790  1.00  0.00    -0.376 N 
HETATM   24  C23 UNL     1       5.583  21.044   1.699  1.00  0.00     0.138 C 
HETATM   25  C22 UNL     1       4.360  21.673   1.134  1.00  0.00     0.114 C 
BRANCH  23  26
HETATM   26  C7  UNL     1       6.640  18.917   2.265  1.00  0.00     0.066 A 
HETATM   27  C5  UNL     1       7.575  18.448   1.384  1.00  0.00     0.094 A 
HETATM   28  C4  UNL     1       8.678  17.778   1.873  1.00  0.00     0.041 A 
HETATM   29  C3  UNL     1       8.880  17.559   3.218  1.00  0.00     0.032 A 
HETATM   30  C2  UNL     1       7.915  18.046   4.075  1.00  0.00     0.029 A 
HETATM   31  C24 UNL     1       6.806  18.717   3.615  1.00  0.00     0.061 A 
BRANCH  27  32
HETATM   32  O1  UNL     1       7.406  18.654   0.008  1.00  0.00    -0.354 OA
HETATM   33  C6  UNL     1       8.509  18.709  -0.851  1.00  0.00     0.210 C 
ENDBRANCH  27  32
BRANCH  30  34
HETATM   34  N1  UNL     1       8.099  17.832   5.471  1.00  0.00    -0.394 N 
HETATM   35  C1  UNL     1       7.384  16.781   6.161  1.00  0.00     0.146 C 
ATOM     36  H1  UNL     1       8.743  18.427   5.991  1.00  0.00     0.159 HD
ENDBRANCH  30  34
ENDBRANCH  23  26
ENDBRANCH  19  20
ENDBRANCH   1  19
TORSDOF 8
ENDMDL
MODEL 3
REMARK VINA RESULT: -5.805593105      5.183      9.686
REMARK  8 active torsions:
REMARK  status: ('A' for Active; 'I' for Inactive)
REMARK    1  A    between atoms: N1_2  and  C2_4 
REMARK    2  A    between atoms: C5_7  and  O1_8 
REMARK    3  A    between atoms: C7_10  and  N2_11 
REMARK    4  A    between atoms: N3_14  and  C10_15 
REMARK    5  A    between atoms: C10_15  and  C11_16 
REMARK    6  A    between atoms: C12_17  and  O2_18 
REMARK    7  A    between atoms: C16_24  and  C17_25 
REMARK    8  A    between atoms: C18_29  and  C19_30 
ROOT
HETATM    1  C11 UNL     1       1.137  22.318   1.990  1.00  0.00     0.016 A 
HETATM    2  C12 UNL     1       1.489  23.683   1.972  1.00  0.00     0.079 A 
HETATM    3  C13 UNL     1       1.010  24.501   2.935  1.00  0.00     0.060 A 
HETATM    4  C14 UNL     1       0.196  23.995   3.922  1.00  0.00     0.058 A 
HETATM    5  C15 UNL     1      -0.368  24.934   4.888  1.00  0.00     0.100 C 
HETATM    6  N4  UNL     1      -0.829  25.729   5.637  1.00  0.00    -0.191 NA
HETATM    7  C16 UNL     1      -0.178  22.631   3.985  1.00  0.00     0.025 A 
HETATM    8  C18 UNL     1       0.301  21.789   2.981  1.00  0.00    -0.009 A 
ENDROOT
BRANCH   7   9
HETATM    9  C17 UNL     1      -0.864  22.187   5.155  1.00  0.00     0.218 C 
HETATM   10 CL1  UNL     1       0.256  22.970   6.498  1.00  0.00    -0.078 Cl
HETATM   11 CL2  UNL     1      -2.362  22.955   5.632  1.00  0.00    -0.078 Cl
HETATM   12 CL3  UNL     1      -0.584  20.573   5.846  1.00  0.00    -0.078 Cl
ENDBRANCH   7   9
BRANCH   2  13
HETATM   13  O2  UNL     1       2.341  24.181   0.951  1.00  0.00    -0.360 OA
ATOM     14  H2  UNL     1       3.194  23.785   0.812  1.00  0.00     0.217 HD
ENDBRANCH   2  13
BRANCH   8  15
HETATM   15  C19 UNL     1      -0.208  20.454   2.843  1.00  0.00     0.058 C 
HETATM   16  C20 UNL     1       0.642  19.298   3.250  1.00  0.00     0.037 C 
HETATM   17  C21 UNL     1      -0.371  20.280   1.271  1.00  0.00     0.037 C 
HETATM   18 CL4  UNL     1      -1.889  20.068   3.242  1.00  0.00    -0.115 Cl
ENDBRANCH   8  15
BRANCH   1  19
HETATM   19  C10 UNL     1       1.878  21.533   1.024  1.00  0.00     0.074 C 
BRANCH  19  20
HETATM   20  N3  UNL     1       3.132  20.982   1.506  1.00  0.00    -0.289 NA
HETATM   21  C9  UNL     1       3.221  19.685   0.761  1.00  0.00     0.114 C 
HETATM   22  C8  UNL     1       4.272  18.816   1.432  1.00  0.00     0.138 C 
HETATM   23  N2  UNL     1       5.423  19.584   1.771  1.00  0.00    -0.376 N 
HETATM   24  C23 UNL     1       5.551  21.012   1.696  1.00  0.00     0.138 C 
HETATM   25  C22 UNL     1       4.333  21.655   1.135  1.00  0.00     0.114 C 
BRANCH  23  26
HETATM   26  C7  UNL     1       6.593  18.873   2.242  1.00  0.00     0.066 A 
HETATM   27  C5  UNL     1       6.805  18.690   3.580  1.00  0.00     0.094 A 
HETATM   28  C4  UNL     1       7.937  18.015   3.993  1.00  0.00     0.041 A 
HETATM   29  C3  UNL     1       8.868  17.516   3.108  1.00  0.00     0.032 A 
HETATM   30  C2  UNL     1       8.620  17.720   1.767  1.00  0.00     0.029 A 
HETATM   31  C24 UNL     1       7.500  18.389   1.330  1.00  0.00     0.061 A 
BRANCH  27  32
HETATM   32  O1  UNL     1       5.879  19.182   4.510  1.00  0.00    -0.354 OA
HETATM   33  C6  UNL     1       5.342  18.350   5.498  1.00  0.00     0.210 C 
ENDBRANCH  27  32
BRANCH  30  34
HETATM   34  N1  UNL     1       9.567  17.213   0.833  1.00  0.00    -0.394 N 
HETATM   35  C1  UNL     1       9.865  17.934  -0.386  1.00  0.00     0.146 C 
ATOM     36  H1  UNL     1      10.042  16.331   1.024  1.00  0.00     0.159 HD
ENDBRANCH  30  34
ENDBRANCH  23  26
ENDBRANCH  19  20
ENDBRANCH   1  19
TORSDOF 8
ENDMDL
MODEL 4
REMARK VINA RESULT: -5.763261479      4.277      8.811
REMARK  8 active torsions:
REMARK  status: ('A' for Active; 'I' for Inactive)
REMARK    1  A    between atoms: N1_2  and  C2_4 
REMARK    2  A    between atoms: C5_7  and  O1_8 
REMARK    3  A    between atoms: C7_10  and  N2_11 
REMARK    4  A    between atoms: N3_14  and  C10_15 
REMARK    5  A    between atoms: C10_15  and  C11_16 
REMARK    6  A    between atoms: C12_17  and  O2_18 
REMARK    7  A    between atoms: C16_24  and  C17_25 
REMARK    8  A    between atoms: C18_29  and  C19_30 
ROOT
HETATM    1  C11 UNL     1       4.793  19.904   3.404  1.00  0.00     0.016 A 
HETATM    2  C12 UNL     1       4.757  20.958   2.469  1.00  0.00     0.079 A 
HETATM    3  C13 UNL     1       3.612  21.655   2.304  1.00  0.00     0.060 A 
HETATM    4  C14 UNL     1       2.501  21.338   3.052  1.00  0.00     0.058 A 
HETATM    5  C15 UNL     1       1.263  22.062   2.777  1.00  0.00     0.100 C 
HETATM    6  N4  UNL     1       0.270  22.649   2.505  1.00  0.00    -0.191 NA
HETATM    7  C16 UNL     1       2.493  20.294   4.009  1.00  0.00     0.025 A 
HETATM    8  C18 UNL     1       3.669  19.561   4.166  1.00  0.00    -0.009 A 
ENDROOT
BRANCH   7   9
HETATM    9  C17 UNL     1       1.350  20.183   4.856  1.00  0.00     0.218 C 
HETATM   10 CL1  UNL     1       1.027  22.040   5.199  1.00  0.00    -0.078 Cl
HETATM   11 CL2  UNL     1      -0.214  19.804   4.167  1.00  0.00    -0.078 Cl
HETATM   12 CL3  UNL     1       1.506  19.876   6.600  1.00  0.00    -0.078 Cl
ENDBRANCH   7   9
BRANCH   2  13
HETATM   13  O2  UNL     1       5.918  21.276   1.717  1.00  0.00    -0.360 OA
ATOM     14  H2  UNL     1       6.722  21.513   2.165  1.00  0.00     0.217 HD
ENDBRANCH   2  13
BRANCH   8  15
HETATM   15  C19 UNL     1       3.679  18.353   4.942  1.00  0.00     0.058 C 
HETATM   16  C20 UNL     1       4.511  18.280   6.177  1.00  0.00     0.037 C 
HETATM   17  C21 UNL     1       4.341  17.289   3.964  1.00  0.00     0.037 C 
HETATM   18 CL4  UNL     1       2.192  17.434   5.227  1.00  0.00    -0.115 Cl
ENDBRANCH   8  15
BRANCH   1  19
HETATM   19  C10 UNL     1       6.128  19.383   3.615  1.00  0.00     0.074 C 
BRANCH  19  20
HETATM   20  N3  UNL     1       6.891  19.127   2.406  1.00  0.00    -0.289 NA
HETATM   21  C9  UNL     1       8.301  19.115   2.913  1.00  0.00     0.114 C 
HETATM   22  C8  UNL     1       9.240  19.242   1.724  1.00  0.00     0.138 C 
HETATM   23  N2  UNL     1       8.808  18.417   0.646  1.00  0.00    -0.376 N 
HETATM   24  C23 UNL     1       7.565  17.701   0.563  1.00  0.00     0.138 C 
HETATM   25  C22 UNL     1       6.751  17.845   1.799  1.00  0.00     0.114 C 
BRANCH  23  26
HETATM   26  C7  UNL     1       9.693  18.273  -0.489  1.00  0.00     0.066 A 
HETATM   27  C5  UNL     1      10.629  17.277  -0.520  1.00  0.00     0.094 A 
HETATM   28  C4  UNL     1      11.464  17.175  -1.615  1.00  0.00     0.041 A 
HETATM   29  C3  UNL     1      11.394  18.040  -2.686  1.00  0.00     0.032 A 
HETATM   30  C2  UNL     1      10.437  19.031  -2.618  1.00  0.00     0.029 A 
HETATM   31  C24 UNL     1       9.594  19.155  -1.538  1.00  0.00     0.061 A 
BRANCH  27  32
HETATM   32  O1  UNL     1      10.730  16.376   0.550  1.00  0.00    -0.354 OA
HETATM   33  C6  UNL     1      11.857  16.367   1.378  1.00  0.00     0.210 C 
ENDBRANCH  27  32
BRANCH  30  34
HETATM   34  N1  UNL     1      10.344  19.938  -3.712  1.00  0.00    -0.394 N 
HETATM   35  C1  UNL     1      11.034  19.674  -4.956  1.00  0.00     0.146 C 
ATOM     36  H1  UNL     1       9.784  20.786  -3.618  1.00  0.00     0.159 HD
ENDBRANCH  30  34
ENDBRANCH  23  26
ENDBRANCH  19  20
ENDBRANCH   1  19
TORSDOF 8
ENDMDL
MODEL 5
REMARK VINA RESULT: -5.565254293      4.466      8.610
REMARK  8 active torsions:
REMARK  status: ('A' for Active; 'I' for Inactive)
REMARK    1  A    between atoms: N1_2  and  C2_4 
REMARK    2  A    between atoms: C5_7  and  O1_8 
REMARK    3  A    between atoms: C7_10  and  N2_11 
REMARK    4  A    between atoms: N3_14  and  C10_15 
REMARK    5  A    between atoms: C10_15  and  C11_16 
REMARK    6  A    between atoms: C12_17  and  O2_18 
REMARK    7  A    between atoms: C16_24  and  C17_25 
REMARK    8  A    between atoms: C18_29  and  C19_30 
ROOT
HETATM    1  C11 UNL     1       6.585  18.064   4.963  1.00  0.00     0.016 A 
HETATM    2  C12 UNL     1       7.830  17.911   5.607  1.00  0.00     0.079 A 
HETATM    3  C13 UNL     1       8.027  16.850   6.419  1.00  0.00     0.060 A 
HETATM    4  C14 UNL     1       7.021  15.929   6.602  1.00  0.00     0.058 A 
HETATM    5  C15 UNL     1       7.251  14.848   7.556  1.00  0.00     0.100 C 
HETATM    6  N4  UNL     1       7.462  14.002   8.359  1.00  0.00    -0.191 NA
HETATM    7  C16 UNL     1       5.758  16.036   5.969  1.00  0.00     0.025 A 
HETATM    8  C18 UNL     1       5.547  17.142   5.146  1.00  0.00    -0.009 A 
ENDROOT
BRANCH   7   9
HETATM    9  C17 UNL     1       4.867  14.927   6.082  1.00  0.00     0.218 C 
HETATM   10 CL1  UNL     1       6.111  13.492   5.823  1.00  0.00    -0.078 Cl
HETATM   11 CL2  UNL     1       4.278  14.436   7.655  1.00  0.00    -0.078 Cl
HETATM   12 CL3  UNL     1       3.906  14.359   4.699  1.00  0.00    -0.078 Cl
ENDBRANCH   7   9
BRANCH   2  13
HETATM   13  O2  UNL     1       8.858  18.867   5.394  1.00  0.00    -0.360 OA
ATOM     14  H2  UNL     1       9.628  18.630   4.890  1.00  0.00     0.217 HD
ENDBRANCH   2  13
BRANCH   8  15
HETATM   15  C19 UNL     1       4.233  17.444   4.651  1.00  0.00     0.058 C 
HETATM   16  C20 UNL     1       3.887  17.115   3.239  1.00  0.00     0.037 C 
HETATM   17  C21 UNL     1       4.172  19.031   4.707  1.00  0.00     0.037 C 
HETATM   18 CL4  UNL     1       2.795  17.174   5.648  1.00  0.00    -0.115 Cl
ENDBRANCH   8  15
BRANCH   1  19
HETATM   19  C10 UNL     1       6.587  19.126   3.978  1.00  0.00     0.074 C 
BRANCH  19  20
HETATM   20  N3  UNL     1       7.564  18.981   2.913  1.00  0.00    -0.289 NA
HETATM   21  C9  UNL     1       6.709  18.598   1.743  1.00  0.00     0.114 C 
HETATM   22  C8  UNL     1       7.610  18.039   0.654  1.00  0.00     0.138 C 
HETATM   23  N2  UNL     1       8.788  18.827   0.515  1.00  0.00    -0.376 N 
HETATM   24  C23 UNL     1       9.212  19.890   1.383  1.00  0.00     0.138 C 
HETATM   25  C22 UNL     1       8.226  20.160   2.462  1.00  0.00     0.114 C 
BRANCH  23  26
HETATM   26  C7  UNL     1       9.659  18.546  -0.606  1.00  0.00     0.066 A 
HETATM   27  C5  UNL     1      10.546  17.507  -0.556  1.00  0.00     0.094 A 
HETATM   28  C4  UNL     1      11.368  17.275  -1.641  1.00  0.00     0.041 A 
HETATM   29  C3  UNL     1      11.334  18.051  -2.779  1.00  0.00     0.032 A 
HETATM   30  C2  UNL     1      10.427  19.090  -2.792  1.00  0.00     0.029 A 
HETATM   31  C24 UNL     1       9.596  19.343  -1.725  1.00  0.00     0.061 A 
BRANCH  27  32
HETATM   32  O1  UNL     1      10.609  16.694   0.584  1.00  0.00    -0.354 OA
HETATM   33  C6  UNL     1      11.837  16.243   1.079  1.00  0.00     0.210 C 
ENDBRANCH  27  32
BRANCH  30  34
HETATM   34  N1  UNL     1      10.372  19.907  -3.957  1.00  0.00    -0.394 N 
HETATM   35  C1  UNL     1      11.095  19.540  -5.155  1.00  0.00     0.146 C 
ATOM     36  H1  UNL     1       9.815  20.761  -3.947  1.00  0.00     0.159 HD
ENDBRANCH  30  34
ENDBRANCH  23  26
ENDBRANCH  19  20
ENDBRANCH   1  19
TORSDOF 8
ENDMDL
