MODEL 1
REMARK VINA RESULT: -7.085477825      0.000      0.000
REMARK  6 active torsions:
REMARK  status: ('A' for Active; 'I' for Inactive)
REMARK    1  A    between atoms: C2_2  and  C4_4 
REMARK    2  A    between atoms: C7_11  and  C8_12 
REMARK    3  A    between atoms: C9_17  and  S1_18 
REMARK    4  A    between atoms: S1_18  and  C10_19 
REMARK    5  A    between atoms: C10_19  and  C11_20 
REMARK    6  A    between atoms: C14_24  and  O1_25 
ROOT
HETATM    1  C8  UNL     1       4.386  21.072   1.522  1.00  0.00     0.192 A 
HETATM    2  N3  UNL     1       4.501  21.598   2.754  1.00  0.00    -0.275 N 
ATOM      3  H3  UNL     1       3.768  22.104   3.251  1.00  0.00     0.189 HD
HETATM    4  N4  UNL     1       5.711  21.357   3.217  1.00  0.00    -0.272 N 
ATOM      5  H4  UNL     1       6.070  21.638   4.130  1.00  0.00     0.189 HD
HETATM    6  C9  UNL     1       6.372  20.691   2.300  1.00  0.00     0.204 A 
HETATM    7  O2  UNL     1       5.542  20.523   1.263  1.00  0.00    -0.266 OA
ENDROOT
BRANCH   1   8
HETATM    8  C7  UNL     1       3.247  21.081   0.614  1.00  0.00     0.087 A 
HETATM    9  C6  UNL     1       2.660  19.869   0.226  1.00  0.00     0.066 A 
HETATM   10  C5  UNL     1       1.482  19.856  -0.474  1.00  0.00     0.064 A 
HETATM   11  N2  UNL     1       0.648  18.846  -0.869  1.00  0.00    -0.299 N 
HETATM   12  C18 UNL     1       0.828  20.999  -0.838  1.00  0.00     0.036 A 
HETATM   13  N1  UNL     1      -0.446  19.376  -1.441  1.00  0.00    -0.299 N 
ATOM     14  H2  UNL     1       0.828  17.849  -0.748  1.00  0.00     0.187 HD
HETATM   15  C4  UNL     1      -0.379  20.721  -1.450  1.00  0.00     0.063 A 
ATOM     16  H1  UNL     1      -1.223  18.833  -1.818  1.00  0.00     0.187 HD
HETATM   17  C17 UNL     1       1.426  22.189  -0.448  1.00  0.00     0.104 A 
HETATM   18  N5  UNL     1       2.581  22.176   0.245  1.00  0.00    -0.361 N 
ATOM     19  H5  UNL     1       2.979  23.077   0.509  1.00  0.00     0.165 HD
BRANCH  15  20
HETATM   20  C2  UNL     1      -1.288  21.665  -2.167  1.00  0.00    -0.059 C 
HETATM   21  C1  UNL     1      -0.706  22.272  -3.389  1.00  0.00     0.045 C 
HETATM   22  C3  UNL     1      -2.718  21.373  -2.153  1.00  0.00     0.045 C 
ENDBRANCH  15  20
ENDBRANCH   1   8
BRANCH   6  23
HETATM   23  S1  UNL     1       8.052  20.071   2.327  1.00  0.00    -0.080 SA
BRANCH  23  24
HETATM   24  C10 UNL     1       8.081  18.590   1.225  1.00  0.00     0.121 C 
BRANCH  24  25
HETATM   25  C11 UNL     1       8.612  18.941  -0.121  1.00  0.00    -0.046 A 
HETATM   26  C12 UNL     1       8.450  18.230  -1.262  1.00  0.00     0.030 A 
HETATM   27  C13 UNL     1       8.990  18.701  -2.468  1.00  0.00     0.046 A 
HETATM   28 BR1  UNL     1       8.717  17.699  -4.077  1.00  0.00    -0.048 Br
HETATM   29  C14 UNL     1       9.701  19.890  -2.529  1.00  0.00     0.100 A 
HETATM   30  C15 UNL     1       9.871  20.614  -1.371  1.00  0.00     0.046 A 
HETATM   31 BR2  UNL     1      10.840  22.238  -1.357  1.00  0.00    -0.048 Br
HETATM   32  C16 UNL     1       9.337  20.150  -0.196  1.00  0.00     0.030 A 
BRANCH  29  33
HETATM   33  O1  UNL     1      10.216  20.318  -3.743  1.00  0.00    -0.358 OA
ATOM     34  H1  UNL     1      10.332  21.247  -3.902  1.00  0.00     0.217 HD
ENDBRANCH  29  33
ENDBRANCH  24  25
ENDBRANCH  23  24
ENDBRANCH   6  23
TORSDOF 6
ENDMDL
MODEL 2
REMARK VINA RESULT: -6.868055909      4.195      8.210
REMARK  6 active torsions:
REMARK  status: ('A' for Active; 'I' for Inactive)
REMARK    1  A    between atoms: C2_2  and  C4_4 
REMARK    2  A    between atoms: C7_11  and  C8_12 
REMARK    3  A    between atoms: C9_17  and  S1_18 
REMARK    4  A    between atoms: S1_18  and  C10_19 
REMARK    5  A    between atoms: C10_19  and  C11_20 
REMARK    6  A    between atoms: C14_24  and  O1_25 
ROOT
HETATM    1  C8  UNL     1       8.443  20.150   0.734  1.00  0.00     0.192 A 
HETATM    2  N3  UNL     1       9.295  20.852   1.500  1.00  0.00    -0.275 N 
ATOM      3  H3  UNL     1      10.249  21.106   1.243  1.00  0.00     0.189 HD
HETATM    4  N4  UNL     1       8.703  21.162   2.636  1.00  0.00    -0.272 N 
ATOM      5  H4  UNL     1       9.116  21.696   3.401  1.00  0.00     0.189 HD
HETATM    6  C9  UNL     1       7.490  20.664   2.610  1.00  0.00     0.204 A 
HETATM    7  O2  UNL     1       7.345  20.044   1.432  1.00  0.00    -0.266 OA
ENDROOT
BRANCH   1   8
HETATM    8  C7  UNL     1       8.639  19.591  -0.598  1.00  0.00     0.087 A 
HETATM    9  C6  UNL     1       9.336  20.329  -1.564  1.00  0.00     0.066 A 
HETATM   10  C5  UNL     1       9.693  19.757  -2.755  1.00  0.00     0.064 A 
HETATM   11  N2  UNL     1      10.458  20.194  -3.803  1.00  0.00    -0.299 N 
HETATM   12  C18 UNL     1       9.389  18.463  -3.073  1.00  0.00     0.036 A 
HETATM   13  N1  UNL     1      10.593  19.199  -4.695  1.00  0.00    -0.299 N 
ATOM     14  H2  UNL     1      10.860  21.127  -3.892  1.00  0.00     0.187 HD
HETATM   15  C4  UNL     1       9.938  18.095  -4.287  1.00  0.00     0.063 A 
ATOM     16  H1  UNL     1      11.120  19.270  -5.566  1.00  0.00     0.187 HD
HETATM   17  C17 UNL     1       8.697  17.750  -2.106  1.00  0.00     0.104 A 
HETATM   18  N5  UNL     1       8.362  18.331  -0.939  1.00  0.00    -0.361 N 
ATOM     19  H5  UNL     1       7.855  17.763  -0.260  1.00  0.00     0.165 HD
BRANCH  15  20
HETATM   20  C2  UNL     1       9.678  16.855  -5.078  1.00  0.00    -0.059 C 
HETATM   21  C1  UNL     1       9.972  16.977  -6.527  1.00  0.00     0.045 C 
HETATM   22  C3  UNL     1       9.921  15.571  -4.427  1.00  0.00     0.045 C 
ENDBRANCH  15  20
ENDBRANCH   1   8
BRANCH   6  23
HETATM   23  S1  UNL     1       6.195  20.744   3.846  1.00  0.00    -0.080 SA
BRANCH  23  24
HETATM   24  C10 UNL     1       4.825  19.666   3.239  1.00  0.00     0.121 C 
BRANCH  24  25
HETATM   25  C11 UNL     1       3.975  20.392   2.255  1.00  0.00    -0.046 A 
HETATM   26  C12 UNL     1       3.744  21.726   2.221  1.00  0.00     0.030 A 
HETATM   27  C13 UNL     1       2.937  22.274   1.213  1.00  0.00     0.046 A 
HETATM   28 BR1  UNL     1       2.654  24.167   1.159  1.00  0.00    -0.048 Br
HETATM   29  C14 UNL     1       2.352  21.479   0.238  1.00  0.00     0.100 A 
HETATM   30  C15 UNL     1       2.581  20.122   0.273  1.00  0.00     0.046 A 
HETATM   31 BR2  UNL     1       1.813  18.960  -1.006  1.00  0.00    -0.048 Br
HETATM   32  C16 UNL     1       3.375  19.593   1.258  1.00  0.00     0.030 A 
BRANCH  29  33
HETATM   33  O1  UNL     1       1.562  22.064  -0.739  1.00  0.00    -0.358 OA
ATOM     34  H1  UNL     1       1.411  21.606  -1.557  1.00  0.00     0.217 HD
ENDBRANCH  29  33
ENDBRANCH  24  25
ENDBRANCH  23  24
ENDBRANCH   6  23
TORSDOF 6
ENDMDL
MODEL 3
REMARK VINA RESULT: -6.864630313      0.169      1.775
REMARK  6 active torsions:
REMARK  status: ('A' for Active; 'I' for Inactive)
REMARK    1  A    between atoms: C2_2  and  C4_4 
REMARK    2  A    between atoms: C7_11  and  C8_12 
REMARK    3  A    between atoms: C9_17  and  S1_18 
REMARK    4  A    between atoms: S1_18  and  C10_19 
REMARK    5  A    between atoms: C10_19  and  C11_20 
REMARK    6  A    between atoms: C14_24  and  O1_25 
ROOT
HETATM    1  C8  UNL     1       4.381  21.021   1.582  1.00  0.00     0.192 A 
HETATM    2  N3  UNL     1       4.566  21.715   2.718  1.00  0.00    -0.275 N 
ATOM      3  H3  UNL     1       3.910  22.390   3.112  1.00  0.00     0.189 HD
HETATM    4  N4  UNL     1       5.728  21.384   3.244  1.00  0.00    -0.272 N 
ATOM      5  H4  UNL     1       6.121  21.754   4.110  1.00  0.00     0.189 HD
HETATM    6  C9  UNL     1       6.290  20.496   2.460  1.00  0.00     0.204 A 
HETATM    7  O2  UNL     1       5.447  20.282   1.441  1.00  0.00    -0.266 OA
ENDROOT
BRANCH   1   8
HETATM    8  C7  UNL     1       3.256  21.044   0.655  1.00  0.00     0.087 A 
HETATM    9  C6  UNL     1       2.668  19.839   0.248  1.00  0.00     0.066 A 
HETATM   10  C5  UNL     1       1.502  19.838  -0.470  1.00  0.00     0.064 A 
HETATM   11  N2  UNL     1       0.668  18.837  -0.887  1.00  0.00    -0.299 N 
HETATM   12  C18 UNL     1       0.861  20.989  -0.836  1.00  0.00     0.036 A 
HETATM   13  N1  UNL     1      -0.413  19.378  -1.472  1.00  0.00    -0.299 N 
ATOM     14  H2  UNL     1       0.840  17.838  -0.771  1.00  0.00     0.187 HD
HETATM   15  C4  UNL     1      -0.338  20.723  -1.469  1.00  0.00     0.063 A 
ATOM     16  H1  UNL     1      -1.187  18.843  -1.866  1.00  0.00     0.187 HD
HETATM   17  C17 UNL     1       1.460  22.171  -0.427  1.00  0.00     0.104 A 
HETATM   18  N5  UNL     1       2.603  22.146   0.284  1.00  0.00    -0.361 N 
ATOM     19  H5  UNL     1       3.002  23.043   0.563  1.00  0.00     0.165 HD
BRANCH  15  20
HETATM   20  C2  UNL     1      -1.229  21.678  -2.194  1.00  0.00    -0.059 C 
HETATM   21  C1  UNL     1      -0.632  22.274  -3.413  1.00  0.00     0.045 C 
HETATM   22  C3  UNL     1      -2.664  21.406  -2.187  1.00  0.00     0.045 C 
ENDBRANCH  15  20
ENDBRANCH   1   8
BRANCH   6  23
HETATM   23  S1  UNL     1       7.866  19.659   2.625  1.00  0.00    -0.080 SA
BRANCH  23  24
HETATM   24  C10 UNL     1       7.949  18.424   1.256  1.00  0.00     0.121 C 
BRANCH  24  25
HETATM   25  C11 UNL     1       8.552  19.026   0.035  1.00  0.00    -0.046 A 
HETATM   26  C12 UNL     1       9.259  20.179  -0.029  1.00  0.00     0.030 A 
HETATM   27  C13 UNL     1       9.791  20.610  -1.253  1.00  0.00     0.046 A 
HETATM   28 BR1  UNL     1      10.820  22.224  -1.316  1.00  0.00    -0.048 Br
HETATM   29  C14 UNL     1       9.608  19.884  -2.421  1.00  0.00     0.100 A 
HETATM   30  C15 UNL     1       8.887  18.713  -2.360  1.00  0.00     0.046 A 
HETATM   31 BR2  UNL     1       8.575  17.667  -3.904  1.00  0.00    -0.048 Br
HETATM   32  C16 UNL     1       8.373  18.295  -1.159  1.00  0.00     0.030 A 
BRANCH  29  33
HETATM   33  O1  UNL     1      10.154  20.349  -3.608  1.00  0.00    -0.358 OA
ATOM     34  H1  UNL     1      10.407  19.729  -4.282  1.00  0.00     0.217 HD
ENDBRANCH  29  33
ENDBRANCH  24  25
ENDBRANCH  23  24
ENDBRANCH   6  23
TORSDOF 6
ENDMDL
MODEL 4
REMARK VINA RESULT: -6.830656405      4.137      8.082
REMARK  6 active torsions:
REMARK  status: ('A' for Active; 'I' for Inactive)
REMARK    1  A    between atoms: C2_2  and  C4_4 
REMARK    2  A    between atoms: C7_11  and  C8_12 
REMARK    3  A    between atoms: C9_17  and  S1_18 
REMARK    4  A    between atoms: S1_18  and  C10_19 
REMARK    5  A    between atoms: C10_19  and  C11_20 
REMARK    6  A    between atoms: C14_24  and  O1_25 
ROOT
HETATM    1  C8  UNL     1       8.286  20.067   0.629  1.00  0.00     0.192 A 
HETATM    2  N3  UNL     1       9.155  20.621   1.492  1.00  0.00    -0.275 N 
ATOM      3  H3  UNL     1      10.156  20.734   1.332  1.00  0.00     0.189 HD
HETATM    4  N4  UNL     1       8.508  20.994   2.578  1.00  0.00    -0.272 N 
ATOM      5  H4  UNL     1       8.920  21.446   3.395  1.00  0.00     0.189 HD
HETATM    6  C9  UNL     1       7.243  20.682   2.425  1.00  0.00     0.204 A 
HETATM    7  O2  UNL     1       7.123  20.113   1.219  1.00  0.00    -0.266 OA
ENDROOT
BRANCH   1   8
HETATM    8  C7  UNL     1       8.526  19.510  -0.697  1.00  0.00     0.087 A 
HETATM    9  C6  UNL     1       9.278  20.236  -1.629  1.00  0.00     0.066 A 
HETATM   10  C5  UNL     1       9.672  19.662  -2.808  1.00  0.00     0.064 A 
HETATM   11  N2  UNL     1      10.490  20.086  -3.820  1.00  0.00    -0.299 N 
HETATM   12  C18 UNL     1       9.352  18.377  -3.145  1.00  0.00     0.036 A 
HETATM   13  N1  UNL     1      10.639  19.093  -4.712  1.00  0.00    -0.299 N 
ATOM     14  H2  UNL     1      10.917  21.010  -3.887  1.00  0.00     0.187 HD
HETATM   15  C4  UNL     1       9.943  18.002  -4.337  1.00  0.00     0.063 A 
ATOM     16  H1  UNL     1      11.204  19.155  -5.559  1.00  0.00     0.187 HD
HETATM   17  C17 UNL     1       8.604  17.675  -2.212  1.00  0.00     0.104 A 
HETATM   18  N5  UNL     1       8.233  18.259  -1.056  1.00  0.00    -0.361 N 
ATOM     19  H5  UNL     1       7.686  17.700  -0.403  1.00  0.00     0.165 HD
BRANCH  15  20
HETATM   20  C2  UNL     1       9.688  16.772  -5.145  1.00  0.00    -0.059 C 
HETATM   21  C1  UNL     1       9.982  16.914  -6.592  1.00  0.00     0.045 C 
HETATM   22  C3  UNL     1       9.935  15.480  -4.512  1.00  0.00     0.045 C 
ENDBRANCH  15  20
ENDBRANCH   1   8
BRANCH   6  23
HETATM   23  S1  UNL     1       5.862  20.931   3.538  1.00  0.00    -0.080 SA
BRANCH  23  24
HETATM   24  C10 UNL     1       4.543  19.755   3.006  1.00  0.00     0.121 C 
BRANCH  24  25
HETATM   25  C11 UNL     1       3.700  20.353   1.934  1.00  0.00    -0.046 A 
HETATM   26  C12 UNL     1       3.038  19.682   0.961  1.00  0.00     0.030 A 
HETATM   27  C13 UNL     1       2.258  20.382   0.030  1.00  0.00     0.046 A 
HETATM   28 BR1  UNL     1       1.300  19.412  -1.315  1.00  0.00    -0.048 Br
HETATM   29  C14 UNL     1       2.145  21.764   0.070  1.00  0.00     0.100 A 
HETATM   30  C15 UNL     1       2.819  22.450   1.055  1.00  0.00     0.046 A 
HETATM   31 BR2  UNL     1       2.735  24.335   1.177  1.00  0.00    -0.048 Br
HETATM   32  C16 UNL     1       3.577  21.758   1.965  1.00  0.00     0.030 A 
BRANCH  29  33
HETATM   33  O1  UNL     1       1.361  22.414  -0.871  1.00  0.00    -0.358 OA
ATOM     34  H1  UNL     1       0.429  22.513  -0.717  1.00  0.00     0.217 HD
ENDBRANCH  29  33
ENDBRANCH  24  25
ENDBRANCH  23  24
ENDBRANCH   6  23
TORSDOF 6
ENDMDL
MODEL 5
REMARK VINA RESULT: -6.799326785      2.692      4.006
REMARK  6 active torsions:
REMARK  status: ('A' for Active; 'I' for Inactive)
REMARK    1  A    between atoms: C2_2  and  C4_4 
REMARK    2  A    between atoms: C7_11  and  C8_12 
REMARK    3  A    between atoms: C9_17  and  S1_18 
REMARK    4  A    between atoms: S1_18  and  C10_19 
REMARK    5  A    between atoms: C10_19  and  C11_20 
REMARK    6  A    between atoms: C14_24  and  O1_25 
ROOT
HETATM    1  C8  UNL     1       7.170  19.423   2.802  1.00  0.00     0.192 A 
HETATM    2  N3  UNL     1       7.810  19.337   3.980  1.00  0.00    -0.275 N 
ATOM      3  H3  UNL     1       7.495  19.756   4.856  1.00  0.00     0.189 HD
HETATM    4  N4  UNL     1       8.910  18.627   3.826  1.00  0.00    -0.272 N 
ATOM      5  H4  UNL     1       9.584  18.400   4.557  1.00  0.00     0.189 HD
HETATM    6  C9  UNL     1       8.985  18.264   2.568  1.00  0.00     0.204 A 
HETATM    7  O2  UNL     1       7.906  18.761   1.951  1.00  0.00    -0.266 OA
ENDROOT
BRANCH   1   8
HETATM    8  C7  UNL     1       5.921  20.098   2.472  1.00  0.00     0.087 A 
HETATM    9  C6  UNL     1       4.828  20.000   3.344  1.00  0.00     0.066 A 
HETATM   10  C5  UNL     1       3.712  20.769   3.155  1.00  0.00     0.064 A 
HETATM   11  N2  UNL     1       2.577  20.959   3.896  1.00  0.00    -0.299 N 
HETATM   12  C18 UNL     1       3.593  21.653   2.118  1.00  0.00     0.036 A 
HETATM   13  N1  UNL     1       1.827  21.911   3.317  1.00  0.00    -0.299 N 
ATOM     14  H2  UNL     1       2.340  20.458   4.752  1.00  0.00     0.187 HD
HETATM   15  C4  UNL     1       2.417  22.374   2.198  1.00  0.00     0.063 A 
ATOM     16  H1  UNL     1       0.930  22.240   3.677  1.00  0.00     0.187 HD
HETATM   17  C17 UNL     1       4.682  21.733   1.264  1.00  0.00     0.104 A 
HETATM   18  N5  UNL     1       5.772  20.971   1.475  1.00  0.00    -0.361 N 
ATOM     19  H5  UNL     1       6.547  21.070   0.819  1.00  0.00     0.165 HD
BRANCH  15  20
HETATM   20  C2  UNL     1       1.819  23.280   1.172  1.00  0.00    -0.059 C 
HETATM   21  C1  UNL     1       2.281  24.687   1.248  1.00  0.00     0.045 C 
HETATM   22  C3  UNL     1       1.529  22.717  -0.144  1.00  0.00     0.045 C 
ENDBRANCH  15  20
ENDBRANCH   1   8
BRANCH   6  23
HETATM   23  S1  UNL     1      10.234  17.287   1.734  1.00  0.00    -0.080 SA
BRANCH  23  24
HETATM   24  C10 UNL     1       9.484  16.728   0.142  1.00  0.00     0.121 C 
BRANCH  24  25
HETATM   25  C11 UNL     1       9.703  17.738  -0.931  1.00  0.00    -0.046 A 
HETATM   26  C12 UNL     1       9.928  19.062  -0.756  1.00  0.00     0.030 A 
HETATM   27  C13 UNL     1      10.144  19.890  -1.867  1.00  0.00     0.046 A 
HETATM   28 BR1  UNL     1      10.498  21.753  -1.597  1.00  0.00    -0.048 Br
HETATM   29  C14 UNL     1      10.128  19.390  -3.160  1.00  0.00     0.100 A 
HETATM   30  C15 UNL     1       9.895  18.046  -3.342  1.00  0.00     0.046 A 
HETATM   31 BR2  UNL     1       9.841  17.279  -5.069  1.00  0.00    -0.048 Br
HETATM   32  C16 UNL     1       9.689  17.240  -2.251  1.00  0.00     0.030 A 
BRANCH  29  33
HETATM   33  O1  UNL     1      10.347  20.247  -4.228  1.00  0.00    -0.358 OA
ATOM     34  H1  UNL     1      10.250  19.923  -5.116  1.00  0.00     0.217 HD
ENDBRANCH  29  33
ENDBRANCH  24  25
ENDBRANCH  23  24
ENDBRANCH   6  23
TORSDOF 6
ENDMDL
