MODEL 1
REMARK VINA RESULT: -7.039537384      0.000      0.000
REMARK  3 active torsions:
REMARK  status: ('A' for Active; 'I' for Inactive)
REMARK    1  A    between atoms: C1_2  and  C2_3 
REMARK       I    between atoms: C1_2  and  N2_16 
REMARK    2  A    between atoms: C2_3  and  N1_4 
REMARK    3  A    between atoms: N1_4  and  C3_6 
ROOT
HETATM    1  N1  UNL     1     -18.009  -8.665 -63.562  1.00  0.00    -0.404 N 
ATOM      2  H1  UNL     1     -18.721  -8.866 -64.264  1.00  0.00     0.154 HD
ENDROOT
BRANCH   1   3
HETATM    3  C2  UNL     1     -17.386  -9.706 -62.814  1.00  0.00     0.218 C 
BRANCH   3   4
HETATM    4  C1  UNL     1     -18.275  -9.967 -61.611  1.00  0.00     0.237 C 
HETATM    5  O1  UNL     1     -19.492 -10.204 -61.771  1.00  0.00    -0.272 OA
HETATM    6  N2  UNL     1     -17.743  -9.945 -60.302  1.00  0.00    -0.351 N 
HETATM    7  C13 UNL     1     -16.336  -9.640 -60.147  1.00  0.00     0.126 C 
HETATM    8  C18 UNL     1     -18.736 -10.264 -59.270  1.00  0.00     0.126 C 
HETATM    9  C14 UNL     1     -16.120  -8.435 -59.265  1.00  0.00     0.020 C 
HETATM   10  C15 UNL     1     -17.151  -8.352 -58.160  1.00  0.00     0.002 C 
HETATM   11  C16 UNL     1     -17.269  -9.600 -57.348  1.00  0.00     0.002 C 
HETATM   12  C17 UNL     1     -18.002 -10.714 -58.026  1.00  0.00     0.020 C 
ENDBRANCH   3   4
ENDBRANCH   1   3
BRANCH   1  13
HETATM   13  C3  UNL     1     -17.594  -7.331 -63.287  1.00  0.00     0.027 C 
HETATM   14  C4  UNL     1     -18.131  -6.691 -62.058  1.00  0.00     0.035 C 
HETATM   15  C5  UNL     1     -17.740  -5.231 -62.051  1.00  0.00    -0.012 C 
HETATM   16  C6  UNL     1     -18.235  -4.494 -63.275  1.00  0.00     0.009 C 
HETATM   17  C10 UNL     1     -16.251  -5.123 -61.959  1.00  0.00     0.009 C 
HETATM   18  C7  UNL     1     -17.571  -5.104 -64.475  1.00  0.00    -0.012 C 
HETATM   19  C8  UNL     1     -16.062  -5.056 -64.402  1.00  0.00     0.009 C 
HETATM   20  C12 UNL     1     -17.971  -6.538 -64.550  1.00  0.00     0.035 C 
HETATM   21  C9  UNL     1     -15.648  -5.803 -63.171  1.00  0.00    -0.012 C 
HETATM   22  C11 UNL     1     -16.059  -7.239 -63.212  1.00  0.00     0.035 C 
ENDBRANCH   1  13
TORSDOF 3
ENDMDL
MODEL 2
REMARK VINA RESULT: -7.007306756      2.461      3.685
REMARK  3 active torsions:
REMARK  status: ('A' for Active; 'I' for Inactive)
REMARK    1  A    between atoms: C1_2  and  C2_3 
REMARK       I    between atoms: C1_2  and  N2_16 
REMARK    2  A    between atoms: C2_3  and  N1_4 
REMARK    3  A    between atoms: N1_4  and  C3_6 
ROOT
HETATM    1  N1  UNL     1     -17.886  -8.641 -63.642  1.00  0.00    -0.404 N 
ATOM      2  H1  UNL     1     -17.949  -8.969 -64.606  1.00  0.00     0.154 HD
ENDROOT
BRANCH   1   3
HETATM    3  C2  UNL     1     -18.155  -9.509 -62.544  1.00  0.00     0.218 C 
BRANCH   3   4
HETATM    4  C1  UNL     1     -17.586 -10.867 -62.916  1.00  0.00     0.237 C 
HETATM    5  O1  UNL     1     -16.458 -10.949 -63.449  1.00  0.00    -0.272 OA
HETATM    6  N2  UNL     1     -18.318 -12.050 -62.666  1.00  0.00    -0.351 N 
HETATM    7  C13 UNL     1     -19.633 -11.920 -62.073  1.00  0.00     0.126 C 
HETATM    8  C18 UNL     1     -17.594 -13.268 -63.047  1.00  0.00     0.126 C 
HETATM    9  C14 UNL     1     -20.700 -12.539 -62.944  1.00  0.00     0.020 C 
HETATM   10  C15 UNL     1     -20.195 -13.766 -63.671  1.00  0.00     0.002 C 
HETATM   11  C16 UNL     1     -19.572 -14.786 -62.776  1.00  0.00     0.002 C 
HETATM   12  C17 UNL     1     -18.199 -14.435 -62.298  1.00  0.00     0.020 C 
ENDBRANCH   3   4
ENDBRANCH   1   3
BRANCH   1  13
HETATM   13  C3  UNL     1     -17.526  -7.298 -63.336  1.00  0.00     0.027 C 
HETATM   14  C4  UNL     1     -18.071  -6.717 -62.081  1.00  0.00     0.035 C 
HETATM   15  C5  UNL     1     -17.745  -5.242 -62.038  1.00  0.00    -0.012 C 
HETATM   16  C6  UNL     1     -18.291  -4.495 -63.234  1.00  0.00     0.009 C 
HETATM   17  C10 UNL     1     -16.261  -5.071 -61.967  1.00  0.00     0.009 C 
HETATM   18  C7  UNL     1     -17.621  -5.041 -64.460  1.00  0.00    -0.012 C 
HETATM   19  C8  UNL     1     -16.115  -4.927 -64.409  1.00  0.00     0.009 C 
HETATM   20  C12 UNL     1     -17.959  -6.489 -64.570  1.00  0.00     0.035 C 
HETATM   21  C9  UNL     1     -15.648  -5.688 -63.207  1.00  0.00    -0.012 C 
HETATM   22  C11 UNL     1     -15.996  -7.140 -63.282  1.00  0.00     0.035 C 
ENDBRANCH   1  13
TORSDOF 3
ENDMDL
MODEL 3
REMARK VINA RESULT: -6.899656633      2.607      4.061
REMARK  3 active torsions:
REMARK  status: ('A' for Active; 'I' for Inactive)
REMARK    1  A    between atoms: C1_2  and  C2_3 
REMARK       I    between atoms: C1_2  and  N2_16 
REMARK    2  A    between atoms: C2_3  and  N1_4 
REMARK    3  A    between atoms: N1_4  and  C3_6 
ROOT
HETATM    1  N1  UNL     1     -17.119  -8.883 -62.813  1.00  0.00    -0.404 N 
ATOM      2  H1  UNL     1     -16.298  -9.262 -62.343  1.00  0.00     0.154 HD
ENDROOT
BRANCH   1   3
HETATM    3  C2  UNL     1     -18.189  -9.726 -63.234  1.00  0.00     0.218 C 
BRANCH   3   4
HETATM    4  C1  UNL     1     -17.635 -11.139 -63.279  1.00  0.00     0.237 C 
HETATM    5  O1  UNL     1     -16.485 -11.347 -63.725  1.00  0.00    -0.272 OA
HETATM    6  N2  UNL     1     -18.404 -12.232 -62.821  1.00  0.00    -0.351 N 
HETATM    7  C13 UNL     1     -19.742 -11.963 -62.336  1.00  0.00     0.126 C 
HETATM    8  C18 UNL     1     -17.692 -13.512 -62.897  1.00  0.00     0.126 C 
HETATM    9  C14 UNL     1     -20.781 -12.739 -63.108  1.00  0.00     0.020 C 
HETATM   10  C15 UNL     1     -20.271 -14.100 -63.531  1.00  0.00     0.002 C 
HETATM   11  C16 UNL     1     -19.714 -14.913 -62.408  1.00  0.00     0.002 C 
HETATM   12  C17 UNL     1     -18.356 -14.484 -61.947  1.00  0.00     0.020 C 
ENDBRANCH   3   4
ENDBRANCH   1   3
BRANCH   1  13
HETATM   13  C3  UNL     1     -17.247  -7.490 -63.077  1.00  0.00     0.027 C 
HETATM   14  C4  UNL     1     -18.075  -7.093 -64.246  1.00  0.00     0.035 C 
HETATM   15  C5  UNL     1     -17.922  -5.606 -64.475  1.00  0.00    -0.012 C 
HETATM   16  C6  UNL     1     -16.483  -5.200 -64.698  1.00  0.00     0.009 C 
HETATM   17  C10 UNL     1     -18.481  -4.870 -63.299  1.00  0.00     0.009 C 
HETATM   18  C7  UNL     1     -15.719  -5.516 -63.446  1.00  0.00    -0.012 C 
HETATM   19  C8  UNL     1     -16.279  -4.825 -62.224  1.00  0.00     0.009 C 
HETATM   20  C12 UNL     1     -15.800  -6.985 -63.208  1.00  0.00     0.035 C 
HETATM   21  C9  UNL     1     -17.699  -5.274 -62.066  1.00  0.00    -0.012 C 
HETATM   22  C11 UNL     1     -17.809  -6.749 -61.850  1.00  0.00     0.035 C 
ENDBRANCH   1  13
TORSDOF 3
ENDMDL
MODEL 4
REMARK VINA RESULT: -6.837952030      2.127      6.903
REMARK  3 active torsions:
REMARK  status: ('A' for Active; 'I' for Inactive)
REMARK    1  A    between atoms: C1_2  and  C2_3 
REMARK       I    between atoms: C1_2  and  N2_16 
REMARK    2  A    between atoms: C2_3  and  N1_4 
REMARK    3  A    between atoms: N1_4  and  C3_6 
ROOT
HETATM    1  N1  UNL     1     -16.661  -7.767 -58.834  1.00  0.00    -0.404 N 
ATOM      2  H1  UNL     1     -16.542  -6.837 -58.432  1.00  0.00     0.154 HD
ENDROOT
BRANCH   1   3
HETATM    3  C2  UNL     1     -16.980  -7.945 -60.212  1.00  0.00     0.218 C 
BRANCH   3   4
HETATM    4  C1  UNL     1     -16.839  -6.583 -60.869  1.00  0.00     0.237 C 
HETATM    5  O1  UNL     1     -16.778  -5.551 -60.165  1.00  0.00    -0.272 OA
HETATM    6  N2  UNL     1     -16.775  -6.463 -62.275  1.00  0.00    -0.351 N 
HETATM    7  C13 UNL     1     -16.877  -7.673 -63.064  1.00  0.00     0.126 C 
HETATM    8  C18 UNL     1     -16.592  -5.079 -62.728  1.00  0.00     0.126 C 
HETATM    9  C14 UNL     1     -18.033  -7.611 -64.032  1.00  0.00     0.020 C 
HETATM   10  C15 UNL     1     -18.252  -6.210 -64.562  1.00  0.00     0.002 C 
HETATM   11  C16 UNL     1     -17.027  -5.586 -65.145  1.00  0.00     0.002 C 
HETATM   12  C17 UNL     1     -16.034  -5.109 -64.134  1.00  0.00     0.020 C 
ENDBRANCH   3   4
ENDBRANCH   1   3
BRANCH   1  13
HETATM   13  C3  UNL     1     -16.518  -8.941 -58.043  1.00  0.00     0.027 C 
HETATM   14  C4  UNL     1     -17.723  -9.429 -57.324  1.00  0.00     0.035 C 
HETATM   15  C5  UNL     1     -17.322 -10.552 -56.394  1.00  0.00    -0.012 C 
HETATM   16  C6  UNL     1     -16.263 -10.128 -55.401  1.00  0.00     0.009 C 
HETATM   17  C10 UNL     1     -16.826 -11.706 -57.205  1.00  0.00     0.009 C 
HETATM   18  C7  UNL     1     -15.032  -9.760 -56.174  1.00  0.00    -0.012 C 
HETATM   19  C8  UNL     1     -14.522 -10.886 -57.043  1.00  0.00     0.009 C 
HETATM   20  C12 UNL     1     -15.370  -8.618 -57.072  1.00  0.00     0.035 C 
HETATM   21  C9  UNL     1     -15.618 -11.249 -57.997  1.00  0.00    -0.012 C 
HETATM   22  C11 UNL     1     -15.992 -10.113 -58.893  1.00  0.00     0.035 C 
ENDBRANCH   1  13
TORSDOF 3
ENDMDL
MODEL 5
REMARK VINA RESULT: -6.836110660      2.416      3.953
REMARK  3 active torsions:
REMARK  status: ('A' for Active; 'I' for Inactive)
REMARK    1  A    between atoms: C1_2  and  C2_3 
REMARK       I    between atoms: C1_2  and  N2_16 
REMARK    2  A    between atoms: C2_3  and  N1_4 
REMARK    3  A    between atoms: N1_4  and  C3_6 
ROOT
HETATM    1  N1  UNL     1     -18.008  -8.594 -63.607  1.00  0.00    -0.404 N 
ATOM      2  H1  UNL     1     -18.408  -8.952 -64.475  1.00  0.00     0.154 HD
ENDROOT
BRANCH   1   3
HETATM    3  C2  UNL     1     -17.952  -9.396 -62.430  1.00  0.00     0.218 C 
BRANCH   3   4
HETATM    4  C1  UNL     1     -17.436 -10.759 -62.858  1.00  0.00     0.237 C 
HETATM    5  O1  UNL     1     -16.325 -10.859 -63.423  1.00  0.00    -0.272 OA
HETATM    6  N2  UNL     1     -18.199 -11.925 -62.626  1.00  0.00    -0.351 N 
HETATM    7  C13 UNL     1     -19.494 -11.774 -61.995  1.00  0.00     0.126 C 
HETATM    8  C18 UNL     1     -17.524 -13.152 -63.063  1.00  0.00     0.126 C 
HETATM    9  C14 UNL     1     -20.601 -12.331 -62.856  1.00  0.00     0.020 C 
HETATM   10  C15 UNL     1     -20.154 -13.549 -63.634  1.00  0.00     0.002 C 
HETATM   11  C16 UNL     1     -19.541 -14.616 -62.787  1.00  0.00     0.002 C 
HETATM   12  C17 UNL     1     -18.146 -14.323 -62.334  1.00  0.00     0.020 C 
ENDBRANCH   3   4
ENDBRANCH   1   3
BRANCH   1  13
HETATM   13  C3  UNL     1     -17.483  -7.274 -63.521  1.00  0.00     0.027 C 
HETATM   14  C4  UNL     1     -16.006  -7.135 -63.424  1.00  0.00     0.035 C 
HETATM   15  C5  UNL     1     -15.665  -5.689 -63.141  1.00  0.00    -0.012 C 
HETATM   16  C6  UNL     1     -16.317  -5.179 -61.875  1.00  0.00     0.009 C 
HETATM   17  C10 UNL     1     -16.087  -4.850 -64.304  1.00  0.00     0.009 C 
HETATM   18  C7  UNL     1     -17.803  -5.232 -62.073  1.00  0.00    -0.012 C 
HETATM   19  C8  UNL     1     -18.268  -4.431 -63.267  1.00  0.00     0.009 C 
HETATM   20  C12 UNL     1     -18.192  -6.652 -62.306  1.00  0.00     0.035 C 
HETATM   21  C9  UNL     1     -17.586  -4.991 -64.477  1.00  0.00    -0.012 C 
HETATM   22  C11 UNL     1     -17.941  -6.422 -64.719  1.00  0.00     0.035 C 
ENDBRANCH   1  13
TORSDOF 3
ENDMDL
