MODEL 1
REMARK VINA RESULT: -6.803118568      0.000      0.000
REMARK  2 active torsions:
REMARK  status: ('A' for Active; 'I' for Inactive)
REMARK    1  A    between atoms: C1_2  and  C2_4 
REMARK    2  A    between atoms: N4_11  and  N5_12 
ROOT
HETATM    1  C2  UNL     1      20.085 -19.233  23.388  1.00  0.00     0.211 A 
HETATM    2  N2  UNL     1      20.609 -20.448  23.241  1.00  0.00    -0.276 N 
ATOM      3  H2  UNL     1      20.233 -21.175  22.633  1.00  0.00     0.189 HD
HETATM    4  N3  UNL     1      21.687 -20.578  23.997  1.00  0.00    -0.248 N 
ATOM      5  H3  UNL     1      22.270 -21.411  24.066  1.00  0.00     0.192 HD
HETATM    6  C3  UNL     1      21.880 -19.438  24.650  1.00  0.00     0.361 A 
HETATM    7  O2  UNL     1      22.780 -19.116  25.474  1.00  0.00    -0.243 OA
HETATM    8  N4  UNL     1      20.879 -18.598  24.271  1.00  0.00    -0.188 N 
ENDROOT
BRANCH   1   9
HETATM    9  C1  UNL     1      18.902 -18.669  22.747  1.00  0.00     0.302 C 
HETATM   10  N1  UNL     1      18.531 -19.129  21.452  1.00  0.00    -0.054 NA
HETATM   11  O1  UNL     1      18.223 -17.789  23.337  1.00  0.00    -0.268 OA
ENDBRANCH   1   9
BRANCH   8  12
HETATM   12  N5  UNL     1      20.672 -17.292  24.696  1.00  0.00    -0.333 N 
ATOM     13  H52 UNL     1      20.309 -16.515  24.145  1.00  0.00     0.177 HD
ATOM     14  H51 UNL     1      20.870 -16.966  25.641  1.00  0.00     0.177 HD
ENDBRANCH   8  12
TORSDOF 2
ENDMDL
MODEL 2
REMARK VINA RESULT: -6.706829497      1.420      3.977
REMARK  2 active torsions:
REMARK  status: ('A' for Active; 'I' for Inactive)
REMARK    1  A    between atoms: C1_2  and  C2_4 
REMARK    2  A    between atoms: N4_11  and  N5_12 
ROOT
HETATM    1  C2  UNL     1      20.554 -18.301  24.494  1.00  0.00     0.211 A 
HETATM    2  N2  UNL     1      19.823 -17.189  24.508  1.00  0.00    -0.276 N 
ATOM      3  H2  UNL     1      19.972 -16.402  25.139  1.00  0.00     0.189 HD
HETATM    4  N3  UNL     1      18.876 -17.249  23.587  1.00  0.00    -0.248 N 
ATOM      5  H3  UNL     1      18.183 -16.526  23.395  1.00  0.00     0.192 HD
HETATM    6  C3  UNL     1      18.980 -18.413  22.956  1.00  0.00     0.361 A 
HETATM    7  O2  UNL     1      18.290 -18.891  22.013  1.00  0.00    -0.243 OA
HETATM    8  N4  UNL     1      20.028 -19.070  23.522  1.00  0.00    -0.188 N 
ENDROOT
BRANCH   1   9
HETATM    9  C1  UNL     1      21.693 -18.652  25.336  1.00  0.00     0.302 C 
HETATM   10  N1  UNL     1      22.757 -19.415  24.778  1.00  0.00    -0.054 NA
HETATM   11  O1  UNL     1      21.727 -18.281  26.538  1.00  0.00    -0.268 OA
ENDBRANCH   1   9
BRANCH   8  12
HETATM   12  N5  UNL     1      20.512 -20.328  23.185  1.00  0.00    -0.333 N 
ATOM     13  H52 UNL     1      19.997 -21.207  23.185  1.00  0.00     0.177 HD
ATOM     14  H51 UNL     1      21.472 -20.505  22.892  1.00  0.00     0.177 HD
ENDBRANCH   8  12
TORSDOF 2
ENDMDL
MODEL 3
REMARK VINA RESULT: -6.664747167      1.203      1.203
REMARK  2 active torsions:
REMARK  status: ('A' for Active; 'I' for Inactive)
REMARK    1  A    between atoms: C1_2  and  C2_4 
REMARK    2  A    between atoms: N4_11  and  N5_12 
ROOT
HETATM    1  C2  UNL     1      20.429 -19.363  23.327  1.00  0.00     0.211 A 
HETATM    2  N2  UNL     1      21.143 -20.469  23.533  1.00  0.00    -0.276 N 
ATOM      3  H2  UNL     1      21.011 -21.348  23.033  1.00  0.00     0.189 HD
HETATM    4  N3  UNL     1      22.047 -20.264  24.476  1.00  0.00    -0.248 N 
ATOM      5  H3  UNL     1      22.717 -20.951  24.819  1.00  0.00     0.192 HD
HETATM    6  C3  UNL     1      21.932 -19.011  24.900  1.00  0.00     0.361 A 
HETATM    7  O2  UNL     1      22.586 -18.389  25.783  1.00  0.00    -0.243 OA
HETATM    8  N4  UNL     1      20.923 -18.448  24.183  1.00  0.00    -0.188 N 
ENDROOT
BRANCH   1   9
HETATM    9  C1  UNL     1      19.337 -19.148  22.385  1.00  0.00     0.302 C 
HETATM   10  N1  UNL     1      18.297 -18.238  22.728  1.00  0.00    -0.054 NA
HETATM   11  O1  UNL     1      19.321 -19.760  21.286  1.00  0.00    -0.268 OA
ENDBRANCH   1   9
BRANCH   8  12
HETATM   12  N5  UNL     1      20.445 -17.148  24.282  1.00  0.00    -0.333 N 
ATOM     13  H52 UNL     1      20.991 -16.287  24.261  1.00  0.00     0.177 HD
ATOM     14  H51 UNL     1      19.458 -16.913  24.391  1.00  0.00     0.177 HD
ENDBRANCH   8  12
TORSDOF 2
ENDMDL
MODEL 4
REMARK VINA RESULT: -6.647791935      1.443      4.078
REMARK  2 active torsions:
REMARK  status: ('A' for Active; 'I' for Inactive)
REMARK    1  A    between atoms: C1_2  and  C2_4 
REMARK    2  A    between atoms: N4_11  and  N5_12 
ROOT
HETATM    1  C2  UNL     1      20.521 -18.393  24.213  1.00  0.00     0.211 A 
HETATM    2  N2  UNL     1      19.767 -17.296  24.192  1.00  0.00    -0.276 N 
ATOM      3  H2  UNL     1      19.908 -16.482  24.789  1.00  0.00     0.189 HD
HETATM    4  N3  UNL     1      18.810 -17.413  23.286  1.00  0.00    -0.248 N 
ATOM      5  H3  UNL     1      18.101 -16.712  23.074  1.00  0.00     0.192 HD
HETATM    6  C3  UNL     1      18.931 -18.599  22.701  1.00  0.00     0.361 A 
HETATM    7  O2  UNL     1      18.239 -19.128  21.787  1.00  0.00    -0.243 OA
HETATM    8  N4  UNL     1      19.999 -19.212  23.279  1.00  0.00    -0.188 N 
ENDROOT
BRANCH   1   9
HETATM    9  C1  UNL     1      21.677 -18.687  25.054  1.00  0.00     0.302 C 
HETATM   10  N1  UNL     1      21.664 -18.273  26.416  1.00  0.00    -0.054 NA
HETATM   11  O1  UNL     1      22.667 -19.299  24.575  1.00  0.00    -0.268 OA
ENDBRANCH   1   9
BRANCH   8  12
HETATM   12  N5  UNL     1      20.505 -20.472  22.987  1.00  0.00    -0.333 N 
ATOM     13  H52 UNL     1      20.786 -21.192  23.651  1.00  0.00     0.177 HD
ATOM     14  H51 UNL     1      20.651 -20.818  22.039  1.00  0.00     0.177 HD
ENDBRANCH   8  12
TORSDOF 2
ENDMDL
MODEL 5
REMARK VINA RESULT: -6.590806036      1.462      3.439
REMARK  2 active torsions:
REMARK  status: ('A' for Active; 'I' for Inactive)
REMARK    1  A    between atoms: C1_2  and  C2_4 
REMARK    2  A    between atoms: N4_11  and  N5_12 
ROOT
HETATM    1  C2  UNL     1      20.897 -18.987  24.250  1.00  0.00     0.211 A 
HETATM    2  N2  UNL     1      21.217 -20.223  23.872  1.00  0.00    -0.276 N 
ATOM      3  H2  UNL     1      21.928 -20.802  24.317  1.00  0.00     0.189 HD
HETATM    4  N3  UNL     1      20.480 -20.593  22.837  1.00  0.00    -0.248 N 
ATOM      5  H3  UNL     1      20.531 -21.492  22.360  1.00  0.00     0.192 HD
HETATM    6  C3  UNL     1      19.664 -19.592  22.527  1.00  0.00     0.361 A 
HETATM    7  O2  UNL     1      18.794 -19.506  21.615  1.00  0.00    -0.243 OA
HETATM    8  N4  UNL     1      19.924 -18.589  23.408  1.00  0.00    -0.188 N 
ENDROOT
BRANCH   1   9
HETATM    9  C1  UNL     1      21.458 -18.195  25.339  1.00  0.00     0.302 C 
HETATM   10  N1  UNL     1      20.584 -17.420  26.152  1.00  0.00    -0.054 NA
HETATM   11  O1  UNL     1      22.698 -18.203  25.552  1.00  0.00    -0.268 OA
ENDBRANCH   1   9
BRANCH   8  12
HETATM   12  N5  UNL     1      19.312 -17.344  23.469  1.00  0.00    -0.333 N 
ATOM     13  H52 UNL     1      19.451 -16.557  22.836  1.00  0.00     0.177 HD
ATOM     14  H51 UNL     1      18.632 -17.081  24.182  1.00  0.00     0.177 HD
ENDBRANCH   8  12
TORSDOF 2
ENDMDL
