MODEL 1
REMARK VINA RESULT: -5.969697514      0.000      0.000
REMARK  2 active torsions:
REMARK  status: ('A' for Active; 'I' for Inactive)
REMARK    1  A    between atoms: C1_2  and  C2_4 
REMARK       I    between atoms: C2_4  and  N2_6 
REMARK    2  A    between atoms: N2_6  and  N3_8 
ROOT
HETATM    1  C2  UNL     1      20.800 -19.195  24.127  1.00  0.00     0.325 C 
HETATM    2  O2  UNL     1      19.879 -18.371  24.341  1.00  0.00    -0.261 OA
HETATM    3  N2  UNL     1      20.658 -20.227  23.174  1.00  0.00    -0.260 N 
ATOM      4  H2  UNL     1      21.431 -20.877  23.028  1.00  0.00     0.190 HD
ENDROOT
BRANCH   3   5
HETATM    5  N3  UNL     1      19.479 -20.384  22.418  1.00  0.00    -0.273 N 
HETATM    6  C3  UNL     1      19.518 -19.962  21.200  1.00  0.00     0.215 C 
HETATM    7  N4  UNL     1      20.671 -19.364  20.614  1.00  0.00    -0.065 NA
HETATM    8  N5  UNL     1      18.378 -20.070  20.340  1.00  0.00    -0.065 NA
ATOM      9  H3  UNL     1      18.640 -20.808  22.813  1.00  0.00     0.189 HD
ENDBRANCH   3   5
BRANCH   1  10
HETATM   10  C1  UNL     1      22.030 -19.082  24.872  1.00  0.00     0.324 C 
HETATM   11  N1  UNL     1      22.376 -17.859  25.492  1.00  0.00    -0.053 NA
HETATM   12  O1  UNL     1      22.791 -20.079  24.967  1.00  0.00    -0.266 OA
ENDBRANCH   1  10
TORSDOF 2
ENDMDL
MODEL 2
REMARK VINA RESULT: -5.868186543      2.361      4.707
REMARK  2 active torsions:
REMARK  status: ('A' for Active; 'I' for Inactive)
REMARK    1  A    between atoms: C1_2  and  C2_4 
REMARK       I    between atoms: C2_4  and  N2_6 
REMARK    2  A    between atoms: N2_6  and  N3_8 
ROOT
HETATM    1  C2  UNL     1      19.298 -19.692  21.932  1.00  0.00     0.325 C 
HETATM    2  O2  UNL     1      19.500 -20.900  21.662  1.00  0.00    -0.261 OA
HETATM    3  N2  UNL     1      20.064 -19.018  22.908  1.00  0.00    -0.260 N 
ATOM      4  H2  UNL     1      19.870 -18.034  23.098  1.00  0.00     0.190 HD
ENDROOT
BRANCH   3   5
HETATM    5  N3  UNL     1      21.089 -19.665  23.626  1.00  0.00    -0.273 N 
HETATM    6  C3  UNL     1      21.633 -18.992  24.582  1.00  0.00     0.215 C 
HETATM    7  N4  UNL     1      21.247 -17.664  24.924  1.00  0.00    -0.065 NA
HETATM    8  N5  UNL     1      22.684 -19.550  25.378  1.00  0.00    -0.065 NA
ATOM      9  H3  UNL     1      21.384 -20.615  23.402  1.00  0.00     0.189 HD
ENDBRANCH   3   5
BRANCH   1  10
HETATM   10  C1  UNL     1      18.262 -18.978  21.227  1.00  0.00     0.324 C 
HETATM   11  N1  UNL     1      18.205 -17.566  21.284  1.00  0.00    -0.053 NA
HETATM   12  O1  UNL     1      17.410 -19.620  20.561  1.00  0.00    -0.266 OA
ENDBRANCH   1  10
TORSDOF 2
ENDMDL
MODEL 3
REMARK VINA RESULT: -5.866961794      2.111      4.692
REMARK  2 active torsions:
REMARK  status: ('A' for Active; 'I' for Inactive)
REMARK    1  A    between atoms: C1_2  and  C2_4 
REMARK       I    between atoms: C2_4  and  N2_6 
REMARK    2  A    between atoms: N2_6  and  N3_8 
ROOT
HETATM    1  C2  UNL     1      20.049 -19.885  21.883  1.00  0.00     0.325 C 
HETATM    2  O2  UNL     1      20.736 -19.043  21.256  1.00  0.00    -0.261 OA
HETATM    3  N2  UNL     1      20.399 -20.296  23.187  1.00  0.00    -0.260 N 
ATOM      4  H2  UNL     1      19.814 -20.982  23.665  1.00  0.00     0.190 HD
ENDROOT
BRANCH   3   5
HETATM    5  N3  UNL     1      21.534 -19.786  23.848  1.00  0.00    -0.273 N 
HETATM    6  C3  UNL     1      21.326 -18.843  24.702  1.00  0.00     0.215 C 
HETATM    7  N4  UNL     1      20.032 -18.318  24.990  1.00  0.00    -0.065 NA
HETATM    8  N5  UNL     1      22.406 -18.250  25.432  1.00  0.00    -0.065 NA
ATOM      9  H3  UNL     1      22.471 -20.144  23.661  1.00  0.00     0.189 HD
ENDBRANCH   3   5
BRANCH   1  10
HETATM   10  C1  UNL     1      18.875 -20.440  21.255  1.00  0.00     0.324 C 
HETATM   11  N1  UNL     1      18.824 -21.818  20.936  1.00  0.00    -0.053 NA
HETATM   12  O1  UNL     1      17.898 -19.693  20.995  1.00  0.00    -0.266 OA
ENDBRANCH   1  10
TORSDOF 2
ENDMDL
MODEL 4
REMARK VINA RESULT: -5.741584933      2.200      4.570
REMARK  2 active torsions:
REMARK  status: ('A' for Active; 'I' for Inactive)
REMARK    1  A    between atoms: C1_2  and  C2_4 
REMARK       I    between atoms: C2_4  and  N2_6 
REMARK    2  A    between atoms: N2_6  and  N3_8 
ROOT
HETATM    1  C2  UNL     1      19.712 -19.776  22.124  1.00  0.00     0.325 C 
HETATM    2  O2  UNL     1      18.907 -18.817  22.055  1.00  0.00    -0.261 OA
HETATM    3  N2  UNL     1      20.547 -19.957  23.248  1.00  0.00    -0.260 N 
ATOM      4  H2  UNL     1      21.188 -20.750  23.268  1.00  0.00     0.190 HD
ENDROOT
BRANCH   3   5
HETATM    5  N3  UNL     1      20.520 -19.072  24.344  1.00  0.00    -0.273 N 
HETATM    6  C3  UNL     1      21.579 -19.036  25.079  1.00  0.00     0.215 C 
HETATM    7  N4  UNL     1      22.734 -19.832  24.829  1.00  0.00    -0.065 NA
HETATM    8  N5  UNL     1      21.663 -18.173  26.219  1.00  0.00    -0.065 NA
ATOM      9  H3  UNL     1      19.707 -18.490  24.546  1.00  0.00     0.189 HD
ENDBRANCH   3   5
BRANCH   1  10
HETATM   10  C1  UNL     1      19.782 -20.714  21.031  1.00  0.00     0.324 C 
HETATM   11  N1  UNL     1      18.929 -21.842  21.006  1.00  0.00    -0.053 NA
HETATM   12  O1  UNL     1      20.606 -20.521  20.101  1.00  0.00    -0.266 OA
ENDBRANCH   1  10
TORSDOF 2
ENDMDL
MODEL 5
REMARK VINA RESULT: -5.740886889      2.099      4.537
REMARK  2 active torsions:
REMARK  status: ('A' for Active; 'I' for Inactive)
REMARK    1  A    between atoms: C1_2  and  C2_4 
REMARK       I    between atoms: C2_4  and  N2_6 
REMARK    2  A    between atoms: N2_6  and  N3_8 
ROOT
HETATM    1  C2  UNL     1      19.610 -19.817  22.184  1.00  0.00     0.325 C 
HETATM    2  O2  UNL     1      18.740 -18.914  22.176  1.00  0.00    -0.261 OA
HETATM    3  N2  UNL     1      20.534 -19.940  23.244  1.00  0.00    -0.260 N 
ATOM      4  H2  UNL     1      21.226 -20.689  23.214  1.00  0.00     0.190 HD
ENDROOT
BRANCH   3   5
HETATM    5  N3  UNL     1      20.527 -19.058  24.343  1.00  0.00    -0.273 N 
HETATM    6  C3  UNL     1      21.591 -19.038  25.070  1.00  0.00     0.215 C 
HETATM    7  N4  UNL     1      22.734 -19.849  24.808  1.00  0.00    -0.065 NA
HETATM    8  N5  UNL     1      21.695 -18.180  26.211  1.00  0.00    -0.065 NA
ATOM      9  H3  UNL     1      19.722 -18.467  24.552  1.00  0.00     0.189 HD
ENDBRANCH   3   5
BRANCH   1  10
HETATM   10  C1  UNL     1      19.663 -20.749  21.084  1.00  0.00     0.324 C 
HETATM   11  N1  UNL     1      20.522 -20.505  19.986  1.00  0.00    -0.053 NA
HETATM   12  O1  UNL     1      18.943 -21.779  21.109  1.00  0.00    -0.266 OA
ENDBRANCH   1  10
TORSDOF 2
ENDMDL
