MODEL 1
REMARK VINA RESULT: -4.303166235      0.000      0.000
REMARK  6 active torsions:
REMARK  status: ('A' for Active; 'I' for Inactive)
REMARK    1  A    between atoms: N1_1  and  C1_5 
REMARK    2  A    between atoms: C1_5  and  C2_6 
REMARK    3  A    between atoms: C2_6  and  C3_7 
REMARK    4  A    between atoms: C3_7  and  C4_8 
REMARK    5  A    between atoms: C4_8  and  N2_9 
REMARK    6  A    between atoms: C6_14  and  N3_15 
ROOT
HETATM    1  C4  UNL     1      95.859 -22.297  53.692  1.00  0.00     0.153 A 
HETATM    2  C5  UNL     1      95.296 -22.990  54.903  1.00  0.00     0.076 A 
HETATM    3  C6  UNL     1      95.597 -23.801  53.698  1.00  0.00     0.221 A 
ENDROOT
BRANCH   1   4
HETATM    4  C3  UNL     1      97.332 -21.962  53.687  1.00  0.00     0.042 C 
BRANCH   4   5
HETATM    5  C2  UNL     1      97.695 -21.084  52.480  1.00  0.00     0.030 C 
BRANCH   5   6
HETATM    6  C1  UNL     1      98.188 -19.770  53.077  1.00  0.00     0.230 C 
BRANCH   6   7
HETATM    7  N1  UNL     1      97.411 -18.648  52.685  1.00  0.00    -0.079 N 
ATOM      8  H13 UNL     1      97.893 -17.778  52.909  1.00  0.00     0.274 HD
ATOM      9  H12 UNL     1      97.379 -18.566  51.669  1.00  0.00     0.274 HD
ATOM     10  H11 UNL     1      96.469 -18.651  53.078  1.00  0.00     0.274 HD
ENDBRANCH   6   7
ENDBRANCH   5   6
ENDBRANCH   4   5
ENDBRANCH   1   4
BRANCH   1  11
HETATM   11  N2  UNL     1      94.976 -21.483  52.876  1.00  0.00    -0.068 N 
ATOM     12  H23 UNL     1      94.052 -21.454  53.308  1.00  0.00     0.275 HD
ATOM     13  H22 UNL     1      95.256 -20.505  52.953  1.00  0.00     0.275 HD
ATOM     14  H21 UNL     1      94.879 -21.728  51.891  1.00  0.00     0.275 HD
ENDBRANCH   1  11
BRANCH   3  15
HETATM   15  N3  UNL     1      94.468 -24.228  52.881  1.00  0.00    -0.072 N 
ATOM     16  H33 UNL     1      94.569 -23.879  51.928  1.00  0.00     0.274 HD
ATOM     17  H32 UNL     1      94.518 -25.232  52.707  1.00  0.00     0.274 HD
ATOM     18  H31 UNL     1      93.551 -23.979  53.254  1.00  0.00     0.274 HD
ENDBRANCH   3  15
TORSDOF 6
ENDMDL
MODEL 2
REMARK VINA RESULT: -4.245414546      5.306      7.341
REMARK  6 active torsions:
REMARK  status: ('A' for Active; 'I' for Inactive)
REMARK    1  A    between atoms: N1_1  and  C1_5 
REMARK    2  A    between atoms: C1_5  and  C2_6 
REMARK    3  A    between atoms: C2_6  and  C3_7 
REMARK    4  A    between atoms: C3_7  and  C4_8 
REMARK    5  A    between atoms: C4_8  and  N2_9 
REMARK    6  A    between atoms: C6_14  and  N3_15 
ROOT
HETATM    1  C4  UNL     1      93.628 -25.094  49.843  1.00  0.00     0.153 A 
HETATM    2  C5  UNL     1      94.692 -25.950  50.474  1.00  0.00     0.076 A 
HETATM    3  C6  UNL     1      93.909 -25.036  51.341  1.00  0.00     0.221 A 
ENDROOT
BRANCH   1   4
HETATM    4  C3  UNL     1      92.297 -25.736  49.524  1.00  0.00     0.042 C 
BRANCH   4   5
HETATM    5  C2  UNL     1      92.489 -27.138  48.930  1.00  0.00     0.030 C 
BRANCH   5   6
HETATM    6  C1  UNL     1      92.709 -26.912  47.437  1.00  0.00     0.230 C 
BRANCH   6   7
HETATM    7  N1  UNL     1      91.865 -27.707  46.617  1.00  0.00    -0.079 N 
ATOM      8  H13 UNL     1      91.445 -28.464  47.156  1.00  0.00     0.274 HD
ATOM      9  H12 UNL     1      91.021 -27.194  46.362  1.00  0.00     0.274 HD
ATOM     10  H11 UNL     1      92.334 -28.070  45.787  1.00  0.00     0.274 HD
ENDBRANCH   6   7
ENDBRANCH   5   6
ENDBRANCH   4   5
ENDBRANCH   1   4
BRANCH   1  11
HETATM   11  N2  UNL     1      94.030 -23.942  49.056  1.00  0.00    -0.068 N 
ATOM     12  H23 UNL     1      94.617 -23.334  49.628  1.00  0.00     0.275 HD
ATOM     13  H22 UNL     1      94.696 -24.240  48.343  1.00  0.00     0.275 HD
ATOM     14  H21 UNL     1      93.296 -23.386  48.618  1.00  0.00     0.275 HD
ENDBRANCH   1  11
BRANCH   3  15
HETATM   15  N3  UNL     1      94.568 -23.817  51.793  1.00  0.00    -0.072 N 
ATOM     16  H33 UNL     1      94.255 -23.573  52.733  1.00  0.00     0.274 HD
ATOM     17  H32 UNL     1      95.556 -23.996  51.976  1.00  0.00     0.274 HD
ATOM     18  H31 UNL     1      94.463 -23.017  51.167  1.00  0.00     0.274 HD
ENDBRANCH   3  15
TORSDOF 6
ENDMDL
MODEL 3
REMARK VINA RESULT: -4.236727388      1.131      4.402
REMARK  6 active torsions:
REMARK  status: ('A' for Active; 'I' for Inactive)
REMARK    1  A    between atoms: N1_1  and  C1_5 
REMARK    2  A    between atoms: C1_5  and  C2_6 
REMARK    3  A    between atoms: C2_6  and  C3_7 
REMARK    4  A    between atoms: C3_7  and  C4_8 
REMARK    5  A    between atoms: C4_8  and  N2_9 
REMARK    6  A    between atoms: C6_14  and  N3_15 
ROOT
HETATM    1  C4  UNL     1      97.566 -21.270  52.797  1.00  0.00     0.153 A 
HETATM    2  C5  UNL     1      99.057 -21.079  52.844  1.00  0.00     0.076 A 
HETATM    3  C6  UNL     1      98.189 -20.019  53.410  1.00  0.00     0.221 A 
ENDROOT
BRANCH   1   4
HETATM    4  C3  UNL     1      96.933 -22.173  53.831  1.00  0.00     0.042 C 
BRANCH   4   5
HETATM    5  C2  UNL     1      96.112 -23.285  53.163  1.00  0.00     0.030 C 
BRANCH   5   6
HETATM    6  C1  UNL     1      95.395 -23.993  54.309  1.00  0.00     0.230 C 
BRANCH   6   7
HETATM    7  N1  UNL     1      93.995 -24.118  54.104  1.00  0.00    -0.079 N 
ATOM      8  H13 UNL     1      93.789 -24.888  53.469  1.00  0.00     0.274 HD
ATOM      9  H12 UNL     1      93.536 -24.466  54.946  1.00  0.00     0.274 HD
ATOM     10  H11 UNL     1      93.555 -23.255  53.783  1.00  0.00     0.274 HD
ENDBRANCH   6   7
ENDBRANCH   5   6
ENDBRANCH   4   5
ENDBRANCH   1   4
BRANCH   1  11
HETATM   11  N2  UNL     1      96.878 -21.105  51.530  1.00  0.00    -0.068 N 
ATOM     12  H23 UNL     1      97.307 -21.714  50.833  1.00  0.00     0.275 HD
ATOM     13  H22 UNL     1      95.946 -21.515  51.598  1.00  0.00     0.275 HD
ATOM     14  H21 UNL     1      96.802 -20.161  51.150  1.00  0.00     0.275 HD
ENDBRANCH   1  11
BRANCH   3  15
HETATM   15  N3  UNL     1      98.019 -18.803  52.624  1.00  0.00    -0.072 N 
ATOM     16  H33 UNL     1      98.341 -18.953  51.668  1.00  0.00     0.274 HD
ATOM     17  H32 UNL     1      97.028 -18.629  52.452  1.00  0.00     0.274 HD
ATOM     18  H31 UNL     1      98.461 -17.973  53.019  1.00  0.00     0.274 HD
ENDBRANCH   3  15
TORSDOF 6
ENDMDL
MODEL 4
REMARK VINA RESULT: -4.200580781      5.415      6.596
REMARK  6 active torsions:
REMARK  status: ('A' for Active; 'I' for Inactive)
REMARK    1  A    between atoms: N1_1  and  C1_5 
REMARK    2  A    between atoms: C1_5  and  C2_6 
REMARK    3  A    between atoms: C2_6  and  C3_7 
REMARK    4  A    between atoms: C3_7  and  C4_8 
REMARK    5  A    between atoms: C4_8  and  N2_9 
REMARK    6  A    between atoms: C6_14  and  N3_15 
ROOT
HETATM    1  C4  UNL     1      92.586 -25.884  49.179  1.00  0.00     0.153 A 
HETATM    2  C5  UNL     1      93.650 -26.947  49.174  1.00  0.00     0.076 A 
HETATM    3  C6  UNL     1      93.035 -26.553  47.883  1.00  0.00     0.221 A 
ENDROOT
BRANCH   1   4
HETATM    4  C3  UNL     1      93.025 -24.440  49.272  1.00  0.00     0.042 C 
BRANCH   4   5
HETATM    5  C2  UNL     1      94.071 -24.252  50.380  1.00  0.00     0.030 C 
BRANCH   5   6
HETATM    6  C1  UNL     1      95.202 -23.460  49.731  1.00  0.00     0.230 C 
BRANCH   6   7
HETATM    7  N1  UNL     1      95.825 -24.148  48.657  1.00  0.00    -0.079 N 
ATOM      8  H13 UNL     1      96.838 -24.164  48.777  1.00  0.00     0.274 HD
ATOM      9  H12 UNL     1      95.633 -25.149  48.707  1.00  0.00     0.274 HD
ATOM     10  H11 UNL     1      95.575 -23.776  47.740  1.00  0.00     0.274 HD
ENDBRANCH   6   7
ENDBRANCH   5   6
ENDBRANCH   4   5
ENDBRANCH   1   4
BRANCH   1  11
HETATM   11  N2  UNL     1      91.260 -26.221  49.664  1.00  0.00    -0.068 N 
ATOM     12  H23 UNL     1      90.718 -25.364  49.781  1.00  0.00     0.275 HD
ATOM     13  H22 UNL     1      90.737 -26.680  48.918  1.00  0.00     0.275 HD
ATOM     14  H21 UNL     1      91.193 -26.780  50.514  1.00  0.00     0.275 HD
ENDBRANCH   1  11
BRANCH   3  15
HETATM   15  N3  UNL     1      92.062 -27.468  47.298  1.00  0.00    -0.072 N 
ATOM     16  H33 UNL     1      92.260 -28.426  47.589  1.00  0.00     0.274 HD
ATOM     17  H32 UNL     1      91.149 -27.337  47.733  1.00  0.00     0.274 HD
ATOM     18  H31 UNL     1      91.983 -27.417  46.282  1.00  0.00     0.274 HD
ENDBRANCH   3  15
TORSDOF 6
ENDMDL
MODEL 5
REMARK VINA RESULT: -4.197588698      4.814      6.476
REMARK  6 active torsions:
REMARK  status: ('A' for Active; 'I' for Inactive)
REMARK    1  A    between atoms: N1_1  and  C1_5 
REMARK    2  A    between atoms: C1_5  and  C2_6 
REMARK    3  A    between atoms: C2_6  and  C3_7 
REMARK    4  A    between atoms: C3_7  and  C4_8 
REMARK    5  A    between atoms: C4_8  and  N2_9 
REMARK    6  A    between atoms: C6_14  and  N3_15 
ROOT
HETATM    1  C4  UNL     1      93.492 -25.888  49.165  1.00  0.00     0.153 A 
HETATM    2  C5  UNL     1      92.038 -25.797  49.537  1.00  0.00     0.076 A 
HETATM    3  C6  UNL     1      92.540 -27.059  48.942  1.00  0.00     0.221 A 
ENDROOT
BRANCH   1   4
HETATM    4  C3  UNL     1      94.492 -26.151  50.268  1.00  0.00     0.042 C 
BRANCH   4   5
HETATM    5  C2  UNL     1      94.653 -24.922  51.172  1.00  0.00     0.030 C 
BRANCH   5   6
HETATM    6  C1  UNL     1      94.461 -25.443  52.593  1.00  0.00     0.230 C 
BRANCH   6   7
HETATM    7  N1  UNL     1      93.269 -24.976  53.207  1.00  0.00    -0.079 N 
ATOM      8  H13 UNL     1      93.474 -24.514  54.092  1.00  0.00     0.274 HD
ATOM      9  H12 UNL     1      92.881 -24.186  52.690  1.00  0.00     0.274 HD
ATOM     10  H11 UNL     1      92.567 -25.706  53.333  1.00  0.00     0.274 HD
ENDBRANCH   6   7
ENDBRANCH   5   6
ENDBRANCH   4   5
ENDBRANCH   1   4
BRANCH   1  11
HETATM   11  N2  UNL     1      93.958 -25.188  47.981  1.00  0.00    -0.068 N 
ATOM     12  H23 UNL     1      94.882 -25.539  47.726  1.00  0.00     0.275 HD
ATOM     13  H22 UNL     1      93.408 -25.488  47.176  1.00  0.00     0.275 HD
ATOM     14  H21 UNL     1      93.982 -24.169  48.010  1.00  0.00     0.275 HD
ENDBRANCH   1  11
BRANCH   3  15
HETATM   15  N3  UNL     1      92.207 -27.318  47.546  1.00  0.00    -0.072 N 
ATOM     16  H33 UNL     1      92.344 -28.305  47.328  1.00  0.00     0.274 HD
ATOM     17  H32 UNL     1      91.199 -27.245  47.404  1.00  0.00     0.274 HD
ATOM     18  H31 UNL     1      92.703 -26.734  46.872  1.00  0.00     0.274 HD
ENDBRANCH   3  15
TORSDOF 6
ENDMDL
