MODEL 1
REMARK VINA RESULT: -4.356739427      0.000      0.000
REMARK  2 active torsions:
REMARK  status: ('A' for Active; 'I' for Inactive)
REMARK    1  A    between atoms: C3_6  and  C4_7 
REMARK    2  A    between atoms: C4_7  and  N2_8 
ROOT
HETATM    1  C1  UNL     1      93.798 -27.920  47.146  1.00  0.00     0.071 C 
HETATM    2  C2  UNL     1      92.852 -26.754  47.102  1.00  0.00     0.383 C 
HETATM    3  N1  UNL     1      92.355 -26.483  48.452  1.00  0.00    -0.016 N 
ATOM      4  H11 UNL     1      92.153 -27.238  49.108  1.00  0.00     0.282 HD
ATOM      5  H12 UNL     1      91.410 -26.134  48.612  1.00  0.00     0.282 HD
HETATM    6  C3  UNL     1      93.522 -25.626  48.615  1.00  0.00     0.415 C 
HETATM    7  N3  UNL     1      93.515 -25.463  47.175  1.00  0.00    -0.016 N 
ATOM      8  H31 UNL     1      93.109 -24.635  46.738  1.00  0.00     0.282 HD
ATOM      9  H32 UNL     1      94.377 -25.281  46.660  1.00  0.00     0.282 HD
ENDROOT
BRANCH   6  10
HETATM   10  C4  UNL     1      93.135 -24.397  49.393  1.00  0.00     0.333 C 
BRANCH  10  11
HETATM   11  N2  UNL     1      94.141 -23.912  50.281  1.00  0.00     0.083 N 
HETATM   12  C5  UNL     1      95.200 -24.914  50.337  1.00  0.00     0.309 C 
HETATM   13  C6  UNL     1      94.716 -22.642  49.897  1.00  0.00     0.309 C 
ENDBRANCH  10  11
ENDBRANCH   6  10
TORSDOF 2
ENDMDL
MODEL 2
REMARK VINA RESULT: -4.257886560      6.189      7.280
REMARK  2 active torsions:
REMARK  status: ('A' for Active; 'I' for Inactive)
REMARK    1  A    between atoms: C3_6  and  C4_7 
REMARK    2  A    between atoms: C4_7  and  N2_8 
ROOT
HETATM    1  C1  UNL     1      93.895 -23.981  55.309  1.00  0.00     0.071 C 
HETATM    2  C2  UNL     1      95.087 -24.068  54.398  1.00  0.00     0.383 C 
HETATM    3  N1  UNL     1      95.053 -22.954  53.449  1.00  0.00    -0.016 N 
ATOM      4  H11 UNL     1      94.175 -22.616  53.055  1.00  0.00     0.282 HD
ATOM      5  H12 UNL     1      95.404 -23.055  52.497  1.00  0.00     0.282 HD
HETATM    6  C3  UNL     1      95.781 -22.190  54.453  1.00  0.00     0.415 C 
HETATM    7  N3  UNL     1      96.285 -23.455  54.949  1.00  0.00    -0.016 N 
ATOM      8  H31 UNL     1      97.214 -23.789  54.694  1.00  0.00     0.282 HD
ATOM      9  H32 UNL     1      96.538 -23.575  55.929  1.00  0.00     0.282 HD
ENDROOT
BRANCH   6  10
HETATM   10  C4  UNL     1      96.805 -21.322  53.774  1.00  0.00     0.333 C 
BRANCH  10  11
HETATM   11  N2  UNL     1      96.856 -19.977  54.250  1.00  0.00     0.083 N 
HETATM   12  C5  UNL     1      97.084 -19.110  53.099  1.00  0.00     0.309 C 
HETATM   13  C6  UNL     1      95.661 -19.540  54.937  1.00  0.00     0.309 C 
ENDBRANCH  10  11
ENDBRANCH   6  10
TORSDOF 2
ENDMDL
MODEL 3
REMARK VINA RESULT: -4.139175472      1.325      4.260
REMARK  2 active torsions:
REMARK  status: ('A' for Active; 'I' for Inactive)
REMARK    1  A    between atoms: C3_6  and  C4_7 
REMARK    2  A    between atoms: C4_7  and  N2_8 
ROOT
HETATM    1  C1  UNL     1      95.326 -22.986  51.133  1.00  0.00     0.071 C 
HETATM    2  C2  UNL     1      95.068 -22.873  49.658  1.00  0.00     0.383 C 
HETATM    3  N1  UNL     1      95.730 -23.979  48.964  1.00  0.00    -0.016 N 
ATOM      4  H11 UNL     1      96.640 -24.328  49.264  1.00  0.00     0.282 HD
ATOM      5  H12 UNL     1      96.117 -23.865  48.028  1.00  0.00     0.282 HD
HETATM    6  C3  UNL     1      94.509 -24.740  49.196  1.00  0.00     0.415 C 
HETATM    7  N3  UNL     1      93.810 -23.471  49.240  1.00  0.00    -0.016 N 
ATOM      8  H31 UNL     1      93.302 -23.120  48.429  1.00  0.00     0.282 HD
ATOM      9  H32 UNL     1      92.960 -23.355  49.791  1.00  0.00     0.282 HD
ENDROOT
BRANCH   6  10
HETATM   10  C4  UNL     1      94.211 -25.586  47.988  1.00  0.00     0.333 C 
BRANCH  10  11
HETATM   11  N2  UNL     1      93.856 -26.938  48.280  1.00  0.00     0.083 N 
HETATM   12  C5  UNL     1      92.555 -26.919  48.940  1.00  0.00     0.309 C 
HETATM   13  C6  UNL     1      93.783 -27.800  47.122  1.00  0.00     0.309 C 
ENDBRANCH  10  11
ENDBRANCH   6  10
TORSDOF 2
ENDMDL
MODEL 4
REMARK VINA RESULT: -4.134580695      1.297      1.431
REMARK  2 active torsions:
REMARK  status: ('A' for Active; 'I' for Inactive)
REMARK    1  A    between atoms: C3_6  and  C4_7 
REMARK    2  A    between atoms: C4_7  and  N2_8 
ROOT
HETATM    1  C1  UNL     1      93.091 -27.220  48.314  1.00  0.00     0.071 C 
HETATM    2  C2  UNL     1      93.150 -25.818  47.777  1.00  0.00     0.383 C 
HETATM    3  N1  UNL     1      92.699 -24.885  48.810  1.00  0.00    -0.016 N 
ATOM      4  H11 UNL     1      91.937 -25.121  49.446  1.00  0.00     0.282 HD
ATOM      5  H12 UNL     1      92.194 -24.031  48.572  1.00  0.00     0.282 HD
HETATM    6  C3  UNL     1      94.083 -24.850  49.261  1.00  0.00     0.415 C 
HETATM    7  N3  UNL     1      94.460 -25.200  47.906  1.00  0.00    -0.016 N 
ATOM      8  H31 UNL     1      94.776 -24.490  47.246  1.00  0.00     0.282 HD
ATOM      9  H32 UNL     1      95.313 -25.724  47.714  1.00  0.00     0.282 HD
ENDROOT
BRANCH   6  10
HETATM   10  C4  UNL     1      94.439 -23.448  49.675  1.00  0.00     0.333 C 
BRANCH  10  11
HETATM   11  N2  UNL     1      95.127 -23.351  50.922  1.00  0.00     0.083 N 
HETATM   12  C5  UNL     1      96.192 -24.348  50.917  1.00  0.00     0.309 C 
HETATM   13  C6  UNL     1      95.702 -22.051  51.188  1.00  0.00     0.309 C 
ENDBRANCH  10  11
ENDBRANCH   6  10
TORSDOF 2
ENDMDL
MODEL 5
REMARK VINA RESULT: -4.111391571      5.902      6.926
REMARK  2 active torsions:
REMARK  status: ('A' for Active; 'I' for Inactive)
REMARK    1  A    between atoms: C3_6  and  C4_7 
REMARK    2  A    between atoms: C4_7  and  N2_8 
ROOT
HETATM    1  C1  UNL     1      95.362 -25.351  53.879  1.00  0.00     0.071 C 
HETATM    2  C2  UNL     1      95.116 -24.126  54.712  1.00  0.00     0.383 C 
HETATM    3  N1  UNL     1      96.398 -23.509  55.056  1.00  0.00    -0.016 N 
ATOM      4  H11 UNL     1      97.222 -24.073  55.267  1.00  0.00     0.282 HD
ATOM      5  H12 UNL     1      96.537 -23.030  55.945  1.00  0.00     0.282 HD
HETATM    6  C3  UNL     1      96.281 -22.773  53.804  1.00  0.00     0.415 C 
HETATM    7  N3  UNL     1      94.845 -22.933  53.927  1.00  0.00    -0.016 N 
ATOM      8  H31 UNL     1      94.260 -22.182  54.291  1.00  0.00     0.282 HD
ATOM      9  H32 UNL     1      94.245 -22.967  53.103  1.00  0.00     0.282 HD
ENDROOT
BRANCH   6  10
HETATM   10  C4  UNL     1      96.781 -21.368  54.001  1.00  0.00     0.333 C 
BRANCH  10  11
HETATM   11  N2  UNL     1      97.510 -20.834  52.897  1.00  0.00     0.083 N 
HETATM   12  C5  UNL     1      97.329 -19.387  52.906  1.00  0.00     0.309 C 
HETATM   13  C6  UNL     1      98.925 -21.131  52.914  1.00  0.00     0.309 C 
ENDBRANCH  10  11
ENDBRANCH   6  10
TORSDOF 2
ENDMDL
