MODEL 1
REMARK VINA RESULT: -4.543416937      0.000      0.000
REMARK  4 active torsions:
REMARK  status: ('A' for Active; 'I' for Inactive)
REMARK    1  A    between atoms: C2_2  and  N1_3 
REMARK    2  A    between atoms: N1_3  and  C3_6 
REMARK    3  A    between atoms: C3_6  and  C4_7 
REMARK    4  A    between atoms: C6_12  and  N3_13 
ROOT
HETATM    1  C4  UNL     1      97.252 -21.014  52.311  1.00  0.00     0.243 C 
HETATM    2  N2  UNL     1      98.698 -20.945  52.327  1.00  0.00    -0.065 N 
ATOM      3  H21 UNL     1      99.206 -20.463  51.586  1.00  0.00     0.277 HD
ATOM      4  H22 UNL     1      99.263 -21.776  52.150  1.00  0.00     0.277 HD
HETATM    5  C5  UNL     1      98.611 -20.378  53.656  1.00  0.00     0.267 C 
HETATM    6  C6  UNL     1      97.247 -19.849  53.280  1.00  0.00     0.241 C 
ENDROOT
BRANCH   1   7
HETATM    7  C3  UNL     1      96.758 -22.257  52.987  1.00  0.00     0.267 C 
BRANCH   7   8
HETATM    8  N1  UNL     1      95.340 -22.149  53.360  1.00  0.00    -0.073 N 
ATOM      9  H12 UNL     1      94.698 -22.576  52.692  1.00  0.00     0.277 HD
ATOM     10  H11 UNL     1      94.959 -21.205  53.290  1.00  0.00     0.277 HD
BRANCH   8  11
HETATM   11  C2  UNL     1      95.280 -22.724  54.706  1.00  0.00     0.228 C 
HETATM   12  C1  UNL     1      96.480 -23.559  55.012  1.00  0.00     0.034 C 
ENDBRANCH   8  11
ENDBRANCH   7   8
ENDBRANCH   1   7
BRANCH   6  13
HETATM   13  N3  UNL     1      97.331 -18.556  52.626  1.00  0.00    -0.071 N 
ATOM     14  H33 UNL     1      96.942 -18.600  51.684  1.00  0.00     0.274 HD
ATOM     15  H32 UNL     1      96.679 -17.894  53.048  1.00  0.00     0.274 HD
ATOM     16  H31 UNL     1      98.276 -18.171  52.609  1.00  0.00     0.274 HD
ENDBRANCH   6  13
TORSDOF 4
ENDMDL
MODEL 2
REMARK VINA RESULT: -4.407464119      1.620      2.313
REMARK  4 active torsions:
REMARK  status: ('A' for Active; 'I' for Inactive)
REMARK    1  A    between atoms: C2_2  and  N1_3 
REMARK    2  A    between atoms: N1_3  and  C3_6 
REMARK    3  A    between atoms: C3_6  and  C4_7 
REMARK    4  A    between atoms: C6_12  and  N3_13 
ROOT
HETATM    1  C4  UNL     1      97.120 -20.940  52.203  1.00  0.00     0.243 C 
HETATM    2  N2  UNL     1      98.564 -20.938  52.313  1.00  0.00    -0.065 N 
ATOM      3  H21 UNL     1      99.140 -20.459  51.622  1.00  0.00     0.277 HD
ATOM      4  H22 UNL     1      99.102 -21.788  52.147  1.00  0.00     0.277 HD
HETATM    5  C5  UNL     1      98.415 -20.407  53.652  1.00  0.00     0.267 C 
HETATM    6  C6  UNL     1      97.103 -19.805  53.206  1.00  0.00     0.241 C 
ENDROOT
BRANCH   1   7
HETATM    7  C3  UNL     1      96.528 -22.178  52.805  1.00  0.00     0.267 C 
BRANCH   7   8
HETATM    8  N1  UNL     1      95.240 -22.523  52.187  1.00  0.00    -0.073 N 
ATOM      9  H12 UNL     1      94.430 -22.104  52.646  1.00  0.00     0.277 HD
ATOM     10  H11 UNL     1      94.956 -23.493  52.325  1.00  0.00     0.277 HD
BRANCH   8  11
HETATM   11  C2  UNL     1      95.402 -22.137  50.783  1.00  0.00     0.228 C 
HETATM   12  C1  UNL     1      94.499 -22.913  49.882  1.00  0.00     0.034 C 
ENDBRANCH   8  11
ENDBRANCH   7   8
ENDBRANCH   1   7
BRANCH   6  13
HETATM   13  N3  UNL     1      97.287 -18.498  52.601  1.00  0.00    -0.071 N 
ATOM     14  H33 UNL     1      98.278 -18.260  52.548  1.00  0.00     0.274 HD
ATOM     15  H32 UNL     1      97.066 -18.526  51.605  1.00  0.00     0.274 HD
ATOM     16  H31 UNL     1      96.761 -17.758  53.067  1.00  0.00     0.274 HD
ENDBRANCH   6  13
TORSDOF 4
ENDMDL
MODEL 3
REMARK VINA RESULT: -4.226192117      5.770      6.785
REMARK  4 active torsions:
REMARK  status: ('A' for Active; 'I' for Inactive)
REMARK    1  A    between atoms: C2_2  and  N1_3 
REMARK    2  A    between atoms: N1_3  and  C3_6 
REMARK    3  A    between atoms: C3_6  and  C4_7 
REMARK    4  A    between atoms: C6_12  and  N3_13 
ROOT
HETATM    1  C4  UNL     1      94.093 -24.592  49.557  1.00  0.00     0.243 C 
HETATM    2  N2  UNL     1      93.916 -23.179  49.294  1.00  0.00    -0.065 N 
ATOM      3  H21 UNL     1      93.131 -22.668  49.695  1.00  0.00     0.277 HD
ATOM      4  H22 UNL     1      93.637 -22.850  48.370  1.00  0.00     0.277 HD
HETATM    5  C5  UNL     1      95.264 -22.968  49.779  1.00  0.00     0.267 C 
HETATM    6  C6  UNL     1      95.093 -24.207  50.627  1.00  0.00     0.241 C 
ENDROOT
BRANCH   1   7
HETATM    7  C3  UNL     1      94.785 -25.277  48.417  1.00  0.00     0.267 C 
BRANCH   7   8
HETATM    8  N1  UNL     1      93.876 -25.510  47.286  1.00  0.00    -0.073 N 
ATOM      9  H12 UNL     1      94.331 -25.880  46.452  1.00  0.00     0.277 HD
ATOM     10  H11 UNL     1      93.522 -24.658  46.851  1.00  0.00     0.277 HD
BRANCH   8  11
HETATM   11  C2  UNL     1      92.835 -26.380  47.839  1.00  0.00     0.228 C 
HETATM   12  C1  UNL     1      92.624 -27.601  47.004  1.00  0.00     0.034 C 
ENDBRANCH   8  11
ENDBRANCH   7   8
ENDBRANCH   1   7
BRANCH   6  13
HETATM   13  N3  UNL     1      94.479 -23.903  51.907  1.00  0.00    -0.071 N 
ATOM     14  H33 UNL     1      93.891 -24.677  52.219  1.00  0.00     0.274 HD
ATOM     15  H32 UNL     1      95.176 -23.910  52.653  1.00  0.00     0.274 HD
ATOM     16  H31 UNL     1      93.956 -23.027  51.908  1.00  0.00     0.274 HD
ENDBRANCH   6  13
TORSDOF 4
ENDMDL
MODEL 4
REMARK VINA RESULT: -4.152669824      6.370      7.494
REMARK  4 active torsions:
REMARK  status: ('A' for Active; 'I' for Inactive)
REMARK    1  A    between atoms: C2_2  and  N1_3 
REMARK    2  A    between atoms: N1_3  and  C3_6 
REMARK    3  A    between atoms: C3_6  and  C4_7 
REMARK    4  A    between atoms: C6_12  and  N3_13 
ROOT
HETATM    1  C4  UNL     1      93.086 -25.444  49.995  1.00  0.00     0.243 C 
HETATM    2  N2  UNL     1      93.160 -24.312  49.095  1.00  0.00    -0.065 N 
ATOM      3  H21 UNL     1      92.675 -23.441  49.310  1.00  0.00     0.277 HD
ATOM      4  H22 UNL     1      92.690 -24.331  48.191  1.00  0.00     0.277 HD
HETATM    5  C5  UNL     1      94.603 -24.397  49.182  1.00  0.00     0.267 C 
HETATM    6  C6  UNL     1      94.428 -25.015  50.549  1.00  0.00     0.241 C 
ENDROOT
BRANCH   1   7
HETATM    7  C3  UNL     1      93.217 -26.739  49.253  1.00  0.00     0.267 C 
BRANCH   7   8
HETATM    8  N1  UNL     1      92.024 -27.030  48.445  1.00  0.00    -0.073 N 
ATOM      9  H12 UNL     1      91.344 -26.270  48.414  1.00  0.00     0.277 HD
ATOM     10  H11 UNL     1      91.397 -27.721  48.857  1.00  0.00     0.277 HD
BRANCH   8  11
HETATM   11  C2  UNL     1      92.562 -27.410  47.137  1.00  0.00     0.228 C 
HETATM   12  C1  UNL     1      94.022 -27.719  47.200  1.00  0.00     0.034 C 
ENDBRANCH   8  11
ENDBRANCH   7   8
ENDBRANCH   1   7
BRANCH   6  13
HETATM   13  N3  UNL     1      94.327 -24.006  51.588  1.00  0.00    -0.071 N 
ATOM     14  H33 UNL     1      94.032 -23.111  51.197  1.00  0.00     0.274 HD
ATOM     15  H32 UNL     1      93.531 -24.193  52.199  1.00  0.00     0.274 HD
ATOM     16  H31 UNL     1      95.183 -23.898  52.133  1.00  0.00     0.274 HD
ENDBRANCH   6  13
TORSDOF 4
ENDMDL
MODEL 5
REMARK VINA RESULT: -4.150252968      1.305      3.885
REMARK  4 active torsions:
REMARK  status: ('A' for Active; 'I' for Inactive)
REMARK    1  A    between atoms: C2_2  and  N1_3 
REMARK    2  A    between atoms: N1_3  and  C3_6 
REMARK    3  A    between atoms: C3_6  and  C4_7 
REMARK    4  A    between atoms: C6_12  and  N3_13 
ROOT
HETATM    1  C4  UNL     1      95.807 -22.159  52.101  1.00  0.00     0.243 C 
HETATM    2  N2  UNL     1      94.969 -21.528  53.099  1.00  0.00    -0.065 N 
ATOM      3  H21 UNL     1      93.970 -21.403  52.939  1.00  0.00     0.277 HD
ATOM      4  H22 UNL     1      95.046 -20.529  53.290  1.00  0.00     0.277 HD
HETATM    5  C5  UNL     1      95.452 -22.504  54.054  1.00  0.00     0.267 C 
HETATM    6  C6  UNL     1      95.679 -23.444  52.893  1.00  0.00     0.241 C 
ENDROOT
BRANCH   1   7
HETATM    7  C3  UNL     1      97.213 -21.645  52.164  1.00  0.00     0.267 C 
BRANCH   7   8
HETATM    8  N1  UNL     1      97.278 -20.199  51.905  1.00  0.00    -0.073 N 
ATOM      9  H12 UNL     1      96.368 -19.743  51.847  1.00  0.00     0.277 HD
ATOM     10  H11 UNL     1      97.584 -19.956  50.963  1.00  0.00     0.277 HD
BRANCH   8  11
HETATM   11  C2  UNL     1      98.143 -19.685  52.970  1.00  0.00     0.228 C 
HETATM   12  C1  UNL     1      98.967 -20.763  53.593  1.00  0.00     0.034 C 
ENDBRANCH   8  11
ENDBRANCH   7   8
ENDBRANCH   1   7
BRANCH   6  13
HETATM   13  N3  UNL     1      94.484 -24.203  52.572  1.00  0.00    -0.071 N 
ATOM     14  H33 UNL     1      93.772 -24.080  53.292  1.00  0.00     0.274 HD
ATOM     15  H32 UNL     1      93.994 -23.788  51.778  1.00  0.00     0.274 HD
ATOM     16  H31 UNL     1      94.665 -25.193  52.406  1.00  0.00     0.274 HD
ENDBRANCH   6  13
TORSDOF 4
ENDMDL
