MODEL 1
REMARK VINA RESULT: -5.177502989      0.000      0.000
REMARK  4 active torsions:
REMARK  status: ('A' for Active; 'I' for Inactive)
REMARK    1  A    between atoms: N1_1  and  N2_4 
REMARK    2  A    between atoms: N2_4  and  N3_6 
REMARK    3  A    between atoms: N3_6  and  N4_8 
REMARK    4  A    between atoms: C1_10  and  N5_11 
ROOT
HETATM    1  N4  UNL     1      97.170 -20.561  51.732  1.00  0.00    -0.280 N 
ATOM      2  H4  UNL     1      97.151 -20.423  50.722  1.00  0.00     0.189 HD
HETATM    3  C1  UNL     1      96.620 -21.621  52.212  1.00  0.00     0.206 C 
ENDROOT
BRANCH   1   4
HETATM    4  N3  UNL     1      97.790 -19.592  52.518  1.00  0.00    -0.228 N 
ATOM      5  H3  UNL     1      98.653 -19.801  53.020  1.00  0.00     0.210 HD
BRANCH   4   6
HETATM    6  N2  UNL     1      97.210 -18.344  52.601  1.00  0.00    -0.235 N 
ATOM      7  H2  UNL     1      97.528 -17.553  52.042  1.00  0.00     0.209 HD
BRANCH   6   8
HETATM    8  N1  UNL     1      96.172 -18.248  53.493  1.00  0.00    -0.330 N 
ATOM      9  H12 UNL     1      95.631 -19.065  53.775  1.00  0.00     0.178 HD
ATOM     10  H11 UNL     1      95.991 -17.306  53.841  1.00  0.00     0.178 HD
ENDBRANCH   6   8
ENDBRANCH   4   6
ENDBRANCH   1   4
BRANCH   3  11
HETATM   11  N5  UNL     1      96.004 -22.572  51.362  1.00  0.00    -0.312 N 
HETATM   12  C2  UNL     1      95.038 -22.288  50.472  1.00  0.00     0.115 A 
HETATM   13  C3  UNL     1      94.685 -23.473  49.825  1.00  0.00     0.106 A 
HETATM   14  N6  UNL     1      95.455 -24.452  50.346  1.00  0.00    -0.360 N 
HETATM   15  C4  UNL     1      96.262 -23.886  51.289  1.00  0.00     0.188 A 
ATOM     16  H6  UNL     1      95.437 -25.437  50.083  1.00  0.00     0.166 HD
ENDBRANCH   3  11
TORSDOF 4
ENDMDL
MODEL 2
REMARK VINA RESULT: -5.148098289      0.599      1.144
REMARK  4 active torsions:
REMARK  status: ('A' for Active; 'I' for Inactive)
REMARK    1  A    between atoms: N1_1  and  N2_4 
REMARK    2  A    between atoms: N2_4  and  N3_6 
REMARK    3  A    between atoms: N3_6  and  N4_8 
REMARK    4  A    between atoms: C1_10  and  N5_11 
ROOT
HETATM    1  N4  UNL     1      97.173 -20.562  51.727  1.00  0.00    -0.280 N 
ATOM      2  H4  UNL     1      97.196 -20.438  50.715  1.00  0.00     0.189 HD
HETATM    3  C1  UNL     1      96.582 -21.604  52.198  1.00  0.00     0.206 C 
ENDROOT
BRANCH   1   4
HETATM    4  N3  UNL     1      97.781 -19.594  52.524  1.00  0.00    -0.228 N 
ATOM      5  H3  UNL     1      98.635 -19.805  53.039  1.00  0.00     0.210 HD
BRANCH   4   6
HETATM    6  N2  UNL     1      97.200 -18.346  52.599  1.00  0.00    -0.235 N 
ATOM      7  H2  UNL     1      97.514 -17.560  52.030  1.00  0.00     0.209 HD
BRANCH   6   8
HETATM    8  N1  UNL     1      96.168 -18.242  53.496  1.00  0.00    -0.330 N 
ATOM      9  H12 UNL     1      96.334 -18.041  54.482  1.00  0.00     0.178 HD
ATOM     10  H11 UNL     1      95.238 -18.380  53.100  1.00  0.00     0.178 HD
ENDBRANCH   6   8
ENDBRANCH   4   6
ENDBRANCH   1   4
BRANCH   3  11
HETATM   11  N5  UNL     1      95.980 -22.555  51.337  1.00  0.00    -0.312 N 
HETATM   12  C2  UNL     1      96.290 -23.862  51.308  1.00  0.00     0.115 A 
HETATM   13  C3  UNL     1      95.493 -24.473  50.339  1.00  0.00     0.106 A 
HETATM   14  N6  UNL     1      94.715 -23.508  49.802  1.00  0.00    -0.360 N 
HETATM   15  C4  UNL     1      95.024 -22.334  50.425  1.00  0.00     0.188 A 
ATOM     16  H6  UNL     1      94.022 -23.634  49.064  1.00  0.00     0.166 HD
ENDBRANCH   3  11
TORSDOF 4
ENDMDL
MODEL 3
REMARK VINA RESULT: -5.010840721      2.254      2.668
REMARK  4 active torsions:
REMARK  status: ('A' for Active; 'I' for Inactive)
REMARK    1  A    between atoms: N1_1  and  N2_4 
REMARK    2  A    between atoms: N2_4  and  N3_6 
REMARK    3  A    between atoms: N3_6  and  N4_8 
REMARK    4  A    between atoms: C1_10  and  N5_11 
ROOT
HETATM    1  N4  UNL     1      96.628 -20.770  52.740  1.00  0.00    -0.280 N 
ATOM      2  H4  UNL     1      95.652 -20.596  52.501  1.00  0.00     0.189 HD
HETATM    3  C1  UNL     1      96.914 -21.854  53.374  1.00  0.00     0.206 C 
ENDROOT
BRANCH   1   4
HETATM    4  N3  UNL     1      97.579 -19.824  52.364  1.00  0.00    -0.228 N 
ATOM      5  H3  UNL     1      98.429 -20.104  51.877  1.00  0.00     0.210 HD
BRANCH   4   6
HETATM    6  N2  UNL     1      97.342 -18.500  52.666  1.00  0.00    -0.235 N 
ATOM      7  H2  UNL     1      97.969 -17.750  52.376  1.00  0.00     0.209 HD
BRANCH   6   8
HETATM    8  N1  UNL     1      96.198 -18.267  53.386  1.00  0.00    -0.330 N 
ATOM      9  H12 UNL     1      96.001 -18.765  54.254  1.00  0.00     0.178 HD
ATOM     10  H11 UNL     1      95.573 -17.567  52.986  1.00  0.00     0.178 HD
ENDBRANCH   6   8
ENDBRANCH   4   6
ENDBRANCH   1   4
BRANCH   3  11
HETATM   11  N5  UNL     1      95.903 -22.780  53.730  1.00  0.00    -0.312 N 
HETATM   12  C2  UNL     1      95.355 -22.879  54.953  1.00  0.00     0.115 A 
HETATM   13  C3  UNL     1      94.401 -23.897  54.917  1.00  0.00     0.106 A 
HETATM   14  N6  UNL     1      94.399 -24.392  53.661  1.00  0.00    -0.360 N 
HETATM   15  C4  UNL     1      95.325 -23.697  52.941  1.00  0.00     0.188 A 
ATOM     16  H6  UNL     1      93.810 -25.149  53.313  1.00  0.00     0.166 HD
ENDBRANCH   3  11
TORSDOF 4
ENDMDL
MODEL 4
REMARK VINA RESULT: -4.987921418      1.296      1.766
REMARK  4 active torsions:
REMARK  status: ('A' for Active; 'I' for Inactive)
REMARK    1  A    between atoms: N1_1  and  N2_4 
REMARK    2  A    between atoms: N2_4  and  N3_6 
REMARK    3  A    between atoms: N3_6  and  N4_8 
REMARK    4  A    between atoms: C1_10  and  N5_11 
ROOT
HETATM    1  N4  UNL     1      97.268 -20.694  52.266  1.00  0.00    -0.280 N 
ATOM      2  H4  UNL     1      96.776 -20.798  51.379  1.00  0.00     0.189 HD
HETATM    3  C1  UNL     1      97.257 -21.684  53.088  1.00  0.00     0.206 C 
ENDROOT
BRANCH   1   4
HETATM    4  N3  UNL     1      97.916 -19.487  52.523  1.00  0.00    -0.228 N 
ATOM      5  H3  UNL     1      98.918 -19.462  52.707  1.00  0.00     0.210 HD
BRANCH   4   6
HETATM    6  N2  UNL     1      97.169 -18.329  52.521  1.00  0.00    -0.235 N 
ATOM      7  H2  UNL     1      97.324 -17.577  51.850  1.00  0.00     0.209 HD
BRANCH   6   8
HETATM    8  N1  UNL     1      96.201 -18.263  53.491  1.00  0.00    -0.330 N 
ATOM      9  H12 UNL     1      95.288 -17.849  53.308  1.00  0.00     0.178 HD
ATOM     10  H11 UNL     1      96.469 -18.656  54.393  1.00  0.00     0.178 HD
ENDBRANCH   6   8
ENDBRANCH   4   6
ENDBRANCH   1   4
BRANCH   3  11
HETATM   11  N5  UNL     1      96.580 -22.888  52.772  1.00  0.00    -0.312 N 
HETATM   12  C2  UNL     1      95.946 -23.665  53.666  1.00  0.00     0.115 A 
HETATM   13  C3  UNL     1      95.404 -24.755  52.984  1.00  0.00     0.106 A 
HETATM   14  N6  UNL     1      95.727 -24.605  51.681  1.00  0.00    -0.360 N 
HETATM   15  C4  UNL     1      96.449 -23.454  51.564  1.00  0.00     0.188 A 
ATOM     16  H6  UNL     1      95.477 -25.239  50.922  1.00  0.00     0.166 HD
ENDBRANCH   3  11
TORSDOF 4
ENDMDL
MODEL 5
REMARK VINA RESULT: -4.937508625      2.063      2.632
REMARK  4 active torsions:
REMARK  status: ('A' for Active; 'I' for Inactive)
REMARK    1  A    between atoms: N1_1  and  N2_4 
REMARK    2  A    between atoms: N2_4  and  N3_6 
REMARK    3  A    between atoms: N3_6  and  N4_8 
REMARK    4  A    between atoms: C1_10  and  N5_11 
ROOT
HETATM    1  N4  UNL     1      97.052 -20.757  53.014  1.00  0.00    -0.280 N 
ATOM      2  H4  UNL     1      96.750 -20.593  53.974  1.00  0.00     0.189 HD
HETATM    3  C1  UNL     1      96.952 -21.950  52.540  1.00  0.00     0.206 C 
ENDROOT
BRANCH   1   4
HETATM    4  N3  UNL     1      97.549 -19.679  52.285  1.00  0.00    -0.228 N 
ATOM      5  H3  UNL     1      98.174 -19.827  51.494  1.00  0.00     0.210 HD
BRANCH   4   6
HETATM    6  N2  UNL     1      97.174 -18.406  52.659  1.00  0.00    -0.235 N 
ATOM      7  H2  UNL     1      97.640 -17.570  52.305  1.00  0.00     0.209 HD
BRANCH   6   8
HETATM    8  N1  UNL     1      96.128 -18.348  53.545  1.00  0.00    -0.330 N 
ATOM      9  H12 UNL     1      96.247 -18.585  54.529  1.00  0.00     0.178 HD
ATOM     10  H11 UNL     1      95.239 -18.052  53.141  1.00  0.00     0.178 HD
ENDBRANCH   6   8
ENDBRANCH   4   6
ENDBRANCH   1   4
BRANCH   3  11
HETATM   11  N5  UNL     1      96.438 -23.008  53.330  1.00  0.00    -0.312 N 
HETATM   12  C2  UNL     1      95.773 -24.069  52.844  1.00  0.00     0.115 A 
HETATM   13  C3  UNL     1      95.428 -24.892  53.918  1.00  0.00     0.106 A 
HETATM   14  N6  UNL     1      95.900 -24.299  55.036  1.00  0.00    -0.360 N 
HETATM   15  C4  UNL     1      96.520 -23.143  54.661  1.00  0.00     0.188 A 
ATOM     16  H6  UNL     1      95.810 -24.652  55.989  1.00  0.00     0.166 HD
ENDBRANCH   3  11
TORSDOF 4
ENDMDL
