MODEL 1
REMARK VINA RESULT: -8.015265919      0.000      0.000
REMARK  8 active torsions:
REMARK  status: ('A' for Active; 'I' for Inactive)
REMARK    1  A    between atoms: C2_2  and  C3_3 
REMARK    2  A    between atoms: C3_3  and  N1_4 
REMARK       I    between atoms: N1_4  and  C4_6 
REMARK    3  A    between atoms: C4_6  and  C5_8 
REMARK    4  A    between atoms: C5_8  and  C6_9 
REMARK       I    between atoms: C6_9  and  N2_11 
REMARK    5  A    between atoms: N2_11  and  C7_13 
REMARK    6  A    between atoms: C13_19  and  O3_20 
REMARK    7  A    between atoms: C14_22  and  O4_23 
REMARK    8  A    between atoms: C21_31  and  O5_32 
ROOT
HETATM    1  C7  UNL     1       3.887  37.408  23.803  1.00  0.00     0.045 C 
HETATM    2  C8  UNL     1       4.130  37.511  22.344  1.00  0.00     0.039 C 
HETATM    3  C9  UNL     1       3.724  38.996  22.175  1.00  0.00     0.020 C 
HETATM    4  C10 UNL     1       2.745  39.330  23.296  1.00  0.00     0.020 C 
HETATM    5  C11 UNL     1       2.462  37.944  23.773  1.00  0.00    -0.004 C 
HETATM    6  C12 UNL     1       1.663  37.398  22.573  1.00  0.00     0.047 C 
HETATM    7  C13 UNL     1       1.707  38.127  21.299  1.00  0.00     0.148 C 
HETATM    8  C14 UNL     1       2.871  38.961  20.922  1.00  0.00     0.151 C 
HETATM    9  C15 UNL     1       1.707  37.799  25.046  1.00  0.00    -0.029 C 
HETATM   10  C16 UNL     1       0.456  36.924  24.917  1.00  0.00     0.016 C 
HETATM   11  C17 UNL     1       1.338  39.172  25.557  1.00  0.00     0.011 C 
HETATM   12  C18 UNL     1       0.382  38.944  26.708  1.00  0.00     0.006 C 
HETATM   13  C19 UNL     1       0.989  38.231  27.866  1.00  0.00    -0.004 C 
HETATM   14  C20 UNL     1      -0.175  37.685  28.710  1.00  0.00     0.037 C 
HETATM   15  C21 UNL     1       0.317  36.955  29.930  1.00  0.00     0.118 C 
HETATM   16  C22 UNL     1       1.464  36.042  29.672  1.00  0.00     0.032 C 
HETATM   17  C23 UNL     1       1.581  35.854  28.145  1.00  0.00     0.012 C 
HETATM   18  C24 UNL     1       2.003  37.185  27.530  1.00  0.00    -0.036 C 
HETATM   19  C25 UNL     1       3.200  37.507  28.486  1.00  0.00     0.016 C 
HETATM   20  C26 UNL     1       2.517  37.156  26.174  1.00  0.00     0.003 C 
HETATM   21  C27 UNL     1       3.031  35.887  25.607  1.00  0.00     0.013 C 
HETATM   22  C28 UNL     1       3.991  36.092  24.448  1.00  0.00     0.011 C 
HETATM   23  C29 UNL     1       3.907  34.898  23.525  1.00  0.00     0.012 C 
ENDROOT
BRANCH   1  24
HETATM   24  N2  UNL     1       4.876  38.334  24.276  1.00  0.00    -0.350 N 
HETATM   25  C6  UNL     1       6.255  38.039  24.325  1.00  0.00     0.227 C 
HETATM   26  O2  UNL     1       6.662  36.923  23.956  1.00  0.00    -0.273 OA
ATOM     27  H2  UNL     1       4.566  39.252  24.595  1.00  0.00     0.163 HD
BRANCH  25  28
HETATM   28  C5  UNL     1       7.268  39.008  24.803  1.00  0.00     0.205 C 
BRANCH  28  29
HETATM   29  C4  UNL     1       8.083  39.515  23.693  1.00  0.00     0.226 C 
HETATM   30  N1  UNL     1       8.821  38.614  22.846  1.00  0.00    -0.361 N 
ATOM     31  H1  UNL     1       8.773  37.610  23.021  1.00  0.00     0.162 HD
HETATM   32  O1  UNL     1       8.187  40.736  23.415  1.00  0.00    -0.273 OA
BRANCH  30  33
HETATM   33  C3  UNL     1       9.611  39.095  21.777  1.00  0.00     0.122 C 
BRANCH  33  34
HETATM   34  C2  UNL     1       8.969  39.079  20.416  1.00  0.00     0.015 C 
HETATM   35  C1  UNL     1       9.624  40.116  19.517  1.00  0.00     0.006 C 
ENDBRANCH  33  34
ENDBRANCH  30  33
ENDBRANCH  28  29
ENDBRANCH  25  28
ENDBRANCH   1  24
BRANCH   8  36
HETATM   36  O4  UNL     1       3.645  38.403  19.909  1.00  0.00    -0.393 OA
ATOM     37  H4  UNL     1       3.098  38.344  19.135  1.00  0.00     0.210 HD
ENDBRANCH   8  36
BRANCH   7  38
HETATM   38  O3  UNL     1       1.578  37.151  20.271  1.00  0.00    -0.393 OA
ATOM     39  H3  UNL     1       2.143  37.432  19.561  1.00  0.00     0.210 HD
ENDBRANCH   7  38
BRANCH  15  40
HETATM   40  O5  UNL     1       0.540  37.835  31.010  1.00  0.00    -0.396 OA
ATOM     41  H5  UNL     1       0.644  37.366  31.829  1.00  0.00     0.210 HD
ENDBRANCH  15  40
TORSDOF 8
ENDMDL
MODEL 2
REMARK VINA RESULT: -7.940650613      1.754      2.821
REMARK  8 active torsions:
REMARK  status: ('A' for Active; 'I' for Inactive)
REMARK    1  A    between atoms: C2_2  and  C3_3 
REMARK    2  A    between atoms: C3_3  and  N1_4 
REMARK       I    between atoms: N1_4  and  C4_6 
REMARK    3  A    between atoms: C4_6  and  C5_8 
REMARK    4  A    between atoms: C5_8  and  C6_9 
REMARK       I    between atoms: C6_9  and  N2_11 
REMARK    5  A    between atoms: N2_11  and  C7_13 
REMARK    6  A    between atoms: C13_19  and  O3_20 
REMARK    7  A    between atoms: C14_22  and  O4_23 
REMARK    8  A    between atoms: C21_31  and  O5_32 
ROOT
HETATM    1  C7  UNL     1       3.856  37.617  23.810  1.00  0.00     0.045 C 
HETATM    2  C8  UNL     1       4.112  37.715  22.353  1.00  0.00     0.039 C 
HETATM    3  C9  UNL     1       3.561  39.148  22.146  1.00  0.00     0.020 C 
HETATM    4  C10 UNL     1       2.535  39.402  23.246  1.00  0.00     0.020 C 
HETATM    5  C11 UNL     1       2.386  38.004  23.748  1.00  0.00    -0.004 C 
HETATM    6  C12 UNL     1       1.666  37.358  22.548  1.00  0.00     0.047 C 
HETATM    7  C13 UNL     1       1.657  38.063  21.261  1.00  0.00     0.148 C 
HETATM    8  C14 UNL     1       2.737  39.003  20.883  1.00  0.00     0.151 C 
HETATM    9  C15 UNL     1       1.628  37.809  25.013  1.00  0.00    -0.029 C 
HETATM   10  C16 UNL     1       0.474  36.810  24.884  1.00  0.00     0.016 C 
HETATM   11  C17 UNL     1       1.114  39.147  25.489  1.00  0.00     0.011 C 
HETATM   12  C18 UNL     1       0.167  38.845  26.631  1.00  0.00     0.006 C 
HETATM   13  C19 UNL     1       0.824  38.220  27.812  1.00  0.00    -0.004 C 
HETATM   14  C20 UNL     1      -0.293  37.576  28.651  1.00  0.00     0.037 C 
HETATM   15  C21 UNL     1       0.250  36.924  29.893  1.00  0.00     0.118 C 
HETATM   16  C22 UNL     1       1.487  36.126  29.671  1.00  0.00     0.032 C 
HETATM   17  C23 UNL     1       1.648  35.922  28.150  1.00  0.00     0.012 C 
HETATM   18  C24 UNL     1       1.943  37.277  27.514  1.00  0.00    -0.036 C 
HETATM   19  C25 UNL     1       3.086  37.736  28.480  1.00  0.00     0.016 C 
HETATM   20  C26 UNL     1       2.480  37.273  26.165  1.00  0.00     0.003 C 
HETATM   21  C27 UNL     1       3.129  36.052  25.633  1.00  0.00     0.013 C 
HETATM   22  C28 UNL     1       4.082  36.330  24.484  1.00  0.00     0.011 C 
HETATM   23  C29 UNL     1       4.135  35.117  23.585  1.00  0.00     0.012 C 
ENDROOT
BRANCH   1  24
HETATM   24  N2  UNL     1       4.739  38.647  24.278  1.00  0.00    -0.350 N 
HETATM   25  C6  UNL     1       6.140  38.493  24.355  1.00  0.00     0.227 C 
HETATM   26  O2  UNL     1       6.663  37.417  24.017  1.00  0.00    -0.273 OA
ATOM     27  H2  UNL     1       4.333  39.535  24.571  1.00  0.00     0.163 HD
BRANCH  25  28
HETATM   28  C5  UNL     1       7.042  39.569  24.827  1.00  0.00     0.205 C 
BRANCH  28  29
HETATM   29  C4  UNL     1       6.946  39.744  26.280  1.00  0.00     0.226 C 
HETATM   30  N1  UNL     1       6.797  38.608  27.153  1.00  0.00    -0.361 N 
ATOM     31  H1  UNL     1       6.761  37.670  26.753  1.00  0.00     0.162 HD
HETATM   32  O1  UNL     1       6.987  40.866  26.844  1.00  0.00    -0.273 OA
BRANCH  30  33
HETATM   33  C3  UNL     1       6.700  38.769  28.554  1.00  0.00     0.122 C 
BRANCH  33  34
HETATM   34  C2  UNL     1       7.940  38.454  29.347  1.00  0.00     0.015 C 
HETATM   35  C1  UNL     1       8.663  39.739  29.719  1.00  0.00     0.006 C 
ENDBRANCH  33  34
ENDBRANCH  30  33
ENDBRANCH  28  29
ENDBRANCH  25  28
ENDBRANCH   1  24
BRANCH   8  36
HETATM   36  O4  UNL     1       3.580  38.506  19.893  1.00  0.00    -0.393 OA
ATOM     37  H4  UNL     1       3.173  38.693  19.055  1.00  0.00     0.210 HD
ENDBRANCH   8  36
BRANCH   7  38
HETATM   38  O3  UNL     1       1.644  37.058  20.251  1.00  0.00    -0.393 OA
ATOM     39  H3  UNL     1       1.254  37.456  19.481  1.00  0.00     0.210 HD
ENDBRANCH   7  38
BRANCH  15  40
HETATM   40  O5  UNL     1       0.365  37.842  30.957  1.00  0.00    -0.396 OA
ATOM     41  H5  UNL     1       0.537  37.404  31.782  1.00  0.00     0.210 HD
ENDBRANCH  15  40
TORSDOF 8
ENDMDL
MODEL 3
REMARK VINA RESULT: -7.831356584      2.036      2.938
REMARK  8 active torsions:
REMARK  status: ('A' for Active; 'I' for Inactive)
REMARK    1  A    between atoms: C2_2  and  C3_3 
REMARK    2  A    between atoms: C3_3  and  N1_4 
REMARK       I    between atoms: N1_4  and  C4_6 
REMARK    3  A    between atoms: C4_6  and  C5_8 
REMARK    4  A    between atoms: C5_8  and  C6_9 
REMARK       I    between atoms: C6_9  and  N2_11 
REMARK    5  A    between atoms: N2_11  and  C7_13 
REMARK    6  A    between atoms: C13_19  and  O3_20 
REMARK    7  A    between atoms: C14_22  and  O4_23 
REMARK    8  A    between atoms: C21_31  and  O5_32 
ROOT
HETATM    1  C7  UNL     1       3.851  37.256  23.948  1.00  0.00     0.045 C 
HETATM    2  C8  UNL     1       4.126  37.373  22.496  1.00  0.00     0.039 C 
HETATM    3  C9  UNL     1       3.945  38.907  22.378  1.00  0.00     0.020 C 
HETATM    4  C10 UNL     1       3.011  39.341  23.503  1.00  0.00     0.020 C 
HETATM    5  C11 UNL     1       2.521  37.996  23.927  1.00  0.00    -0.004 C 
HETATM    6  C12 UNL     1       1.667  37.616  22.701  1.00  0.00     0.047 C 
HETATM    7  C13 UNL     1       1.834  38.375  21.456  1.00  0.00     0.148 C 
HETATM    8  C14 UNL     1       3.113  39.041  21.118  1.00  0.00     0.151 C 
HETATM    9  C15 UNL     1       1.736  37.919  25.188  1.00  0.00    -0.029 C 
HETATM   10  C16 UNL     1       0.372  37.243  25.017  1.00  0.00     0.016 C 
HETATM   11  C17 UNL     1       1.566  39.313  25.745  1.00  0.00     0.011 C 
HETATM   12  C18 UNL     1       0.571  39.187  26.880  1.00  0.00     0.006 C 
HETATM   13  C19 UNL     1       1.051  38.353  28.015  1.00  0.00    -0.004 C 
HETATM   14  C20 UNL     1      -0.191  37.955  28.830  1.00  0.00     0.037 C 
HETATM   15  C21 UNL     1       0.172  37.119  30.026  1.00  0.00     0.118 C 
HETATM   16  C22 UNL     1       1.176  36.056  29.744  1.00  0.00     0.032 C 
HETATM   17  C23 UNL     1       1.285  35.907  28.213  1.00  0.00     0.012 C 
HETATM   18  C24 UNL     1       1.905  37.182  27.650  1.00  0.00    -0.036 C 
HETATM   19  C25 UNL     1       3.124  37.291  28.627  1.00  0.00     0.016 C 
HETATM   20  C26 UNL     1       2.428  37.125  26.297  1.00  0.00     0.003 C 
HETATM   21  C27 UNL     1       2.758  35.815  25.689  1.00  0.00     0.013 C 
HETATM   22  C28 UNL     1       3.752  35.917  24.545  1.00  0.00     0.011 C 
HETATM   23  C29 UNL     1       3.507  34.781  23.579  1.00  0.00     0.012 C 
ENDROOT
BRANCH   1  24
HETATM   24  N2  UNL     1       4.959  38.009  24.464  1.00  0.00    -0.350 N 
HETATM   25  C6  UNL     1       6.079  37.416  25.086  1.00  0.00     0.227 C 
HETATM   26  O2  UNL     1       6.129  36.180  25.218  1.00  0.00    -0.273 OA
ATOM     27  H2  UNL     1       4.936  39.025  24.376  1.00  0.00     0.163 HD
BRANCH  25  28
HETATM   28  C5  UNL     1       7.223  38.202  25.600  1.00  0.00     0.205 C 
BRANCH  28  29
HETATM   29  C4  UNL     1       7.560  37.812  26.974  1.00  0.00     0.226 C 
HETATM   30  N1  UNL     1       8.039  36.487  27.269  1.00  0.00    -0.361 N 
ATOM     31  H1  UNL     1       8.147  35.812  26.511  1.00  0.00     0.162 HD
HETATM   32  O1  UNL     1       7.457  38.589  27.957  1.00  0.00    -0.273 OA
BRANCH  30  33
HETATM   33  C3  UNL     1       8.364  36.103  28.590  1.00  0.00     0.122 C 
BRANCH  33  34
HETATM   34  C2  UNL     1       9.379  35.002  28.733  1.00  0.00     0.015 C 
HETATM   35  C1  UNL     1       9.545  34.270  27.410  1.00  0.00     0.006 C 
ENDBRANCH  33  34
ENDBRANCH  30  33
ENDBRANCH  28  29
ENDBRANCH  25  28
ENDBRANCH   1  24
BRANCH   8  36
HETATM   36  O4  UNL     1       3.810  38.412  20.092  1.00  0.00    -0.393 OA
ATOM     37  H4  UNL     1       4.250  39.088  19.591  1.00  0.00     0.210 HD
ENDBRANCH   8  36
BRANCH   7  38
HETATM   38  O3  UNL     1       1.577  37.465  20.391  1.00  0.00    -0.393 OA
ATOM     39  H3  UNL     1       1.438  37.993  19.613  1.00  0.00     0.210 HD
ENDBRANCH   7  38
BRANCH  15  40
HETATM   40  O5  UNL     1       0.507  37.917  31.139  1.00  0.00    -0.396 OA
ATOM     41  H5  UNL     1       1.379  38.286  31.058  1.00  0.00     0.210 HD
ENDBRANCH  15  40
TORSDOF 8
ENDMDL
MODEL 4
REMARK VINA RESULT: -7.747376664      3.551      6.950
REMARK  8 active torsions:
REMARK  status: ('A' for Active; 'I' for Inactive)
REMARK    1  A    between atoms: C2_2  and  C3_3 
REMARK    2  A    between atoms: C3_3  and  N1_4 
REMARK       I    between atoms: N1_4  and  C4_6 
REMARK    3  A    between atoms: C4_6  and  C5_8 
REMARK    4  A    between atoms: C5_8  and  C6_9 
REMARK       I    between atoms: C6_9  and  N2_11 
REMARK    5  A    between atoms: N2_11  and  C7_13 
REMARK    6  A    between atoms: C13_19  and  O3_20 
REMARK    7  A    between atoms: C14_22  and  O4_23 
REMARK    8  A    between atoms: C21_31  and  O5_32 
ROOT
HETATM    1  C7  UNL     1       4.229  39.278  28.808  1.00  0.00     0.045 C 
HETATM    2  C8  UNL     1       3.956  40.045  30.046  1.00  0.00     0.039 C 
HETATM    3  C9  UNL     1       3.518  38.853  30.933  1.00  0.00     0.020 C 
HETATM    4  C10 UNL     1       2.984  37.769  30.002  1.00  0.00     0.020 C 
HETATM    5  C11 UNL     1       2.882  38.573  28.748  1.00  0.00    -0.004 C 
HETATM    6  C12 UNL     1       1.719  39.513  29.120  1.00  0.00     0.047 C 
HETATM    7  C13 UNL     1       1.322  39.631  30.529  1.00  0.00     0.148 C 
HETATM    8  C14 UNL     1       2.287  39.398  31.628  1.00  0.00     0.151 C 
HETATM    9  C15 UNL     1       2.610  37.837  27.484  1.00  0.00    -0.029 C 
HETATM   10  C16 UNL     1       1.390  38.365  26.722  1.00  0.00     0.016 C 
HETATM   11  C17 UNL     1       2.440  36.369  27.797  1.00  0.00     0.011 C 
HETATM   12  C18 UNL     1       1.937  35.729  26.520  1.00  0.00     0.006 C 
HETATM   13  C19 UNL     1       2.905  35.793  25.390  1.00  0.00    -0.004 C 
HETATM   14  C20 UNL     1       2.103  35.535  24.104  1.00  0.00     0.037 C 
HETATM   15  C21 UNL     1       2.983  35.556  22.885  1.00  0.00     0.118 C 
HETATM   16  C22 UNL     1       3.971  36.669  22.865  1.00  0.00     0.032 C 
HETATM   17  C23 UNL     1       3.556  37.684  23.950  1.00  0.00     0.012 C 
HETATM   18  C24 UNL     1       3.741  37.029  25.316  1.00  0.00    -0.036 C 
HETATM   19  C25 UNL     1       5.194  36.484  25.110  1.00  0.00     0.016 C 
HETATM   20  C26 UNL     1       3.758  37.903  26.474  1.00  0.00     0.003 C 
HETATM   21  C27 UNL     1       4.045  39.346  26.305  1.00  0.00     0.013 C 
HETATM   22  C28 UNL     1       4.548  40.011  27.575  1.00  0.00     0.011 C 
HETATM   23  C29 UNL     1       4.151  41.469  27.555  1.00  0.00     0.012 C 
ENDROOT
BRANCH   1  24
HETATM   24  N2  UNL     1       5.322  38.466  29.265  1.00  0.00    -0.350 N 
HETATM   25  C6  UNL     1       6.675  38.759  28.989  1.00  0.00     0.227 C 
HETATM   26  O2  UNL     1       6.964  39.758  28.308  1.00  0.00    -0.273 OA
ATOM     27  H2  UNL     1       5.109  37.635  29.817  1.00  0.00     0.163 HD
BRANCH  25  28
HETATM   28  C5  UNL     1       7.794  37.922  29.478  1.00  0.00     0.205 C 
BRANCH  28  29
HETATM   29  C4  UNL     1       7.915  36.687  28.696  1.00  0.00     0.226 C 
HETATM   30  N1  UNL     1       9.143  35.935  28.687  1.00  0.00    -0.361 N 
ATOM     31  H1  UNL     1       9.938  36.267  29.235  1.00  0.00     0.162 HD
HETATM   32  O1  UNL     1       6.980  36.215  28.001  1.00  0.00    -0.273 OA
BRANCH  30  33
HETATM   33  C3  UNL     1       9.269  34.746  27.934  1.00  0.00     0.122 C 
BRANCH  33  34
HETATM   34  C2  UNL     1      10.170  33.687  28.508  1.00  0.00     0.015 C 
HETATM   35  C1  UNL     1       9.790  33.404  29.953  1.00  0.00     0.006 C 
ENDBRANCH  33  34
ENDBRANCH  30  33
ENDBRANCH  28  29
ENDBRANCH  25  28
ENDBRANCH   1  24
BRANCH   8  36
HETATM   36  O4  UNL     1       2.664  40.563  32.288  1.00  0.00    -0.393 OA
ATOM     37  H4  UNL     1       1.870  41.032  32.513  1.00  0.00     0.210 HD
ENDBRANCH   8  36
BRANCH   7  38
HETATM   38  O3  UNL     1       0.847  40.962  30.703  1.00  0.00    -0.393 OA
ATOM     39  H3  UNL     1       1.341  41.331  31.427  1.00  0.00     0.210 HD
ENDBRANCH   7  38
BRANCH  15  40
HETATM   40  O5  UNL     1       3.564  34.294  22.640  1.00  0.00    -0.396 OA
ATOM     41  H5  UNL     1       3.441  34.020  21.739  1.00  0.00     0.210 HD
ENDBRANCH  15  40
TORSDOF 8
ENDMDL
MODEL 5
REMARK VINA RESULT: -7.685836437      3.034      6.734
REMARK  8 active torsions:
REMARK  status: ('A' for Active; 'I' for Inactive)
REMARK    1  A    between atoms: C2_2  and  C3_3 
REMARK    2  A    between atoms: C3_3  and  N1_4 
REMARK       I    between atoms: N1_4  and  C4_6 
REMARK    3  A    between atoms: C4_6  and  C5_8 
REMARK    4  A    between atoms: C5_8  and  C6_9 
REMARK       I    between atoms: C6_9  and  N2_11 
REMARK    5  A    between atoms: N2_11  and  C7_13 
REMARK    6  A    between atoms: C13_19  and  O3_20 
REMARK    7  A    between atoms: C14_22  and  O4_23 
REMARK    8  A    between atoms: C21_31  and  O5_32 
ROOT
HETATM    1  C7  UNL     1       3.950  37.811  27.024  1.00  0.00     0.045 C 
HETATM    2  C8  UNL     1       3.563  37.389  28.391  1.00  0.00     0.039 C 
HETATM    3  C9  UNL     1       3.131  35.943  28.043  1.00  0.00     0.020 C 
HETATM    4  C10 UNL     1       2.711  35.936  26.577  1.00  0.00     0.020 C 
HETATM    5  C11 UNL     1       2.646  37.409  26.350  1.00  0.00    -0.004 C 
HETATM    6  C12 UNL     1       1.416  37.765  27.208  1.00  0.00     0.047 C 
HETATM    7  C13 UNL     1       0.928  36.789  28.190  1.00  0.00     0.148 C 
HETATM    8  C14 UNL     1       1.833  35.796  28.813  1.00  0.00     0.151 C 
HETATM    9  C15 UNL     1       2.490  37.879  24.947  1.00  0.00    -0.029 C 
HETATM   10  C16 UNL     1       1.295  38.816  24.747  1.00  0.00     0.016 C 
HETATM   11  C17 UNL     1       2.375  36.678  24.037  1.00  0.00     0.011 C 
HETATM   12  C18 UNL     1       1.985  37.223  22.679  1.00  0.00     0.006 C 
HETATM   13  C19 UNL     1       3.016  38.101  22.062  1.00  0.00    -0.004 C 
HETATM   14  C20 UNL     1       2.309  38.910  20.962  1.00  0.00     0.037 C 
HETATM   15  C21 UNL     1       3.261  39.828  20.246  1.00  0.00     0.118 C 
HETATM   16  C22 UNL     1       4.191  40.564  21.146  1.00  0.00     0.032 C 
HETATM   17  C23 UNL     1       3.659  40.422  22.587  1.00  0.00     0.012 C 
HETATM   18  C24 UNL     1       3.792  38.961  23.006  1.00  0.00    -0.036 C 
HETATM   19  C25 UNL     1       5.281  38.737  22.576  1.00  0.00     0.016 C 
HETATM   20  C26 UNL     1       3.693  38.666  24.423  1.00  0.00     0.003 C 
HETATM   21  C27 UNL     1       3.918  39.740  25.418  1.00  0.00     0.013 C 
HETATM   22  C28 UNL     1       4.307  39.217  26.790  1.00  0.00     0.011 C 
HETATM   23  C29 UNL     1       3.840  40.198  27.840  1.00  0.00     0.012 C 
ENDROOT
BRANCH   1  24
HETATM   24  N2  UNL     1       5.051  36.918  26.801  1.00  0.00    -0.350 N 
HETATM   25  C6  UNL     1       6.387  37.352  26.663  1.00  0.00     0.227 C 
HETATM   26  O2  UNL     1       6.651  38.566  26.723  1.00  0.00    -0.273 OA
ATOM     27  H2  UNL     1       4.858  35.918  26.737  1.00  0.00     0.163 HD
BRANCH  25  28
HETATM   28  C5  UNL     1       7.517  36.420  26.448  1.00  0.00     0.205 C 
BRANCH  28  29
HETATM   29  C4  UNL     1       8.034  35.907  27.722  1.00  0.00     0.226 C 
HETATM   30  N1  UNL     1       9.195  35.057  27.760  1.00  0.00    -0.361 N 
ATOM     31  H1  UNL     1       9.665  34.811  26.888  1.00  0.00     0.162 HD
HETATM   32  O1  UNL     1       7.511  36.170  28.834  1.00  0.00    -0.273 OA
BRANCH  30  33
HETATM   33  C3  UNL     1       9.697  34.557  28.983  1.00  0.00     0.122 C 
BRANCH  33  34
HETATM   34  C2  UNL     1      10.276  33.169  28.947  1.00  0.00     0.015 C 
HETATM   35  C1  UNL     1       9.918  32.488  27.635  1.00  0.00     0.006 C 
ENDBRANCH  33  34
ENDBRANCH  30  33
ENDBRANCH  28  29
ENDBRANCH  25  28
ENDBRANCH   1  24
BRANCH   8  36
HETATM   36  O4  UNL     1       2.110  36.062  30.149  1.00  0.00    -0.393 OA
ATOM     37  H4  UNL     1       3.048  36.195  30.223  1.00  0.00     0.210 HD
ENDBRANCH   8  36
BRANCH   7  38
HETATM   38  O3  UNL     1       0.377  37.541  29.266  1.00  0.00    -0.393 OA
ATOM     39  H3  UNL     1       0.272  38.431  28.947  1.00  0.00     0.210 HD
ENDBRANCH   7  38
BRANCH  15  40
HETATM   40  O5  UNL     1       3.918  39.173  19.184  1.00  0.00    -0.396 OA
ATOM     41  H5  UNL     1       4.858  39.141  19.319  1.00  0.00     0.210 HD
ENDBRANCH  15  40
TORSDOF 8
ENDMDL
