MODEL 1
REMARK VINA RESULT: -7.285066813      0.000      0.000
REMARK  13 active torsions:
REMARK  status: ('A' for Active; 'I' for Inactive)
REMARK    1  A    between atoms: O1_2  and  C2_3 
REMARK    2  A    between atoms: C4_5  and  C5_6 
REMARK    3  A    between atoms: C14_16  and  C15_17 
REMARK    4  A    between atoms: C15_17  and  C16_18 
REMARK    5  A    between atoms: C17_19  and  N1_20 
REMARK    6  A    between atoms: C18_25  and  N3_26 
REMARK    7  A    between atoms: N3_26  and  C19_28 
REMARK    8  A    between atoms: C19_28  and  C20_29 
REMARK    9  A    between atoms: C20_29  and  O2_30 
REMARK   10  A    between atoms: C21_34  and  C22_35 
REMARK   11  A    between atoms: C22_35  and  C23_36 
REMARK   12  A    between atoms: C23_36  and  C24_37 
REMARK   13  A    between atoms: C24_37  and  N5_38 
ROOT
HETATM    1  C16 UNL     1       6.563  37.658  27.245  1.00  0.00     0.036 A 
HETATM    2  C17 UNL     1       7.393  37.169  28.228  1.00  0.00     0.127 A 
HETATM    3  N2  UNL     1       8.300  36.195  27.960  1.00  0.00    -0.176 N 
ATOM      4  H2  UNL     1       8.903  35.852  28.708  1.00  0.00     0.186 HD
HETATM    5  C18 UNL     1       8.416  35.680  26.736  1.00  0.00     0.680 A 
HETATM    6  N4  UNL     1       7.629  36.126  25.751  1.00  0.00    -0.191 N 
ATOM      7  H4  UNL     1       7.718  35.731  24.815  1.00  0.00     0.184 HD
HETATM    8  C21 UNL     1       6.720  37.091  25.981  1.00  0.00     0.059 A 
ENDROOT
BRANCH   1   9
HETATM    9  C15 UNL     1       5.688  38.580  27.443  1.00  0.00     0.032 C 
BRANCH   9  10
HETATM   10  C14 UNL     1       4.553  38.558  28.390  1.00  0.00     0.004 A 
HETATM   11  C2  UNL     1       4.586  39.368  29.531  1.00  0.00     0.079 A 
HETATM   12  C3  UNL     1       3.547  39.357  30.443  1.00  0.00     0.050 A 
HETATM   13  C4  UNL     1       2.458  38.561  30.266  1.00  0.00    -0.023 A 
HETATM   14  C11 UNL     1       2.427  37.766  29.146  1.00  0.00     0.020 A 
HETATM   15  C12 UNL     1       3.448  37.751  28.213  1.00  0.00    -0.048 A 
HETATM   16  C13 UNL     1       3.350  36.838  27.016  1.00  0.00     0.049 C 
BRANCH  11  17
HETATM   17  O1  UNL     1       5.694  40.179  29.713  1.00  0.00    -0.355 OA
HETATM   18  C1  UNL     1       5.876  40.781  30.978  1.00  0.00     0.210 C 
ENDBRANCH  11  17
BRANCH  13  19
HETATM   19  C5  UNL     1       1.376  38.569  31.241  1.00  0.00    -0.023 A 
HETATM   20  C6  UNL     1       0.523  37.499  31.395  1.00  0.00     0.012 A 
HETATM   21  C7  UNL     1      -0.507  37.505  32.323  1.00  0.00     0.004 A 
HETATM   22  C8  UNL     1      -0.687  38.610  33.116  1.00  0.00     0.042 A 
HETATM   23  C9  UNL     1       0.146  39.703  32.992  1.00  0.00     0.117 A 
HETATM   24  F1  UNL     1      -0.019  40.819  33.776  1.00  0.00    -0.206 F 
HETATM   25  C10 UNL     1       1.168  39.661  32.051  1.00  0.00     0.054 A 
ENDBRANCH  13  19
ENDBRANCH   9  10
ENDBRANCH   1   9
BRANCH   2  26
HETATM   26  N1  UNL     1       7.343  37.606  29.412  1.00  0.00    -0.384 N 
ATOM     27  H12 UNL     1       6.532  38.167  29.671  1.00  0.00     0.157 HD
ATOM     28  H11 UNL     1       8.083  37.408  30.085  1.00  0.00     0.157 HD
ENDBRANCH   2  26
BRANCH   8  29
HETATM   29  C22 UNL     1       5.997  37.456  24.939  1.00  0.00     0.006 C 
BRANCH  29  30
HETATM   30  C23 UNL     1       5.222  36.437  24.168  1.00  0.00     0.059 C 
BRANCH  30  31
HETATM   31  C24 UNL     1       4.182  37.182  23.330  1.00  0.00     0.275 C 
BRANCH  31  32
HETATM   32  N5  UNL     1       3.251  36.198  22.779  1.00  0.00     0.080 N 
HETATM   33  C25 UNL     1       1.890  36.503  23.165  1.00  0.00     0.309 C 
HETATM   34  C26 UNL     1       3.556  34.879  23.306  1.00  0.00     0.309 C 
ENDBRANCH  31  32
ENDBRANCH  30  31
ENDBRANCH  29  30
ENDBRANCH   8  29
BRANCH   5  35
HETATM   35  N3  UNL     1       9.271  34.747  26.440  1.00  0.00    -0.224 N 
ATOM     36  H3  UNL     1       9.169  34.245  25.557  1.00  0.00     0.177 HD
BRANCH  35  37
HETATM   37  C19 UNL     1      10.357  34.402  27.318  1.00  0.00     0.164 C 
BRANCH  37  38
HETATM   38  C20 UNL     1       9.959  33.116  28.030  1.00  0.00     0.184 C 
BRANCH  38  39
HETATM   39  O2  UNL     1       9.469  32.203  27.100  1.00  0.00    -0.399 OA
ATOM     40  H2  UNL     1       8.618  32.492  26.790  1.00  0.00     0.209 HD
ENDBRANCH  38  39
ENDBRANCH  37  38
ENDBRANCH  35  37
ENDBRANCH   5  35
TORSDOF 13
ENDMDL
MODEL 2
REMARK VINA RESULT: -7.258153542      5.125      8.064
REMARK  13 active torsions:
REMARK  status: ('A' for Active; 'I' for Inactive)
REMARK    1  A    between atoms: O1_2  and  C2_3 
REMARK    2  A    between atoms: C4_5  and  C5_6 
REMARK    3  A    between atoms: C14_16  and  C15_17 
REMARK    4  A    between atoms: C15_17  and  C16_18 
REMARK    5  A    between atoms: C17_19  and  N1_20 
REMARK    6  A    between atoms: C18_25  and  N3_26 
REMARK    7  A    between atoms: N3_26  and  C19_28 
REMARK    8  A    between atoms: C19_28  and  C20_29 
REMARK    9  A    between atoms: C20_29  and  O2_30 
REMARK   10  A    between atoms: C21_34  and  C22_35 
REMARK   11  A    between atoms: C22_35  and  C23_36 
REMARK   12  A    between atoms: C23_36  and  C24_37 
REMARK   13  A    between atoms: C24_37  and  N5_38 
ROOT
HETATM    1  C16 UNL     1       5.951  39.921  23.422  1.00  0.00     0.036 A 
HETATM    2  C17 UNL     1       6.415  40.651  22.352  1.00  0.00     0.127 A 
HETATM    3  N2  UNL     1       5.805  40.586  21.141  1.00  0.00    -0.176 N 
ATOM      4  H2  UNL     1       6.170  41.138  20.365  1.00  0.00     0.186 HD
HETATM    5  C18 UNL     1       4.735  39.812  20.949  1.00  0.00     0.680 A 
HETATM    6  N4  UNL     1       4.252  39.086  21.963  1.00  0.00    -0.191 N 
ATOM      7  H4  UNL     1       3.435  38.494  21.815  1.00  0.00     0.184 HD
HETATM    8  C21 UNL     1       4.832  39.127  23.176  1.00  0.00     0.059 A 
ENDROOT
BRANCH   1   9
HETATM    9  C15 UNL     1       6.490  39.946  24.590  1.00  0.00     0.032 C 
BRANCH   9  10
HETATM   10  C14 UNL     1       7.108  38.821  25.323  1.00  0.00     0.004 A 
HETATM   11  C2  UNL     1       8.100  38.053  24.704  1.00  0.00     0.079 A 
HETATM   12  C3  UNL     1       8.685  36.984  25.358  1.00  0.00     0.050 A 
HETATM   13  C4  UNL     1       8.318  36.641  26.622  1.00  0.00    -0.023 A 
HETATM   14  C11 UNL     1       7.344  37.396  27.228  1.00  0.00     0.020 A 
HETATM   15  C12 UNL     1       6.737  38.472  26.605  1.00  0.00    -0.048 A 
HETATM   16  C13 UNL     1       5.662  39.244  27.329  1.00  0.00     0.049 C 
BRANCH  11  17
HETATM   17  O1  UNL     1       8.475  38.399  23.416  1.00  0.00    -0.355 OA
HETATM   18  C1  UNL     1       9.768  38.933  23.221  1.00  0.00     0.210 C 
ENDBRANCH  11  17
BRANCH  13  19
HETATM   19  C5  UNL     1       8.951  35.511  27.289  1.00  0.00    -0.023 A 
HETATM   20  C6  UNL     1       9.537  34.482  26.585  1.00  0.00     0.012 A 
HETATM   21  C7  UNL     1      10.139  33.405  27.219  1.00  0.00     0.004 A 
HETATM   22  C8  UNL     1      10.155  33.359  28.590  1.00  0.00     0.042 A 
HETATM   23  C9  UNL     1       9.579  34.370  29.331  1.00  0.00     0.117 A 
HETATM   24  F1  UNL     1       9.585  34.341  30.704  1.00  0.00    -0.206 F 
HETATM   25  C10 UNL     1       8.985  35.434  28.662  1.00  0.00     0.054 A 
ENDBRANCH  13  19
ENDBRANCH   9  10
ENDBRANCH   1   9
BRANCH   2  26
HETATM   26  N1  UNL     1       7.422  41.407  22.454  1.00  0.00    -0.384 N 
ATOM     27  H12 UNL     1       8.329  40.962  22.595  1.00  0.00     0.157 HD
ATOM     28  H11 UNL     1       7.336  42.421  22.399  1.00  0.00     0.157 HD
ENDBRANCH   2  26
BRANCH   8  29
HETATM   29  C22 UNL     1       4.272  38.373  24.104  1.00  0.00     0.006 C 
BRANCH  29  30
HETATM   30  C23 UNL     1       4.189  36.892  23.917  1.00  0.00     0.059 C 
BRANCH  30  31
HETATM   31  C24 UNL     1       2.802  36.444  24.381  1.00  0.00     0.275 C 
BRANCH  31  32
HETATM   32  N5  UNL     1       2.198  35.648  23.315  1.00  0.00     0.080 N 
HETATM   33  C25 UNL     1       3.074  34.565  22.920  1.00  0.00     0.309 C 
HETATM   34  C26 UNL     1       1.989  36.474  22.138  1.00  0.00     0.309 C 
ENDBRANCH  31  32
ENDBRANCH  30  31
ENDBRANCH  29  30
ENDBRANCH   8  29
BRANCH   5  35
HETATM   35  N3  UNL     1       4.124  39.722  19.807  1.00  0.00    -0.224 N 
ATOM     36  H3  UNL     1       4.076  38.815  19.342  1.00  0.00     0.177 HD
BRANCH  35  37
HETATM   37  C19 UNL     1       3.513  40.863  19.177  1.00  0.00     0.164 C 
BRANCH  37  38
HETATM   38  C20 UNL     1       2.140  41.037  19.812  1.00  0.00     0.184 C 
BRANCH  38  39
HETATM   39  O2  UNL     1       2.179  42.094  20.718  1.00  0.00    -0.399 OA
ATOM     40  H2  UNL     1       2.285  41.753  21.598  1.00  0.00     0.209 HD
ENDBRANCH  38  39
ENDBRANCH  37  38
ENDBRANCH  35  37
ENDBRANCH   5  35
TORSDOF 13
ENDMDL
MODEL 3
REMARK VINA RESULT: -7.164321742      0.854      1.155
REMARK  13 active torsions:
REMARK  status: ('A' for Active; 'I' for Inactive)
REMARK    1  A    between atoms: O1_2  and  C2_3 
REMARK    2  A    between atoms: C4_5  and  C5_6 
REMARK    3  A    between atoms: C14_16  and  C15_17 
REMARK    4  A    between atoms: C15_17  and  C16_18 
REMARK    5  A    between atoms: C17_19  and  N1_20 
REMARK    6  A    between atoms: C18_25  and  N3_26 
REMARK    7  A    between atoms: N3_26  and  C19_28 
REMARK    8  A    between atoms: C19_28  and  C20_29 
REMARK    9  A    between atoms: C20_29  and  O2_30 
REMARK   10  A    between atoms: C21_34  and  C22_35 
REMARK   11  A    between atoms: C22_35  and  C23_36 
REMARK   12  A    between atoms: C23_36  and  C24_37 
REMARK   13  A    between atoms: C24_37  and  N5_38 
ROOT
HETATM    1  C16 UNL     1       6.652  37.728  27.285  1.00  0.00     0.036 A 
HETATM    2  C17 UNL     1       7.425  37.225  28.305  1.00  0.00     0.127 A 
HETATM    3  N2  UNL     1       8.314  36.224  28.085  1.00  0.00    -0.176 N 
ATOM      4  H2  UNL     1       8.875  35.871  28.860  1.00  0.00     0.186 HD
HETATM    5  C18 UNL     1       8.467  35.694  26.870  1.00  0.00     0.680 A 
HETATM    6  N4  UNL     1       7.735  36.153  25.849  1.00  0.00    -0.191 N 
ATOM      7  H4  UNL     1       7.853  35.746  24.922  1.00  0.00     0.184 HD
HETATM    8  C21 UNL     1       6.845  37.145  26.033  1.00  0.00     0.059 A 
ENDROOT
BRANCH   1   9
HETATM    9  C15 UNL     1       5.795  38.676  27.438  1.00  0.00     0.032 C 
BRANCH   9  10
HETATM   10  C14 UNL     1       4.618  38.693  28.332  1.00  0.00     0.004 A 
HETATM   11  C2  UNL     1       4.605  39.540  29.446  1.00  0.00     0.079 A 
HETATM   12  C3  UNL     1       3.525  39.565  30.309  1.00  0.00     0.050 A 
HETATM   13  C4  UNL     1       2.440  38.771  30.107  1.00  0.00    -0.023 A 
HETATM   14  C11 UNL     1       2.454  37.941  29.014  1.00  0.00     0.020 A 
HETATM   15  C12 UNL     1       3.516  37.888  28.130  1.00  0.00    -0.048 A 
HETATM   16  C13 UNL     1       3.466  36.937  26.960  1.00  0.00     0.049 C 
BRANCH  11  17
HETATM   17  O1  UNL     1       5.711  40.349  29.653  1.00  0.00    -0.355 OA
HETATM   18  C1  UNL     1       5.939  40.840  30.958  1.00  0.00     0.210 C 
ENDBRANCH  11  17
BRANCH  13  19
HETATM   19  C5  UNL     1       1.314  38.819  31.031  1.00  0.00    -0.023 A 
HETATM   20  C6  UNL     1       1.310  39.643  32.136  1.00  0.00     0.012 A 
HETATM   21  C7  UNL     1       0.239  39.689  33.016  1.00  0.00     0.004 A 
HETATM   22  C8  UNL     1      -0.852  38.891  32.785  1.00  0.00     0.042 A 
HETATM   23  C9  UNL     1      -0.886  38.051  31.690  1.00  0.00     0.117 A 
HETATM   24  F1  UNL     1      -1.970  37.245  31.443  1.00  0.00    -0.206 F 
HETATM   25  C10 UNL     1       0.205  38.032  30.829  1.00  0.00     0.054 A 
ENDBRANCH  13  19
ENDBRANCH   9  10
ENDBRANCH   1   9
BRANCH   2  26
HETATM   26  N1  UNL     1       7.338  37.675  29.483  1.00  0.00    -0.384 N 
ATOM     27  H12 UNL     1       6.531  37.386  30.037  1.00  0.00     0.157 HD
ATOM     28  H11 UNL     1       8.044  38.301  29.869  1.00  0.00     0.157 HD
ENDBRANCH   2  26
BRANCH   8  29
HETATM   29  C22 UNL     1       6.178  37.521  24.958  1.00  0.00     0.006 C 
BRANCH  29  30
HETATM   30  C23 UNL     1       5.377  36.524  24.185  1.00  0.00     0.059 C 
BRANCH  30  31
HETATM   31  C24 UNL     1       4.367  37.298  23.337  1.00  0.00     0.275 C 
BRANCH  31  32
HETATM   32  N5  UNL     1       3.390  36.347  22.809  1.00  0.00     0.080 N 
HETATM   33  C25 UNL     1       2.044  36.738  23.167  1.00  0.00     0.309 C 
HETATM   34  C26 UNL     1       3.618  35.033  23.385  1.00  0.00     0.309 C 
ENDBRANCH  31  32
ENDBRANCH  30  31
ENDBRANCH  29  30
ENDBRANCH   8  29
BRANCH   5  35
HETATM   35  N3  UNL     1       9.307  34.735  26.618  1.00  0.00    -0.224 N 
ATOM     36  H3  UNL     1       9.229  34.229  25.736  1.00  0.00     0.177 HD
BRANCH  35  37
HETATM   37  C19 UNL     1      10.343  34.365  27.546  1.00  0.00     0.164 C 
BRANCH  37  38
HETATM   38  C20 UNL     1       9.938  33.028  28.153  1.00  0.00     0.184 C 
BRANCH  38  39
HETATM   39  O2  UNL     1       9.488  32.179  27.145  1.00  0.00    -0.399 OA
ATOM     40  H2  UNL     1       8.607  32.427  26.892  1.00  0.00     0.209 HD
ENDBRANCH  38  39
ENDBRANCH  37  38
ENDBRANCH  35  37
ENDBRANCH   5  35
TORSDOF 13
ENDMDL
MODEL 4
REMARK VINA RESULT: -7.152659428      3.034      4.275
REMARK  13 active torsions:
REMARK  status: ('A' for Active; 'I' for Inactive)
REMARK    1  A    between atoms: O1_2  and  C2_3 
REMARK    2  A    between atoms: C4_5  and  C5_6 
REMARK    3  A    between atoms: C14_16  and  C15_17 
REMARK    4  A    between atoms: C15_17  and  C16_18 
REMARK    5  A    between atoms: C17_19  and  N1_20 
REMARK    6  A    between atoms: C18_25  and  N3_26 
REMARK    7  A    between atoms: N3_26  and  C19_28 
REMARK    8  A    between atoms: C19_28  and  C20_29 
REMARK    9  A    between atoms: C20_29  and  O2_30 
REMARK   10  A    between atoms: C21_34  and  C22_35 
REMARK   11  A    between atoms: C22_35  and  C23_36 
REMARK   12  A    between atoms: C23_36  and  C24_37 
REMARK   13  A    between atoms: C24_37  and  N5_38 
ROOT
HETATM    1  C16 UNL     1       7.126  37.642  26.212  1.00  0.00     0.036 A 
HETATM    2  C17 UNL     1       7.278  36.968  27.402  1.00  0.00     0.127 A 
HETATM    3  N2  UNL     1       8.320  36.121  27.600  1.00  0.00    -0.176 N 
ATOM      4  H2  UNL     1       8.407  35.634  28.492  1.00  0.00     0.186 HD
HETATM    5  C18 UNL     1       9.231  35.915  26.649  1.00  0.00     0.680 A 
HETATM    6  N4  UNL     1       9.121  36.550  25.476  1.00  0.00    -0.191 N 
ATOM      7  H4  UNL     1       9.818  36.391  24.750  1.00  0.00     0.184 HD
HETATM    8  C21 UNL     1       8.101  37.397  25.247  1.00  0.00     0.059 A 
ENDROOT
BRANCH   1   9
HETATM    9  C15 UNL     1       6.159  38.456  25.971  1.00  0.00     0.032 C 
BRANCH   9  10
HETATM   10  C14 UNL     1       4.708  38.180  26.041  1.00  0.00     0.004 A 
HETATM   11  C2  UNL     1       3.944  38.747  27.068  1.00  0.00     0.079 A 
HETATM   12  C3  UNL     1       2.588  38.495  27.169  1.00  0.00     0.050 A 
HETATM   13  C4  UNL     1       1.950  37.689  26.278  1.00  0.00    -0.023 A 
HETATM   14  C11 UNL     1       2.702  37.133  25.272  1.00  0.00     0.020 A 
HETATM   15  C12 UNL     1       4.059  37.363  25.140  1.00  0.00    -0.048 A 
HETATM   16  C13 UNL     1       4.821  36.704  24.017  1.00  0.00     0.049 C 
BRANCH  11  17
HETATM   17  O1  UNL     1       4.592  39.568  27.977  1.00  0.00    -0.355 OA
HETATM   18  C1  UNL     1       4.006  39.742  29.250  1.00  0.00     0.210 C 
ENDBRANCH  11  17
BRANCH  13  19
HETATM   19  C5  UNL     1       0.521  37.440  26.407  1.00  0.00    -0.023 A 
HETATM   20  C6  UNL     1      -0.243  37.001  25.347  1.00  0.00     0.012 A 
HETATM   21  C7  UNL     1      -1.604  36.764  25.468  1.00  0.00     0.004 A 
HETATM   22  C8  UNL     1      -2.214  36.971  26.678  1.00  0.00     0.042 A 
HETATM   23  C9  UNL     1      -1.484  37.410  27.764  1.00  0.00     0.117 A 
HETATM   24  F1  UNL     1      -2.078  37.623  28.984  1.00  0.00    -0.206 F 
HETATM   25  C10 UNL     1      -0.122  37.637  27.606  1.00  0.00     0.054 A 
ENDBRANCH  13  19
ENDBRANCH   9  10
ENDBRANCH   1   9
BRANCH   2  26
HETATM   26  N1  UNL     1       6.456  37.110  28.351  1.00  0.00    -0.384 N 
ATOM     27  H12 UNL     1       5.810  37.898  28.298  1.00  0.00     0.157 HD
ATOM     28  H11 UNL     1       6.437  36.465  29.141  1.00  0.00     0.157 HD
ENDBRANCH   2  26
BRANCH   8  29
HETATM   29  C22 UNL     1       8.091  37.970  24.058  1.00  0.00     0.006 C 
BRANCH  29  30
HETATM   30  C23 UNL     1       9.165  38.940  23.683  1.00  0.00     0.059 C 
BRANCH  30  31
HETATM   31  C24 UNL     1       8.755  39.598  22.364  1.00  0.00     0.275 C 
BRANCH  31  32
HETATM   32  N5  UNL     1       9.472  38.930  21.279  1.00  0.00     0.080 N 
HETATM   33  C25 UNL     1      10.902  39.097  21.426  1.00  0.00     0.309 C 
HETATM   34  C26 UNL     1       9.104  39.523  20.005  1.00  0.00     0.309 C 
ENDBRANCH  31  32
ENDBRANCH  30  31
ENDBRANCH  29  30
ENDBRANCH   8  29
BRANCH   5  35
HETATM   35  N3  UNL     1      10.241  35.113  26.799  1.00  0.00    -0.224 N 
ATOM     36  H3  UNL     1      10.990  35.124  26.106  1.00  0.00     0.177 HD
BRANCH  35  37
HETATM   37  C19 UNL     1      10.338  34.209  27.915  1.00  0.00     0.164 C 
BRANCH  37  38
HETATM   38  C20 UNL     1       9.871  32.845  27.423  1.00  0.00     0.184 C 
BRANCH  38  39
HETATM   39  O2  UNL     1       9.825  31.957  28.494  1.00  0.00    -0.399 OA
ATOM     40  H2  UNL     1       8.926  31.684  28.640  1.00  0.00     0.209 HD
ENDBRANCH  38  39
ENDBRANCH  37  38
ENDBRANCH  35  37
ENDBRANCH   5  35
TORSDOF 13
ENDMDL
MODEL 5
REMARK VINA RESULT: -7.134077250      0.861      1.882
REMARK  13 active torsions:
REMARK  status: ('A' for Active; 'I' for Inactive)
REMARK    1  A    between atoms: O1_2  and  C2_3 
REMARK    2  A    between atoms: C4_5  and  C5_6 
REMARK    3  A    between atoms: C14_16  and  C15_17 
REMARK    4  A    between atoms: C15_17  and  C16_18 
REMARK    5  A    between atoms: C17_19  and  N1_20 
REMARK    6  A    between atoms: C18_25  and  N3_26 
REMARK    7  A    between atoms: N3_26  and  C19_28 
REMARK    8  A    between atoms: C19_28  and  C20_29 
REMARK    9  A    between atoms: C20_29  and  O2_30 
REMARK   10  A    between atoms: C21_34  and  C22_35 
REMARK   11  A    between atoms: C22_35  and  C23_36 
REMARK   12  A    between atoms: C23_36  and  C24_37 
REMARK   13  A    between atoms: C24_37  and  N5_38 
ROOT
HETATM    1  C16 UNL     1       6.537  37.722  27.337  1.00  0.00     0.036 A 
HETATM    2  C17 UNL     1       7.402  37.220  28.282  1.00  0.00     0.127 A 
HETATM    3  N2  UNL     1       8.293  36.245  27.971  1.00  0.00    -0.176 N 
ATOM      4  H2  UNL     1       8.922  35.892  28.692  1.00  0.00     0.186 HD
HETATM    5  C18 UNL     1       8.360  35.741  26.738  1.00  0.00     0.680 A 
HETATM    6  N4  UNL     1       7.537  36.200  25.789  1.00  0.00    -0.191 N 
ATOM      7  H4  UNL     1       7.589  35.812  24.847  1.00  0.00     0.184 HD
HETATM    8  C21 UNL     1       6.642  37.166  26.063  1.00  0.00     0.059 A 
ENDROOT
BRANCH   1   9
HETATM    9  C15 UNL     1       5.674  38.646  27.577  1.00  0.00     0.032 C 
BRANCH   9  10
HETATM   10  C14 UNL     1       4.566  38.614  28.554  1.00  0.00     0.004 A 
HETATM   11  C2  UNL     1       3.525  37.692  28.392  1.00  0.00     0.079 A 
HETATM   12  C3  UNL     1       2.467  37.649  29.281  1.00  0.00     0.050 A 
HETATM   13  C4  UNL     1       2.398  38.498  30.341  1.00  0.00    -0.023 A 
HETATM   14  C11 UNL     1       3.420  39.402  30.499  1.00  0.00     0.020 A 
HETATM   15  C12 UNL     1       4.494  39.473  29.630  1.00  0.00    -0.048 A 
HETATM   16  C13 UNL     1       5.571  40.505  29.860  1.00  0.00     0.049 C 
BRANCH  11  17
HETATM   17  O1  UNL     1       3.592  36.828  27.312  1.00  0.00    -0.355 OA
HETATM   18  C1  UNL     1       2.385  36.472  26.669  1.00  0.00     0.210 C 
ENDBRANCH  11  17
BRANCH  13  19
HETATM   19  C5  UNL     1       1.273  38.431  31.263  1.00  0.00    -0.023 A 
HETATM   20  C6  UNL     1       0.515  37.289  31.410  1.00  0.00     0.012 A 
HETATM   21  C7  UNL     1      -0.557  37.224  32.287  1.00  0.00     0.004 A 
HETATM   22  C8  UNL     1      -0.877  38.328  33.035  1.00  0.00     0.042 A 
HETATM   23  C9  UNL     1      -0.144  39.491  32.917  1.00  0.00     0.117 A 
HETATM   24  F1  UNL     1      -0.450  40.607  33.658  1.00  0.00    -0.206 F 
HETATM   25  C10 UNL     1       0.924  39.519  32.028  1.00  0.00     0.054 A 
ENDBRANCH  13  19
ENDBRANCH   9  10
ENDBRANCH   1   9
BRANCH   2  26
HETATM   26  N1  UNL     1       7.399  37.647  29.472  1.00  0.00    -0.384 N 
ATOM     27  H12 UNL     1       7.172  36.979  30.208  1.00  0.00     0.157 HD
ATOM     28  H11 UNL     1       7.616  38.619  29.690  1.00  0.00     0.157 HD
ENDBRANCH   2  26
BRANCH   8  29
HETATM   29  C22 UNL     1       5.882  37.545  25.052  1.00  0.00     0.006 C 
BRANCH  29  30
HETATM   30  C23 UNL     1       5.190  36.522  24.209  1.00  0.00     0.059 C 
BRANCH  30  31
HETATM   31  C24 UNL     1       4.148  37.251  23.360  1.00  0.00     0.275 C 
BRANCH  31  32
HETATM   32  N5  UNL     1       3.311  36.247  22.704  1.00  0.00     0.080 N 
HETATM   33  C25 UNL     1       1.907  36.541  22.896  1.00  0.00     0.309 C 
HETATM   34  C26 UNL     1       3.555  34.941  23.291  1.00  0.00     0.309 C 
ENDBRANCH  31  32
ENDBRANCH  30  31
ENDBRANCH  29  30
ENDBRANCH   8  29
BRANCH   5  35
HETATM   35  N3  UNL     1       9.198  34.807  26.401  1.00  0.00    -0.224 N 
ATOM     36  H3  UNL     1       9.058  34.312  25.520  1.00  0.00     0.177 HD
BRANCH  35  37
HETATM   37  C19 UNL     1      10.317  34.451  27.232  1.00  0.00     0.164 C 
BRANCH  37  38
HETATM   38  C20 UNL     1       9.932  33.178  27.973  1.00  0.00     0.184 C 
BRANCH  38  39
HETATM   39  O2  UNL     1       9.482  32.228  27.060  1.00  0.00    -0.399 OA
ATOM     40  H2  UNL     1       8.758  32.587  26.561  1.00  0.00     0.209 HD
ENDBRANCH  38  39
ENDBRANCH  37  38
ENDBRANCH  35  37
ENDBRANCH   5  35
TORSDOF 13
ENDMDL
