MODEL 1
REMARK VINA RESULT: -9.310424964      0.000      0.000
REMARK  19 active torsions:
REMARK  status: ('A' for Active; 'I' for Inactive)
REMARK    1  A    between atoms: C3_3  and  C4_4 
REMARK    2  A    between atoms: C3_3  and  C24_41 
REMARK       I    between atoms: C4_4  and  N1_6 
REMARK    3  A    between atoms: N1_6  and  C5_8 
REMARK    4  A    between atoms: N2_12  and  C7_13 
REMARK    5  A    between atoms: C7_13  and  C8_14 
REMARK    6  A    between atoms: C7_13  and  C15_21 
REMARK    7  A    between atoms: C8_14  and  C9_15 
REMARK    8  A    between atoms: C15_21  and  O4_22 
REMARK    9  A    between atoms: C15_21  and  N3_24 
REMARK   10  A    between atoms: N3_24  and  C16_26 
REMARK   11  A    between atoms: C16_26  and  C17_27 
REMARK   12  A    between atoms: C16_26  and  C19_29 
REMARK   13  A    between atoms: C19_29  and  O5_30 
REMARK   14  A    between atoms: C19_29  and  C20_32 
REMARK   15  A    between atoms: C20_32  and  C21_33 
REMARK   16  A    between atoms: C21_33  and  O6_34 
REMARK   17  A    between atoms: C21_33  and  C22_36 
REMARK   18  A    between atoms: C24_41  and  N4_43 
REMARK   19  A    between atoms: N4_43  and  C25_45 
ROOT
HETATM    1  C7  UNL     1      68.625  21.537 -61.505  1.00  0.00     0.167 C 
ENDROOT
BRANCH   1   2
HETATM    2  N2  UNL     1      68.355  22.186 -62.757  1.00  0.00    -0.206 N 
HETATM    3  O3  UNL     1      69.216  22.970 -63.528  1.00  0.00    -0.191 OA
HETATM    4  C6  UNL     1      68.577  23.377 -64.699  1.00  0.00     0.313 C 
HETATM    5  C5  UNL     1      67.505  22.400 -64.909  1.00  0.00     0.281 C 
HETATM    6  O2  UNL     1      68.904  24.383 -65.385  1.00  0.00    -0.260 OA
HETATM    7  C23 UNL     1      67.113  22.106 -63.496  1.00  0.00     0.277 C 
HETATM    8  O9  UNL     1      65.969  21.847 -63.044  1.00  0.00    -0.268 OA
BRANCH   5   9
HETATM    9  N1  UNL     1      66.375  22.921 -65.683  1.00  0.00    -0.335 N 
HETATM   10  C4  UNL     1      65.585  22.093 -66.496  1.00  0.00     0.255 C 
HETATM   11  O1  UNL     1      65.966  20.857 -66.443  1.00  0.00    -0.268 OA
ATOM     12  H1  UNL     1      66.156  23.915 -65.628  1.00  0.00     0.164 HD
BRANCH  10  13
HETATM   13  C3  UNL     1      64.462  22.390 -67.344  1.00  0.00     0.065 C 
HETATM   14  C2  UNL     1      63.244  22.568 -66.776  1.00  0.00    -0.011 C 
HETATM   15  C1  UNL     1      62.954  22.482 -65.342  1.00  0.00     0.037 C 
BRANCH  13  16
HETATM   16  C24 UNL     1      64.466  22.496 -68.793  1.00  0.00     0.112 C 
HETATM   17  S1  UNL     1      65.858  22.967 -69.550  1.00  0.00    -0.060 SA
BRANCH  16  18
HETATM   18  N4  UNL     1      63.349  22.273 -69.649  1.00  0.00    -0.375 N 
ATOM     19  H4  UNL     1      62.734  23.049 -69.896  1.00  0.00     0.161 HD
BRANCH  18  20
HETATM   20  C25 UNL     1      63.080  20.918 -70.180  1.00  0.00     0.086 C 
HETATM   21  C26 UNL     1      61.845  20.434 -69.478  1.00  0.00     0.025 C 
HETATM   22  C27 UNL     1      60.692  20.193 -70.398  1.00  0.00     0.002 C 
HETATM   23  C28 UNL     1      60.414  21.264 -71.390  1.00  0.00     0.001 C 
HETATM   24  C29 UNL     1      61.622  21.878 -71.982  1.00  0.00     0.006 C 
HETATM   25  C30 UNL     1      62.856  21.079 -71.672  1.00  0.00     0.004 C 
HETATM   26  C31 UNL     1      62.816  19.735 -72.375  1.00  0.00     0.012 C 
ENDBRANCH  18  20
ENDBRANCH  16  18
ENDBRANCH  13  16
ENDBRANCH  10  13
ENDBRANCH   5   9
ENDBRANCH   1   2
BRANCH   1  27
HETATM   27  C8  UNL     1      68.287  22.273 -60.262  1.00  0.00     0.037 C 
BRANCH  27  28
HETATM   28  C9  UNL     1      69.363  23.079 -59.653  1.00  0.00    -0.012 C 
HETATM   29  C10 UNL     1      69.035  24.318 -58.916  1.00  0.00     0.005 C 
HETATM   30  C11 UNL     1      70.103  24.666 -57.882  1.00  0.00     0.000 C 
HETATM   31  C12 UNL     1      71.481  24.256 -58.262  1.00  0.00     0.000 C 
HETATM   32  C13 UNL     1      71.631  22.853 -58.770  1.00  0.00     0.000 C 
HETATM   33  C14 UNL     1      70.279  22.186 -58.774  1.00  0.00     0.005 C 
ENDBRANCH  27  28
ENDBRANCH   1  27
BRANCH   1  34
HETATM   34  C15 UNL     1      67.999  20.125 -61.485  1.00  0.00     0.239 C 
BRANCH  34  35
HETATM   35  O4  UNL     1      67.008  20.104 -60.510  1.00  0.00    -0.375 OA
ATOM     36  H4  UNL     1      67.428  20.016 -59.662  1.00  0.00     0.212 HD
ENDBRANCH  34  35
BRANCH  34  37
HETATM   37  N3  UNL     1      69.008  19.158 -61.384  1.00  0.00    -0.389 N 
ATOM     38  H3  UNL     1      69.269  18.638 -62.221  1.00  0.00     0.156 HD
BRANCH  37  39
HETATM   39  C16 UNL     1      69.671  18.875 -60.192  1.00  0.00     0.107 C 
BRANCH  39  40
HETATM   40  C17 UNL     1      71.161  18.671 -60.488  1.00  0.00     0.023 C 
HETATM   41  C18 UNL     1      72.031  19.067 -59.323  1.00  0.00     0.007 C 
ENDBRANCH  39  40
BRANCH  39  42
HETATM   42  C19 UNL     1      69.247  17.621 -59.443  1.00  0.00     0.143 C 
BRANCH  42  43
HETATM   43  O5  UNL     1      68.017  17.270 -60.086  1.00  0.00    -0.393 OA
ATOM     44  H5  UNL     1      67.425  17.954 -59.794  1.00  0.00     0.210 HD
ENDBRANCH  42  43
BRANCH  42  45
HETATM   45  C20 UNL     1      69.035  17.873 -57.987  1.00  0.00     0.076 C 
BRANCH  45  46
HETATM   46  C21 UNL     1      68.349  19.188 -57.724  1.00  0.00     0.221 C 
BRANCH  46  47
HETATM   47  O6  UNL     1      66.945  18.856 -57.825  1.00  0.00    -0.385 OA
ATOM     48  H6  UNL     1      66.528  19.703 -57.926  1.00  0.00     0.210 HD
ENDBRANCH  46  47
BRANCH  46  49
HETATM   49  C22 UNL     1      68.530  19.769 -56.391  1.00  0.00     0.203 C 
HETATM   50  O7  UNL     1      68.852  18.995 -55.429  1.00  0.00    -0.646 OA
HETATM   51  O8  UNL     1      68.386  21.096 -56.031  1.00  0.00    -0.646 OA
ENDBRANCH  46  49
ENDBRANCH  45  46
ENDBRANCH  42  45
ENDBRANCH  39  42
ENDBRANCH  37  39
ENDBRANCH  34  37
ENDBRANCH   1  34
TORSDOF 19
ENDMDL
MODEL 2
REMARK VINA RESULT: -9.236752021      2.132      2.950
REMARK  19 active torsions:
REMARK  status: ('A' for Active; 'I' for Inactive)
REMARK    1  A    between atoms: C3_3  and  C4_4 
REMARK    2  A    between atoms: C3_3  and  C24_41 
REMARK       I    between atoms: C4_4  and  N1_6 
REMARK    3  A    between atoms: N1_6  and  C5_8 
REMARK    4  A    between atoms: N2_12  and  C7_13 
REMARK    5  A    between atoms: C7_13  and  C8_14 
REMARK    6  A    between atoms: C7_13  and  C15_21 
REMARK    7  A    between atoms: C8_14  and  C9_15 
REMARK    8  A    between atoms: C15_21  and  O4_22 
REMARK    9  A    between atoms: C15_21  and  N3_24 
REMARK   10  A    between atoms: N3_24  and  C16_26 
REMARK   11  A    between atoms: C16_26  and  C17_27 
REMARK   12  A    between atoms: C16_26  and  C19_29 
REMARK   13  A    between atoms: C19_29  and  O5_30 
REMARK   14  A    between atoms: C19_29  and  C20_32 
REMARK   15  A    between atoms: C20_32  and  C21_33 
REMARK   16  A    between atoms: C21_33  and  O6_34 
REMARK   17  A    between atoms: C21_33  and  C22_36 
REMARK   18  A    between atoms: C24_41  and  N4_43 
REMARK   19  A    between atoms: N4_43  and  C25_45 
ROOT
HETATM    1  C7  UNL     1      68.811  21.295 -61.324  1.00  0.00     0.167 C 
ENDROOT
BRANCH   1   2
HETATM    2  N2  UNL     1      69.234  21.739 -62.622  1.00  0.00    -0.206 N 
HETATM    3  O3  UNL     1      70.527  21.761 -63.151  1.00  0.00    -0.191 OA
HETATM    4  C6  UNL     1      70.500  22.225 -64.466  1.00  0.00     0.313 C 
HETATM    5  C5  UNL     1      69.133  21.977 -64.932  1.00  0.00     0.281 C 
HETATM    6  O2  UNL     1      71.482  22.737 -65.068  1.00  0.00    -0.260 OA
HETATM    7  C23 UNL     1      68.360  22.217 -63.673  1.00  0.00     0.277 C 
HETATM    8  O9  UNL     1      67.215  22.718 -63.547  1.00  0.00    -0.268 OA
BRANCH   5   9
HETATM    9  N1  UNL     1      68.703  22.878 -66.005  1.00  0.00    -0.335 N 
HETATM   10  C4  UNL     1      67.897  22.439 -67.067  1.00  0.00     0.255 C 
HETATM   11  O1  UNL     1      67.582  21.189 -66.950  1.00  0.00    -0.268 OA
ATOM     12  H1  UNL     1      68.999  23.853 -65.979  1.00  0.00     0.164 HD
BRANCH  10  13
HETATM   13  C3  UNL     1      67.385  23.132 -68.219  1.00  0.00     0.065 C 
HETATM   14  C2  UNL     1      68.133  23.161 -69.349  1.00  0.00    -0.011 C 
HETATM   15  C1  UNL     1      69.449  22.539 -69.515  1.00  0.00     0.037 C 
BRANCH  13  16
HETATM   16  C24 UNL     1      66.132  23.861 -68.312  1.00  0.00     0.112 C 
HETATM   17  S1  UNL     1      66.178  25.486 -68.612  1.00  0.00    -0.060 SA
BRANCH  16  18
HETATM   18  N4  UNL     1      64.832  23.311 -68.121  1.00  0.00    -0.375 N 
ATOM     19  H4  UNL     1      64.402  22.751 -68.857  1.00  0.00     0.161 HD
BRANCH  18  20
HETATM   20  C25 UNL     1      64.103  23.551 -66.855  1.00  0.00     0.086 C 
HETATM   21  C26 UNL     1      62.663  23.738 -67.233  1.00  0.00     0.025 C 
HETATM   22  C27 UNL     1      61.757  22.693 -66.667  1.00  0.00     0.002 C 
HETATM   23  C28 UNL     1      62.215  21.286 -66.807  1.00  0.00     0.001 C 
HETATM   24  C29 UNL     1      63.667  21.094 -66.601  1.00  0.00     0.006 C 
HETATM   25  C30 UNL     1      64.307  22.312 -66.001  1.00  0.00     0.004 C 
HETATM   26  C31 UNL     1      63.819  22.532 -64.581  1.00  0.00     0.012 C 
ENDBRANCH  18  20
ENDBRANCH  16  18
ENDBRANCH  13  16
ENDBRANCH  10  13
ENDBRANCH   5   9
ENDBRANCH   1   2
BRANCH   1  27
HETATM   27  C8  UNL     1      68.259  22.313 -60.396  1.00  0.00     0.037 C 
BRANCH  27  28
HETATM   28  C9  UNL     1      69.234  23.144 -59.664  1.00  0.00    -0.012 C 
HETATM   29  C10 UNL     1      68.766  24.132 -58.668  1.00  0.00     0.005 C 
HETATM   30  C11 UNL     1      69.834  24.433 -57.620  1.00  0.00     0.000 C 
HETATM   31  C12 UNL     1      71.231  24.347 -58.123  1.00  0.00     0.000 C 
HETATM   32  C13 UNL     1      71.564  23.125 -58.926  1.00  0.00     0.000 C 
HETATM   33  C14 UNL     1      70.336  22.256 -59.028  1.00  0.00     0.005 C 
ENDBRANCH  27  28
ENDBRANCH   1  27
BRANCH   1  34
HETATM   34  C15 UNL     1      67.844  20.098 -61.452  1.00  0.00     0.239 C 
BRANCH  34  35
HETATM   35  O4  UNL     1      66.730  20.353 -60.659  1.00  0.00    -0.375 OA
ATOM     36  H4  UNL     1      67.023  20.794 -59.870  1.00  0.00     0.212 HD
ENDBRANCH  34  35
BRANCH  34  37
HETATM   37  N3  UNL     1      68.532  18.902 -61.211  1.00  0.00    -0.389 N 
ATOM     38  H3  UNL     1      68.339  18.100 -61.811  1.00  0.00     0.156 HD
BRANCH  37  39
HETATM   39  C16 UNL     1      69.468  18.757 -60.189  1.00  0.00     0.107 C 
BRANCH  39  40
HETATM   40  C17 UNL     1      70.843  18.484 -60.809  1.00  0.00     0.023 C 
HETATM   41  C18 UNL     1      71.954  19.159 -60.046  1.00  0.00     0.007 C 
ENDBRANCH  39  40
BRANCH  39  42
HETATM   42  C19 UNL     1      69.250  17.617 -59.206  1.00  0.00     0.143 C 
BRANCH  42  43
HETATM   43  O5  UNL     1      68.041  17.016 -59.681  1.00  0.00    -0.393 OA
ATOM     44  H5  UNL     1      67.964  16.241 -59.137  1.00  0.00     0.210 HD
ENDBRANCH  42  43
BRANCH  42  45
HETATM   45  C20 UNL     1      69.090  18.100 -57.802  1.00  0.00     0.076 C 
BRANCH  45  46
HETATM   46  C21 UNL     1      68.328  19.397 -57.723  1.00  0.00     0.221 C 
BRANCH  46  47
HETATM   47  O6  UNL     1      66.947  18.976 -57.805  1.00  0.00    -0.385 OA
ATOM     48  H6  UNL     1      66.481  19.666 -57.348  1.00  0.00     0.210 HD
ENDBRANCH  46  47
BRANCH  46  49
HETATM   49  C22 UNL     1      68.444  20.153 -56.473  1.00  0.00     0.203 C 
HETATM   50  O7  UNL     1      68.153  21.395 -56.484  1.00  0.00    -0.646 OA
HETATM   51  O8  UNL     1      68.849  19.674 -55.241  1.00  0.00    -0.646 OA
ENDBRANCH  46  49
ENDBRANCH  45  46
ENDBRANCH  42  45
ENDBRANCH  39  42
ENDBRANCH  37  39
ENDBRANCH  34  37
ENDBRANCH   1  34
TORSDOF 19
ENDMDL
MODEL 3
REMARK VINA RESULT: -9.228592886      2.505      4.525
REMARK  19 active torsions:
REMARK  status: ('A' for Active; 'I' for Inactive)
REMARK    1  A    between atoms: C3_3  and  C4_4 
REMARK    2  A    between atoms: C3_3  and  C24_41 
REMARK       I    between atoms: C4_4  and  N1_6 
REMARK    3  A    between atoms: N1_6  and  C5_8 
REMARK    4  A    between atoms: N2_12  and  C7_13 
REMARK    5  A    between atoms: C7_13  and  C8_14 
REMARK    6  A    between atoms: C7_13  and  C15_21 
REMARK    7  A    between atoms: C8_14  and  C9_15 
REMARK    8  A    between atoms: C15_21  and  O4_22 
REMARK    9  A    between atoms: C15_21  and  N3_24 
REMARK   10  A    between atoms: N3_24  and  C16_26 
REMARK   11  A    between atoms: C16_26  and  C17_27 
REMARK   12  A    between atoms: C16_26  and  C19_29 
REMARK   13  A    between atoms: C19_29  and  O5_30 
REMARK   14  A    between atoms: C19_29  and  C20_32 
REMARK   15  A    between atoms: C20_32  and  C21_33 
REMARK   16  A    between atoms: C21_33  and  O6_34 
REMARK   17  A    between atoms: C21_33  and  C22_36 
REMARK   18  A    between atoms: C24_41  and  N4_43 
REMARK   19  A    between atoms: N4_43  and  C25_45 
ROOT
HETATM    1  C7  UNL     1      69.924  22.157 -57.779  1.00  0.00     0.167 C 
ENDROOT
BRANCH   1   2
HETATM    2  N2  UNL     1      69.320  21.700 -58.998  1.00  0.00    -0.206 N 
HETATM    3  O3  UNL     1      68.153  20.949 -59.158  1.00  0.00    -0.191 OA
HETATM    4  C6  UNL     1      67.888  20.754 -60.514  1.00  0.00     0.313 C 
HETATM    5  C5  UNL     1      68.591  21.840 -61.200  1.00  0.00     0.281 C 
HETATM    6  O2  UNL     1      67.183  19.820 -60.981  1.00  0.00    -0.260 OA
HETATM    7  C23 UNL     1      69.802  21.984 -60.334  1.00  0.00     0.277 C 
HETATM    8  O9  UNL     1      70.974  22.282 -60.676  1.00  0.00    -0.268 OA
BRANCH   5   9
HETATM    9  N1  UNL     1      68.957  21.525 -62.584  1.00  0.00    -0.335 N 
HETATM   10  C4  UNL     1      68.270  22.073 -63.679  1.00  0.00     0.255 C 
HETATM   11  O1  UNL     1      67.329  22.880 -63.305  1.00  0.00    -0.268 OA
ATOM     12  H1  UNL     1      69.734  20.888 -62.757  1.00  0.00     0.164 HD
BRANCH  10  13
HETATM   13  C3  UNL     1      68.441  21.887 -65.095  1.00  0.00     0.065 C 
HETATM   14  C2  UNL     1      69.671  22.071 -65.633  1.00  0.00    -0.011 C 
HETATM   15  C1  UNL     1      70.875  22.454 -64.892  1.00  0.00     0.037 C 
BRANCH  13  16
HETATM   16  C24 UNL     1      67.411  21.544 -66.061  1.00  0.00     0.112 C 
HETATM   17  S1  UNL     1      67.861  21.200 -67.614  1.00  0.00    -0.060 SA
BRANCH  16  18
HETATM   18  N4  UNL     1      66.009  21.518 -65.810  1.00  0.00    -0.375 N 
ATOM     19  H4  UNL     1      65.657  21.171 -64.918  1.00  0.00     0.161 HD
BRANCH  18  20
HETATM   20  C25 UNL     1      65.062  21.994 -66.844  1.00  0.00     0.086 C 
HETATM   21  C26 UNL     1      64.135  20.846 -67.118  1.00  0.00     0.025 C 
HETATM   22  C27 UNL     1      62.709  21.135 -66.769  1.00  0.00     0.002 C 
HETATM   23  C28 UNL     1      62.477  21.765 -65.444  1.00  0.00     0.001 C 
HETATM   24  C29 UNL     1      63.476  22.791 -65.071  1.00  0.00     0.006 C 
HETATM   25  C30 UNL     1      64.331  23.181 -66.242  1.00  0.00     0.004 C 
HETATM   26  C31 UNL     1      63.510  23.913 -67.287  1.00  0.00     0.012 C 
ENDBRANCH  18  20
ENDBRANCH  16  18
ENDBRANCH  13  16
ENDBRANCH  10  13
ENDBRANCH   5   9
ENDBRANCH   1   2
BRANCH   1  27
HETATM   27  C8  UNL     1      69.354  23.370 -57.142  1.00  0.00     0.037 C 
BRANCH  27  28
HETATM   28  C9  UNL     1      70.244  24.542 -57.028  1.00  0.00    -0.012 C 
HETATM   29  C10 UNL     1      71.592  24.394 -56.437  1.00  0.00     0.005 C 
HETATM   30  C11 UNL     1      72.554  25.470 -56.936  1.00  0.00     0.000 C 
HETATM   31  C12 UNL     1      71.910  26.775 -57.243  1.00  0.00     0.000 C 
HETATM   32  C13 UNL     1      70.662  26.712 -58.072  1.00  0.00     0.000 C 
HETATM   33  C14 UNL     1      70.360  25.270 -58.393  1.00  0.00     0.005 C 
ENDBRANCH  27  28
ENDBRANCH   1  27
BRANCH   1  34
HETATM   34  C15 UNL     1      70.016  21.001 -56.758  1.00  0.00     0.239 C 
BRANCH  34  35
HETATM   35  O4  UNL     1      69.496  21.449 -55.548  1.00  0.00    -0.375 OA
ATOM     36  H4  UNL     1      68.669  21.884 -55.724  1.00  0.00     0.212 HD
ENDBRANCH  34  35
BRANCH  34  37
HETATM   37  N3  UNL     1      71.319  20.488 -56.735  1.00  0.00    -0.389 N 
ATOM     38  H3  UNL     1      72.078  21.101 -56.437  1.00  0.00     0.156 HD
BRANCH  37  39
HETATM   39  C16 UNL     1      71.626  19.180 -57.101  1.00  0.00     0.107 C 
BRANCH  39  40
HETATM   40  C17 UNL     1      72.125  19.173 -58.551  1.00  0.00     0.023 C 
HETATM   41  C18 UNL     1      73.198  20.204 -58.788  1.00  0.00     0.007 C 
ENDBRANCH  39  40
BRANCH  39  42
HETATM   42  C19 UNL     1      70.491  18.168 -57.075  1.00  0.00     0.143 C 
BRANCH  42  43
HETATM   43  O5  UNL     1      71.030  17.111 -56.274  1.00  0.00    -0.393 OA
ATOM     44  H5  UNL     1      70.781  16.332 -56.759  1.00  0.00     0.210 HD
ENDBRANCH  42  43
BRANCH  42  45
HETATM   45  C20 UNL     1      70.137  17.676 -58.440  1.00  0.00     0.076 C 
BRANCH  45  46
HETATM   46  C21 UNL     1      68.650  17.639 -58.671  1.00  0.00     0.221 C 
BRANCH  46  47
HETATM   47  O6  UNL     1      68.539  17.230 -60.054  1.00  0.00    -0.385 OA
ATOM     48  H6  UNL     1      67.671  17.527 -60.300  1.00  0.00     0.210 HD
ENDBRANCH  46  47
BRANCH  46  49
HETATM   49  C22 UNL     1      67.889  16.653 -57.898  1.00  0.00     0.203 C 
HETATM   50  O7  UNL     1      66.627  16.587 -58.073  1.00  0.00    -0.646 OA
HETATM   51  O8  UNL     1      68.382  15.760 -56.966  1.00  0.00    -0.646 OA
ENDBRANCH  46  49
ENDBRANCH  45  46
ENDBRANCH  42  45
ENDBRANCH  39  42
ENDBRANCH  37  39
ENDBRANCH  34  37
ENDBRANCH   1  34
TORSDOF 19
ENDMDL
MODEL 4
REMARK VINA RESULT: -9.201869530      2.529      4.416
REMARK  19 active torsions:
REMARK  status: ('A' for Active; 'I' for Inactive)
REMARK    1  A    between atoms: C3_3  and  C4_4 
REMARK    2  A    between atoms: C3_3  and  C24_41 
REMARK       I    between atoms: C4_4  and  N1_6 
REMARK    3  A    between atoms: N1_6  and  C5_8 
REMARK    4  A    between atoms: N2_12  and  C7_13 
REMARK    5  A    between atoms: C7_13  and  C8_14 
REMARK    6  A    between atoms: C7_13  and  C15_21 
REMARK    7  A    between atoms: C8_14  and  C9_15 
REMARK    8  A    between atoms: C15_21  and  O4_22 
REMARK    9  A    between atoms: C15_21  and  N3_24 
REMARK   10  A    between atoms: N3_24  and  C16_26 
REMARK   11  A    between atoms: C16_26  and  C17_27 
REMARK   12  A    between atoms: C16_26  and  C19_29 
REMARK   13  A    between atoms: C19_29  and  O5_30 
REMARK   14  A    between atoms: C19_29  and  C20_32 
REMARK   15  A    between atoms: C20_32  and  C21_33 
REMARK   16  A    between atoms: C21_33  and  O6_34 
REMARK   17  A    between atoms: C21_33  and  C22_36 
REMARK   18  A    between atoms: C24_41  and  N4_43 
REMARK   19  A    between atoms: N4_43  and  C25_45 
ROOT
HETATM    1  C7  UNL     1      70.295  23.043 -59.300  1.00  0.00     0.167 C 
ENDROOT
BRANCH   1   2
HETATM    2  N2  UNL     1      69.470  22.583 -60.382  1.00  0.00    -0.206 N 
HETATM    3  O3  UNL     1      68.106  22.285 -60.363  1.00  0.00    -0.191 OA
HETATM    4  C6  UNL     1      67.678  21.912 -61.637  1.00  0.00     0.313 C 
HETATM    5  C5  UNL     1      68.655  22.501 -62.556  1.00  0.00     0.281 C 
HETATM    6  O2  UNL     1      66.655  21.216 -61.877  1.00  0.00    -0.260 OA
HETATM    7  C23 UNL     1      69.908  22.383 -61.747  1.00  0.00     0.277 C 
HETATM    8  O9  UNL     1      71.077  22.161 -62.150  1.00  0.00    -0.268 OA
BRANCH   5   9
HETATM    9  N1  UNL     1      68.771  21.788 -63.831  1.00  0.00    -0.335 N 
HETATM   10  C4  UNL     1      68.567  22.428 -65.064  1.00  0.00     0.255 C 
HETATM   11  O1  UNL     1      68.303  23.686 -64.917  1.00  0.00    -0.268 OA
ATOM     12  H1  UNL     1      69.006  20.796 -63.822  1.00  0.00     0.164 HD
BRANCH  10  13
HETATM   13  C3  UNL     1      68.607  21.925 -66.411  1.00  0.00     0.065 C 
HETATM   14  C2  UNL     1      69.812  21.692 -66.985  1.00  0.00    -0.011 C 
HETATM   15  C1  UNL     1      71.114  21.909 -66.349  1.00  0.00     0.037 C 
BRANCH  13  16
HETATM   16  C24 UNL     1      67.471  21.658 -67.276  1.00  0.00     0.112 C 
HETATM   17  S1  UNL     1      67.667  20.615 -68.544  1.00  0.00    -0.060 SA
BRANCH  16  18
HETATM   18  N4  UNL     1      66.182  22.254 -67.168  1.00  0.00    -0.375 N 
ATOM     19  H4  UNL     1      66.018  23.185 -67.549  1.00  0.00     0.161 HD
BRANCH  18  20
HETATM   20  C25 UNL     1      65.080  21.524 -66.502  1.00  0.00     0.086 C 
HETATM   21  C26 UNL     1      64.958  22.116 -65.129  1.00  0.00     0.025 C 
HETATM   22  C27 UNL     1      63.642  22.783 -64.882  1.00  0.00     0.002 C 
HETATM   23  C28 UNL     1      63.162  23.695 -65.953  1.00  0.00     0.001 C 
HETATM   24  C29 UNL     1      63.418  23.211 -67.327  1.00  0.00     0.006 C 
HETATM   25  C30 UNL     1      63.836  21.769 -67.337  1.00  0.00     0.004 C 
HETATM   26  C31 UNL     1      62.691  20.874 -66.902  1.00  0.00     0.012 C 
ENDBRANCH  18  20
ENDBRANCH  16  18
ENDBRANCH  13  16
ENDBRANCH  10  13
ENDBRANCH   5   9
ENDBRANCH   1   2
BRANCH   1  27
HETATM   27  C8  UNL     1      69.820  24.215 -58.524  1.00  0.00     0.037 C 
BRANCH  27  28
HETATM   28  C9  UNL     1      70.713  24.713 -57.459  1.00  0.00    -0.012 C 
HETATM   29  C10 UNL     1      72.036  25.275 -57.804  1.00  0.00     0.005 C 
HETATM   30  C11 UNL     1      72.532  26.256 -56.744  1.00  0.00     0.000 C 
HETATM   31  C12 UNL     1      72.090  25.939 -55.360  1.00  0.00     0.000 C 
HETATM   32  C13 UNL     1      70.634  25.625 -55.193  1.00  0.00     0.000 C 
HETATM   33  C14 UNL     1      69.957  25.707 -56.538  1.00  0.00     0.005 C 
ENDBRANCH  27  28
ENDBRANCH   1  27
BRANCH   1  34
HETATM   34  C15 UNL     1      70.645  21.873 -58.355  1.00  0.00     0.239 C 
BRANCH  34  35
HETATM   35  O4  UNL     1      71.932  21.441 -58.657  1.00  0.00    -0.375 OA
ATOM     36  H4  UNL     1      72.215  20.849 -57.969  1.00  0.00     0.212 HD
ENDBRANCH  34  35
BRANCH  34  37
HETATM   37  N3  UNL     1      69.629  20.909 -58.393  1.00  0.00    -0.389 N 
ATOM     38  H3  UNL     1      69.553  20.315 -59.219  1.00  0.00     0.156 HD
BRANCH  37  39
HETATM   39  C16 UNL     1      68.718  20.725 -57.357  1.00  0.00     0.107 C 
BRANCH  39  40
HETATM   40  C17 UNL     1      69.295  21.330 -56.072  1.00  0.00     0.023 C 
HETATM   41  C18 UNL     1      68.442  22.451 -55.538  1.00  0.00     0.007 C 
ENDBRANCH  39  40
BRANCH  39  42
HETATM   42  C19 UNL     1      68.366  19.291 -56.989  1.00  0.00     0.143 C 
BRANCH  42  43
HETATM   43  O5  UNL     1      68.468  19.297 -55.561  1.00  0.00    -0.393 OA
ATOM     44  H5  UNL     1      69.407  19.327 -55.418  1.00  0.00     0.210 HD
ENDBRANCH  42  43
BRANCH  42  45
HETATM   45  C20 UNL     1      69.313  18.303 -57.587  1.00  0.00     0.076 C 
BRANCH  45  46
HETATM   46  C21 UNL     1      70.309  17.781 -56.586  1.00  0.00     0.221 C 
BRANCH  46  47
HETATM   47  O6  UNL     1      70.523  16.415 -57.012  1.00  0.00    -0.385 OA
ATOM     48  H6  UNL     1      70.727  16.505 -57.935  1.00  0.00     0.210 HD
ENDBRANCH  46  47
BRANCH  46  49
HETATM   49  C22 UNL     1      71.631  18.412 -56.582  1.00  0.00     0.203 C 
HETATM   50  O7  UNL     1      72.073  18.903 -57.674  1.00  0.00    -0.646 OA
HETATM   51  O8  UNL     1      72.492  18.543 -55.509  1.00  0.00    -0.646 OA
ENDBRANCH  46  49
ENDBRANCH  45  46
ENDBRANCH  42  45
ENDBRANCH  39  42
ENDBRANCH  37  39
ENDBRANCH  34  37
ENDBRANCH   1  34
TORSDOF 19
ENDMDL
MODEL 5
REMARK VINA RESULT: -9.180384867      0.932      1.513
REMARK  19 active torsions:
REMARK  status: ('A' for Active; 'I' for Inactive)
REMARK    1  A    between atoms: C3_3  and  C4_4 
REMARK    2  A    between atoms: C3_3  and  C24_41 
REMARK       I    between atoms: C4_4  and  N1_6 
REMARK    3  A    between atoms: N1_6  and  C5_8 
REMARK    4  A    between atoms: N2_12  and  C7_13 
REMARK    5  A    between atoms: C7_13  and  C8_14 
REMARK    6  A    between atoms: C7_13  and  C15_21 
REMARK    7  A    between atoms: C8_14  and  C9_15 
REMARK    8  A    between atoms: C15_21  and  O4_22 
REMARK    9  A    between atoms: C15_21  and  N3_24 
REMARK   10  A    between atoms: N3_24  and  C16_26 
REMARK   11  A    between atoms: C16_26  and  C17_27 
REMARK   12  A    between atoms: C16_26  and  C19_29 
REMARK   13  A    between atoms: C19_29  and  O5_30 
REMARK   14  A    between atoms: C19_29  and  C20_32 
REMARK   15  A    between atoms: C20_32  and  C21_33 
REMARK   16  A    between atoms: C21_33  and  O6_34 
REMARK   17  A    between atoms: C21_33  and  C22_36 
REMARK   18  A    between atoms: C24_41  and  N4_43 
REMARK   19  A    between atoms: N4_43  and  C25_45 
ROOT
HETATM    1  C7  UNL     1      68.540  21.503 -61.475  1.00  0.00     0.167 C 
ENDROOT
BRANCH   1   2
HETATM    2  N2  UNL     1      68.383  22.170 -62.736  1.00  0.00    -0.206 N 
HETATM    3  O3  UNL     1      69.329  22.912 -63.447  1.00  0.00    -0.191 OA
HETATM    4  C6  UNL     1      68.785  23.356 -64.652  1.00  0.00     0.313 C 
HETATM    5  C5  UNL     1      67.681  22.436 -64.935  1.00  0.00     0.281 C 
HETATM    6  O2  UNL     1      69.206  24.346 -65.309  1.00  0.00    -0.260 OA
HETATM    7  C23 UNL     1      67.186  22.157 -63.551  1.00  0.00     0.277 C 
HETATM    8  O9  UNL     1      66.006  21.955 -63.173  1.00  0.00    -0.268 OA
BRANCH   5   9
HETATM    9  N1  UNL     1      66.629  23.017 -65.774  1.00  0.00    -0.335 N 
HETATM   10  C4  UNL     1      66.054  22.312 -66.843  1.00  0.00     0.255 C 
HETATM   11  O1  UNL     1      66.547  21.120 -66.956  1.00  0.00    -0.268 OA
ATOM     12  H1  UNL     1      66.305  23.963 -65.574  1.00  0.00     0.164 HD
BRANCH  10  13
HETATM   13  C3  UNL     1      65.043  22.689 -67.793  1.00  0.00     0.065 C 
HETATM   14  C2  UNL     1      65.389  23.488 -68.832  1.00  0.00    -0.011 C 
HETATM   15  C1  UNL     1      66.730  24.020 -69.086  1.00  0.00     0.037 C 
BRANCH  13  16
HETATM   16  C24 UNL     1      63.635  22.332 -67.757  1.00  0.00     0.112 C 
HETATM   17  S1  UNL     1      62.928  22.035 -66.292  1.00  0.00    -0.060 SA
BRANCH  16  18
HETATM   18  N4  UNL     1      62.789  22.162 -68.890  1.00  0.00    -0.375 N 
ATOM     19  H4  UNL     1      62.142  22.903 -69.159  1.00  0.00     0.161 HD
BRANCH  18  20
HETATM   20  C25 UNL     1      62.846  20.910 -69.678  1.00  0.00     0.086 C 
HETATM   21  C26 UNL     1      61.500  20.263 -69.530  1.00  0.00     0.025 C 
HETATM   22  C27 UNL     1      60.752  20.140 -70.819  1.00  0.00     0.002 C 
HETATM   23  C28 UNL     1      60.721  21.355 -71.674  1.00  0.00     0.001 C 
HETATM   24  C29 UNL     1      61.993  22.110 -71.709  1.00  0.00     0.006 C 
HETATM   25  C30 UNL     1      63.122  21.319 -71.114  1.00  0.00     0.004 C 
HETATM   26  C31 UNL     1      63.451  20.116 -71.979  1.00  0.00     0.012 C 
ENDBRANCH  18  20
ENDBRANCH  16  18
ENDBRANCH  13  16
ENDBRANCH  10  13
ENDBRANCH   5   9
ENDBRANCH   1   2
BRANCH   1  27
HETATM   27  C8  UNL     1      68.133  22.239 -60.252  1.00  0.00     0.037 C 
BRANCH  27  28
HETATM   28  C9  UNL     1      69.205  22.600 -59.305  1.00  0.00    -0.012 C 
HETATM   29  C10 UNL     1      70.621  22.368 -59.664  1.00  0.00     0.005 C 
HETATM   30  C11 UNL     1      71.560  23.308 -58.913  1.00  0.00     0.000 C 
HETATM   31  C12 UNL     1      71.090  23.689 -57.554  1.00  0.00     0.000 C 
HETATM   32  C13 UNL     1      69.661  24.130 -57.454  1.00  0.00     0.000 C 
HETATM   33  C14 UNL     1      69.032  24.065 -58.823  1.00  0.00     0.005 C 
ENDBRANCH  27  28
ENDBRANCH   1  27
BRANCH   1  34
HETATM   34  C15 UNL     1      67.875  20.110 -61.516  1.00  0.00     0.239 C 
BRANCH  34  35
HETATM   35  O4  UNL     1      66.861  20.085 -60.564  1.00  0.00    -0.375 OA
ATOM     36  H4  UNL     1      66.061  20.390 -60.977  1.00  0.00     0.212 HD
ENDBRANCH  34  35
BRANCH  34  37
HETATM   37  N3  UNL     1      68.854  19.112 -61.423  1.00  0.00    -0.389 N 
ATOM     38  H3  UNL     1      69.072  18.565 -62.256  1.00  0.00     0.156 HD
BRANCH  37  39
HETATM   39  C16 UNL     1      69.544  18.832 -60.246  1.00  0.00     0.107 C 
BRANCH  39  40
HETATM   40  C17 UNL     1      71.026  18.619 -60.575  1.00  0.00     0.023 C 
HETATM   41  C18 UNL     1      71.931  19.163 -59.500  1.00  0.00     0.007 C 
ENDBRANCH  39  40
BRANCH  39  42
HETATM   42  C19 UNL     1      69.132  17.583 -59.481  1.00  0.00     0.143 C 
BRANCH  42  43
HETATM   43  O5  UNL     1      67.877  17.244 -60.081  1.00  0.00    -0.393 OA
ATOM     44  H5  UNL     1      67.390  18.058 -60.022  1.00  0.00     0.210 HD
ENDBRANCH  42  43
BRANCH  42  45
HETATM   45  C20 UNL     1      68.971  17.840 -58.019  1.00  0.00     0.076 C 
BRANCH  45  46
HETATM   46  C21 UNL     1      68.319  19.167 -57.735  1.00  0.00     0.221 C 
BRANCH  46  47
HETATM   47  O6  UNL     1      66.907  18.875 -57.855  1.00  0.00    -0.385 OA
ATOM     48  H6  UNL     1      66.511  19.441 -57.204  1.00  0.00     0.210 HD
ENDBRANCH  46  47
BRANCH  46  49
HETATM   49  C22 UNL     1      68.502  19.716 -56.389  1.00  0.00     0.203 C 
HETATM   50  O7  UNL     1      68.375  20.975 -56.224  1.00  0.00    -0.646 OA
HETATM   51  O8  UNL     1      68.811  19.019 -55.237  1.00  0.00    -0.646 OA
ENDBRANCH  46  49
ENDBRANCH  45  46
ENDBRANCH  42  45
ENDBRANCH  39  42
ENDBRANCH  37  39
ENDBRANCH  34  37
ENDBRANCH   1  34
TORSDOF 19
ENDMDL
