MODEL 1
REMARK VINA RESULT: -7.272473541      0.000      0.000
REMARK  4 active torsions:
REMARK  status: ('A' for Active; 'I' for Inactive)
REMARK    1  A    between atoms: C4_6  and  C5_7 
REMARK    2  A    between atoms: N2_8  and  N3_10 
REMARK       I    between atoms: N3_10  and  C6_12 
REMARK    3  A    between atoms: N6_20  and  S1_21 
REMARK    4  A    between atoms: S1_21  and  N7_22 
ROOT
HETATM    1  C1  UNL     1      -3.551  30.673  -2.787  1.00  0.00     0.123 C 
HETATM    2  C2  UNL     1      -4.148  30.909  -1.742  1.00  0.00    -0.074 C 
HETATM    3  N1  UNL     1      -4.808  31.190  -0.544  1.00  0.00    -0.314 N 
ATOM      4  H1  UNL     1      -5.074  32.148  -0.319  1.00  0.00     0.176 HD
HETATM    5  C3  UNL     1      -5.078  30.243   0.271  1.00  0.00     0.110 C 
HETATM    6  C4  UNL     1      -4.684  28.857  -0.070  1.00  0.00     0.095 C 
HETATM    7  C7  UNL     1      -4.900  27.918   1.114  1.00  0.00     0.019 C 
HETATM    8  C8  UNL     1      -6.261  28.239   1.692  1.00  0.00     0.022 C 
HETATM    9  C9  UNL     1      -6.099  29.555   2.463  1.00  0.00     0.144 C 
HETATM   10  N6  UNL     1      -5.749  30.562   1.480  1.00  0.00    -0.247 N 
ENDROOT
BRANCH   6  11
HETATM   11  C5  UNL     1      -5.542  28.330  -1.185  1.00  0.00     0.092 C 
HETATM   12  N2  UNL     1      -6.802  28.646  -1.142  1.00  0.00    -0.313 N 
ATOM     13  H2  UNL     1      -7.137  29.224  -0.371  1.00  0.00     0.185 HD
BRANCH  12  14
HETATM   14  N3  UNL     1      -7.710  28.227  -2.107  1.00  0.00    -0.275 N 
HETATM   15  C6  UNL     1      -9.019  27.847  -1.704  1.00  0.00     0.200 C 
HETATM   16  N4  UNL     1      -9.758  28.590  -0.951  1.00  0.00    -0.372 N 
HETATM   17  N5  UNL     1      -9.508  26.595  -2.164  1.00  0.00    -0.062 NA
ATOM     18  H42 UNL     1      -9.407  29.489  -0.621  1.00  0.00     0.158 HD
ATOM     19  H41 UNL     1     -10.697  28.317  -0.662  1.00  0.00     0.158 HD
ATOM     20  H3  UNL     1      -7.441  28.192  -3.090  1.00  0.00     0.189 HD
ENDBRANCH  12  14
ENDBRANCH   6  11
BRANCH  10  21
HETATM   21  S1  UNL     1      -6.177  32.196   1.820  1.00  0.00     0.320 S 
HETATM   22  O1  UNL     1      -7.237  32.700   0.886  1.00  0.00    -0.182 OA
HETATM   23  O2  UNL     1      -4.997  33.111   1.703  1.00  0.00    -0.182 OA
BRANCH  21  24
HETATM   24  N7  UNL     1      -6.741  32.262   3.451  1.00  0.00    -0.311 N 
ATOM     25  H72 UNL     1      -6.175  32.512   4.262  1.00  0.00     0.170 HD
ATOM     26  H71 UNL     1      -7.728  32.007   3.448  1.00  0.00     0.170 HD
ENDBRANCH  21  24
ENDBRANCH  10  21
TORSDOF 4
ENDMDL
MODEL 2
REMARK VINA RESULT: -7.263460398      2.490      3.209
REMARK  4 active torsions:
REMARK  status: ('A' for Active; 'I' for Inactive)
REMARK    1  A    between atoms: C4_6  and  C5_7 
REMARK    2  A    between atoms: N2_8  and  N3_10 
REMARK       I    between atoms: N3_10  and  C6_12 
REMARK    3  A    between atoms: N6_20  and  S1_21 
REMARK    4  A    between atoms: S1_21  and  N7_22 
ROOT
HETATM    1  C1  UNL     1      -4.385  32.761   1.061  1.00  0.00     0.123 C 
HETATM    2  C2  UNL     1      -5.252  32.138   1.664  1.00  0.00    -0.074 C 
HETATM    3  N1  UNL     1      -6.229  31.435   2.371  1.00  0.00    -0.314 N 
ATOM      4  H1  UNL     1      -6.887  31.935   2.969  1.00  0.00     0.176 HD
HETATM    5  C3  UNL     1      -6.297  30.163   2.268  1.00  0.00     0.110 C 
HETATM    6  C4  UNL     1      -5.333  29.453   1.396  1.00  0.00     0.095 C 
HETATM    7  C7  UNL     1      -5.443  27.940   1.576  1.00  0.00     0.019 C 
HETATM    8  C8  UNL     1      -6.916  27.599   1.577  1.00  0.00     0.022 C 
HETATM    9  C9  UNL     1      -7.457  28.037   2.944  1.00  0.00     0.144 C 
HETATM   10  N6  UNL     1      -7.301  29.478   3.001  1.00  0.00    -0.247 N 
ENDROOT
BRANCH   6  11
HETATM   11  C5  UNL     1      -5.638  29.726  -0.050  1.00  0.00     0.092 C 
HETATM   12  N2  UNL     1      -5.007  28.996  -0.920  1.00  0.00    -0.313 N 
ATOM     13  H2  UNL     1      -4.350  28.290  -0.585  1.00  0.00     0.185 HD
BRANCH  12  14
HETATM   14  N3  UNL     1      -5.191  29.140  -2.289  1.00  0.00    -0.275 N 
HETATM   15  C6  UNL     1      -6.164  28.336  -2.943  1.00  0.00     0.200 C 
HETATM   16  N4  UNL     1      -7.379  28.235  -2.523  1.00  0.00    -0.372 N 
HETATM   17  N5  UNL     1      -5.754  27.628  -4.105  1.00  0.00    -0.062 NA
ATOM     18  H42 UNL     1      -7.673  28.744  -1.689  1.00  0.00     0.158 HD
ATOM     19  H41 UNL     1      -8.077  27.658  -2.993  1.00  0.00     0.158 HD
ATOM     20  H3  UNL     1      -4.637  29.814  -2.818  1.00  0.00     0.189 HD
ENDBRANCH  12  14
ENDBRANCH   6  11
BRANCH  10  21
HETATM   21  S1  UNL     1      -8.390  30.362   4.001  1.00  0.00     0.320 S 
HETATM   22  O1  UNL     1      -7.715  31.522   4.671  1.00  0.00    -0.182 OA
HETATM   23  O2  UNL     1      -8.979  29.498   5.072  1.00  0.00    -0.182 OA
BRANCH  21  24
HETATM   24  N7  UNL     1      -9.681  30.924   3.000  1.00  0.00    -0.311 N 
ATOM     25  H72 UNL     1      -9.926  30.547   2.084  1.00  0.00     0.170 HD
ATOM     26  H71 UNL     1     -10.143  31.688   3.491  1.00  0.00     0.170 HD
ENDBRANCH  21  24
ENDBRANCH  10  21
TORSDOF 4
ENDMDL
MODEL 3
REMARK VINA RESULT: -7.221234802      3.287      4.763
REMARK  4 active torsions:
REMARK  status: ('A' for Active; 'I' for Inactive)
REMARK    1  A    between atoms: C4_6  and  C5_7 
REMARK    2  A    between atoms: N2_8  and  N3_10 
REMARK       I    between atoms: N3_10  and  C6_12 
REMARK    3  A    between atoms: N6_20  and  S1_21 
REMARK    4  A    between atoms: S1_21  and  N7_22 
ROOT
HETATM    1  C1  UNL     1      -6.653  27.325   3.272  1.00  0.00     0.123 C 
HETATM    2  C2  UNL     1      -6.118  27.871   2.313  1.00  0.00    -0.074 C 
HETATM    3  N1  UNL     1      -5.488  28.483   1.227  1.00  0.00    -0.314 N 
ATOM      4  H1  UNL     1      -5.084  27.915   0.484  1.00  0.00     0.176 HD
HETATM    5  C3  UNL     1      -5.419  29.758   1.169  1.00  0.00     0.110 C 
HETATM    6  C4  UNL     1      -6.011  30.567   2.258  1.00  0.00     0.095 C 
HETATM    7  C7  UNL     1      -5.639  32.041   2.110  1.00  0.00     0.019 C 
HETATM    8  C8  UNL     1      -5.832  32.403   0.654  1.00  0.00     0.022 C 
HETATM    9  C9  UNL     1      -4.648  31.787  -0.101  1.00  0.00     0.144 C 
HETATM   10  N6  UNL     1      -4.772  30.350   0.053  1.00  0.00    -0.247 N 
ENDROOT
BRANCH   6  11
HETATM   11  C5  UNL     1      -7.512  30.507   2.198  1.00  0.00     0.092 C 
HETATM   12  N2  UNL     1      -8.047  30.636   1.021  1.00  0.00    -0.313 N 
ATOM     13  H2  UNL     1      -7.436  30.769   0.215  1.00  0.00     0.185 HD
BRANCH  12  14
HETATM   14  N3  UNL     1      -9.421  30.600   0.818  1.00  0.00    -0.275 N 
HETATM   15  C6  UNL     1     -10.174  31.796   0.972  1.00  0.00     0.200 C 
HETATM   16  N4  UNL     1      -9.850  32.901   0.391  1.00  0.00    -0.372 N 
HETATM   17  N5  UNL     1     -11.323  31.743   1.805  1.00  0.00    -0.062 NA
ATOM     18  H42 UNL     1      -9.025  32.939  -0.208  1.00  0.00     0.158 HD
ATOM     19  H41 UNL     1     -10.390  33.759   0.501  1.00  0.00     0.158 HD
ATOM     20  H3  UNL     1      -9.884  29.728   0.562  1.00  0.00     0.189 HD
ENDBRANCH  12  14
ENDBRANCH   6  11
BRANCH  10  21
HETATM   21  S1  UNL     1      -4.100  29.351  -1.180  1.00  0.00     0.320 S 
HETATM   22  O1  UNL     1      -5.155  28.556  -1.889  1.00  0.00    -0.182 OA
HETATM   23  O2  UNL     1      -3.101  28.384  -0.622  1.00  0.00    -0.182 OA
BRANCH  21  24
HETATM   24  N7  UNL     1      -3.278  30.379  -2.297  1.00  0.00    -0.311 N 
ATOM     25  H72 UNL     1      -3.437  31.382  -2.405  1.00  0.00     0.170 HD
ATOM     26  H71 UNL     1      -2.617  29.804  -2.818  1.00  0.00     0.170 HD
ENDBRANCH  21  24
ENDBRANCH  10  21
TORSDOF 4
ENDMDL
MODEL 4
REMARK VINA RESULT: -7.218870945      3.764      5.697
REMARK  4 active torsions:
REMARK  status: ('A' for Active; 'I' for Inactive)
REMARK    1  A    between atoms: C4_6  and  C5_7 
REMARK    2  A    between atoms: N2_8  and  N3_10 
REMARK       I    between atoms: N3_10  and  C6_12 
REMARK    3  A    between atoms: N6_20  and  S1_21 
REMARK    4  A    between atoms: S1_21  and  N7_22 
ROOT
HETATM    1  C1  UNL     1      -9.961  33.067   0.395  1.00  0.00     0.123 C 
HETATM    2  C2  UNL     1      -9.684  31.946   0.806  1.00  0.00    -0.074 C 
HETATM    3  N1  UNL     1      -9.385  30.671   1.293  1.00  0.00    -0.314 N 
ATOM      4  H1  UNL     1     -10.086  29.932   1.254  1.00  0.00     0.176 HD
HETATM    5  C3  UNL     1      -8.230  30.434   1.787  1.00  0.00     0.110 C 
HETATM    6  C4  UNL     1      -7.225  31.520   1.836  1.00  0.00     0.095 C 
HETATM    7  C7  UNL     1      -6.002  31.098   2.648  1.00  0.00     0.019 C 
HETATM    8  C8  UNL     1      -5.640  29.697   2.208  1.00  0.00     0.022 C 
HETATM    9  C9  UNL     1      -6.677  28.766   2.848  1.00  0.00     0.144 C 
HETATM   10  N6  UNL     1      -7.958  29.129   2.273  1.00  0.00    -0.247 N 
ENDROOT
BRANCH   6  11
HETATM   11  C5  UNL     1      -6.723  31.830   0.454  1.00  0.00     0.092 C 
HETATM   12  N2  UNL     1      -5.532  32.342   0.374  1.00  0.00    -0.313 N 
ATOM     13  H2  UNL     1      -5.008  32.504   1.235  1.00  0.00     0.185 HD
BRANCH  12  14
HETATM   14  N3  UNL     1      -4.943  32.677  -0.839  1.00  0.00    -0.275 N 
HETATM   15  C6  UNL     1      -3.906  33.649  -0.858  1.00  0.00     0.200 C 
HETATM   16  N4  UNL     1      -2.882  33.589  -0.075  1.00  0.00    -0.372 N 
HETATM   17  N5  UNL     1      -4.027  34.718  -1.785  1.00  0.00    -0.062 NA
ATOM     18  H42 UNL     1      -2.795  32.821   0.591  1.00  0.00     0.158 HD
ATOM     19  H41 UNL     1      -2.138  34.286  -0.089  1.00  0.00     0.158 HD
ATOM     20  H3  UNL     1      -5.250  32.232  -1.703  1.00  0.00     0.189 HD
ENDBRANCH  12  14
ENDBRANCH   6  11
BRANCH  10  21
HETATM   21  S1  UNL     1      -9.173  27.910   2.190  1.00  0.00     0.320 S 
HETATM   22  O1  UNL     1      -9.627  27.670   0.781  1.00  0.00    -0.182 OA
HETATM   23  O2  UNL     1     -10.379  28.279   2.998  1.00  0.00    -0.182 OA
BRANCH  21  24
HETATM   24  N7  UNL     1      -8.509  26.462   2.857  1.00  0.00    -0.311 N 
ATOM     25  H72 UNL     1      -8.947  25.888   3.578  1.00  0.00     0.170 HD
ATOM     26  H71 UNL     1      -7.614  26.293   2.399  1.00  0.00     0.170 HD
ENDBRANCH  21  24
ENDBRANCH  10  21
TORSDOF 4
ENDMDL
MODEL 5
REMARK VINA RESULT: -7.215723389      2.761      3.589
REMARK  4 active torsions:
REMARK  status: ('A' for Active; 'I' for Inactive)
REMARK    1  A    between atoms: C4_6  and  C5_7 
REMARK    2  A    between atoms: N2_8  and  N3_10 
REMARK       I    between atoms: N3_10  and  C6_12 
REMARK    3  A    between atoms: N6_20  and  S1_21 
REMARK    4  A    between atoms: S1_21  and  N7_22 
ROOT
HETATM    1  C1  UNL     1      -5.094  32.255   1.566  1.00  0.00     0.123 C 
HETATM    2  C2  UNL     1      -6.104  31.667   1.940  1.00  0.00    -0.074 C 
HETATM    3  N1  UNL     1      -7.247  31.002   2.388  1.00  0.00    -0.314 N 
ATOM      4  H1  UNL     1      -7.973  31.514   2.889  1.00  0.00     0.176 HD
HETATM    5  C3  UNL     1      -7.382  29.751   2.168  1.00  0.00     0.110 C 
HETATM    6  C4  UNL     1      -6.319  29.024   1.438  1.00  0.00     0.095 C 
HETATM    7  C7  UNL     1      -6.566  27.517   1.467  1.00  0.00     0.019 C 
HETATM    8  C8  UNL     1      -8.032  27.302   1.160  1.00  0.00     0.022 C 
HETATM    9  C9  UNL     1      -8.797  27.689   2.431  1.00  0.00     0.144 C 
HETATM   10  N6  UNL     1      -8.555  29.104   2.637  1.00  0.00    -0.247 N 
ENDROOT
BRANCH   6  11
HETATM   11  C5  UNL     1      -6.315  29.419  -0.011  1.00  0.00     0.092 C 
HETATM   12  N2  UNL     1      -5.563  28.712  -0.801  1.00  0.00    -0.313 N 
ATOM     13  H2  UNL     1      -5.025  27.940  -0.405  1.00  0.00     0.185 HD
BRANCH  12  14
HETATM   14  N3  UNL     1      -5.464  28.966  -2.163  1.00  0.00    -0.275 N 
HETATM   15  C6  UNL     1      -6.319  28.270  -3.060  1.00  0.00     0.200 C 
HETATM   16  N4  UNL     1      -7.596  28.208  -2.895  1.00  0.00    -0.372 N 
HETATM   17  N5  UNL     1      -5.715  27.626  -4.173  1.00  0.00    -0.062 NA
ATOM     18  H42 UNL     1      -8.030  28.671  -2.096  1.00  0.00     0.158 HD
ATOM     19  H41 UNL     1      -8.210  27.709  -3.539  1.00  0.00     0.158 HD
ATOM     20  H3  UNL     1      -4.787  29.644  -2.515  1.00  0.00     0.189 HD
ENDBRANCH  12  14
ENDBRANCH   6  11
BRANCH  10  21
HETATM   21  S1  UNL     1      -9.754  30.007   3.482  1.00  0.00     0.320 S 
HETATM   22  O1  UNL     1     -10.449  30.988   2.586  1.00  0.00    -0.182 OA
HETATM   23  O2  UNL     1      -9.162  30.775   4.624  1.00  0.00    -0.182 OA
BRANCH  21  24
HETATM   24  N7  UNL     1     -10.895  28.884   4.132  1.00  0.00    -0.311 N 
ATOM     25  H72 UNL     1     -11.490  28.263   3.584  1.00  0.00     0.170 HD
ATOM     26  H71 UNL     1     -10.859  28.960   5.148  1.00  0.00     0.170 HD
ENDBRANCH  21  24
ENDBRANCH  10  21
TORSDOF 4
ENDMDL
