MODEL 1
REMARK VINA RESULT: -6.667838407      0.000      0.000
REMARK  3 active torsions:
REMARK  status: ('A' for Active; 'I' for Inactive)
REMARK       I    between atoms: N2_6  and  C5_7 
REMARK    1  A    between atoms: N5_14  and  C8_15 
REMARK    2  A    between atoms: C8_15  and  C9_16 
REMARK    3  A    between atoms: C9_16  and  N6_17 
ROOT
HETATM    1  C1  UNL     1      -5.837  27.735   2.163  1.00  0.00     0.309 C 
HETATM    2  N1  UNL     1      -6.148  28.813   1.235  1.00  0.00     0.086 N 
HETATM    3  C2  UNL     1      -7.046  28.350   0.228  1.00  0.00     0.273 C 
HETATM    4  C3  UNL     1      -8.450  28.884   0.374  1.00  0.00     0.050 C 
HETATM    5  C4  UNL     1      -8.689  29.625   1.640  1.00  0.00     0.127 C 
HETATM    6  N2  UNL     1      -8.657  31.080   1.477  1.00  0.00    -0.354 N 
HETATM    7  C5  UNL     1      -9.632  31.782   0.752  1.00  0.00     0.184 C 
HETATM    8  N3  UNL     1     -10.572  31.160   0.144  1.00  0.00    -0.374 N 
ATOM      9  H31 UNL     1     -11.281  31.670  -0.383  1.00  0.00     0.158 HD
ATOM     10  H32 UNL     1     -10.603  30.142   0.194  1.00  0.00     0.158 HD
HETATM   11  N4  UNL     1      -9.589  33.187   0.683  1.00  0.00    -0.064 NA
HETATM   12  C6  UNL     1      -7.579  31.824   2.086  1.00  0.00     0.155 C 
HETATM   13  C7  UNL     1      -6.657  32.252   0.963  1.00  0.00     0.292 C 
HETATM   14  N5  UNL     1      -5.365  31.676   1.250  1.00  0.00     0.093 N 
HETATM   15  C11 UNL     1      -4.929  30.731   0.273  1.00  0.00     0.302 C 
HETATM   16  C12 UNL     1      -4.903  29.321   0.773  1.00  0.00     0.302 C 
ENDROOT
BRANCH  14  17
HETATM   17  C8  UNL     1      -4.449  32.761   1.479  1.00  0.00     0.292 C 
BRANCH  17  18
HETATM   18  C9  UNL     1      -3.317  32.829   0.486  1.00  0.00     0.152 C 
BRANCH  18  19
HETATM   19  N6  UNL     1      -3.556  33.922  -0.409  1.00  0.00    -0.365 N 
HETATM   20  C10 UNL     1      -3.849  33.857  -1.645  1.00  0.00     0.197 C 
HETATM   21  N7  UNL     1      -3.970  32.596  -2.284  1.00  0.00    -0.067 NA
HETATM   22  N8  UNL     1      -4.050  35.053  -2.372  1.00  0.00    -0.067 NA
ATOM     23  H6  UNL     1      -3.482  34.857  -0.010  1.00  0.00     0.161 HD
ENDBRANCH  18  19
ENDBRANCH  17  18
ENDBRANCH  14  17
TORSDOF 3
ENDMDL
MODEL 2
REMARK VINA RESULT: -6.662270630      2.058      2.358
REMARK  3 active torsions:
REMARK  status: ('A' for Active; 'I' for Inactive)
REMARK       I    between atoms: N2_6  and  C5_7 
REMARK    1  A    between atoms: N5_14  and  C8_15 
REMARK    2  A    between atoms: C8_15  and  C9_16 
REMARK    3  A    between atoms: C9_16  and  N6_17 
ROOT
HETATM    1  C1  UNL     1      -4.515  27.111   1.267  1.00  0.00     0.309 C 
HETATM    2  N1  UNL     1      -5.656  28.012   1.202  1.00  0.00     0.086 N 
HETATM    3  C2  UNL     1      -6.860  27.267   1.024  1.00  0.00     0.273 C 
HETATM    4  C3  UNL     1      -7.734  27.221   2.254  1.00  0.00     0.050 C 
HETATM    5  C4  UNL     1      -7.095  27.783   3.473  1.00  0.00     0.127 C 
HETATM    6  N2  UNL     1      -7.537  29.144   3.786  1.00  0.00    -0.354 N 
HETATM    7  C5  UNL     1      -8.844  29.438   4.201  1.00  0.00     0.184 C 
HETATM    8  N3  UNL     1      -9.735  28.521   4.265  1.00  0.00    -0.374 N 
ATOM      9  H31 UNL     1     -10.686  28.735   4.565  1.00  0.00     0.158 HD
ATOM     10  H32 UNL     1      -9.481  27.567   4.009  1.00  0.00     0.158 HD
HETATM   11  N4  UNL     1      -9.196  30.755   4.552  1.00  0.00    -0.064 NA
HETATM   12  C6  UNL     1      -6.589  30.228   3.664  1.00  0.00     0.155 C 
HETATM   13  C7  UNL     1      -6.973  31.002   2.421  1.00  0.00     0.292 C 
HETATM   14  N5  UNL     1      -5.831  30.955   1.539  1.00  0.00     0.093 N 
HETATM   15  C11 UNL     1      -6.083  30.274   0.311  1.00  0.00     0.302 C 
HETATM   16  C12 UNL     1      -5.362  28.968   0.191  1.00  0.00     0.302 C 
ENDROOT
BRANCH  14  17
HETATM   17  C8  UNL     1      -5.348  32.302   1.384  1.00  0.00     0.292 C 
BRANCH  17  18
HETATM   18  C9  UNL     1      -4.019  32.401   0.681  1.00  0.00     0.152 C 
BRANCH  18  19
HETATM   19  N6  UNL     1      -4.044  33.535  -0.193  1.00  0.00    -0.365 N 
HETATM   20  C10 UNL     1      -3.985  33.531  -1.464  1.00  0.00     0.197 C 
HETATM   21  N7  UNL     1      -3.878  32.304  -2.169  1.00  0.00    -0.067 NA
HETATM   22  N8  UNL     1      -4.025  34.760  -2.163  1.00  0.00    -0.067 NA
ATOM     23  H6  UNL     1      -4.119  34.449   0.253  1.00  0.00     0.161 HD
ENDBRANCH  18  19
ENDBRANCH  17  18
ENDBRANCH  14  17
TORSDOF 3
ENDMDL
MODEL 3
REMARK VINA RESULT: -6.644249796      3.660      6.949
REMARK  3 active torsions:
REMARK  status: ('A' for Active; 'I' for Inactive)
REMARK       I    between atoms: N2_6  and  C5_7 
REMARK    1  A    between atoms: N5_14  and  C8_15 
REMARK    2  A    between atoms: C8_15  and  C9_16 
REMARK    3  A    between atoms: C9_16  and  N6_17 
ROOT
HETATM    1  C1  UNL     1      -8.835  27.800  -0.266  1.00  0.00     0.309 C 
HETATM    2  N1  UNL     1      -7.900  28.066   0.818  1.00  0.00     0.086 N 
HETATM    3  C2  UNL     1      -6.898  28.986   0.388  1.00  0.00     0.273 C 
HETATM    4  C3  UNL     1      -7.043  30.365   0.983  1.00  0.00     0.050 C 
HETATM    5  C4  UNL     1      -8.305  30.568   1.743  1.00  0.00     0.127 C 
HETATM    6  N2  UNL     1      -8.131  30.473   3.194  1.00  0.00    -0.354 N 
HETATM    7  C5  UNL     1      -7.404  31.418   3.933  1.00  0.00     0.184 C 
HETATM    8  N3  UNL     1      -6.802  32.386   3.349  1.00  0.00    -0.374 N 
ATOM      9  H31 UNL     1      -6.273  33.072   3.885  1.00  0.00     0.158 HD
ATOM     10  H32 UNL     1      -6.859  32.461   2.333  1.00  0.00     0.158 HD
HETATM   11  N4  UNL     1      -7.325  31.313   5.334  1.00  0.00    -0.064 NA
HETATM   12  C6  UNL     1      -8.733  29.361   3.895  1.00  0.00     0.155 C 
HETATM   13  C7  UNL     1      -7.605  28.425   4.274  1.00  0.00     0.292 C 
HETATM   14  N5  UNL     1      -7.893  27.159   3.643  1.00  0.00     0.093 N 
HETATM   15  C11 UNL     1      -6.922  26.766   2.674  1.00  0.00     0.302 C 
HETATM   16  C12 UNL     1      -7.431  26.801   1.267  1.00  0.00     0.302 C 
ENDROOT
BRANCH  14  17
HETATM   17  C8  UNL     1      -8.112  26.195   4.689  1.00  0.00     0.292 C 
BRANCH  17  18
HETATM   18  C9  UNL     1      -6.904  25.354   5.012  1.00  0.00     0.152 C 
BRANCH  18  19
HETATM   19  N6  UNL     1      -6.637  25.453   6.416  1.00  0.00    -0.365 N 
HETATM   20  C10 UNL     1      -5.502  25.552   6.980  1.00  0.00     0.197 C 
HETATM   21  N7  UNL     1      -4.317  25.573   6.200  1.00  0.00    -0.067 NA
HETATM   22  N8  UNL     1      -5.435  25.641   8.390  1.00  0.00    -0.067 NA
ATOM     23  H6  UNL     1      -7.449  25.443   7.033  1.00  0.00     0.161 HD
ENDBRANCH  18  19
ENDBRANCH  17  18
ENDBRANCH  14  17
TORSDOF 3
ENDMDL
MODEL 4
REMARK VINA RESULT: -6.546716792      2.134      2.767
REMARK  3 active torsions:
REMARK  status: ('A' for Active; 'I' for Inactive)
REMARK       I    between atoms: N2_6  and  C5_7 
REMARK    1  A    between atoms: N5_14  and  C8_15 
REMARK    2  A    between atoms: C8_15  and  C9_16 
REMARK    3  A    between atoms: C9_16  and  N6_17 
ROOT
HETATM    1  C1  UNL     1      -4.721  26.487   1.556  1.00  0.00     0.309 C 
HETATM    2  N1  UNL     1      -5.897  27.334   1.425  1.00  0.00     0.086 N 
HETATM    3  C2  UNL     1      -7.082  26.564   1.619  1.00  0.00     0.273 C 
HETATM    4  C3  UNL     1      -7.776  26.836   2.931  1.00  0.00     0.050 C 
HETATM    5  C4  UNL     1      -7.001  27.700   3.860  1.00  0.00     0.127 C 
HETATM    6  N2  UNL     1      -7.452  29.093   3.871  1.00  0.00    -0.354 N 
HETATM    7  C5  UNL     1      -8.702  29.480   4.378  1.00  0.00     0.184 C 
HETATM    8  N3  UNL     1      -9.537  28.607   4.802  1.00  0.00    -0.374 N 
ATOM      9  H31 UNL     1     -10.445  28.888   5.170  1.00  0.00     0.158 HD
ATOM     10  H32 UNL     1      -9.280  27.621   4.768  1.00  0.00     0.158 HD
HETATM   11  N4  UNL     1      -9.056  30.841   4.424  1.00  0.00    -0.064 NA
HETATM   12  C6  UNL     1      -6.575  30.112   3.340  1.00  0.00     0.155 C 
HETATM   13  C7  UNL     1      -7.157  30.533   2.007  1.00  0.00     0.292 C 
HETATM   14  N5  UNL     1      -6.145  30.263   1.013  1.00  0.00     0.093 N 
HETATM   15  C11 UNL     1      -6.534  29.284   0.051  1.00  0.00     0.302 C 
HETATM   16  C12 UNL     1      -5.783  27.995   0.171  1.00  0.00     0.302 C 
ENDROOT
BRANCH  14  17
HETATM   17  C8  UNL     1      -5.745  31.524   0.449  1.00  0.00     0.292 C 
BRANCH  17  18
HETATM   18  C9  UNL     1      -4.572  31.431  -0.493  1.00  0.00     0.152 C 
BRANCH  18  19
HETATM   19  N6  UNL     1      -4.576  32.582  -1.347  1.00  0.00    -0.365 N 
HETATM   20  C10 UNL     1      -3.942  33.671  -1.177  1.00  0.00     0.197 C 
HETATM   21  N7  UNL     1      -3.115  33.845  -0.037  1.00  0.00    -0.067 NA
HETATM   22  N8  UNL     1      -4.070  34.703  -2.136  1.00  0.00    -0.067 NA
ATOM     23  H6  UNL     1      -5.154  32.520  -2.186  1.00  0.00     0.161 HD
ENDBRANCH  18  19
ENDBRANCH  17  18
ENDBRANCH  14  17
TORSDOF 3
ENDMDL
MODEL 5
REMARK VINA RESULT: -6.444746449      4.097      7.245
REMARK  3 active torsions:
REMARK  status: ('A' for Active; 'I' for Inactive)
REMARK       I    between atoms: N2_6  and  C5_7 
REMARK    1  A    between atoms: N5_14  and  C8_15 
REMARK    2  A    between atoms: C8_15  and  C9_16 
REMARK    3  A    between atoms: C9_16  and  N6_17 
ROOT
HETATM    1  C1  UNL     1      -6.580  30.738   3.712  1.00  0.00     0.309 C 
HETATM    2  N1  UNL     1      -7.588  29.747   3.367  1.00  0.00     0.086 N 
HETATM    3  C2  UNL     1      -8.783  30.392   2.928  1.00  0.00     0.273 C 
HETATM    4  C3  UNL     1      -9.027  30.272   1.443  1.00  0.00     0.050 C 
HETATM    5  C4  UNL     1      -7.890  29.684   0.687  1.00  0.00     0.127 C 
HETATM    6  N2  UNL     1      -8.082  28.270   0.356  1.00  0.00    -0.354 N 
HETATM    7  C5  UNL     1      -9.059  27.831  -0.552  1.00  0.00     0.184 C 
HETATM    8  N3  UNL     1      -9.874  28.659  -1.090  1.00  0.00    -0.374 N 
ATOM      9  H31 UNL     1     -10.584  28.340  -1.749  1.00  0.00     0.158 HD
ATOM     10  H32 UNL     1      -9.804  29.648  -0.849  1.00  0.00     0.158 HD
HETATM   11  N4  UNL     1      -9.155  26.467  -0.883  1.00  0.00    -0.064 NA
HETATM   12  C6  UNL     1      -7.233  27.287   0.988  1.00  0.00     0.155 C 
HETATM   13  C7  UNL     1      -8.086  26.572   2.014  1.00  0.00     0.292 C 
HETATM   14  N5  UNL     1      -7.452  26.783   3.294  1.00  0.00     0.093 N 
HETATM   15  C11 UNL     1      -8.252  27.525   4.214  1.00  0.00     0.302 C 
HETATM   16  C12 UNL     1      -7.722  28.896   4.499  1.00  0.00     0.302 C 
ENDROOT
BRANCH  14  17
HETATM   17  C8  UNL     1      -7.023  25.500   3.781  1.00  0.00     0.292 C 
BRANCH  17  18
HETATM   18  C9  UNL     1      -7.560  25.148   5.145  1.00  0.00     0.152 C 
BRANCH  18  19
HETATM   19  N6  UNL     1      -6.468  25.097   6.070  1.00  0.00    -0.365 N 
HETATM   20  C10 UNL     1      -6.326  25.778   7.135  1.00  0.00     0.197 C 
HETATM   21  N7  UNL     1      -7.318  26.718   7.518  1.00  0.00    -0.067 NA
HETATM   22  N8  UNL     1      -5.171  25.588   7.929  1.00  0.00    -0.067 NA
ATOM     23  H6  UNL     1      -5.719  24.440   5.851  1.00  0.00     0.161 HD
ENDBRANCH  18  19
ENDBRANCH  17  18
ENDBRANCH  14  17
TORSDOF 3
ENDMDL
