MODEL 1
REMARK VINA RESULT: -6.953711825      0.000      0.000
REMARK  8 active torsions:
REMARK  status: ('A' for Active; 'I' for Inactive)
REMARK    1  A    between atoms: C3_3  and  C5_5 
REMARK    2  A    between atoms: C5_5  and  N1_6 
REMARK    3  A    between atoms: C6_8  and  N2_10 
REMARK       I    between atoms: N3_13  and  C10_14 
REMARK    4  A    between atoms: C10_14  and  C11_16 
REMARK    5  A    between atoms: C11_16  and  C12_17 
REMARK    6  A    between atoms: C12_17  and  C13_18 
REMARK    7  A    between atoms: C13_18  and  O2_19 
REMARK    8  A    between atoms: N4_21  and  O3_23 
ROOT
HETATM    1  C1  UNL     1      23.891   7.946  12.929  1.00  0.00     0.012 C 
HETATM    2  C2  UNL     1      24.249   6.789  12.801  1.00  0.00    -0.111 C 
HETATM    3  C3  UNL     1      24.657   5.393  12.644  1.00  0.00     0.078 C 
HETATM    4  C4  UNL     1      26.180   5.342  12.461  1.00  0.00     0.025 C 
ENDROOT
BRANCH   3   5
HETATM    5  C5  UNL     1      24.024   4.824  11.372  1.00  0.00     0.137 C 
BRANCH   5   6
HETATM    6  N1  UNL     1      22.803   4.182  11.746  1.00  0.00    -0.379 N 
HETATM    7  C6  UNL     1      21.633   4.481  11.352  1.00  0.00     0.071 C 
HETATM    8  C7  UNL     1      21.354   5.585  10.407  1.00  0.00     0.088 C 
ATOM      9  H1  UNL     1      22.879   3.402  12.399  1.00  0.00     0.160 HD
BRANCH   7  10
HETATM   10  N2  UNL     1      20.550   3.692  11.864  1.00  0.00    -0.368 N 
HETATM   11  C8  UNL     1      19.744   4.236  12.919  1.00  0.00     0.144 C 
HETATM   12  C9  UNL     1      18.254   4.030  12.608  1.00  0.00     0.145 C 
HETATM   13  N3  UNL     1      18.118   2.676  12.142  1.00  0.00    -0.349 N 
HETATM   14  C10 UNL     1      17.253   1.792  12.842  1.00  0.00     0.220 C 
HETATM   15  C14 UNL     1      18.866   2.267  10.977  1.00  0.00     0.145 C 
HETATM   16  O1  UNL     1      17.118   0.596  12.455  1.00  0.00    -0.273 OA
HETATM   17  C15 UNL     1      20.334   2.395  11.291  1.00  0.00     0.144 C 
BRANCH  14  18
HETATM   18  C11 UNL     1      16.510   2.277  14.030  1.00  0.00     0.111 C 
BRANCH  18  19
HETATM   19  C12 UNL     1      17.131   1.723  15.267  1.00  0.00     0.095 C 
BRANCH  19  20
HETATM   20  C13 UNL     1      16.455   0.548  15.839  1.00  0.00     0.135 C 
HETATM   21  N4  UNL     1      15.870   0.500  16.965  1.00  0.00    -0.251 N 
ATOM     22  H4  UNL     1      15.869   1.354  17.523  1.00  0.00     0.196 HD
BRANCH  20  23
HETATM   23  O2  UNL     1      16.451  -0.629  15.076  1.00  0.00    -0.348 OA
ATOM     24  H2  UNL     1      15.698  -1.201  15.159  1.00  0.00     0.219 HD
ENDBRANCH  20  23
BRANCH  21  25
HETATM   25  O3  UNL     1      15.249  -0.578  17.493  1.00  0.00    -0.288 OA
ATOM     26  H3  UNL     1      14.732  -0.591  18.290  1.00  0.00     0.244 HD
ENDBRANCH  21  25
ENDBRANCH  19  20
ENDBRANCH  18  19
ENDBRANCH  14  18
ENDBRANCH   7  10
ENDBRANCH   5   6
ENDBRANCH   3   5
TORSDOF 8
ENDMDL
MODEL 2
REMARK VINA RESULT: -6.813148113      4.208      7.301
REMARK  8 active torsions:
REMARK  status: ('A' for Active; 'I' for Inactive)
REMARK    1  A    between atoms: C3_3  and  C5_5 
REMARK    2  A    between atoms: C5_5  and  N1_6 
REMARK    3  A    between atoms: C6_8  and  N2_10 
REMARK       I    between atoms: N3_13  and  C10_14 
REMARK    4  A    between atoms: C10_14  and  C11_16 
REMARK    5  A    between atoms: C11_16  and  C12_17 
REMARK    6  A    between atoms: C12_17  and  C13_18 
REMARK    7  A    between atoms: C13_18  and  O2_19 
REMARK    8  A    between atoms: N4_21  and  O3_23 
ROOT
HETATM    1  C1  UNL     1      14.888   2.273  19.715  1.00  0.00     0.012 C 
HETATM    2  C2  UNL     1      14.546   2.130  18.554  1.00  0.00    -0.111 C 
HETATM    3  C3  UNL     1      14.127   1.979  17.161  1.00  0.00     0.078 C 
HETATM    4  C4  UNL     1      14.914   0.823  16.532  1.00  0.00     0.025 C 
ENDROOT
BRANCH   3   5
HETATM    5  C5  UNL     1      14.484   3.250  16.387  1.00  0.00     0.137 C 
BRANCH   5   6
HETATM    6  N1  UNL     1      15.406   2.886  15.357  1.00  0.00    -0.379 N 
HETATM    7  C6  UNL     1      16.234   3.649  14.771  1.00  0.00     0.071 C 
HETATM    8  C7  UNL     1      16.369   5.090  15.082  1.00  0.00     0.088 C 
ATOM      9  H1  UNL     1      15.398   1.910  15.063  1.00  0.00     0.160 HD
BRANCH   7  10
HETATM   10  N2  UNL     1      17.066   3.060  13.762  1.00  0.00    -0.368 N 
HETATM   11  C8  UNL     1      16.743   1.744  13.289  1.00  0.00     0.144 C 
HETATM   12  C9  UNL     1      16.798   1.704  11.756  1.00  0.00     0.145 C 
HETATM   13  N3  UNL     1      17.998   2.397  11.371  1.00  0.00    -0.349 N 
HETATM   14  C10 UNL     1      18.977   1.705  10.608  1.00  0.00     0.220 C 
HETATM   15  C14 UNL     1      18.161   3.773  11.776  1.00  0.00     0.145 C 
HETATM   16  O1  UNL     1      20.042   2.291  10.260  1.00  0.00    -0.273 OA
HETATM   17  C15 UNL     1      18.181   3.822  13.281  1.00  0.00     0.144 C 
BRANCH  14  18
HETATM   18  C11 UNL     1      18.746   0.293  10.222  1.00  0.00     0.111 C 
BRANCH  18  19
HETATM   19  C12 UNL     1      19.128  -0.602  11.351  1.00  0.00     0.095 C 
BRANCH  19  20
HETATM   20  C13 UNL     1      18.383  -1.869  11.431  1.00  0.00     0.135 C 
HETATM   21  N4  UNL     1      18.886  -3.033  11.368  1.00  0.00    -0.251 N 
ATOM     22  H4  UNL     1      19.898  -3.095  11.252  1.00  0.00     0.196 HD
BRANCH  20  23
HETATM   23  O2  UNL     1      16.992  -1.791  11.592  1.00  0.00    -0.348 OA
ATOM     24  H2  UNL     1      16.666  -1.302  12.338  1.00  0.00     0.219 HD
ENDBRANCH  20  23
BRANCH  21  25
HETATM   25  O3  UNL     1      18.205  -4.198  11.441  1.00  0.00    -0.288 OA
ATOM     26  H3  UNL     1      18.474  -4.974  11.918  1.00  0.00     0.244 HD
ENDBRANCH  21  25
ENDBRANCH  19  20
ENDBRANCH  18  19
ENDBRANCH  14  18
ENDBRANCH   7  10
ENDBRANCH   5   6
ENDBRANCH   3   5
TORSDOF 8
ENDMDL
MODEL 3
REMARK VINA RESULT: -6.748687465      3.800      7.695
REMARK  8 active torsions:
REMARK  status: ('A' for Active; 'I' for Inactive)
REMARK    1  A    between atoms: C3_3  and  C5_5 
REMARK    2  A    between atoms: C5_5  and  N1_6 
REMARK    3  A    between atoms: C6_8  and  N2_10 
REMARK       I    between atoms: N3_13  and  C10_14 
REMARK    4  A    between atoms: C10_14  and  C11_16 
REMARK    5  A    between atoms: C11_16  and  C12_17 
REMARK    6  A    between atoms: C12_17  and  C13_18 
REMARK    7  A    between atoms: C13_18  and  O2_19 
REMARK    8  A    between atoms: N4_21  and  O3_23 
ROOT
HETATM    1  C1  UNL     1      15.253   4.962  15.307  1.00  0.00     0.012 C 
HETATM    2  C2  UNL     1      15.265   3.770  15.557  1.00  0.00    -0.111 C 
HETATM    3  C3  UNL     1      15.293   2.335  15.840  1.00  0.00     0.078 C 
HETATM    4  C4  UNL     1      14.733   2.099  17.248  1.00  0.00     0.025 C 
ENDROOT
BRANCH   3   5
HETATM    5  C5  UNL     1      16.744   1.850  15.836  1.00  0.00     0.137 C 
BRANCH   5   6
HETATM    6  N1  UNL     1      17.333   2.253  14.597  1.00  0.00    -0.379 N 
HETATM    7  C6  UNL     1      17.406   1.569  13.529  1.00  0.00     0.071 C 
HETATM    8  C7  UNL     1      16.868   0.195  13.409  1.00  0.00     0.088 C 
ATOM      9  H1  UNL     1      17.737   3.188  14.568  1.00  0.00     0.160 HD
BRANCH   7  10
HETATM   10  N2  UNL     1      18.046   2.183  12.402  1.00  0.00    -0.368 N 
HETATM   11  C8  UNL     1      18.675   3.459  12.581  1.00  0.00     0.144 C 
HETATM   12  C9  UNL     1      20.069   3.458  11.938  1.00  0.00     0.145 C 
HETATM   13  N3  UNL     1      19.923   2.836  10.650  1.00  0.00    -0.349 N 
HETATM   14  C10 UNL     1      20.285   3.568   9.487  1.00  0.00     0.220 C 
HETATM   15  C14 UNL     1      19.414   1.486  10.588  1.00  0.00     0.145 C 
HETATM   16  O1  UNL     1      20.164   3.045   8.342  1.00  0.00    -0.273 OA
HETATM   17  C15 UNL     1      18.018   1.482  11.151  1.00  0.00     0.144 C 
BRANCH  14  18
HETATM   18  C11 UNL     1      20.805   4.950   9.620  1.00  0.00     0.111 C 
BRANCH  18  19
HETATM   19  C12 UNL     1      22.233   4.989   9.195  1.00  0.00     0.095 C 
BRANCH  19  20
HETATM   20  C13 UNL     1      23.183   4.353  10.122  1.00  0.00     0.135 C 
HETATM   21  N4  UNL     1      23.354   4.662  11.342  1.00  0.00    -0.251 N 
ATOM     22  H4  UNL     1      22.779   5.419  11.712  1.00  0.00     0.196 HD
BRANCH  20  23
HETATM   23  O2  UNL     1      23.975   3.310   9.619  1.00  0.00    -0.348 OA
ATOM     24  H2  UNL     1      24.720   3.547   9.080  1.00  0.00     0.219 HD
ENDBRANCH  20  23
BRANCH  21  25
HETATM   25  O3  UNL     1      24.225   4.079  12.195  1.00  0.00    -0.288 OA
ATOM     26  H3  UNL     1      25.129   4.337  12.333  1.00  0.00     0.244 HD
ENDBRANCH  21  25
ENDBRANCH  19  20
ENDBRANCH  18  19
ENDBRANCH  14  18
ENDBRANCH   7  10
ENDBRANCH   5   6
ENDBRANCH   3   5
TORSDOF 8
ENDMDL
MODEL 4
REMARK VINA RESULT: -6.696849828      3.320      7.876
REMARK  8 active torsions:
REMARK  status: ('A' for Active; 'I' for Inactive)
REMARK    1  A    between atoms: C3_3  and  C5_5 
REMARK    2  A    between atoms: C5_5  and  N1_6 
REMARK    3  A    between atoms: C6_8  and  N2_10 
REMARK       I    between atoms: N3_13  and  C10_14 
REMARK    4  A    between atoms: C10_14  and  C11_16 
REMARK    5  A    between atoms: C11_16  and  C12_17 
REMARK    6  A    between atoms: C12_17  and  C13_18 
REMARK    7  A    between atoms: C13_18  and  O2_19 
REMARK    8  A    between atoms: N4_21  and  O3_23 
ROOT
HETATM    1  C1  UNL     1      17.180   0.875  16.224  1.00  0.00     0.012 C 
HETATM    2  C2  UNL     1      16.158   1.357  16.678  1.00  0.00    -0.111 C 
HETATM    3  C3  UNL     1      14.941   1.957  17.223  1.00  0.00     0.078 C 
HETATM    4  C4  UNL     1      13.803   0.932  17.133  1.00  0.00     0.025 C 
ENDROOT
BRANCH   3   5
HETATM    5  C5  UNL     1      14.543   3.159  16.363  1.00  0.00     0.137 C 
BRANCH   5   6
HETATM    6  N1  UNL     1      15.381   3.158  15.204  1.00  0.00    -0.379 N 
HETATM    7  C6  UNL     1      16.052   4.135  14.748  1.00  0.00     0.071 C 
HETATM    8  C7  UNL     1      16.063   5.475  15.379  1.00  0.00     0.088 C 
ATOM      9  H1  UNL     1      15.446   2.281  14.689  1.00  0.00     0.160 HD
BRANCH   7  10
HETATM   10  N2  UNL     1      16.826   3.901  13.564  1.00  0.00    -0.368 N 
HETATM   11  C8  UNL     1      17.767   4.900  13.150  1.00  0.00     0.144 C 
HETATM   12  C9  UNL     1      19.110   4.249  12.792  1.00  0.00     0.145 C 
HETATM   13  N3  UNL     1      18.804   3.091  11.997  1.00  0.00    -0.349 N 
HETATM   14  C10 UNL     1      19.341   2.996  10.685  1.00  0.00     0.220 C 
HETATM   15  C14 UNL     1      17.960   2.066  12.565  1.00  0.00     0.145 C 
HETATM   16  O1  UNL     1      19.084   1.989   9.963  1.00  0.00    -0.273 OA
HETATM   17  C15 UNL     1      16.613   2.672  12.855  1.00  0.00     0.144 C 
BRANCH  14  18
HETATM   18  C11 UNL     1      20.204   4.083  10.163  1.00  0.00     0.111 C 
BRANCH  18  19
HETATM   19  C12 UNL     1      21.412   3.494   9.518  1.00  0.00     0.095 C 
BRANCH  19  20
HETATM   20  C13 UNL     1      22.664   3.639  10.276  1.00  0.00     0.135 C 
HETATM   21  N4  UNL     1      22.762   3.997  11.491  1.00  0.00    -0.251 N 
ATOM     22  H4  UNL     1      21.894   4.204  11.984  1.00  0.00     0.196 HD
BRANCH  20  23
HETATM   23  O2  UNL     1      23.862   3.355   9.604  1.00  0.00    -0.348 OA
ATOM     24  H2  UNL     1      24.489   2.795  10.047  1.00  0.00     0.219 HD
ENDBRANCH  20  23
BRANCH  21  25
HETATM   25  O3  UNL     1      23.911   4.131  12.190  1.00  0.00    -0.288 OA
ATOM     26  H3  UNL     1      24.505   4.871  12.153  1.00  0.00     0.244 HD
ENDBRANCH  21  25
ENDBRANCH  19  20
ENDBRANCH  18  19
ENDBRANCH  14  18
ENDBRANCH   7  10
ENDBRANCH   5   6
ENDBRANCH   3   5
TORSDOF 8
ENDMDL
MODEL 5
REMARK VINA RESULT: -6.641042269      2.063      2.834
REMARK  8 active torsions:
REMARK  status: ('A' for Active; 'I' for Inactive)
REMARK    1  A    between atoms: C3_3  and  C5_5 
REMARK    2  A    between atoms: C5_5  and  N1_6 
REMARK    3  A    between atoms: C6_8  and  N2_10 
REMARK       I    between atoms: N3_13  and  C10_14 
REMARK    4  A    between atoms: C10_14  and  C11_16 
REMARK    5  A    between atoms: C11_16  and  C12_17 
REMARK    6  A    between atoms: C12_17  and  C13_18 
REMARK    7  A    between atoms: C13_18  and  O2_19 
REMARK    8  A    between atoms: N4_21  and  O3_23 
ROOT
HETATM    1  C1  UNL     1      25.390   5.055  12.922  1.00  0.00     0.012 C 
HETATM    2  C2  UNL     1      24.393   5.208  12.239  1.00  0.00    -0.111 C 
HETATM    3  C3  UNL     1      23.202   5.372  11.407  1.00  0.00     0.078 C 
HETATM    4  C4  UNL     1      22.236   6.332  12.112  1.00  0.00     0.025 C 
ENDROOT
BRANCH   3   5
HETATM    5  C5  UNL     1      22.491   4.024  11.273  1.00  0.00     0.137 C 
BRANCH   5   6
HETATM    6  N1  UNL     1      21.221   4.138  11.919  1.00  0.00    -0.379 N 
HETATM    7  C6  UNL     1      20.123   3.624  11.539  1.00  0.00     0.071 C 
HETATM    8  C7  UNL     1      19.996   2.796  10.319  1.00  0.00     0.088 C 
ATOM      9  H1  UNL     1      21.193   4.690  12.775  1.00  0.00     0.160 HD
BRANCH   7  10
HETATM   10  N2  UNL     1      18.968   3.874  12.352  1.00  0.00    -0.368 N 
HETATM   11  C8  UNL     1      17.964   2.855  12.450  1.00  0.00     0.144 C 
HETATM   12  C9  UNL     1      17.552   2.654  13.915  1.00  0.00     0.145 C 
HETATM   13  N3  UNL     1      17.386   3.968  14.476  1.00  0.00    -0.349 N 
HETATM   14  C10 UNL     1      16.125   4.327  15.025  1.00  0.00     0.220 C 
HETATM   15  C14 UNL     1      18.510   4.874  14.460  1.00  0.00     0.145 C 
HETATM   16  O1  UNL     1      15.952   5.477  15.522  1.00  0.00    -0.273 OA
HETATM   17  C15 UNL     1      18.882   5.138  13.025  1.00  0.00     0.144 C 
BRANCH  14  18
HETATM   18  C11 UNL     1      15.012   3.348  15.014  1.00  0.00     0.111 C 
BRANCH  18  19
HETATM   19  C12 UNL     1      14.719   2.909  16.408  1.00  0.00     0.095 C 
BRANCH  19  20
HETATM   20  C13 UNL     1      15.306   1.618  16.798  1.00  0.00     0.135 C 
HETATM   21  N4  UNL     1      14.666   0.538  16.993  1.00  0.00    -0.251 N 
ATOM     22  H4  UNL     1      13.654   0.570  16.867  1.00  0.00     0.196 HD
BRANCH  20  23
HETATM   23  O2  UNL     1      16.697   1.566  16.972  1.00  0.00    -0.348 OA
ATOM     24  H2  UNL     1      17.171   0.891  16.502  1.00  0.00     0.219 HD
ENDBRANCH  20  23
BRANCH  21  25
HETATM   25  O3  UNL     1      15.202  -0.650  17.352  1.00  0.00    -0.288 OA
ATOM     26  H3  UNL     1      15.160  -1.044  18.215  1.00  0.00     0.244 HD
ENDBRANCH  21  25
ENDBRANCH  19  20
ENDBRANCH  18  19
ENDBRANCH  14  18
ENDBRANCH   7  10
ENDBRANCH   5   6
ENDBRANCH   3   5
TORSDOF 8
ENDMDL
