MODEL 1
REMARK VINA RESULT: -6.857139647      0.000      0.000
REMARK  6 active torsions:
REMARK  status: ('A' for Active; 'I' for Inactive)
REMARK    1  A    between atoms: C2_2  and  C3_3 
REMARK    2  A    between atoms: C3_3  and  C4_4 
REMARK    3  A    between atoms: C4_4  and  O1_5 
REMARK    4  A    between atoms: N1_9  and  C7_10 
REMARK    5  A    between atoms: N3_18  and  C11_19 
REMARK    6  A    between atoms: C11_19  and  C12_20 
ROOT
HETATM    1  C7  UNL     1      17.647   3.795  12.058  1.00  0.00     0.266 C 
HETATM    2  C8  UNL     1      18.966   4.320  11.551  1.00  0.00     0.270 C 
HETATM    3  N2  UNL     1      19.136   4.003  10.133  1.00  0.00    -0.065 N 
ATOM      4  H21 UNL     1      19.288   3.005   9.982  1.00  0.00     0.277 HD
ATOM      5  H22 UNL     1      20.024   4.348   9.770  1.00  0.00     0.277 HD
HETATM    6  C9  UNL     1      18.005   4.501   9.361  1.00  0.00     0.334 C 
HETATM    7  C10 UNL     1      17.523   5.742  10.026  1.00  0.00     0.245 C 
HETATM    8  O2  UNL     1      17.752   6.795   9.367  1.00  0.00    -0.272 OA
HETATM    9  N3  UNL     1      16.858   5.923  11.263  1.00  0.00    -0.348 N 
HETATM   10  C15 UNL     1      16.758   4.985  12.353  1.00  0.00     0.163 C 
ENDROOT
BRANCH   1  11
HETATM   11  N1  UNL     1      17.822   2.895  13.151  1.00  0.00     0.096 N 
HETATM   12  C6  UNL     1      16.792   1.878  13.087  1.00  0.00     0.276 C 
HETATM   13  C5  UNL     1      16.974   0.837  14.173  1.00  0.00     0.068 C 
HETATM   14  C4  UNL     1      16.772   1.491  15.504  1.00  0.00     0.061 C 
HETATM   15  C17 UNL     1      16.817   2.997  15.388  1.00  0.00     0.068 C 
HETATM   16  C16 UNL     1      17.899   3.472  14.447  1.00  0.00     0.276 C 
BRANCH  14  17
HETATM   17  C3  UNL     1      15.558   1.036  16.231  1.00  0.00     0.037 C 
BRANCH  17  18
HETATM   18  C2  UNL     1      14.806   2.112  16.940  1.00  0.00    -0.002 C 
HETATM   19  C1  UNL     1      14.890   1.921  18.438  1.00  0.00     0.005 C 
ENDBRANCH  17  18
ENDBRANCH  14  17
BRANCH  14  20
HETATM   20  O1  UNL     1      17.884   1.153  16.312  1.00  0.00    -0.390 OA
ATOM     21  H1  UNL     1      18.646   1.560  15.915  1.00  0.00     0.210 HD
ENDBRANCH  14  20
ENDBRANCH   1  11
BRANCH   9  22
HETATM   22  C11 UNL     1      16.186   7.184  11.458  1.00  0.00     0.129 C 
BRANCH  22  23
HETATM   23  C12 UNL     1      14.840   7.290  10.823  1.00  0.00    -0.005 C 
HETATM   24  C13 UNL     1      13.803   7.354  11.947  1.00  0.00     0.011 C 
HETATM   25  C14 UNL     1      14.632   8.527   9.989  1.00  0.00     0.011 C 
ENDBRANCH  22  23
ENDBRANCH   9  22
TORSDOF 6
ENDMDL
MODEL 2
REMARK VINA RESULT: -6.704873128      2.591      6.659
REMARK  6 active torsions:
REMARK  status: ('A' for Active; 'I' for Inactive)
REMARK    1  A    between atoms: C2_2  and  C3_3 
REMARK    2  A    between atoms: C3_3  and  C4_4 
REMARK    3  A    between atoms: C4_4  and  O1_5 
REMARK    4  A    between atoms: N1_9  and  C7_10 
REMARK    5  A    between atoms: N3_18  and  C11_19 
REMARK    6  A    between atoms: C11_19  and  C12_20 
ROOT
HETATM    1  C7  UNL     1      17.382   2.860  13.682  1.00  0.00     0.266 C 
HETATM    2  C8  UNL     1      16.243   2.123  13.023  1.00  0.00     0.270 C 
HETATM    3  N2  UNL     1      16.716   0.877  12.419  1.00  0.00    -0.065 N 
ATOM      4  H21 UNL     1      17.297   1.050  11.598  1.00  0.00     0.277 HD
ATOM      5  H22 UNL     1      15.961   0.364  11.966  1.00  0.00     0.277 HD
HETATM    6  C9  UNL     1      17.407   0.063  13.410  1.00  0.00     0.334 C 
HETATM    7  C10 UNL     1      16.763   0.319  14.726  1.00  0.00     0.245 C 
HETATM    8  O2  UNL     1      16.098  -0.661  15.167  1.00  0.00    -0.272 OA
HETATM    9  N3  UNL     1      16.779   1.471  15.550  1.00  0.00    -0.348 N 
HETATM   10  C15 UNL     1      17.160   2.810  15.178  1.00  0.00     0.163 C 
ENDROOT
BRANCH   1  11
HETATM   11  N1  UNL     1      17.542   4.173  13.145  1.00  0.00     0.096 N 
HETATM   12  C6  UNL     1      18.954   4.424  12.943  1.00  0.00     0.276 C 
HETATM   13  C5  UNL     1      19.189   5.772  12.291  1.00  0.00     0.068 C 
HETATM   14  C4  UNL     1      18.749   6.845  13.237  1.00  0.00     0.061 C 
HETATM   15  C17 UNL     1      17.896   6.282  14.350  1.00  0.00     0.068 C 
HETATM   16  C16 UNL     1      16.925   5.234  13.859  1.00  0.00     0.276 C 
BRANCH  14  17
HETATM   17  C3  UNL     1      19.855   7.683  13.768  1.00  0.00     0.037 C 
BRANCH  17  18
HETATM   18  C2  UNL     1      19.584   8.324  15.088  1.00  0.00    -0.002 C 
HETATM   19  C1  UNL     1      20.593   9.415  15.367  1.00  0.00     0.005 C 
ENDBRANCH  17  18
ENDBRANCH  14  17
BRANCH  14  20
HETATM   20  O1  UNL     1      17.887   7.711  12.519  1.00  0.00    -0.390 OA
ATOM     21  H1  UNL     1      17.075   7.758  13.010  1.00  0.00     0.210 HD
ENDBRANCH  14  20
ENDBRANCH   1  11
BRANCH   9  22
HETATM   22  C11 UNL     1      16.385   1.290  16.924  1.00  0.00     0.129 C 
BRANCH  22  23
HETATM   23  C12 UNL     1      15.141   2.009  17.328  1.00  0.00    -0.005 C 
HETATM   24  C13 UNL     1      13.950   1.186  16.832  1.00  0.00     0.011 C 
HETATM   25  C14 UNL     1      14.956   2.164  18.814  1.00  0.00     0.011 C 
ENDBRANCH  22  23
ENDBRANCH   9  22
TORSDOF 6
ENDMDL
MODEL 3
REMARK VINA RESULT: -6.703686773      0.744      1.011
REMARK  6 active torsions:
REMARK  status: ('A' for Active; 'I' for Inactive)
REMARK    1  A    between atoms: C2_2  and  C3_3 
REMARK    2  A    between atoms: C3_3  and  C4_4 
REMARK    3  A    between atoms: C4_4  and  O1_5 
REMARK    4  A    between atoms: N1_9  and  C7_10 
REMARK    5  A    between atoms: N3_18  and  C11_19 
REMARK    6  A    between atoms: C11_19  and  C12_20 
ROOT
HETATM    1  C7  UNL     1      18.026   3.635  11.698  1.00  0.00     0.266 C 
HETATM    2  C8  UNL     1      19.131   4.660  11.662  1.00  0.00     0.270 C 
HETATM    3  N2  UNL     1      19.945   4.498  10.457  1.00  0.00    -0.065 N 
ATOM      4  H21 UNL     1      20.510   3.649  10.492  1.00  0.00     0.277 HD
ATOM      5  H22 UNL     1      20.701   5.181  10.414  1.00  0.00     0.277 HD
HETATM    6  C9  UNL     1      19.106   4.543   9.267  1.00  0.00     0.334 C 
HETATM    7  C10 UNL     1      17.972   5.462   9.554  1.00  0.00     0.245 C 
HETATM    8  O2  UNL     1      18.020   6.547   8.909  1.00  0.00    -0.272 OA
HETATM    9  N3  UNL     1      16.864   5.311  10.423  1.00  0.00    -0.348 N 
HETATM   10  C15 UNL     1      16.714   4.363  11.498  1.00  0.00     0.163 C 
ENDROOT
BRANCH   1  11
HETATM   11  N1  UNL     1      18.090   2.830  12.874  1.00  0.00     0.096 N 
HETATM   12  C6  UNL     1      17.025   1.850  12.827  1.00  0.00     0.276 C 
HETATM   13  C5  UNL     1      17.090   0.904  14.009  1.00  0.00     0.068 C 
HETATM   14  C4  UNL     1      16.829   1.681  15.261  1.00  0.00     0.061 C 
HETATM   15  C17 UNL     1      16.944   3.168  15.019  1.00  0.00     0.068 C 
HETATM   16  C16 UNL     1      18.105   3.517  14.117  1.00  0.00     0.276 C 
BRANCH  14  17
HETATM   17  C3  UNL     1      15.552   1.337  15.938  1.00  0.00     0.037 C 
BRANCH  17  18
HETATM   18  C2  UNL     1      15.006   2.397  16.835  1.00  0.00    -0.002 C 
HETATM   19  C1  UNL     1      14.960   1.911  18.266  1.00  0.00     0.005 C 
ENDBRANCH  17  18
ENDBRANCH  14  17
BRANCH  14  20
HETATM   20  O1  UNL     1      17.870   1.377  16.171  1.00  0.00    -0.390 OA
ATOM     21  H1  UNL     1      18.326   0.619  15.823  1.00  0.00     0.210 HD
ENDBRANCH  14  20
ENDBRANCH   1  11
BRANCH   9  22
HETATM   22  C11 UNL     1      15.746   6.195  10.205  1.00  0.00     0.129 C 
BRANCH  22  23
HETATM   23  C12 UNL     1      15.519   7.208  11.277  1.00  0.00    -0.005 C 
HETATM   24  C13 UNL     1      15.944   8.569  10.723  1.00  0.00     0.011 C 
HETATM   25  C14 UNL     1      14.084   7.358  11.709  1.00  0.00     0.011 C 
ENDBRANCH  22  23
ENDBRANCH   9  22
TORSDOF 6
ENDMDL
MODEL 4
REMARK VINA RESULT: -6.585277728      1.352      6.384
REMARK  6 active torsions:
REMARK  status: ('A' for Active; 'I' for Inactive)
REMARK    1  A    between atoms: C2_2  and  C3_3 
REMARK    2  A    between atoms: C3_3  and  C4_4 
REMARK    3  A    between atoms: C4_4  and  O1_5 
REMARK    4  A    between atoms: N1_9  and  C7_10 
REMARK    5  A    between atoms: N3_18  and  C11_19 
REMARK    6  A    between atoms: C11_19  and  C12_20 
ROOT
HETATM    1  C7  UNL     1      17.715   3.156  12.637  1.00  0.00     0.266 C 
HETATM    2  C8  UNL     1      16.492   2.453  12.103  1.00  0.00     0.270 C 
HETATM    3  N2  UNL     1      16.848   1.142  11.561  1.00  0.00    -0.065 N 
ATOM      4  H21 UNL     1      17.382   1.221  10.695  1.00  0.00     0.277 HD
ATOM      5  H22 UNL     1      16.034   0.650  11.193  1.00  0.00     0.277 HD
HETATM    6  C9  UNL     1      17.552   0.351  12.561  1.00  0.00     0.334 C 
HETATM    7  C10 UNL     1      17.014   0.735  13.894  1.00  0.00     0.245 C 
HETATM    8  O2  UNL     1      16.322  -0.168  14.443  1.00  0.00    -0.272 OA
HETATM    9  N3  UNL     1      17.155   1.936  14.632  1.00  0.00    -0.348 N 
HETATM   10  C15 UNL     1      17.591   3.220  14.144  1.00  0.00     0.163 C 
ENDROOT
BRANCH   1  11
HETATM   11  N1  UNL     1      17.919   4.417  12.000  1.00  0.00     0.096 N 
HETATM   12  C6  UNL     1      17.317   5.453  12.814  1.00  0.00     0.276 C 
HETATM   13  C5  UNL     1      17.574   6.830  12.235  1.00  0.00     0.068 C 
HETATM   14  C4  UNL     1      16.874   6.935  10.917  1.00  0.00     0.061 C 
HETATM   15  C17 UNL     1      16.454   5.576  10.407  1.00  0.00     0.068 C 
HETATM   16  C16 UNL     1      17.508   4.520  10.644  1.00  0.00     0.276 C 
BRANCH  14  17
HETATM   17  C3  UNL     1      15.742   7.897  10.900  1.00  0.00     0.037 C 
BRANCH  17  18
HETATM   18  C2  UNL     1      14.390   7.279  10.769  1.00  0.00    -0.002 C 
HETATM   19  C1  UNL     1      13.624   7.395  12.067  1.00  0.00     0.005 C 
ENDBRANCH  17  18
ENDBRANCH  14  17
BRANCH  14  20
HETATM   20  O1  UNL     1      17.822   7.402   9.973  1.00  0.00    -0.390 OA
ATOM     21  H1  UNL     1      17.364   8.007   9.401  1.00  0.00     0.210 HD
ENDBRANCH  14  20
ENDBRANCH   1  11
BRANCH   9  22
HETATM   22  C11 UNL     1      16.843   1.872  16.038  1.00  0.00     0.129 C 
BRANCH  22  23
HETATM   23  C12 UNL     1      15.389   1.945  16.369  1.00  0.00    -0.005 C 
HETATM   24  C13 UNL     1      15.235   1.590  17.850  1.00  0.00     0.011 C 
HETATM   25  C14 UNL     1      14.771   3.307  16.196  1.00  0.00     0.011 C 
ENDBRANCH  22  23
ENDBRANCH   9  22
TORSDOF 6
ENDMDL
MODEL 5
REMARK VINA RESULT: -6.579182020      3.402      4.039
REMARK  6 active torsions:
REMARK  status: ('A' for Active; 'I' for Inactive)
REMARK    1  A    between atoms: C2_2  and  C3_3 
REMARK    2  A    between atoms: C3_3  and  C4_4 
REMARK    3  A    between atoms: C4_4  and  O1_5 
REMARK    4  A    between atoms: N1_9  and  C7_10 
REMARK    5  A    between atoms: N3_18  and  C11_19 
REMARK    6  A    between atoms: C11_19  and  C12_20 
ROOT
HETATM    1  C7  UNL     1      18.520   5.739  12.909  1.00  0.00     0.266 C 
HETATM    2  C8  UNL     1      19.666   5.166  13.705  1.00  0.00     0.270 C 
HETATM    3  N2  UNL     1      20.660   4.563  12.817  1.00  0.00    -0.065 N 
ATOM      4  H21 UNL     1      20.314   3.705  12.388  1.00  0.00     0.277 HD
ATOM      5  H22 UNL     1      21.443   4.168  13.337  1.00  0.00     0.277 HD
HETATM    6  C9  UNL     1      21.102   5.529  11.820  1.00  0.00     0.334 C 
HETATM    7  C10 UNL     1      21.056   6.875  12.450  1.00  0.00     0.245 C 
HETATM    8  O2  UNL     1      22.195   7.377  12.664  1.00  0.00    -0.272 OA
HETATM    9  N3  UNL     1      19.951   7.670  12.841  1.00  0.00    -0.348 N 
HETATM   10  C15 UNL     1      18.585   7.247  13.024  1.00  0.00     0.163 C 
ENDROOT
BRANCH   1  11
HETATM   11  N1  UNL     1      17.271   5.164  13.293  1.00  0.00     0.096 N 
HETATM   12  C6  UNL     1      17.086   5.358  14.716  1.00  0.00     0.276 C 
HETATM   13  C5  UNL     1      15.735   4.846  15.173  1.00  0.00     0.068 C 
HETATM   14  C4  UNL     1      15.698   3.361  14.990  1.00  0.00     0.061 C 
HETATM   15  C17 UNL     1      16.823   2.889  14.099  1.00  0.00     0.068 C 
HETATM   16  C16 UNL     1      17.053   3.810  12.923  1.00  0.00     0.276 C 
BRANCH  14  17
HETATM   17  C3  UNL     1      15.648   2.590  16.260  1.00  0.00     0.037 C 
BRANCH  17  18
HETATM   18  C2  UNL     1      14.279   2.364  16.808  1.00  0.00    -0.002 C 
HETATM   19  C1  UNL     1      14.075   0.905  17.146  1.00  0.00     0.005 C 
ENDBRANCH  17  18
ENDBRANCH  14  17
BRANCH  14  20
HETATM   20  O1  UNL     1      14.513   3.054  14.278  1.00  0.00    -0.390 OA
ATOM     21  H1  UNL     1      14.744   2.396  13.632  1.00  0.00     0.210 HD
ENDBRANCH  14  20
ENDBRANCH   1  11
BRANCH   9  22
HETATM   22  C11 UNL     1      20.209   9.070  13.069  1.00  0.00     0.129 C 
BRANCH  22  23
HETATM   23  C12 UNL     1      19.620   9.628  14.322  1.00  0.00    -0.005 C 
HETATM   24  C13 UNL     1      20.685   9.529  15.417  1.00  0.00     0.011 C 
HETATM   25  C14 UNL     1      19.230  11.080  14.244  1.00  0.00     0.011 C 
ENDBRANCH  22  23
ENDBRANCH   9  22
TORSDOF 6
ENDMDL
