MODEL 1
REMARK VINA RESULT: -6.796359395      0.000      0.000
REMARK  4 active torsions:
REMARK  status: ('A' for Active; 'I' for Inactive)
REMARK    1  A    between atoms: O1_2  and  C2_3 
REMARK    2  A    between atoms: C2_3  and  N2_7 
REMARK       I    between atoms: C3_9  and  N4_11 
REMARK    3  A    between atoms: N4_11  and  C4_13 
REMARK    4  A    between atoms: C5_19  and  N7_20 
ROOT
HETATM    1  N2  UNL     1       2.628  -1.792   1.549  1.00  0.00    -0.296 N 
ATOM      2  H2  UNL     1       3.416  -2.357   1.866  1.00  0.00     0.172 HD
HETATM    3  C3  UNL     1       1.466  -2.066   2.017  1.00  0.00     0.197 C 
HETATM    4  N3  UNL     1       1.364  -3.138   2.945  1.00  0.00    -0.063 NA
HETATM    5  N4  UNL     1       0.290  -1.361   1.658  1.00  0.00    -0.312 N 
ATOM      6  H4  UNL     1      -0.354  -1.772   0.983  1.00  0.00     0.170 HD
ENDROOT
BRANCH   5   7
HETATM    7  C4  UNL     1       0.016  -0.192   2.176  1.00  0.00     0.175 A 
HETATM    8  N5  UNL     1       0.889   0.741   2.577  1.00  0.00    -0.222 N 
HETATM    9  O2  UNL     1       0.225   1.752   3.031  1.00  0.00    -0.153 OA
ATOM     10  H5  UNL     1       1.905   0.667   2.531  1.00  0.00     0.198 HD
HETATM   11  N6  UNL     1      -1.050   1.525   2.948  1.00  0.00    -0.222 N 
HETATM   12  C5  UNL     1      -1.229   0.306   2.412  1.00  0.00     0.167 A 
ATOM     13  H6  UNL     1      -1.791   2.164   3.239  1.00  0.00     0.198 HD
BRANCH  12  14
HETATM   14  N7  UNL     1      -2.386  -0.232   2.191  1.00  0.00    -0.381 N 
ATOM     15  H72 UNL     1      -2.921  -0.109   1.331  1.00  0.00     0.157 HD
ATOM     16  H71 UNL     1      -2.946  -0.838   2.791  1.00  0.00     0.157 HD
ENDBRANCH  12  14
ENDBRANCH   5   7
BRANCH   1  17
HETATM   17  C2  UNL     1       2.887  -0.761   0.623  1.00  0.00     0.218 C 
HETATM   18  N1  UNL     1       3.770   0.139   0.903  1.00  0.00    -0.365 N 
ATOM     19  H12 UNL     1       3.957   0.885   0.233  1.00  0.00     0.159 HD
ATOM     20  H11 UNL     1       4.245   0.051   1.802  1.00  0.00     0.159 HD
BRANCH  17  21
HETATM   21  O1  UNL     1       2.241  -0.641  -0.601  1.00  0.00    -0.327 OA
HETATM   22  C1  UNL     1       2.175   0.646  -1.174  1.00  0.00     0.213 C 
ENDBRANCH  17  21
ENDBRANCH   1  17
TORSDOF 4
ENDMDL
MODEL 2
REMARK VINA RESULT: -6.790690509      1.036      1.155
REMARK  4 active torsions:
REMARK  status: ('A' for Active; 'I' for Inactive)
REMARK    1  A    between atoms: O1_2  and  C2_3 
REMARK    2  A    between atoms: C2_3  and  N2_7 
REMARK       I    between atoms: C3_9  and  N4_11 
REMARK    3  A    between atoms: N4_11  and  C4_13 
REMARK    4  A    between atoms: C5_19  and  N7_20 
ROOT
HETATM    1  N2  UNL     1       2.534  -1.682   1.231  1.00  0.00    -0.296 N 
ATOM      2  H2  UNL     1       3.394  -2.190   1.440  1.00  0.00     0.172 HD
HETATM    3  C3  UNL     1       1.471  -2.012   1.868  1.00  0.00     0.197 C 
HETATM    4  N3  UNL     1       1.574  -3.064   2.820  1.00  0.00    -0.063 NA
HETATM    5  N4  UNL     1       0.214  -1.388   1.673  1.00  0.00    -0.312 N 
ATOM      6  H4  UNL     1      -0.494  -1.855   1.106  1.00  0.00     0.170 HD
ENDROOT
BRANCH   5   7
HETATM    7  C4  UNL     1      -0.055  -0.225   2.206  1.00  0.00     0.175 A 
HETATM    8  N5  UNL     1       0.821   0.678   2.664  1.00  0.00    -0.222 N 
HETATM    9  O2  UNL     1       0.161   1.694   3.113  1.00  0.00    -0.153 OA
ATOM     10  H5  UNL     1       1.836   0.581   2.660  1.00  0.00     0.198 HD
HETATM   11  N6  UNL     1      -1.114   1.500   2.971  1.00  0.00    -0.222 N 
HETATM   12  C5  UNL     1      -1.297   0.297   2.400  1.00  0.00     0.167 A 
ATOM     13  H6  UNL     1      -1.851   2.149   3.245  1.00  0.00     0.198 HD
BRANCH  12  14
HETATM   14  N7  UNL     1      -2.456  -0.208   2.118  1.00  0.00    -0.381 N 
ATOM     15  H72 UNL     1      -2.689  -1.197   2.209  1.00  0.00     0.157 HD
ATOM     16  H71 UNL     1      -3.299   0.253   1.775  1.00  0.00     0.157 HD
ENDBRANCH  12  14
ENDBRANCH   5   7
BRANCH   1  17
HETATM   17  C2  UNL     1       2.591  -0.661   0.260  1.00  0.00     0.218 C 
HETATM   18  N1  UNL     1       2.555  -0.971  -0.993  1.00  0.00    -0.365 N 
ATOM     19  H12 UNL     1       2.595  -0.231  -1.695  1.00  0.00     0.159 HD
ATOM     20  H11 UNL     1       2.485  -1.963  -1.218  1.00  0.00     0.159 HD
BRANCH  17  21
HETATM   21  O1  UNL     1       2.685   0.691   0.566  1.00  0.00    -0.327 OA
HETATM   22  C1  UNL     1       3.891   1.142   1.140  1.00  0.00     0.213 C 
ENDBRANCH  17  21
ENDBRANCH   1  17
TORSDOF 4
ENDMDL
MODEL 3
REMARK VINA RESULT: -6.387653632      1.938      3.845
REMARK  4 active torsions:
REMARK  status: ('A' for Active; 'I' for Inactive)
REMARK    1  A    between atoms: O1_2  and  C2_3 
REMARK    2  A    between atoms: C2_3  and  N2_7 
REMARK       I    between atoms: C3_9  and  N4_11 
REMARK    3  A    between atoms: N4_11  and  C4_13 
REMARK    4  A    between atoms: C5_19  and  N7_20 
ROOT
HETATM    1  N2  UNL     1       0.288   1.385   0.839  1.00  0.00    -0.296 N 
ATOM      2  H2  UNL     1      -0.435   1.864   0.302  1.00  0.00     0.172 HD
HETATM    3  C3  UNL     1      -0.054   0.824   1.940  1.00  0.00     0.197 C 
HETATM    4  N3  UNL     1      -1.418   0.913   2.329  1.00  0.00    -0.063 NA
HETATM    5  N4  UNL     1       0.851   0.128   2.779  1.00  0.00    -0.312 N 
ATOM      6  H4  UNL     1       1.209   0.585   3.618  1.00  0.00     0.170 HD
ENDROOT
BRANCH   5   7
HETATM    7  C4  UNL     1       1.237  -1.089   2.499  1.00  0.00     0.175 A 
HETATM    8  N5  UNL     1       0.604  -1.980   1.724  1.00  0.00    -0.222 N 
HETATM    9  O2  UNL     1       1.305  -3.066   1.696  1.00  0.00    -0.153 OA
ATOM     10  H5  UNL     1      -0.280  -1.828   1.239  1.00  0.00     0.198 HD
HETATM   11  N6  UNL     1       2.373  -2.929   2.421  1.00  0.00    -0.222 N 
HETATM   12  C5  UNL     1       2.371  -1.692   2.948  1.00  0.00     0.167 A 
ATOM     13  H6  UNL     1       3.091  -3.638   2.565  1.00  0.00     0.198 HD
BRANCH  12  14
HETATM   14  N7  UNL     1       3.298  -1.229   3.724  1.00  0.00    -0.381 N 
ATOM     15  H72 UNL     1       3.179  -0.431   4.348  1.00  0.00     0.157 HD
ATOM     16  H71 UNL     1       4.258  -1.550   3.852  1.00  0.00     0.157 HD
ENDBRANCH  12  14
ENDBRANCH   5   7
BRANCH   1  17
HETATM   17  C2  UNL     1       1.600   1.381   0.321  1.00  0.00     0.218 C 
HETATM   18  N1  UNL     1       1.807   0.972  -0.886  1.00  0.00    -0.365 N 
ATOM     19  H12 UNL     1       2.757   0.970  -1.260  1.00  0.00     0.159 HD
ATOM     20  H11 UNL     1       0.989   0.666  -1.413  1.00  0.00     0.159 HD
BRANCH  17  21
HETATM   21  O1  UNL     1       2.714   1.798   1.038  1.00  0.00    -0.327 OA
HETATM   22  C1  UNL     1       3.881   1.013   0.935  1.00  0.00     0.213 C 
ENDBRANCH  17  21
ENDBRANCH   1  17
TORSDOF 4
ENDMDL
MODEL 4
REMARK VINA RESULT: -6.073186931      1.850      3.670
REMARK  4 active torsions:
REMARK  status: ('A' for Active; 'I' for Inactive)
REMARK    1  A    between atoms: O1_2  and  C2_3 
REMARK    2  A    between atoms: C2_3  and  N2_7 
REMARK       I    between atoms: C3_9  and  N4_11 
REMARK    3  A    between atoms: N4_11  and  C4_13 
REMARK    4  A    between atoms: C5_19  and  N7_20 
ROOT
HETATM    1  N2  UNL     1       0.663   1.492   0.612  1.00  0.00    -0.296 N 
ATOM      2  H2  UNL     1      -0.018   2.023   0.069  1.00  0.00     0.172 HD
HETATM    3  C3  UNL     1       0.346   1.154   1.808  1.00  0.00     0.197 C 
HETATM    4  N3  UNL     1      -0.934   1.546   2.286  1.00  0.00    -0.063 NA
HETATM    5  N4  UNL     1       1.200   0.418   2.667  1.00  0.00    -0.312 N 
ATOM      6  H4  UNL     1       1.717   0.907   3.398  1.00  0.00     0.170 HD
ENDROOT
BRANCH   5   7
HETATM    7  C4  UNL     1       1.337  -0.876   2.540  1.00  0.00     0.175 A 
HETATM    8  N5  UNL     1       0.468  -1.731   1.986  1.00  0.00    -0.222 N 
HETATM    9  O2  UNL     1       0.969  -2.921   2.053  1.00  0.00    -0.153 OA
ATOM     10  H5  UNL     1      -0.434  -1.486   1.579  1.00  0.00     0.198 HD
HETATM   11  N6  UNL     1       2.131  -2.886   2.630  1.00  0.00    -0.222 N 
HETATM   12  C5  UNL     1       2.404  -1.611   2.955  1.00  0.00     0.167 A 
ATOM     13  H6  UNL     1       2.735  -3.690   2.806  1.00  0.00     0.198 HD
BRANCH  12  14
HETATM   14  N7  UNL     1       3.490  -1.225   3.546  1.00  0.00    -0.381 N 
ATOM     15  H72 UNL     1       3.540  -0.934   4.522  1.00  0.00     0.157 HD
ATOM     16  H71 UNL     1       4.437  -1.145   3.176  1.00  0.00     0.157 HD
ENDBRANCH  12  14
ENDBRANCH   5   7
BRANCH   1  17
HETATM   17  C2  UNL     1       1.893   1.176  -0.001  1.00  0.00     0.218 C 
HETATM   18  N1  UNL     1       2.988   1.665   0.477  1.00  0.00    -0.365 N 
ATOM     19  H12 UNL     1       3.877   1.437   0.033  1.00  0.00     0.159 HD
ATOM     20  H11 UNL     1       2.900   2.270   1.295  1.00  0.00     0.159 HD
BRANCH  17  21
HETATM   21  O1  UNL     1       2.012   0.353  -1.114  1.00  0.00    -0.327 OA
HETATM   22  C1  UNL     1       2.667  -0.883  -0.937  1.00  0.00     0.213 C 
ENDBRANCH  17  21
ENDBRANCH   1  17
TORSDOF 4
ENDMDL
MODEL 5
REMARK VINA RESULT: -5.823483808      1.993      4.271
REMARK  4 active torsions:
REMARK  status: ('A' for Active; 'I' for Inactive)
REMARK    1  A    between atoms: O1_2  and  C2_3 
REMARK    2  A    between atoms: C2_3  and  N2_7 
REMARK       I    between atoms: C3_9  and  N4_11 
REMARK    3  A    between atoms: N4_11  and  C4_13 
REMARK    4  A    between atoms: C5_19  and  N7_20 
ROOT
HETATM    1  N2  UNL     1       0.528   1.426   0.618  1.00  0.00    -0.296 N 
ATOM      2  H2  UNL     1       0.333   2.314   0.154  1.00  0.00     0.172 HD
HETATM    3  C3  UNL     1       1.483   0.705   0.156  1.00  0.00     0.197 C 
HETATM    4  N3  UNL     1       2.199   1.200  -0.968  1.00  0.00    -0.063 NA
HETATM    5  N4  UNL     1       1.856  -0.546   0.706  1.00  0.00    -0.312 N 
ATOM      6  H4  UNL     1       1.556  -1.405   0.244  1.00  0.00     0.170 HD
ENDROOT
BRANCH   5   7
HETATM    7  C4  UNL     1       2.578  -0.621   1.793  1.00  0.00     0.175 A 
HETATM    8  N5  UNL     1       3.477   0.269   2.231  1.00  0.00    -0.222 N 
HETATM    9  O2  UNL     1       3.976  -0.167   3.341  1.00  0.00    -0.153 OA
ATOM     10  H5  UNL     1       3.727   1.143   1.768  1.00  0.00     0.198 HD
HETATM   11  N6  UNL     1       3.443  -1.309   3.653  1.00  0.00    -0.222 N 
HETATM   12  C5  UNL     1       2.552  -1.635   2.701  1.00  0.00     0.167 A 
ATOM     13  H6  UNL     1       3.663  -1.864   4.480  1.00  0.00     0.198 HD
BRANCH  12  14
HETATM   14  N7  UNL     1       1.841  -2.718   2.707  1.00  0.00    -0.381 N 
ATOM     15  H72 UNL     1       1.779  -3.359   3.498  1.00  0.00     0.157 HD
ATOM     16  H71 UNL     1       1.249  -3.109   1.975  1.00  0.00     0.157 HD
ENDBRANCH  12  14
ENDBRANCH   5   7
BRANCH   1  17
HETATM   17  C2  UNL     1      -0.270   1.071   1.724  1.00  0.00     0.218 C 
HETATM   18  N1  UNL     1      -0.416   1.906   2.698  1.00  0.00    -0.365 N 
ATOM     19  H12 UNL     1      -0.993   1.649   3.499  1.00  0.00     0.159 HD
ATOM     20  H11 UNL     1       0.067   2.801   2.611  1.00  0.00     0.159 HD
BRANCH  17  21
HETATM   21  O1  UNL     1      -0.927  -0.146   1.844  1.00  0.00    -0.327 OA
HETATM   22  C1  UNL     1      -2.281  -0.115   2.237  1.00  0.00     0.213 C 
ENDBRANCH  17  21
ENDBRANCH   1  17
TORSDOF 4
ENDMDL
