MODEL 1
REMARK VINA RESULT: -7.128666437      0.000      0.000
REMARK  4 active torsions:
REMARK  status: ('A' for Active; 'I' for Inactive)
REMARK    1  A    between atoms: O1_2  and  C2_3 
REMARK    2  A    between atoms: C3_4  and  O2_5 
REMARK    3  A    between atoms: C4_7  and  C5_8 
REMARK    4  A    between atoms: C5_8  and  O3_11 
ROOT
HETATM    1  C2  UNL     1     -13.060 -11.048 -11.433  1.00  0.00     0.129 A 
HETATM    2  C3  UNL     1     -13.146  -9.702 -11.228  1.00  0.00     0.111 A 
HETATM    3  C4  UNL     1     -14.330  -8.950 -11.419  1.00  0.00     0.018 A 
HETATM    4  C9  UNL     1     -15.405  -9.692 -11.825  1.00  0.00    -0.034 A 
HETATM    5  C10 UNL     1     -16.816  -9.200 -11.904  1.00  0.00     0.050 C 
HETATM    6  C11 UNL     1     -15.344 -11.087 -12.051  1.00  0.00     0.046 A 
HETATM    7  C12 UNL     1     -14.151 -11.761 -11.847  1.00  0.00     0.080 A 
HETATM    8  N1  UNL     1     -14.132 -13.161 -12.085  1.00  0.00    -0.378 N 
ATOM      9  H1  UNL     1     -13.224 -13.595 -12.250  1.00  0.00     0.160 HD
HETATM   10  C13 UNL     1     -15.285 -14.017 -12.111  1.00  0.00     0.030 C 
HETATM   11  C14 UNL     1     -15.251 -14.909 -13.339  1.00  0.00     0.038 C 
HETATM   12  C15 UNL     1     -15.213 -14.863 -10.840  1.00  0.00     0.038 C 
HETATM   13  C16 UNL     1     -16.605 -13.289 -12.130  1.00  0.00     0.114 C 
HETATM   14  C17 UNL     1     -16.459 -11.874 -12.538  1.00  0.00     0.164 C 
HETATM   15  O4  UNL     1     -17.292 -11.360 -13.300  1.00  0.00    -0.292 OA
ENDROOT
BRANCH   3  16
HETATM   16  C5  UNL     1     -14.354  -7.542 -11.123  1.00  0.00     0.083 C 
HETATM   17  C6  UNL     1     -15.481  -6.846 -11.979  1.00  0.00     0.051 C 
HETATM   18  C7  UNL     1     -14.832  -7.211  -9.703  1.00  0.00     0.051 C 
BRANCH  16  19
HETATM   19  O3  UNL     1     -13.278  -6.732 -11.285  1.00  0.00    -0.381 OA
HETATM   20  C8  UNL     1     -13.444  -5.405 -10.893  1.00  0.00     0.203 C 
ENDBRANCH  16  19
ENDBRANCH   3  16
BRANCH   2  21
HETATM   21  O2  UNL     1     -12.008  -9.067 -10.813  1.00  0.00    -0.357 OA
ATOM     22  H2  UNL     1     -11.186  -9.383 -11.169  1.00  0.00     0.217 HD
ENDBRANCH   2  21
BRANCH   1  23
HETATM   23  O1  UNL     1     -11.872 -11.732 -11.229  1.00  0.00    -0.351 OA
HETATM   24  C1  UNL     1     -11.463 -12.231  -9.984  1.00  0.00     0.210 C 
ENDBRANCH   1  23
TORSDOF 4
ENDMDL
MODEL 2
REMARK VINA RESULT: -7.072804855      2.178      5.342
REMARK  4 active torsions:
REMARK  status: ('A' for Active; 'I' for Inactive)
REMARK    1  A    between atoms: O1_2  and  C2_3 
REMARK    2  A    between atoms: C3_4  and  O2_5 
REMARK    3  A    between atoms: C4_7  and  C5_8 
REMARK    4  A    between atoms: C5_8  and  O3_11 
ROOT
HETATM    1  C2  UNL     1     -15.837 -12.312 -12.598  1.00  0.00     0.129 A 
HETATM    2  C3  UNL     1     -17.178 -12.179 -12.816  1.00  0.00     0.111 A 
HETATM    3  C4  UNL     1     -17.905 -10.995 -12.545  1.00  0.00     0.018 A 
HETATM    4  C9  UNL     1     -17.145  -9.973 -12.045  1.00  0.00    -0.034 A 
HETATM    5  C10 UNL     1     -17.605  -8.561 -11.865  1.00  0.00     0.050 C 
HETATM    6  C11 UNL     1     -15.756 -10.085 -11.805  1.00  0.00     0.046 A 
HETATM    7  C12 UNL     1     -15.106 -11.275 -12.090  1.00  0.00     0.080 A 
HETATM    8  N1  UNL     1     -13.711 -11.345 -11.834  1.00  0.00    -0.378 N 
ATOM      9  H1  UNL     1     -13.301 -12.274 -11.734  1.00  0.00     0.160 HD
HETATM   10  C13 UNL     1     -12.829 -10.219 -11.706  1.00  0.00     0.030 C 
HETATM   11  C14 UNL     1     -11.960 -10.370 -10.471  1.00  0.00     0.038 C 
HETATM   12  C15 UNL     1     -11.965 -10.213 -12.965  1.00  0.00     0.038 C 
HETATM   13  C16 UNL     1     -13.527  -8.887 -11.595  1.00  0.00     0.114 C 
HETATM   14  C17 UNL     1     -14.952  -9.030 -11.221  1.00  0.00     0.164 C 
HETATM   15  O4  UNL     1     -15.460  -8.247 -10.404  1.00  0.00    -0.292 OA
ENDROOT
BRANCH   3  16
HETATM   16  C5  UNL     1     -19.306 -10.913 -12.859  1.00  0.00     0.083 C 
HETATM   17  C6  UNL     1     -20.150 -11.414 -11.625  1.00  0.00     0.051 C 
HETATM   18  C7  UNL     1     -19.833  -9.479 -12.998  1.00  0.00     0.051 C 
BRANCH  16  19
HETATM   19  O3  UNL     1     -19.868 -11.553 -13.915  1.00  0.00    -0.381 OA
HETATM   20  C8  UNL     1     -21.164 -12.028 -13.728  1.00  0.00     0.203 C 
ENDBRANCH  16  19
ENDBRANCH   3  16
BRANCH   2  21
HETATM   21  O2  UNL     1     -17.832 -13.265 -13.328  1.00  0.00    -0.357 OA
ATOM     22  H2  UNL     1     -17.334 -14.070 -13.401  1.00  0.00     0.217 HD
ENDBRANCH   2  21
BRANCH   1  23
HETATM   23  O1  UNL     1     -15.178 -13.498 -12.885  1.00  0.00    -0.351 OA
HETATM   24  C1  UNL     1     -15.016 -14.542 -11.963  1.00  0.00     0.210 C 
ENDBRANCH   1  23
TORSDOF 4
ENDMDL
MODEL 3
REMARK VINA RESULT: -6.814742058      2.462      4.183
REMARK  4 active torsions:
REMARK  status: ('A' for Active; 'I' for Inactive)
REMARK    1  A    between atoms: O1_2  and  C2_3 
REMARK    2  A    between atoms: C3_4  and  O2_5 
REMARK    3  A    between atoms: C4_7  and  C5_8 
REMARK    4  A    between atoms: C5_8  and  O3_11 
ROOT
HETATM    1  C2  UNL     1     -16.297 -12.674 -12.837  1.00  0.00     0.129 A 
HETATM    2  C3  UNL     1     -15.125 -12.171 -12.349  1.00  0.00     0.111 A 
HETATM    3  C4  UNL     1     -14.977 -10.850 -11.864  1.00  0.00     0.018 A 
HETATM    4  C9  UNL     1     -16.122 -10.102 -11.917  1.00  0.00    -0.034 A 
HETATM    5  C10 UNL     1     -16.306  -8.756 -11.289  1.00  0.00     0.050 C 
HETATM    6  C11 UNL     1     -17.347 -10.594 -12.422  1.00  0.00     0.046 A 
HETATM    7  C12 UNL     1     -17.422 -11.898 -12.884  1.00  0.00     0.080 A 
HETATM    8  N1  UNL     1     -18.672 -12.353 -13.383  1.00  0.00    -0.378 N 
ATOM      9  H1  UNL     1     -18.660 -13.165 -14.001  1.00  0.00     0.160 HD
HETATM   10  C13 UNL     1     -19.949 -11.767 -13.089  1.00  0.00     0.030 C 
HETATM   11  C14 UNL     1     -20.744 -11.570 -14.368  1.00  0.00     0.038 C 
HETATM   12  C15 UNL     1     -20.665 -12.754 -12.168  1.00  0.00     0.038 C 
HETATM   13  C16 UNL     1     -19.881 -10.428 -12.400  1.00  0.00     0.114 C 
HETATM   14  C17 UNL     1     -18.550  -9.795 -12.538  1.00  0.00     0.164 C 
HETATM   15  O4  UNL     1     -18.464  -8.576 -12.755  1.00  0.00    -0.292 OA
ENDROOT
BRANCH   3  16
HETATM   16  C5  UNL     1     -13.723 -10.414 -11.310  1.00  0.00     0.083 C 
HETATM   17  C6  UNL     1     -13.566  -8.860 -11.526  1.00  0.00     0.051 C 
HETATM   18  C7  UNL     1     -13.656 -10.495  -9.779  1.00  0.00     0.051 C 
BRANCH  16  19
HETATM   19  O3  UNL     1     -12.525 -10.918 -11.699  1.00  0.00    -0.381 OA
HETATM   20  C8  UNL     1     -11.905 -10.271 -12.766  1.00  0.00     0.203 C 
ENDBRANCH  16  19
ENDBRANCH   3  16
BRANCH   2  21
HETATM   21  O2  UNL     1     -14.049 -13.015 -12.337  1.00  0.00    -0.357 OA
ATOM     22  H2  UNL     1     -13.222 -12.659 -12.639  1.00  0.00     0.217 HD
ENDBRANCH   2  21
BRANCH   1  23
HETATM   23  O1  UNL     1     -16.382 -13.978 -13.297  1.00  0.00    -0.351 OA
HETATM   24  C1  UNL     1     -16.738 -15.068 -12.491  1.00  0.00     0.210 C 
ENDBRANCH   1  23
TORSDOF 4
ENDMDL
MODEL 4
REMARK VINA RESULT: -6.771962887      2.308      5.245
REMARK  4 active torsions:
REMARK  status: ('A' for Active; 'I' for Inactive)
REMARK    1  A    between atoms: O1_2  and  C2_3 
REMARK    2  A    between atoms: C3_4  and  O2_5 
REMARK    3  A    between atoms: C4_7  and  C5_8 
REMARK    4  A    between atoms: C5_8  and  O3_11 
ROOT
HETATM    1  C2  UNL     1     -16.003 -11.851 -11.267  1.00  0.00     0.129 A 
HETATM    2  C3  UNL     1     -17.312 -11.782 -11.649  1.00  0.00     0.111 A 
HETATM    3  C4  UNL     1     -17.977 -10.573 -11.963  1.00  0.00     0.018 A 
HETATM    4  C9  UNL     1     -17.191  -9.459 -11.861  1.00  0.00    -0.034 A 
HETATM    5  C10 UNL     1     -17.569  -8.087 -12.326  1.00  0.00     0.050 C 
HETATM    6  C11 UNL     1     -15.835  -9.500 -11.463  1.00  0.00     0.046 A 
HETATM    7  C12 UNL     1     -15.246 -10.718 -11.167  1.00  0.00     0.080 A 
HETATM    8  N1  UNL     1     -13.882 -10.716 -10.772  1.00  0.00    -0.378 N 
ATOM      9  H1  UNL     1     -13.542 -11.529 -10.257  1.00  0.00     0.160 HD
HETATM   10  C13 UNL     1     -12.939  -9.665 -11.037  1.00  0.00     0.030 C 
HETATM   11  C14 UNL     1     -12.176  -9.310  -9.774  1.00  0.00     0.038 C 
HETATM   12  C15 UNL     1     -11.984 -10.212 -12.097  1.00  0.00     0.038 C 
HETATM   13  C16 UNL     1     -13.553  -8.389 -11.556  1.00  0.00     0.114 C 
HETATM   14  C17 UNL     1     -15.008  -8.322 -11.294  1.00  0.00     0.164 C 
HETATM   15  O4  UNL     1     -15.523  -7.254 -10.928  1.00  0.00    -0.292 OA
ENDROOT
BRANCH   3  16
HETATM   16  C5  UNL     1     -19.343 -10.590 -12.415  1.00  0.00     0.083 C 
HETATM   17  C6  UNL     1     -19.466 -11.523 -13.679  1.00  0.00     0.051 C 
HETATM   18  C7  UNL     1     -20.312 -11.289 -11.452  1.00  0.00     0.051 C 
BRANCH  16  19
HETATM   19  O3  UNL     1     -20.019  -9.469 -12.774  1.00  0.00    -0.381 OA
HETATM   20  C8  UNL     1     -21.349  -9.647 -13.149  1.00  0.00     0.203 C 
ENDBRANCH  16  19
ENDBRANCH   3  16
BRANCH   2  21
HETATM   21  O2  UNL     1     -17.997 -12.964 -11.724  1.00  0.00    -0.357 OA
ATOM     22  H2  UNL     1     -18.899 -12.919 -12.018  1.00  0.00     0.217 HD
ENDBRANCH   2  21
BRANCH   1  23
HETATM   23  O1  UNL     1     -15.405 -13.066 -10.972  1.00  0.00    -0.351 OA
HETATM   24  C1  UNL     1     -14.784 -13.882 -11.928  1.00  0.00     0.210 C 
ENDBRANCH   1  23
TORSDOF 4
ENDMDL
MODEL 5
REMARK VINA RESULT: -6.751527433      1.953      4.148
REMARK  4 active torsions:
REMARK  status: ('A' for Active; 'I' for Inactive)
REMARK    1  A    between atoms: O1_2  and  C2_3 
REMARK    2  A    between atoms: C3_4  and  O2_5 
REMARK    3  A    between atoms: C4_7  and  C5_8 
REMARK    4  A    between atoms: C5_8  and  O3_11 
ROOT
HETATM    1  C2  UNL     1     -16.964 -12.287 -13.199  1.00  0.00     0.129 A 
HETATM    2  C3  UNL     1     -16.493 -11.109 -12.695  1.00  0.00     0.111 A 
HETATM    3  C4  UNL     1     -15.447 -11.021 -11.747  1.00  0.00     0.018 A 
HETATM    4  C9  UNL     1     -14.928 -12.230 -11.372  1.00  0.00    -0.034 A 
HETATM    5  C10 UNL     1     -13.691 -12.424 -10.551  1.00  0.00     0.050 C 
HETATM    6  C11 UNL     1     -15.399 -13.466 -11.873  1.00  0.00     0.046 A 
HETATM    7  C12 UNL     1     -16.429 -13.480 -12.798  1.00  0.00     0.080 A 
HETATM    8  N1  UNL     1     -16.872 -14.742 -13.277  1.00  0.00    -0.378 N 
ATOM      9  H1  UNL     1     -17.805 -14.784 -13.688  1.00  0.00     0.160 HD
HETATM   10  C13 UNL     1     -16.117 -15.962 -13.230  1.00  0.00     0.030 C 
HETATM   11  C14 UNL     1     -16.973 -17.090 -12.683  1.00  0.00     0.038 C 
HETATM   12  C15 UNL     1     -15.707 -16.260 -14.672  1.00  0.00     0.038 C 
HETATM   13  C16 UNL     1     -14.874 -15.898 -12.380  1.00  0.00     0.114 C 
HETATM   14  C17 UNL     1     -14.897 -14.755 -11.440  1.00  0.00     0.164 C 
HETATM   15  O4  UNL     1     -14.488 -14.899 -10.278  1.00  0.00    -0.292 OA
ENDROOT
BRANCH   3  16
HETATM   16  C5  UNL     1     -14.967  -9.737 -11.309  1.00  0.00     0.083 C 
HETATM   17  C6  UNL     1     -14.931  -9.700  -9.734  1.00  0.00     0.051 C 
HETATM   18  C7  UNL     1     -13.489  -9.480 -11.632  1.00  0.00     0.051 C 
BRANCH  16  19
HETATM   19  O3  UNL     1     -15.565  -8.568 -11.647  1.00  0.00    -0.381 OA
HETATM   20  C8  UNL     1     -15.230  -7.460 -10.871  1.00  0.00     0.203 C 
ENDBRANCH  16  19
ENDBRANCH   3  16
BRANCH   2  21
HETATM   21  O2  UNL     1     -17.084  -9.963 -13.151  1.00  0.00    -0.357 OA
ATOM     22  H2  UNL     1     -18.029  -9.975 -13.244  1.00  0.00     0.217 HD
ENDBRANCH   2  21
BRANCH   1  23
HETATM   23  O1  UNL     1     -17.993 -12.311 -14.128  1.00  0.00    -0.351 OA
HETATM   24  C1  UNL     1     -19.350 -12.222 -13.790  1.00  0.00     0.210 C 
ENDBRANCH   1  23
TORSDOF 4
ENDMDL
