MODEL 1
REMARK VINA RESULT: -9.788349333      0.000      0.000
REMARK  1 active torsions:
REMARK  status: ('A' for Active; 'I' for Inactive)
REMARK    1  A    between atoms: C3_4  and  C4_5 
ROOT
HETATM    1  F1  UNL     1     -10.038   4.526  10.945  1.00  0.00    -0.244 F 
HETATM    2  C1  UNL     1     -11.359   4.807  11.070  1.00  0.00     0.208 C 
HETATM    3  C2  UNL     1     -12.252   4.150  10.072  1.00  0.00     0.049 C 
HETATM    4  C3  UNL     1     -12.108   2.713   9.812  1.00  0.00     0.015 C 
HETATM    5  C14 UNL     1     -11.405   1.875  10.840  1.00  0.00     0.126 C 
HETATM    6  N1  UNL     1     -12.077   1.976  12.133  1.00  0.00    -0.374 N 
ATOM      7  H1  UNL     1     -12.510   1.140  12.526  1.00  0.00     0.161 HD
HETATM    8  C15 UNL     1     -12.154   3.207  12.876  1.00  0.00     0.126 A 
HETATM    9  N2  UNL     1     -12.558   3.307  14.169  1.00  0.00    -0.286 N 
ATOM     10  H2  UNL     1     -12.853   2.534  14.766  1.00  0.00     0.188 HD
HETATM   11  N3  UNL     1     -12.501   4.591  14.521  1.00  0.00    -0.310 N 
ATOM     12  H3  UNL     1     -12.750   4.952  15.442  1.00  0.00     0.186 HD
HETATM   13  C16 UNL     1     -12.067   5.348  13.489  1.00  0.00     0.121 A 
HETATM   14  C17 UNL     1     -11.849   4.490  12.461  1.00  0.00     0.037 A 
ENDROOT
BRANCH   4  15
HETATM   15  C4  UNL     1     -11.666   2.384   8.397  1.00  0.00    -0.034 C 
HETATM   16  C5  UNL     1     -10.774   3.403   7.781  1.00  0.00     0.014 C 
HETATM   17  C6  UNL     1     -10.492   2.974   6.358  1.00  0.00    -0.013 C 
HETATM   18  C7  UNL     1      -9.718   1.688   6.312  1.00  0.00     0.009 C 
HETATM   19  C11 UNL     1     -11.740   2.791   5.541  1.00  0.00     0.009 C 
HETATM   20  C8  UNL     1     -10.555   0.632   7.005  1.00  0.00    -0.013 C 
HETATM   21  C9  UNL     1     -11.826   0.393   6.261  1.00  0.00     0.009 C 
HETATM   22  C13 UNL     1     -10.878   1.080   8.418  1.00  0.00     0.014 C 
HETATM   23  C10 UNL     1     -12.574   1.699   6.167  1.00  0.00    -0.013 C 
HETATM   24  C12 UNL     1     -12.911   2.158   7.568  1.00  0.00     0.014 C 
ENDBRANCH   4  15
TORSDOF 1
ENDMDL
MODEL 2
REMARK VINA RESULT: -9.487052796      0.173      1.575
REMARK  1 active torsions:
REMARK  status: ('A' for Active; 'I' for Inactive)
REMARK    1  A    between atoms: C3_4  and  C4_5 
ROOT
HETATM    1  F1  UNL     1     -10.051   4.523  10.945  1.00  0.00    -0.244 F 
HETATM    2  C1  UNL     1     -11.373   4.805  11.055  1.00  0.00     0.208 C 
HETATM    3  C2  UNL     1     -12.263   4.091  10.095  1.00  0.00     0.049 C 
HETATM    4  C3  UNL     1     -12.113   2.641   9.915  1.00  0.00     0.015 C 
HETATM    5  C14 UNL     1     -11.406   1.865  10.987  1.00  0.00     0.126 C 
HETATM    6  N1  UNL     1     -12.078   2.034  12.272  1.00  0.00    -0.374 N 
ATOM      7  H1  UNL     1     -12.508   1.219  12.711  1.00  0.00     0.161 HD
HETATM    8  C15 UNL     1     -12.161   3.304  12.947  1.00  0.00     0.126 A 
HETATM    9  N2  UNL     1     -12.565   3.473  14.232  1.00  0.00    -0.286 N 
ATOM     10  H2  UNL     1     -12.858   2.733  14.871  1.00  0.00     0.188 HD
HETATM   11  N3  UNL     1     -12.514   4.775  14.513  1.00  0.00    -0.310 N 
ATOM     12  H3  UNL     1     -12.764   5.185  15.413  1.00  0.00     0.186 HD
HETATM   13  C16 UNL     1     -12.083   5.476  13.441  1.00  0.00     0.121 A 
HETATM   14  C17 UNL     1     -11.861   4.563  12.461  1.00  0.00     0.037 A 
ENDROOT
BRANCH   4  15
HETATM   15  C4  UNL     1     -11.669   2.237   8.520  1.00  0.00    -0.034 C 
HETATM   16  C5  UNL     1     -10.844   1.000   8.473  1.00  0.00     0.014 C 
HETATM   17  C6  UNL     1     -10.418   0.780   7.039  1.00  0.00    -0.013 C 
HETATM   18  C7  UNL     1     -11.596   0.505   6.149  1.00  0.00     0.009 C 
HETATM   19  C11 UNL     1      -9.666   1.946   6.462  1.00  0.00     0.009 C 
HETATM   20  C8  UNL     1     -12.512   1.709   6.228  1.00  0.00    -0.013 C 
HETATM   21  C9  UNL     1     -11.838   2.922   5.682  1.00  0.00     0.009 C 
HETATM   22  C13 UNL     1     -12.904   1.961   7.671  1.00  0.00     0.014 C 
HETATM   23  C10 UNL     1     -10.571   3.155   6.466  1.00  0.00    -0.013 C 
HETATM   24  C12 UNL     1     -10.943   3.415   7.909  1.00  0.00     0.014 C 
ENDBRANCH   4  15
TORSDOF 1
ENDMDL
MODEL 3
REMARK VINA RESULT: -9.145896322      0.254      1.659
REMARK  1 active torsions:
REMARK  status: ('A' for Active; 'I' for Inactive)
REMARK    1  A    between atoms: C3_4  and  C4_5 
ROOT
HETATM    1  F1  UNL     1     -10.102   4.428  10.841  1.00  0.00    -0.244 F 
HETATM    2  C1  UNL     1     -11.418   4.705  11.021  1.00  0.00     0.208 C 
HETATM    3  C2  UNL     1     -12.345   4.079  10.033  1.00  0.00     0.049 C 
HETATM    4  C3  UNL     1     -12.211   2.651   9.724  1.00  0.00     0.015 C 
HETATM    5  C14 UNL     1     -11.474   1.781  10.701  1.00  0.00     0.126 C 
HETATM    6  N1  UNL     1     -12.101   1.841  12.017  1.00  0.00    -0.374 N 
ATOM      7  H1  UNL     1     -12.521   0.993  12.399  1.00  0.00     0.161 HD
HETATM    8  C15 UNL     1     -12.152   3.048  12.802  1.00  0.00     0.126 A 
HETATM    9  N2  UNL     1     -12.511   3.107  14.110  1.00  0.00    -0.286 N 
ATOM     10  H2  UNL     1     -12.787   2.316  14.692  1.00  0.00     0.188 HD
HETATM   11  N3  UNL     1     -12.441   4.380  14.500  1.00  0.00    -0.310 N 
ATOM     12  H3  UNL     1     -12.659   4.711  15.440  1.00  0.00     0.186 HD
HETATM   13  C16 UNL     1     -12.043   5.169  13.478  1.00  0.00     0.121 A 
HETATM   14  C17 UNL     1     -11.860   4.343  12.417  1.00  0.00     0.037 A 
ENDROOT
BRANCH   4  15
HETATM   15  C4  UNL     1     -11.818   2.367   8.285  1.00  0.00    -0.034 C 
HETATM   16  C5  UNL     1     -12.967   2.127   7.371  1.00  0.00     0.014 C 
HETATM   17  C6  UNL     1     -12.412   1.781   6.007  1.00  0.00    -0.013 C 
HETATM   18  C7  UNL     1     -11.662   2.936   5.407  1.00  0.00     0.009 C 
HETATM   19  C11 UNL     1     -11.490   0.595   6.030  1.00  0.00     0.009 C 
HETATM   20  C8  UNL     1     -10.524   3.273   6.349  1.00  0.00    -0.013 C 
HETATM   21  C9  UNL     1      -9.560   2.139   6.440  1.00  0.00     0.009 C 
HETATM   22  C13 UNL     1     -11.074   3.575   7.730  1.00  0.00     0.014 C 
HETATM   23  C10 UNL     1     -10.307   0.917   6.912  1.00  0.00    -0.013 C 
HETATM   24  C12 UNL     1     -10.858   1.197   8.293  1.00  0.00     0.014 C 
ENDBRANCH   4  15
TORSDOF 1
ENDMDL
MODEL 4
REMARK VINA RESULT: -9.007032481      1.142      2.172
REMARK  1 active torsions:
REMARK  status: ('A' for Active; 'I' for Inactive)
REMARK    1  A    between atoms: C3_4  and  C4_5 
ROOT
HETATM    1  F1  UNL     1      -9.859   4.024  10.071  1.00  0.00    -0.244 F 
HETATM    2  C1  UNL     1     -11.194   4.204  10.230  1.00  0.00     0.208 C 
HETATM    3  C2  UNL     1     -12.044   3.730   9.099  1.00  0.00     0.049 C 
HETATM    4  C3  UNL     1     -11.821   2.390   8.543  1.00  0.00     0.015 C 
HETATM    5  C14 UNL     1     -11.081   1.389   9.382  1.00  0.00     0.126 C 
HETATM    6  N1  UNL     1     -11.766   1.179  10.654  1.00  0.00    -0.374 N 
ATOM      7  H1  UNL     1     -12.157   0.257  10.853  1.00  0.00     0.161 HD
HETATM    8  C15 UNL     1     -11.914   2.218  11.641  1.00  0.00     0.126 A 
HETATM    9  N2  UNL     1     -12.331   2.019  12.917  1.00  0.00    -0.286 N 
ATOM     10  H2  UNL     1     -12.589   1.123  13.331  1.00  0.00     0.188 HD
HETATM   11  N3  UNL     1     -12.345   3.200  13.536  1.00  0.00    -0.310 N 
ATOM     12  H3  UNL     1     -12.619   3.343  14.508  1.00  0.00     0.186 HD
HETATM   13  C16 UNL     1     -11.946   4.181  12.696  1.00  0.00     0.121 A 
HETATM   14  C17 UNL     1     -11.675   3.573  11.513  1.00  0.00     0.037 A 
ENDROOT
BRANCH   4  15
HETATM   15  C4  UNL     1     -11.353   2.393   7.099  1.00  0.00    -0.034 C 
HETATM   16  C5  UNL     1     -10.440   1.273   6.748  1.00  0.00     0.014 C 
HETATM   17  C6  UNL     1     -10.003   1.462   5.312  1.00  0.00    -0.013 C 
HETATM   18  C7  UNL     1     -11.160   1.343   4.362  1.00  0.00     0.009 C 
HETATM   19  C11 UNL     1      -9.340   2.788   5.069  1.00  0.00     0.009 C 
HETATM   20  C8  UNL     1     -12.161   2.418   4.734  1.00  0.00    -0.013 C 
HETATM   21  C9  UNL     1     -11.579   3.776   4.531  1.00  0.00     0.009 C 
HETATM   22  C13 UNL     1     -12.567   2.258   6.187  1.00  0.00     0.014 C 
HETATM   23  C10 UNL     1     -10.330   3.887   5.370  1.00  0.00    -0.013 C 
HETATM   24  C12 UNL     1     -10.717   3.738   6.825  1.00  0.00     0.014 C 
ENDBRANCH   4  15
TORSDOF 1
ENDMDL
MODEL 5
REMARK VINA RESULT: -8.549804448      1.545      2.018
REMARK  1 active torsions:
REMARK  status: ('A' for Active; 'I' for Inactive)
REMARK    1  A    between atoms: C3_4  and  C4_5 
ROOT
HETATM    1  F1  UNL     1     -13.050   2.140  12.280  1.00  0.00    -0.244 F 
HETATM    2  C1  UNL     1     -11.830   2.478  12.765  1.00  0.00     0.208 C 
HETATM    3  C2  UNL     1     -10.782   2.745  11.737  1.00  0.00     0.049 C 
HETATM    4  C3  UNL     1     -11.091   3.629  10.606  1.00  0.00     0.015 C 
HETATM    5  C14 UNL     1     -12.253   4.569  10.740  1.00  0.00     0.126 C 
HETATM    6  N1  UNL     1     -12.072   5.450  11.890  1.00  0.00    -0.374 N 
ATOM      7  H1  UNL     1     -11.968   6.452  11.727  1.00  0.00     0.161 HD
HETATM    8  C15 UNL     1     -12.033   4.965  13.245  1.00  0.00     0.126 A 
HETATM    9  N2  UNL     1     -12.097   5.749  14.351  1.00  0.00    -0.286 N 
ATOM     10  H2  UNL     1     -12.179   6.766  14.361  1.00  0.00     0.188 HD
HETATM   11  N3  UNL     1     -12.034   4.959  15.423  1.00  0.00    -0.310 N 
ATOM     12  H3  UNL     1     -12.061   5.287  16.388  1.00  0.00     0.186 HD
HETATM   13  C16 UNL     1     -11.928   3.664  15.052  1.00  0.00     0.121 A 
HETATM   14  C17 UNL     1     -11.928   3.662  13.695  1.00  0.00     0.037 A 
ENDROOT
BRANCH   4  15
HETATM   15  C4  UNL     1     -11.061   2.935   9.256  1.00  0.00    -0.034 C 
HETATM   16  C5  UNL     1     -10.179   3.586   8.252  1.00  0.00     0.014 C 
HETATM   17  C6  UNL     1     -10.321   2.830   6.949  1.00  0.00    -0.013 C 
HETATM   18  C7  UNL     1      -9.813   1.422   7.069  1.00  0.00     0.009 C 
HETATM   19  C11 UNL     1     -11.739   2.769   6.456  1.00  0.00     0.009 C 
HETATM   20  C8  UNL     1     -10.631   0.738   8.146  1.00  0.00    -0.013 C 
HETATM   21  C9  UNL     1     -12.063   0.643   7.741  1.00  0.00     0.009 C 
HETATM   22  C13 UNL     1     -10.527   1.520   9.442  1.00  0.00     0.014 C 
HETATM   23  C10 UNL     1     -12.576   2.036   7.477  1.00  0.00    -0.013 C 
HETATM   24  C12 UNL     1     -12.487   2.829   8.762  1.00  0.00     0.014 C 
ENDBRANCH   4  15
TORSDOF 1
ENDMDL
