MODEL 1
REMARK VINA RESULT: -5.450358594      0.000      0.000
REMARK  4 active torsions:
REMARK  status: ('A' for Active; 'I' for Inactive)
REMARK    1  A    between atoms: N1_2  and  C2_4 
REMARK    2  A    between atoms: C2_4  and  N2_6 
REMARK    3  A    between atoms: C5_9  and  N3_10 
REMARK    4  A    between atoms: C5_9  and  N4_14 
REMARK       I    between atoms: N4_14  and  C6_16 
ROOT
HETATM    1  N2  UNL     1     -17.540  12.527  34.208  1.00  0.00    -0.358 N 
HETATM    2  C3  UNL     1     -16.719  11.495  34.741  1.00  0.00     0.129 C 
HETATM    3  C4  UNL     1     -16.302  10.510  33.668  1.00  0.00     0.081 C 
HETATM    4  C5  UNL     1     -17.402  10.301  32.670  1.00  0.00     0.201 C 
HETATM    5  C7  UNL     1     -18.743  10.744  33.140  1.00  0.00     0.081 C 
HETATM    6  C8  UNL     1     -18.878  12.044  33.807  1.00  0.00     0.129 C 
ENDROOT
BRANCH   4   7
HETATM    7  N3  UNL     1     -17.084  11.156  31.512  1.00  0.00    -0.052 N 
ATOM      8  H33 UNL     1     -17.556  12.060  31.536  1.00  0.00     0.277 HD
ATOM      9  H32 UNL     1     -16.128  11.511  31.522  1.00  0.00     0.277 HD
ATOM     10  H31 UNL     1     -17.303  10.609  30.679  1.00  0.00     0.277 HD
ENDBRANCH   4   7
BRANCH   4  11
HETATM   11  N4  UNL     1     -17.457   8.956  32.194  1.00  0.00    -0.312 N 
HETATM   12  C6  UNL     1     -16.387   8.415  31.453  1.00  0.00     0.330 C 
HETATM   13  N5  UNL     1     -16.489   7.052  30.991  1.00  0.00    -0.040 NA
HETATM   14  O1  UNL     1     -15.324   9.009  31.143  1.00  0.00    -0.251 OA
ATOM     15  H4  UNL     1     -18.276   8.383  32.393  1.00  0.00     0.166 HD
ENDBRANCH   4  11
BRANCH   1  16
HETATM   16  C2  UNL     1     -17.209  13.873  34.008  1.00  0.00     0.169 C 
HETATM   17  S1  UNL     1     -15.621  14.271  34.457  1.00  0.00    -0.041 SA
BRANCH  16  18
HETATM   18  N1  UNL     1     -17.923  14.948  33.509  1.00  0.00    -0.371 N 
HETATM   19  C1  UNL     1     -18.833  15.761  34.232  1.00  0.00     0.148 C 
ATOM     20  H1  UNL     1     -17.782  15.177  32.525  1.00  0.00     0.161 HD
ENDBRANCH  16  18
ENDBRANCH   1  16
TORSDOF 4
ENDMDL
MODEL 2
REMARK VINA RESULT: -5.435051597      1.173      1.318
REMARK  4 active torsions:
REMARK  status: ('A' for Active; 'I' for Inactive)
REMARK    1  A    between atoms: N1_2  and  C2_4 
REMARK    2  A    between atoms: C2_4  and  N2_6 
REMARK    3  A    between atoms: C5_9  and  N3_10 
REMARK    4  A    between atoms: C5_9  and  N4_14 
REMARK       I    between atoms: N4_14  and  C6_16 
ROOT
HETATM    1  N2  UNL     1     -17.357  12.503  34.254  1.00  0.00    -0.358 N 
HETATM    2  C3  UNL     1     -16.599  11.409  34.758  1.00  0.00     0.129 C 
HETATM    3  C4  UNL     1     -16.238  10.433  33.657  1.00  0.00     0.081 C 
HETATM    4  C5  UNL     1     -17.346  10.318  32.653  1.00  0.00     0.201 C 
HETATM    5  C7  UNL     1     -18.660  10.826  33.135  1.00  0.00     0.081 C 
HETATM    6  C8  UNL     1     -18.720  12.112  33.839  1.00  0.00     0.129 C 
ENDROOT
BRANCH   4   7
HETATM    7  N3  UNL     1     -16.977  11.186  31.521  1.00  0.00    -0.052 N 
ATOM      8  H33 UNL     1     -17.775  11.475  30.956  1.00  0.00     0.277 HD
ATOM      9  H32 UNL     1     -16.679  12.119  31.807  1.00  0.00     0.277 HD
ATOM     10  H31 UNL     1     -16.267  10.681  30.988  1.00  0.00     0.277 HD
ENDBRANCH   4   7
BRANCH   4  11
HETATM   11  N4  UNL     1     -17.480   8.993  32.139  1.00  0.00    -0.312 N 
HETATM   12  C6  UNL     1     -16.441   8.410  31.385  1.00  0.00     0.330 C 
HETATM   13  N5  UNL     1     -16.623   7.069  30.884  1.00  0.00    -0.040 NA
HETATM   14  O1  UNL     1     -15.343   8.948  31.095  1.00  0.00    -0.251 OA
ATOM     15  H4  UNL     1     -18.333   8.464  32.320  1.00  0.00     0.166 HD
ENDBRANCH   4  11
BRANCH   1  16
HETATM   16  C2  UNL     1     -16.946  13.832  34.093  1.00  0.00     0.169 C 
HETATM   17  S1  UNL     1     -18.221  14.932  33.878  1.00  0.00    -0.041 SA
BRANCH  16  18
HETATM   18  N1  UNL     1     -15.698  14.431  34.080  1.00  0.00    -0.371 N 
HETATM   19  C1  UNL     1     -15.314  15.591  34.800  1.00  0.00     0.148 C 
ATOM     20  H1  UNL     1     -14.985  13.994  33.496  1.00  0.00     0.161 HD
ENDBRANCH  16  18
ENDBRANCH   1  16
TORSDOF 4
ENDMDL
MODEL 3
REMARK VINA RESULT: -5.311869372      2.491      3.426
REMARK  4 active torsions:
REMARK  status: ('A' for Active; 'I' for Inactive)
REMARK    1  A    between atoms: N1_2  and  C2_4 
REMARK    2  A    between atoms: C2_4  and  N2_6 
REMARK    3  A    between atoms: C5_9  and  N3_10 
REMARK    4  A    between atoms: C5_9  and  N4_14 
REMARK       I    between atoms: N4_14  and  C6_16 
ROOT
HETATM    1  N2  UNL     1     -18.776  12.037  34.692  1.00  0.00    -0.358 N 
HETATM    2  C3  UNL     1     -18.595  13.026  33.686  1.00  0.00     0.129 C 
HETATM    3  C4  UNL     1     -18.233  12.401  32.354  1.00  0.00     0.081 C 
HETATM    4  C5  UNL     1     -17.355  11.200  32.543  1.00  0.00     0.201 C 
HETATM    5  C7  UNL     1     -16.709  11.122  33.882  1.00  0.00     0.081 C 
HETATM    6  C8  UNL     1     -17.511  11.381  35.084  1.00  0.00     0.129 C 
ENDROOT
BRANCH   4   7
HETATM    7  N3  UNL     1     -18.235  10.020  32.458  1.00  0.00    -0.052 N 
ATOM      8  H33 UNL     1     -19.026  10.152  31.828  1.00  0.00     0.277 HD
ATOM      9  H32 UNL     1     -17.809   9.234  31.965  1.00  0.00     0.277 HD
ATOM     10  H31 UNL     1     -18.512   9.796  33.413  1.00  0.00     0.277 HD
ENDBRANCH   4   7
BRANCH   4  11
HETATM   11  N4  UNL     1     -16.379  11.070  31.509  1.00  0.00    -0.312 N 
HETATM   12  C6  UNL     1     -15.639   9.879  31.369  1.00  0.00     0.330 C 
HETATM   13  N5  UNL     1     -14.662   9.796  30.310  1.00  0.00    -0.040 NA
HETATM   14  O1  UNL     1     -15.742   8.853  32.088  1.00  0.00    -0.251 OA
ATOM     15  H4  UNL     1     -16.218  11.845  30.866  1.00  0.00     0.166 HD
ENDBRANCH   4  11
BRANCH   1  16
HETATM   16  C2  UNL     1     -19.974  11.626  35.289  1.00  0.00     0.169 C 
HETATM   17  S1  UNL     1     -21.104  12.875  35.510  1.00  0.00    -0.041 SA
BRANCH  16  18
HETATM   18  N1  UNL     1     -20.424  10.395  35.734  1.00  0.00    -0.371 N 
HETATM   19  C1  UNL     1     -20.686  10.031  37.079  1.00  0.00     0.148 C 
ATOM     20  H1  UNL     1     -20.582   9.680  35.024  1.00  0.00     0.161 HD
ENDBRANCH  16  18
ENDBRANCH   1  16
TORSDOF 4
ENDMDL
MODEL 4
REMARK VINA RESULT: -5.299080834      2.362      3.029
REMARK  4 active torsions:
REMARK  status: ('A' for Active; 'I' for Inactive)
REMARK    1  A    between atoms: N1_2  and  C2_4 
REMARK    2  A    between atoms: C2_4  and  N2_6 
REMARK    3  A    between atoms: C5_9  and  N3_10 
REMARK    4  A    between atoms: C5_9  and  N4_14 
REMARK       I    between atoms: N4_14  and  C6_16 
ROOT
HETATM    1  N2  UNL     1     -18.577  12.829  34.366  1.00  0.00    -0.358 N 
HETATM    2  C3  UNL     1     -18.032  13.362  33.165  1.00  0.00     0.129 C 
HETATM    3  C4  UNL     1     -17.915  12.299  32.091  1.00  0.00     0.081 C 
HETATM    4  C5  UNL     1     -17.547  10.972  32.684  1.00  0.00     0.201 C 
HETATM    5  C7  UNL     1     -16.990  11.053  34.062  1.00  0.00     0.081 C 
HETATM    6  C8  UNL     1     -17.650  11.908  35.056  1.00  0.00     0.129 C 
ENDROOT
BRANCH   4   7
HETATM    7  N3  UNL     1     -18.801  10.207  32.808  1.00  0.00    -0.052 N 
ATOM      8  H33 UNL     1     -18.826   9.602  33.629  1.00  0.00     0.277 HD
ATOM      9  H32 UNL     1     -19.605  10.786  33.052  1.00  0.00     0.277 HD
ATOM     10  H31 UNL     1     -18.920   9.700  31.930  1.00  0.00     0.277 HD
ENDBRANCH   4   7
BRANCH   4  11
HETATM   11  N4  UNL     1     -16.679  10.218  31.837  1.00  0.00    -0.312 N 
HETATM   12  C6  UNL     1     -15.509  10.803  31.311  1.00  0.00     0.330 C 
HETATM   13  N5  UNL     1     -14.664  10.003  30.457  1.00  0.00    -0.040 NA
HETATM   14  O1  UNL     1     -15.112  11.978  31.511  1.00  0.00    -0.251 OA
ATOM     15  H4  UNL     1     -16.907   9.250  31.612  1.00  0.00     0.166 HD
ENDBRANCH   4  11
BRANCH   1  16
HETATM   16  C2  UNL     1     -19.848  13.056  34.908  1.00  0.00     0.169 C 
HETATM   17  S1  UNL     1     -20.273  14.696  35.018  1.00  0.00    -0.041 SA
BRANCH  16  18
HETATM   18  N1  UNL     1     -20.834  12.201  35.371  1.00  0.00    -0.371 N 
HETATM   19  C1  UNL     1     -21.734  11.447  34.576  1.00  0.00     0.148 C 
ATOM     20  H1  UNL     1     -20.921  12.105  36.383  1.00  0.00     0.161 HD
ENDBRANCH  16  18
ENDBRANCH   1  16
TORSDOF 4
ENDMDL
MODEL 5
REMARK VINA RESULT: -5.243469377      2.963      4.345
REMARK  4 active torsions:
REMARK  status: ('A' for Active; 'I' for Inactive)
REMARK    1  A    between atoms: N1_2  and  C2_4 
REMARK    2  A    between atoms: C2_4  and  N2_6 
REMARK    3  A    between atoms: C5_9  and  N3_10 
REMARK    4  A    between atoms: C5_9  and  N4_14 
REMARK       I    between atoms: N4_14  and  C6_16 
ROOT
HETATM    1  N2  UNL     1     -16.508  12.433  33.244  1.00  0.00    -0.358 N 
HETATM    2  C3  UNL     1     -17.044  12.372  34.560  1.00  0.00     0.129 C 
HETATM    3  C4  UNL     1     -17.987  11.197  34.719  1.00  0.00     0.081 C 
HETATM    4  C5  UNL     1     -18.771  10.961  33.463  1.00  0.00     0.201 C 
HETATM    5  C7  UNL     1     -18.776  12.113  32.522  1.00  0.00     0.081 C 
HETATM    6  C8  UNL     1     -17.517  12.812  32.233  1.00  0.00     0.129 C 
ENDROOT
BRANCH   4   7
HETATM    7  N3  UNL     1     -18.093   9.866  32.746  1.00  0.00    -0.052 N 
ATOM      8  H33 UNL     1     -18.602   8.982  32.785  1.00  0.00     0.277 HD
ATOM      9  H32 UNL     1     -18.108   9.977  31.732  1.00  0.00     0.277 HD
ATOM     10  H31 UNL     1     -17.151   9.806  33.132  1.00  0.00     0.277 HD
ENDBRANCH   4   7
BRANCH   4  11
HETATM   11  N4  UNL     1     -20.105  10.525  33.728  1.00  0.00    -0.312 N 
HETATM   12  C6  UNL     1     -20.996  11.347  34.448  1.00  0.00     0.330 C 
HETATM   13  N5  UNL     1     -22.333  10.864  34.693  1.00  0.00    -0.040 NA
HETATM   14  O1  UNL     1     -20.743  12.488  34.911  1.00  0.00    -0.251 OA
ATOM     15  H4  UNL     1     -20.415   9.614  33.393  1.00  0.00     0.166 HD
ENDBRANCH   4  11
BRANCH   1  16
HETATM   16  C2  UNL     1     -15.198  12.154  32.834  1.00  0.00     0.169 C 
HETATM   17  S1  UNL     1     -14.007  12.630  33.946  1.00  0.00    -0.041 SA
BRANCH  16  18
HETATM   18  N1  UNL     1     -14.681  11.559  31.696  1.00  0.00    -0.371 N 
HETATM   19  C1  UNL     1     -15.048  10.296  31.167  1.00  0.00     0.148 C 
ATOM     20  H1  UNL     1     -13.966  12.081  31.189  1.00  0.00     0.161 HD
ENDBRANCH  16  18
ENDBRANCH   1  16
TORSDOF 4
ENDMDL
