MODEL 1
REMARK VINA RESULT: -6.641666459      0.000      0.000
REMARK  7 active torsions:
REMARK  status: ('A' for Active; 'I' for Inactive)
REMARK    1  A    between atoms: C2_2  and  N1_4 
REMARK       I    between atoms: N1_4  and  C4_6 
REMARK       I    between atoms: C4_6  and  N2_8 
REMARK    2  A    between atoms: N2_8  and  C5_10 
REMARK    3  A    between atoms: C6_11  and  C7_12 
REMARK    4  A    between atoms: C7_12  and  N3_15 
REMARK    5  A    between atoms: N3_15  and  C10_17 
REMARK    6  A    between atoms: N5_27  and  C17_28 
REMARK    7  A    between atoms: N6_31  and  C20_32 
ROOT
HETATM    1  C5  UNL     1      34.545  -2.059  33.978  1.00  0.00     0.138 A 
HETATM    2  C6  UNL     1      33.836  -3.251  34.261  1.00  0.00     0.082 A 
HETATM    3  N4  UNL     1      33.624  -3.842  33.089  1.00  0.00    -0.350 N 
ATOM      4  H4  UNL     1      33.131  -4.727  32.967  1.00  0.00     0.166 HD
HETATM    5  C16 UNL     1      34.137  -3.127  32.101  1.00  0.00     0.185 A 
HETATM    6  N5  UNL     1      34.717  -2.008  32.646  1.00  0.00    -0.321 N 
ENDROOT
BRANCH   2   7
HETATM    7  C7  UNL     1      33.371  -3.834  35.533  1.00  0.00     0.069 C 
HETATM    8  C8  UNL     1      32.432  -2.857  36.205  1.00  0.00     0.045 C 
HETATM    9  C9  UNL     1      34.505  -4.129  36.474  1.00  0.00     0.045 C 
BRANCH   7  10
HETATM   10  N3  UNL     1      32.667  -5.075  35.270  1.00  0.00    -0.376 N 
ATOM     11  H3  UNL     1      31.714  -4.992  34.916  1.00  0.00     0.161 HD
BRANCH  10  12
HETATM   12  C10 UNL     1      33.162  -6.378  35.451  1.00  0.00     0.029 A 
HETATM   13  C11 UNL     1      34.079  -6.979  34.643  1.00  0.00     0.030 A 
HETATM   14  C12 UNL     1      34.536  -8.289  34.874  1.00  0.00     0.021 A 
HETATM   15  C13 UNL     1      34.070  -9.022  35.937  1.00  0.00     0.011 A 
HETATM   16 BR1  UNL     1      34.687 -10.797  36.258  1.00  0.00    -0.051 Br
HETATM   17  C14 UNL     1      33.144  -8.425  36.761  1.00  0.00     0.021 A 
HETATM   18  C15 UNL     1      32.697  -7.140  36.532  1.00  0.00     0.030 A 
ENDBRANCH  10  12
ENDBRANCH   7  10
ENDBRANCH   2   7
BRANCH   1  19
HETATM   19  N2  UNL     1      34.918  -1.210  35.015  1.00  0.00    -0.293 N 
HETATM   20  C4  UNL     1      35.938  -0.339  35.341  1.00  0.00     0.322 C 
HETATM   21  N1  UNL     1      35.863   0.346  36.641  1.00  0.00    -0.339 N 
HETATM   22  O1  UNL     1      36.931  -0.029  34.707  1.00  0.00    -0.247 OA
ATOM     23  H1  UNL     1      35.070   0.163  37.256  1.00  0.00     0.164 HD
ATOM     24  H2  UNL     1      34.227  -1.240  35.764  1.00  0.00     0.172 HD
BRANCH  21  25
HETATM   25  C2  UNL     1      36.873   1.260  37.059  1.00  0.00     0.078 C 
HETATM   26  C1  UNL     1      36.290   2.583  37.551  1.00  0.00     0.032 C 
HETATM   27  C3  UNL     1      37.788   0.692  38.117  1.00  0.00     0.032 C 
ENDBRANCH  21  25
ENDBRANCH   1  19
BRANCH   6  28
HETATM   28  C17 UNL     1      35.367  -1.023  31.872  1.00  0.00     0.122 C 
HETATM   29  C18 UNL     1      35.531  -1.393  30.384  1.00  0.00     0.057 C 
HETATM   30  C19 UNL     1      35.947  -0.038  29.856  1.00  0.00     0.275 C 
HETATM   31  N6  UNL     1      35.129   0.889  30.552  1.00  0.00     0.095 N 
HETATM   32  C24 UNL     1      34.465   0.225  31.660  1.00  0.00     0.298 C 
BRANCH  31  33
HETATM   33  C20 UNL     1      35.799   2.101  30.908  1.00  0.00     0.223 C 
HETATM   34  C21 UNL     1      35.899   2.975  29.646  1.00  0.00     0.036 C 
HETATM   35  C22 UNL     1      34.470   3.421  29.992  1.00  0.00     0.004 C 
HETATM   36  C23 UNL     1      34.883   3.183  31.453  1.00  0.00     0.036 C 
ENDBRANCH  31  33
ENDBRANCH   6  28
TORSDOF 7
ENDMDL
MODEL 2
REMARK VINA RESULT: -6.506109608     15.824     17.619
REMARK  7 active torsions:
REMARK  status: ('A' for Active; 'I' for Inactive)
REMARK    1  A    between atoms: C2_2  and  N1_4 
REMARK       I    between atoms: N1_4  and  C4_6 
REMARK       I    between atoms: C4_6  and  N2_8 
REMARK    2  A    between atoms: N2_8  and  C5_10 
REMARK    3  A    between atoms: C6_11  and  C7_12 
REMARK    4  A    between atoms: C7_12  and  N3_15 
REMARK    5  A    between atoms: N3_15  and  C10_17 
REMARK    6  A    between atoms: N5_27  and  C17_28 
REMARK    7  A    between atoms: N6_31  and  C20_32 
ROOT
HETATM    1  C5  UNL     1      31.881 -13.144  46.200  1.00  0.00     0.138 A 
HETATM    2  C6  UNL     1      30.620 -13.504  46.728  1.00  0.00     0.082 A 
HETATM    3  N4  UNL     1      30.345 -12.610  47.673  1.00  0.00    -0.350 N 
ATOM      4  H4  UNL     1      29.496 -12.607  48.239  1.00  0.00     0.166 HD
HETATM    5  C16 UNL     1      31.321 -11.723  47.780  1.00  0.00     0.185 A 
HETATM    6  N5  UNL     1      32.289 -12.047  46.862  1.00  0.00    -0.321 N 
ENDROOT
BRANCH   2   7
HETATM    7  C7  UNL     1      29.699 -14.608  46.396  1.00  0.00     0.069 C 
HETATM    8  C8  UNL     1      29.005 -14.290  45.090  1.00  0.00     0.045 C 
HETATM    9  C9  UNL     1      28.650 -14.813  47.454  1.00  0.00     0.045 C 
BRANCH   7  10
HETATM   10  N3  UNL     1      30.449 -15.841  46.256  1.00  0.00    -0.376 N 
ATOM     11  H3  UNL     1      31.238 -15.970  46.889  1.00  0.00     0.161 HD
BRANCH  10  12
HETATM   12  C10 UNL     1      30.201 -16.877  45.339  1.00  0.00     0.029 A 
HETATM   13  C11 UNL     1      29.355 -17.922  45.557  1.00  0.00     0.030 A 
HETATM   14  C12 UNL     1      29.149 -18.932  44.601  1.00  0.00     0.021 A 
HETATM   15  C13 UNL     1      29.800 -18.903  43.392  1.00  0.00     0.011 A 
HETATM   16 BR1  UNL     1      29.523 -20.267  42.090  1.00  0.00    -0.051 Br
HETATM   17  C14 UNL     1      30.656 -17.851  43.160  1.00  0.00     0.021 A 
HETATM   18  C15 UNL     1      30.857 -16.862  44.100  1.00  0.00     0.030 A 
ENDBRANCH  10  12
ENDBRANCH   7  10
ENDBRANCH   2   7
BRANCH   1  19
HETATM   19  N2  UNL     1      32.450 -13.900  45.180  1.00  0.00    -0.293 N 
HETATM   20  C4  UNL     1      33.580 -14.657  44.939  1.00  0.00     0.322 C 
HETATM   21  N1  UNL     1      33.717 -15.276  43.612  1.00  0.00    -0.339 N 
HETATM   22  O1  UNL     1      34.519 -14.907  45.671  1.00  0.00    -0.247 OA
ATOM     23  H1  UNL     1      32.985 -15.134  42.916  1.00  0.00     0.164 HD
ATOM     24  H2  UNL     1      31.847 -13.894  44.357  1.00  0.00     0.172 HD
BRANCH  21  25
HETATM   25  C2  UNL     1      34.852 -16.071  43.278  1.00  0.00     0.078 C 
HETATM   26  C1  UNL     1      34.465 -17.355  42.547  1.00  0.00     0.032 C 
HETATM   27  C3  UNL     1      35.882 -15.324  42.465  1.00  0.00     0.032 C 
ENDBRANCH  21  25
ENDBRANCH   1  19
BRANCH   6  28
HETATM   28  C17 UNL     1      33.478 -11.303  46.700  1.00  0.00     0.122 C 
HETATM   29  C18 UNL     1      33.437  -9.900  47.340  1.00  0.00     0.057 C 
HETATM   30  C19 UNL     1      34.910  -9.564  47.246  1.00  0.00     0.275 C 
HETATM   31  N6  UNL     1      35.579 -10.773  47.573  1.00  0.00     0.095 N 
HETATM   32  C24 UNL     1      34.633 -11.875  47.568  1.00  0.00     0.298 C 
BRANCH  31  33
HETATM   33  C20 UNL     1      36.761 -11.008  46.802  1.00  0.00     0.223 C 
HETATM   34  C21 UNL     1      37.826  -9.993  47.250  1.00  0.00     0.036 C 
HETATM   35  C22 UNL     1      38.118 -10.987  48.384  1.00  0.00     0.004 C 
HETATM   36  C23 UNL     1      37.682 -12.067  47.382  1.00  0.00     0.036 C 
ENDBRANCH  31  33
ENDBRANCH   6  28
TORSDOF 7
ENDMDL
MODEL 3
REMARK VINA RESULT: -6.492279191     12.882     17.336
REMARK  7 active torsions:
REMARK  status: ('A' for Active; 'I' for Inactive)
REMARK    1  A    between atoms: C2_2  and  N1_4 
REMARK       I    between atoms: N1_4  and  C4_6 
REMARK       I    between atoms: C4_6  and  N2_8 
REMARK    2  A    between atoms: N2_8  and  C5_10 
REMARK    3  A    between atoms: C6_11  and  C7_12 
REMARK    4  A    between atoms: C7_12  and  N3_15 
REMARK    5  A    between atoms: N3_15  and  C10_17 
REMARK    6  A    between atoms: N5_27  and  C17_28 
REMARK    7  A    between atoms: N6_31  and  C20_32 
ROOT
HETATM    1  C5  UNL     1      33.865 -11.831  47.134  1.00  0.00     0.138 A 
HETATM    2  C6  UNL     1      34.256 -10.472  47.083  1.00  0.00     0.082 A 
HETATM    3  N4  UNL     1      33.144  -9.761  47.246  1.00  0.00    -0.350 N 
ATOM      4  H4  UNL     1      33.105  -8.741  47.254  1.00  0.00     0.166 HD
HETATM    5  C16 UNL     1      32.096 -10.554  47.395  1.00  0.00     0.185 A 
HETATM    6  N5  UNL     1      32.535 -11.853  47.327  1.00  0.00    -0.321 N 
ENDROOT
BRANCH   2   7
HETATM    7  C7  UNL     1      35.576  -9.840  46.896  1.00  0.00     0.069 C 
HETATM    8  C8  UNL     1      36.306  -9.831  48.221  1.00  0.00     0.045 C 
HETATM    9  C9  UNL     1      35.465  -8.424  46.405  1.00  0.00     0.045 C 
BRANCH   7  10
HETATM   10  N3  UNL     1      36.344 -10.597  45.927  1.00  0.00    -0.376 N 
ATOM     11  H3  UNL     1      36.973 -11.309  46.299  1.00  0.00     0.161 HD
BRANCH  10  12
HETATM   12  C10 UNL     1      36.312 -10.452  44.529  1.00  0.00     0.029 A 
HETATM   13  C11 UNL     1      35.278 -10.838  43.732  1.00  0.00     0.030 A 
HETATM   14  C12 UNL     1      35.303 -10.669  42.336  1.00  0.00     0.021 A 
HETATM   15  C13 UNL     1      36.387 -10.099  41.714  1.00  0.00     0.011 A 
HETATM   16 BR1  UNL     1      36.428  -9.863  39.823  1.00  0.00    -0.051 Br
HETATM   17  C14 UNL     1      37.438  -9.703  42.510  1.00  0.00     0.021 A 
HETATM   18  C15 UNL     1      37.410  -9.870  43.879  1.00  0.00     0.030 A 
ENDBRANCH  10  12
ENDBRANCH   7  10
ENDBRANCH   2   7
BRANCH   1  19
HETATM   19  N2  UNL     1      34.819 -12.835  46.993  1.00  0.00    -0.293 N 
HETATM   20  C4  UNL     1      35.126 -13.877  46.141  1.00  0.00     0.322 C 
HETATM   21  N1  UNL     1      36.306 -14.696  46.462  1.00  0.00    -0.339 N 
HETATM   22  O1  UNL     1      34.562 -14.247  45.128  1.00  0.00    -0.247 OA
ATOM     23  H1  UNL     1      36.857 -14.475  47.291  1.00  0.00     0.164 HD
ATOM     24  H2  UNL     1      35.499 -12.786  47.752  1.00  0.00     0.172 HD
BRANCH  21  25
HETATM   25  C2  UNL     1      36.693 -15.793  45.639  1.00  0.00     0.078 C 
HETATM   26  C1  UNL     1      38.097 -15.616  45.064  1.00  0.00     0.032 C 
HETATM   27  C3  UNL     1      36.606 -17.125  46.343  1.00  0.00     0.032 C 
ENDBRANCH  21  25
ENDBRANCH   1  19
BRANCH   6  28
HETATM   28  C17 UNL     1      31.675 -12.965  47.454  1.00  0.00     0.122 C 
HETATM   29  C18 UNL     1      30.248 -12.611  47.921  1.00  0.00     0.057 C 
HETATM   30  C19 UNL     1      29.578 -13.937  47.636  1.00  0.00     0.275 C 
HETATM   31  N6  UNL     1      30.129 -14.363  46.399  1.00  0.00     0.095 N 
HETATM   32  C24 UNL     1      31.282 -13.545  46.066  1.00  0.00     0.298 C 
BRANCH  31  33
HETATM   33  C20 UNL     1      30.364 -15.771  46.322  1.00  0.00     0.223 C 
HETATM   34  C21 UNL     1      29.012 -16.463  46.077  1.00  0.00     0.036 C 
HETATM   35  C22 UNL     1      29.252 -16.133  44.596  1.00  0.00     0.004 C 
HETATM   36  C23 UNL     1      30.744 -16.265  44.936  1.00  0.00     0.036 C 
ENDBRANCH  31  33
ENDBRANCH   6  28
TORSDOF 7
ENDMDL
MODEL 4
REMARK VINA RESULT: -6.401537208     12.458     17.710
REMARK  7 active torsions:
REMARK  status: ('A' for Active; 'I' for Inactive)
REMARK    1  A    between atoms: C2_2  and  N1_4 
REMARK       I    between atoms: N1_4  and  C4_6 
REMARK       I    between atoms: C4_6  and  N2_8 
REMARK    2  A    between atoms: N2_8  and  C5_10 
REMARK    3  A    between atoms: C6_11  and  C7_12 
REMARK    4  A    between atoms: C7_12  and  N3_15 
REMARK    5  A    between atoms: N3_15  and  C10_17 
REMARK    6  A    between atoms: N5_27  and  C17_28 
REMARK    7  A    between atoms: N6_31  and  C20_32 
ROOT
HETATM    1  C5  UNL     1      33.701 -12.049  46.988  1.00  0.00     0.138 A 
HETATM    2  C6  UNL     1      34.081 -10.686  46.989  1.00  0.00     0.082 A 
HETATM    3  N4  UNL     1      32.975  -9.994  47.244  1.00  0.00    -0.350 N 
ATOM      4  H4  UNL     1      32.930  -8.976  47.308  1.00  0.00     0.166 HD
HETATM    5  C16 UNL     1      31.940 -10.803  47.404  1.00  0.00     0.185 A 
HETATM    6  N5  UNL     1      32.382 -12.092  47.246  1.00  0.00    -0.321 N 
ENDROOT
BRANCH   2   7
HETATM    7  C7  UNL     1      35.385 -10.034  46.770  1.00  0.00     0.069 C 
HETATM    8  C8  UNL     1      36.309 -11.007  46.071  1.00  0.00     0.045 C 
HETATM    9  C9  UNL     1      36.032  -9.605  48.057  1.00  0.00     0.045 C 
BRANCH   7  10
HETATM   10  N3  UNL     1      35.207  -8.858  45.939  1.00  0.00    -0.376 N 
ATOM     11  H3  UNL     1      34.373  -8.298  46.114  1.00  0.00     0.161 HD
BRANCH  10  12
HETATM   12  C10 UNL     1      36.064  -8.411  44.918  1.00  0.00     0.029 A 
HETATM   13  C11 UNL     1      37.046  -7.481  45.080  1.00  0.00     0.030 A 
HETATM   14  C12 UNL     1      37.872  -7.071  44.019  1.00  0.00     0.021 A 
HETATM   15  C13 UNL     1      37.721  -7.600  42.761  1.00  0.00     0.011 A 
HETATM   16 BR1  UNL     1      38.839  -7.052  41.318  1.00  0.00    -0.051 Br
HETATM   17  C14 UNL     1      36.733  -8.542  42.586  1.00  0.00     0.021 A 
HETATM   18  C15 UNL     1      35.923  -8.943  43.628  1.00  0.00     0.030 A 
ENDBRANCH  10  12
ENDBRANCH   7  10
ENDBRANCH   2   7
BRANCH   1  19
HETATM   19  N2  UNL     1      34.652 -13.036  46.747  1.00  0.00    -0.293 N 
HETATM   20  C4  UNL     1      35.013 -14.282  47.218  1.00  0.00     0.322 C 
HETATM   21  N1  UNL     1      36.171 -14.940  46.592  1.00  0.00    -0.339 N 
HETATM   22  O1  UNL     1      34.514 -14.955  48.101  1.00  0.00    -0.247 OA
ATOM     23  H1  UNL     1      36.666 -14.467  45.837  1.00  0.00     0.164 HD
ATOM     24  H2  UNL     1      35.273 -12.751  45.989  1.00  0.00     0.172 HD
BRANCH  21  25
HETATM   25  C2  UNL     1      36.614 -16.226  47.018  1.00  0.00     0.078 C 
HETATM   26  C1  UNL     1      36.774 -17.199  45.852  1.00  0.00     0.032 C 
HETATM   27  C3  UNL     1      37.897 -16.180  47.812  1.00  0.00     0.032 C 
ENDBRANCH  21  25
ENDBRANCH   1  19
BRANCH   6  28
HETATM   28  C17 UNL     1      31.537 -13.217  47.357  1.00  0.00     0.122 C 
HETATM   29  C18 UNL     1      30.081 -12.878  47.740  1.00  0.00     0.057 C 
HETATM   30  C19 UNL     1      29.451 -14.224  47.455  1.00  0.00     0.275 C 
HETATM   31  N6  UNL     1      30.073 -14.670  46.260  1.00  0.00     0.095 N 
HETATM   32  C24 UNL     1      31.228 -13.840  45.967  1.00  0.00     0.298 C 
BRANCH  31  33
HETATM   33  C20 UNL     1      30.336 -16.076  46.233  1.00  0.00     0.223 C 
HETATM   34  C21 UNL     1      28.986 -16.810  46.283  1.00  0.00     0.036 C 
HETATM   35  C22 UNL     1      28.944 -16.579  44.765  1.00  0.00     0.004 C 
HETATM   36  C23 UNL     1      30.477 -16.656  44.837  1.00  0.00     0.036 C 
ENDBRANCH  31  33
ENDBRANCH   6  28
TORSDOF 7
ENDMDL
MODEL 5
REMARK VINA RESULT: -6.282473327     15.058     18.245
REMARK  7 active torsions:
REMARK  status: ('A' for Active; 'I' for Inactive)
REMARK    1  A    between atoms: C2_2  and  N1_4 
REMARK       I    between atoms: N1_4  and  C4_6 
REMARK       I    between atoms: C4_6  and  N2_8 
REMARK    2  A    between atoms: N2_8  and  C5_10 
REMARK    3  A    between atoms: C6_11  and  C7_12 
REMARK    4  A    between atoms: C7_12  and  N3_15 
REMARK    5  A    between atoms: N3_15  and  C10_17 
REMARK    6  A    between atoms: N5_27  and  C17_28 
REMARK    7  A    between atoms: N6_31  and  C20_32 
ROOT
HETATM    1  C5  UNL     1      33.881 -11.702  47.036  1.00  0.00     0.138 A 
HETATM    2  C6  UNL     1      34.347 -10.366  47.016  1.00  0.00     0.082 A 
HETATM    3  N4  UNL     1      33.307  -9.606  47.345  1.00  0.00    -0.350 N 
ATOM      4  H4  UNL     1      33.331  -8.589  47.414  1.00  0.00     0.166 HD
HETATM    5  C16 UNL     1      32.234 -10.349  47.569  1.00  0.00     0.185 A 
HETATM    6  N5  UNL     1      32.582 -11.663  47.379  1.00  0.00    -0.321 N 
ENDROOT
BRANCH   2   7
HETATM    7  C7  UNL     1      35.674  -9.797  46.716  1.00  0.00     0.069 C 
HETATM    8  C8  UNL     1      35.520  -8.320  46.426  1.00  0.00     0.045 C 
HETATM    9  C9  UNL     1      36.319 -10.450  45.525  1.00  0.00     0.045 C 
BRANCH   7  10
HETATM   10  N3  UNL     1      36.549  -9.974  47.859  1.00  0.00    -0.376 N 
ATOM     11  H3  UNL     1      36.312  -9.451  48.701  1.00  0.00     0.161 HD
BRANCH  10  12
HETATM   12  C10 UNL     1      37.690 -10.793  47.926  1.00  0.00     0.029 A 
HETATM   13  C11 UNL     1      37.709 -12.062  48.421  1.00  0.00     0.030 A 
HETATM   14  C12 UNL     1      38.883 -12.833  48.464  1.00  0.00     0.021 A 
HETATM   15  C13 UNL     1      40.075 -12.331  48.002  1.00  0.00     0.011 A 
HETATM   16 BR1  UNL     1      41.671 -13.371  48.054  1.00  0.00    -0.051 Br
HETATM   17  C14 UNL     1      40.069 -11.050  47.497  1.00  0.00     0.021 A 
HETATM   18  C15 UNL     1      38.915 -10.296  47.456  1.00  0.00     0.030 A 
ENDBRANCH  10  12
ENDBRANCH   7  10
ENDBRANCH   2   7
BRANCH   1  19
HETATM   19  N2  UNL     1      34.750 -12.746  46.731  1.00  0.00    -0.293 N 
HETATM   20  C4  UNL     1      35.014 -14.041  47.130  1.00  0.00     0.322 C 
HETATM   21  N1  UNL     1      36.111 -14.753  46.456  1.00  0.00    -0.339 N 
HETATM   22  O1  UNL     1      34.469 -14.720  47.980  1.00  0.00    -0.247 OA
ATOM     23  H1  UNL     1      36.638 -14.278  45.722  1.00  0.00     0.164 HD
ATOM     24  H2  UNL     1      35.386 -12.469  45.984  1.00  0.00     0.172 HD
BRANCH  21  25
HETATM   25  C2  UNL     1      36.453 -16.091  46.807  1.00  0.00     0.078 C 
HETATM   26  C1  UNL     1      36.275 -17.059  45.639  1.00  0.00     0.032 C 
HETATM   27  C3  UNL     1      37.853 -16.222  47.356  1.00  0.00     0.032 C 
ENDBRANCH  21  25
ENDBRANCH   1  19
BRANCH   6  28
HETATM   28  C17 UNL     1      31.674 -12.731  47.540  1.00  0.00     0.122 C 
HETATM   29  C18 UNL     1      30.279 -12.306  48.041  1.00  0.00     0.057 C 
HETATM   30  C19 UNL     1      29.540 -13.602  47.788  1.00  0.00     0.275 C 
HETATM   31  N6  UNL     1      30.036 -14.065  46.542  1.00  0.00     0.095 N 
HETATM   32  C24 UNL     1      31.218 -13.306  46.170  1.00  0.00     0.298 C 
BRANCH  31  33
HETATM   33  C20 UNL     1      30.203 -15.484  46.475  1.00  0.00     0.223 C 
HETATM   34  C21 UNL     1      28.807 -16.117  46.349  1.00  0.00     0.036 C 
HETATM   35  C22 UNL     1      28.945 -15.823  44.847  1.00  0.00     0.004 C 
HETATM   36  C23 UNL     1      30.452 -16.016  45.074  1.00  0.00     0.036 C 
ENDBRANCH  31  33
ENDBRANCH   6  28
TORSDOF 7
ENDMDL
