MODEL 1
REMARK VINA RESULT: -7.244287117      0.000      0.000
REMARK  8 active torsions:
REMARK  status: ('A' for Active; 'I' for Inactive)
REMARK    1  A    between atoms: C2_2  and  C3_3 
REMARK    2  A    between atoms: C3_3  and  O1_4 
REMARK    3  A    between atoms: C3_3  and  N1_6 
REMARK    4  A    between atoms: C14_18  and  C15_19 
REMARK       I    between atoms: C15_19  and  N2_21 
REMARK    5  A    between atoms: C19_26  and  C20_27 
REMARK       I    between atoms: C20_27  and  N3_29 
REMARK    6  A    between atoms: C24_33  and  C25_34 
REMARK       I    between atoms: C25_34  and  N4_36 
REMARK    7  A    between atoms: N4_36  and  C26_38 
REMARK    8  A    between atoms: C26_38  and  C27_39 
ROOT
HETATM    1  C15 UNL     1     -11.305  -8.228   0.986  1.00  0.00     0.244 C 
HETATM    2  O2  UNL     1     -10.065  -8.265   0.638  1.00  0.00    -0.271 OA
HETATM    3  N2  UNL     1     -11.671  -6.906   1.354  1.00  0.00    -0.334 N 
HETATM    4  C16 UNL     1     -13.031  -6.484   1.632  1.00  0.00     0.130 C 
HETATM    5  C17 UNL     1     -13.046  -5.083   0.959  1.00  0.00     0.060 C 
HETATM    6  C18 UNL     1     -11.774  -4.569   1.658  1.00  0.00     0.203 C 
HETATM    7  F2  UNL     1     -12.213  -4.285   2.952  1.00  0.00    -0.247 F 
HETATM    8  C19 UNL     1     -10.843  -5.714   1.590  1.00  0.00     0.213 C 
ENDROOT
BRANCH   1   9
HETATM    9  C14 UNL     1     -12.160  -9.430   0.984  1.00  0.00     0.190 C 
HETATM   10  N1  UNL     1     -12.145 -10.199  -0.240  1.00  0.00    -0.350 N 
HETATM   11  C4  UNL     1     -10.743 -10.673  -0.531  1.00  0.00     0.125 C 
HETATM   12  C5  UNL     1     -10.493 -11.758   0.499  1.00  0.00     0.021 C 
HETATM   13  C6  UNL     1     -11.674 -11.789   1.473  1.00  0.00     0.017 C 
HETATM   14  C7  UNL     1     -11.897 -10.404   2.111  1.00  0.00     0.025 C 
HETATM   15  C8  UNL     1     -10.711 -10.170   2.962  1.00  0.00     0.015 C 
HETATM   16  C12 UNL     1     -13.104 -10.543   3.002  1.00  0.00     0.110 C 
HETATM   17  C9  UNL     1     -10.538 -11.269   4.003  1.00  0.00     0.001 C 
HETATM   18  C10 UNL     1     -11.751 -11.543   4.805  1.00  0.00     0.003 C 
HETATM   19  C11 UNL     1     -13.010 -11.629   4.020  1.00  0.00     0.044 C 
HETATM   20  C13 UNL     1     -13.461  -9.261   3.720  1.00  0.00     0.053 C 
HETATM   21  F1  UNL     1     -14.206 -10.845   2.193  1.00  0.00    -0.242 F 
BRANCH  10  22
HETATM   22  C3  UNL     1     -13.095 -10.577  -1.158  1.00  0.00     0.122 C 
BRANCH  22  23
HETATM   23  C2  UNL     1     -14.479 -11.028  -1.098  1.00  0.00     0.021 A 
HETATM   24  C1  UNL     1     -15.403  -9.997  -0.373  1.00  0.00     0.024 C 
HETATM   25  C30 UNL     1     -14.619 -12.435  -0.495  1.00  0.00     0.018 A 
HETATM   26  C31 UNL     1     -15.169 -12.046  -1.848  1.00  0.00     0.018 A 
ENDBRANCH  22  23
BRANCH  22  27
HETATM   27  O1  UNL     1     -12.684 -10.528  -2.405  1.00  0.00    -0.349 OA
ATOM     28  H1  UNL     1     -11.823 -10.922  -2.486  1.00  0.00     0.219 HD
ENDBRANCH  22  27
ENDBRANCH  10  22
ENDBRANCH   1   9
BRANCH   8  29
HETATM   29  C20 UNL     1      -9.963  -5.894   2.756  1.00  0.00     0.246 C 
HETATM   30  O3  UNL     1     -10.575  -5.748   3.893  1.00  0.00    -0.271 OA
HETATM   31  N3  UNL     1      -8.615  -6.186   2.849  1.00  0.00    -0.337 N 
HETATM   32  C21 UNL     1      -7.929  -6.368   4.175  1.00  0.00     0.127 C 
HETATM   33  C24 UNL     1      -7.497  -6.354   1.954  1.00  0.00     0.179 C 
HETATM   34  C22 UNL     1      -6.787  -5.366   3.999  1.00  0.00     0.022 C 
HETATM   35  C23 UNL     1      -6.528  -5.290   2.516  1.00  0.00     0.037 C 
BRANCH  33  36
HETATM   36  C25 UNL     1      -6.838  -7.661   1.968  1.00  0.00     0.240 C 
HETATM   37  O4  UNL     1      -5.551  -7.619   1.891  1.00  0.00    -0.271 OA
HETATM   38  N4  UNL     1      -7.448  -8.925   2.051  1.00  0.00    -0.359 N 
ATOM     39  H4  UNL     1      -8.465  -8.988   2.097  1.00  0.00     0.162 HD
BRANCH  38  40
HETATM   40  C26 UNL     1      -6.643 -10.156   2.073  1.00  0.00     0.127 C 
BRANCH  40  41
HETATM   41  C27 UNL     1      -6.733 -10.933   0.796  1.00  0.00     0.003 A 
HETATM   42  C28 UNL     1      -5.550 -11.190  -0.040  1.00  0.00     0.007 A 
HETATM   43  C29 UNL     1      -6.629 -10.260  -0.539  1.00  0.00     0.007 A 
ENDBRANCH  40  41
ENDBRANCH  38  40
ENDBRANCH  33  36
ENDBRANCH   8  29
TORSDOF 8
ENDMDL
MODEL 2
REMARK VINA RESULT: -7.070774809      0.887      1.005
REMARK  8 active torsions:
REMARK  status: ('A' for Active; 'I' for Inactive)
REMARK    1  A    between atoms: C2_2  and  C3_3 
REMARK    2  A    between atoms: C3_3  and  O1_4 
REMARK    3  A    between atoms: C3_3  and  N1_6 
REMARK    4  A    between atoms: C14_18  and  C15_19 
REMARK       I    between atoms: C15_19  and  N2_21 
REMARK    5  A    between atoms: C19_26  and  C20_27 
REMARK       I    between atoms: C20_27  and  N3_29 
REMARK    6  A    between atoms: C24_33  and  C25_34 
REMARK       I    between atoms: C25_34  and  N4_36 
REMARK    7  A    between atoms: N4_36  and  C26_38 
REMARK    8  A    between atoms: C26_38  and  C27_39 
ROOT
HETATM    1  C15 UNL     1     -11.034  -8.612   0.710  1.00  0.00     0.244 C 
HETATM    2  O2  UNL     1      -9.814  -8.854   0.373  1.00  0.00    -0.271 OA
HETATM    3  N2  UNL     1     -11.198  -7.230   0.998  1.00  0.00    -0.334 N 
HETATM    4  C16 UNL     1     -12.478  -6.594   1.241  1.00  0.00     0.130 C 
HETATM    5  C17 UNL     1     -12.284  -5.248   0.489  1.00  0.00     0.060 C 
HETATM    6  C18 UNL     1     -10.949  -4.891   1.166  1.00  0.00     0.203 C 
HETATM    7  F2  UNL     1     -11.337  -4.469   2.439  1.00  0.00    -0.247 F 
HETATM    8  C19 UNL     1     -10.200  -6.164   1.171  1.00  0.00     0.213 C 
ENDROOT
BRANCH   1   9
HETATM    9  C14 UNL     1     -12.060  -9.669   0.771  1.00  0.00     0.190 C 
HETATM   10  N1  UNL     1     -12.239 -10.430  -0.446  1.00  0.00    -0.350 N 
HETATM   11  C4  UNL     1     -10.946 -11.111  -0.821  1.00  0.00     0.125 C 
HETATM   12  C5  UNL     1     -10.799 -12.222   0.200  1.00  0.00     0.021 C 
HETATM   13  C6  UNL     1     -11.907 -12.076   1.246  1.00  0.00     0.017 C 
HETATM   14  C7  UNL     1     -11.877 -10.675   1.886  1.00  0.00     0.025 C 
HETATM   15  C8  UNL     1     -10.617 -10.625   2.659  1.00  0.00     0.015 C 
HETATM   16  C12 UNL     1     -13.032 -10.631   2.852  1.00  0.00     0.110 C 
HETATM   17  C9  UNL     1     -10.547 -11.739   3.696  1.00  0.00     0.001 C 
HETATM   18  C10 UNL     1     -11.735 -11.828   4.575  1.00  0.00     0.003 C 
HETATM   19  C11 UNL     1     -13.039 -11.720   3.871  1.00  0.00     0.044 C 
HETATM   20  C13 UNL     1     -13.144  -9.310   3.582  1.00  0.00     0.053 C 
HETATM   21  F1  UNL     1     -14.216 -10.761   2.117  1.00  0.00    -0.242 F 
BRANCH  10  22
HETATM   22  C3  UNL     1     -13.292 -10.658  -1.300  1.00  0.00     0.122 C 
BRANCH  22  23
HETATM   23  C2  UNL     1     -14.653 -11.157  -1.163  1.00  0.00     0.021 A 
HETATM   24  C1  UNL     1     -15.587 -10.129  -0.445  1.00  0.00     0.024 C 
HETATM   25  C30 UNL     1     -14.714 -12.540  -0.494  1.00  0.00     0.018 A 
HETATM   26  C31 UNL     1     -15.332 -12.233  -1.839  1.00  0.00     0.018 A 
ENDBRANCH  22  23
BRANCH  22  27
HETATM   27  O1  UNL     1     -13.038 -10.360  -2.554  1.00  0.00    -0.349 OA
ATOM     28  H1  UNL     1     -13.183  -9.435  -2.711  1.00  0.00     0.219 HD
ENDBRANCH  22  27
ENDBRANCH  10  22
ENDBRANCH   1   9
BRANCH   8  29
HETATM   29  C20 UNL     1      -9.354  -6.406   2.352  1.00  0.00     0.246 C 
HETATM   30  O3  UNL     1      -9.938  -6.109   3.475  1.00  0.00    -0.271 OA
HETATM   31  N3  UNL     1      -8.063  -6.887   2.471  1.00  0.00    -0.337 N 
HETATM   32  C21 UNL     1      -7.411  -7.093   3.810  1.00  0.00     0.127 C 
HETATM   33  C24 UNL     1      -6.983  -7.266   1.595  1.00  0.00     0.179 C 
HETATM   34  C22 UNL     1      -6.135  -6.281   3.588  1.00  0.00     0.022 C 
HETATM   35  C23 UNL     1      -5.868  -6.326   2.104  1.00  0.00     0.037 C 
BRANCH  33  36
HETATM   36  C25 UNL     1      -6.523  -8.654   1.686  1.00  0.00     0.240 C 
HETATM   37  O4  UNL     1      -5.244  -8.805   1.619  1.00  0.00    -0.271 OA
HETATM   38  N4  UNL     1      -7.313  -9.807   1.831  1.00  0.00    -0.359 N 
ATOM     39  H4  UNL     1      -8.327  -9.719   1.870  1.00  0.00     0.162 HD
BRANCH  38  40
HETATM   40  C26 UNL     1      -6.696 -11.140   1.927  1.00  0.00     0.127 C 
BRANCH  40  41
HETATM   41  C27 UNL     1      -7.133 -12.064   0.832  1.00  0.00     0.003 A 
HETATM   42  C28 UNL     1      -7.508 -13.460   1.099  1.00  0.00     0.007 A 
HETATM   43  C29 UNL     1      -6.245 -13.160   0.331  1.00  0.00     0.007 A 
ENDBRANCH  40  41
ENDBRANCH  38  40
ENDBRANCH  33  36
ENDBRANCH   8  29
TORSDOF 8
ENDMDL
MODEL 3
REMARK VINA RESULT: -6.919792501      3.755      5.490
REMARK  8 active torsions:
REMARK  status: ('A' for Active; 'I' for Inactive)
REMARK    1  A    between atoms: C2_2  and  C3_3 
REMARK    2  A    between atoms: C3_3  and  O1_4 
REMARK    3  A    between atoms: C3_3  and  N1_6 
REMARK    4  A    between atoms: C14_18  and  C15_19 
REMARK       I    between atoms: C15_19  and  N2_21 
REMARK    5  A    between atoms: C19_26  and  C20_27 
REMARK       I    between atoms: C20_27  and  N3_29 
REMARK    6  A    between atoms: C24_33  and  C25_34 
REMARK       I    between atoms: C25_34  and  N4_36 
REMARK    7  A    between atoms: N4_36  and  C26_38 
REMARK    8  A    between atoms: C26_38  and  C27_39 
ROOT
HETATM    1  C15 UNL     1      -9.629 -11.407   0.328  1.00  0.00     0.244 C 
HETATM    2  O2  UNL     1      -9.256 -12.595  -0.003  1.00  0.00    -0.271 OA
HETATM    3  N2  UNL     1      -8.509 -10.534   0.362  1.00  0.00    -0.334 N 
HETATM    4  C16 UNL     1      -8.601  -9.096   0.532  1.00  0.00     0.130 C 
HETATM    5  C17 UNL     1      -7.508  -8.615  -0.463  1.00  0.00     0.060 C 
HETATM    6  C18 UNL     1      -6.395  -9.525   0.086  1.00  0.00     0.203 C 
HETATM    7  F2  UNL     1      -6.020  -8.892   1.273  1.00  0.00    -0.247 F 
HETATM    8  C19 UNL     1      -7.068 -10.822   0.298  1.00  0.00     0.213 C 
ENDROOT
BRANCH   1   9
HETATM    9  C14 UNL     1     -11.035 -11.075   0.623  1.00  0.00     0.190 C 
HETATM   10  N1  UNL     1     -12.015 -11.726  -0.220  1.00  0.00    -0.350 N 
HETATM   11  C4  UNL     1     -11.893 -13.223  -0.088  1.00  0.00     0.125 C 
HETATM   12  C5  UNL     1     -12.448 -13.523   1.291  1.00  0.00     0.021 C 
HETATM   13  C6  UNL     1     -12.730 -12.198   2.004  1.00  0.00     0.017 C 
HETATM   14  C7  UNL     1     -11.465 -11.320   2.052  1.00  0.00     0.025 C 
HETATM   15  C8  UNL     1     -10.525 -12.036   2.941  1.00  0.00     0.015 C 
HETATM   16  C12 UNL     1     -11.872 -10.035   2.724  1.00  0.00     0.110 C 
HETATM   17  C9  UNL     1     -11.124 -12.270   4.323  1.00  0.00     0.001 C 
HETATM   18  C10 UNL     1     -11.675 -11.053   4.961  1.00  0.00     0.003 C 
HETATM   19  C11 UNL     1     -12.500 -10.200   4.067  1.00  0.00     0.044 C 
HETATM   20  C13 UNL     1     -10.733  -9.050   2.861  1.00  0.00     0.053 C 
HETATM   21  F1  UNL     1     -12.824  -9.405   1.912  1.00  0.00    -0.242 F 
BRANCH  10  22
HETATM   22  C3  UNL     1     -12.994 -11.290  -1.081  1.00  0.00     0.122 C 
BRANCH  22  23
HETATM   23  C2  UNL     1     -14.450 -11.320  -1.101  1.00  0.00     0.021 A 
HETATM   24  C1  UNL     1     -15.005 -12.128  -2.318  1.00  0.00     0.024 C 
HETATM   25  C30 UNL     1     -15.073  -9.917  -1.020  1.00  0.00     0.018 A 
HETATM   26  C31 UNL     1     -15.410 -11.038  -0.064  1.00  0.00     0.018 A 
ENDBRANCH  22  23
BRANCH  22  27
HETATM   27  O1  UNL     1     -12.533 -10.694  -2.158  1.00  0.00    -0.349 OA
ATOM     28  H1  UNL     1     -12.313  -9.790  -1.968  1.00  0.00     0.219 HD
ENDBRANCH  22  27
ENDBRANCH  10  22
ENDBRANCH   1   9
BRANCH   8  29
HETATM   29  C20 UNL     1      -6.621 -11.592   1.471  1.00  0.00     0.246 C 
HETATM   30  O3  UNL     1      -6.800 -10.969   2.597  1.00  0.00    -0.271 OA
HETATM   31  N3  UNL     1      -6.051 -12.847   1.579  1.00  0.00    -0.337 N 
HETATM   32  C21 UNL     1      -5.712 -13.455   2.912  1.00  0.00     0.127 C 
HETATM   33  C24 UNL     1      -5.577 -13.881   0.694  1.00  0.00     0.179 C 
HETATM   34  C22 UNL     1      -4.241 -13.789   2.662  1.00  0.00     0.022 C 
HETATM   35  C23 UNL     1      -4.114 -14.010   1.175  1.00  0.00     0.037 C 
BRANCH  33  36
HETATM   36  C25 UNL     1      -6.235 -15.186   0.799  1.00  0.00     0.240 C 
HETATM   37  O4  UNL     1      -7.510 -15.135   0.984  1.00  0.00    -0.271 OA
HETATM   38  N4  UNL     1      -5.634 -16.454   0.725  1.00  0.00    -0.359 N 
ATOM     39  H4  UNL     1      -4.625 -16.524   0.596  1.00  0.00     0.162 HD
BRANCH  38  40
HETATM   40  C26 UNL     1      -6.438 -17.682   0.832  1.00  0.00     0.127 C 
BRANCH  40  41
HETATM   41  C27 UNL     1      -5.690 -18.906   0.402  1.00  0.00     0.003 A 
HETATM   42  C28 UNL     1      -4.922 -18.945  -0.851  1.00  0.00     0.007 A 
HETATM   43  C29 UNL     1      -6.179 -19.770  -0.720  1.00  0.00     0.007 A 
ENDBRANCH  40  41
ENDBRANCH  38  40
ENDBRANCH  33  36
ENDBRANCH   8  29
TORSDOF 8
ENDMDL
MODEL 4
REMARK VINA RESULT: -6.792493390      2.325      4.285
REMARK  8 active torsions:
REMARK  status: ('A' for Active; 'I' for Inactive)
REMARK    1  A    between atoms: C2_2  and  C3_3 
REMARK    2  A    between atoms: C3_3  and  O1_4 
REMARK    3  A    between atoms: C3_3  and  N1_6 
REMARK    4  A    between atoms: C14_18  and  C15_19 
REMARK       I    between atoms: C15_19  and  N2_21 
REMARK    5  A    between atoms: C19_26  and  C20_27 
REMARK       I    between atoms: C20_27  and  N3_29 
REMARK    6  A    between atoms: C24_33  and  C25_34 
REMARK       I    between atoms: C25_34  and  N4_36 
REMARK    7  A    between atoms: N4_36  and  C26_38 
REMARK    8  A    between atoms: C26_38  and  C27_39 
ROOT
HETATM    1  C15 UNL     1      -9.830 -10.402   1.666  1.00  0.00     0.244 C 
HETATM    2  O2  UNL     1      -9.642 -11.064   2.755  1.00  0.00    -0.271 OA
HETATM    3  N2  UNL     1      -8.590  -9.920   1.166  1.00  0.00    -0.334 N 
HETATM    4  C16 UNL     1      -8.425  -9.285  -0.128  1.00  0.00     0.130 C 
HETATM    5  C17 UNL     1      -7.071  -9.897  -0.583  1.00  0.00     0.060 C 
HETATM    6  C18 UNL     1      -6.308  -9.545   0.707  1.00  0.00     0.203 C 
HETATM    7  F2  UNL     1      -6.075  -8.174   0.578  1.00  0.00    -0.247 F 
HETATM    8  C19 UNL     1      -7.258  -9.882   1.786  1.00  0.00     0.213 C 
ENDROOT
BRANCH   1   9
HETATM    9  C14 UNL     1     -11.170 -10.207   1.083  1.00  0.00     0.190 C 
HETATM   10  N1  UNL     1     -11.954 -11.411   0.916  1.00  0.00    -0.350 N 
HETATM   11  C4  UNL     1     -12.163 -12.077   2.252  1.00  0.00     0.125 C 
HETATM   12  C5  UNL     1     -13.155 -11.179   2.967  1.00  0.00     0.021 C 
HETATM   13  C6  UNL     1     -13.383  -9.927   2.117  1.00  0.00     0.017 C 
HETATM   14  C7  UNL     1     -12.049  -9.217   1.815  1.00  0.00     0.025 C 
HETATM   15  C8  UNL     1     -11.574  -8.707   3.120  1.00  0.00     0.015 C 
HETATM   16  C12 UNL     1     -12.389  -8.040   0.939  1.00  0.00     0.110 C 
HETATM   17  C9  UNL     1     -12.593  -7.779   3.768  1.00  0.00     0.001 C 
HETATM   18  C10 UNL     1     -13.071  -6.690   2.886  1.00  0.00     0.003 C 
HETATM   19  C11 UNL     1     -13.412  -7.113   1.503  1.00  0.00     0.044 C 
HETATM   20  C13 UNL     1     -11.179  -7.220   0.552  1.00  0.00     0.053 C 
HETATM   21  F1  UNL     1     -12.915  -8.534  -0.262  1.00  0.00    -0.242 F 
BRANCH  10  22
HETATM   22  C3  UNL     1     -12.528 -12.052  -0.156  1.00  0.00     0.122 C 
BRANCH  22  23
HETATM   23  C2  UNL     1     -13.551 -11.723  -1.139  1.00  0.00     0.021 A 
HETATM   24  C1  UNL     1     -13.003 -10.799  -2.274  1.00  0.00     0.024 C 
HETATM   25  C30 UNL     1     -14.822 -11.141  -0.500  1.00  0.00     0.018 A 
HETATM   26  C31 UNL     1     -14.822 -12.344  -1.416  1.00  0.00     0.018 A 
ENDBRANCH  22  23
BRANCH  22  27
HETATM   27  O1  UNL     1     -12.055 -13.258  -0.374  1.00  0.00    -0.349 OA
ATOM     28  H1  UNL     1     -11.181 -13.210  -0.743  1.00  0.00     0.219 HD
ENDBRANCH  22  27
ENDBRANCH  10  22
ENDBRANCH   1   9
BRANCH   8  29
HETATM   29  C20 UNL     1      -7.236  -8.993   2.959  1.00  0.00     0.246 C 
HETATM   30  O3  UNL     1      -6.895  -9.596   4.059  1.00  0.00    -0.271 OA
HETATM   31  N3  UNL     1      -7.515  -7.645   3.093  1.00  0.00    -0.337 N 
HETATM   32  C21 UNL     1      -7.381  -6.930   4.409  1.00  0.00     0.127 C 
HETATM   33  C24 UNL     1      -7.999  -6.571   2.262  1.00  0.00     0.179 C 
HETATM   34  C22 UNL     1      -8.777  -6.315   4.496  1.00  0.00     0.022 C 
HETATM   35  C23 UNL     1      -9.238  -6.129   3.072  1.00  0.00     0.037 C 
BRANCH  33  36
HETATM   36  C25 UNL     1      -7.104  -5.424   2.087  1.00  0.00     0.240 C 
HETATM   37  O4  UNL     1      -7.686  -4.274   2.117  1.00  0.00    -0.271 OA
HETATM   38  N4  UNL     1      -5.712  -5.450   1.891  1.00  0.00    -0.359 N 
ATOM     39  H4  UNL     1      -5.228  -6.346   1.847  1.00  0.00     0.162 HD
BRANCH  38  40
HETATM   40  C26 UNL     1      -4.944  -4.203   1.749  1.00  0.00     0.127 C 
BRANCH  40  41
HETATM   41  C27 UNL     1      -4.410  -4.004   0.364  1.00  0.00     0.003 A 
HETATM   42  C28 UNL     1      -5.093  -3.142  -0.613  1.00  0.00     0.007 A 
HETATM   43  C29 UNL     1      -5.064  -4.636  -0.826  1.00  0.00     0.007 A 
ENDBRANCH  40  41
ENDBRANCH  38  40
ENDBRANCH  33  36
ENDBRANCH   8  29
TORSDOF 8
ENDMDL
MODEL 5
REMARK VINA RESULT: -6.667907470      1.713      2.606
REMARK  8 active torsions:
REMARK  status: ('A' for Active; 'I' for Inactive)
REMARK    1  A    between atoms: C2_2  and  C3_3 
REMARK    2  A    between atoms: C3_3  and  O1_4 
REMARK    3  A    between atoms: C3_3  and  N1_6 
REMARK    4  A    between atoms: C14_18  and  C15_19 
REMARK       I    between atoms: C15_19  and  N2_21 
REMARK    5  A    between atoms: C19_26  and  C20_27 
REMARK       I    between atoms: C20_27  and  N3_29 
REMARK    6  A    between atoms: C24_33  and  C25_34 
REMARK       I    between atoms: C25_34  and  N4_36 
REMARK    7  A    between atoms: N4_36  and  C26_38 
REMARK    8  A    between atoms: C26_38  and  C27_39 
ROOT
HETATM    1  C15 UNL     1     -11.477  -8.133   0.851  1.00  0.00     0.244 C 
HETATM    2  O2  UNL     1     -10.269  -8.148   0.403  1.00  0.00    -0.271 OA
HETATM    3  N2  UNL     1     -11.819  -6.827   1.292  1.00  0.00    -0.334 N 
HETATM    4  C16 UNL     1     -13.154  -6.426   1.692  1.00  0.00     0.130 C 
HETATM    5  C17 UNL     1     -13.230  -5.003   1.072  1.00  0.00     0.060 C 
HETATM    6  C18 UNL     1     -11.909  -4.503   1.684  1.00  0.00     0.203 C 
HETATM    7  F2  UNL     1     -12.243  -4.266   3.018  1.00  0.00    -0.247 F 
HETATM    8  C19 UNL     1     -10.981  -5.637   1.502  1.00  0.00     0.213 C 
ENDROOT
BRANCH   1   9
HETATM    9  C14 UNL     1     -12.324  -9.340   0.876  1.00  0.00     0.190 C 
HETATM   10  N1  UNL     1     -12.336 -10.114  -0.346  1.00  0.00    -0.350 N 
HETATM   11  C4  UNL     1     -10.939 -10.579  -0.673  1.00  0.00     0.125 C 
HETATM   12  C5  UNL     1     -10.654 -11.659   0.354  1.00  0.00     0.021 C 
HETATM   13  C6  UNL     1     -11.808 -11.695   1.359  1.00  0.00     0.017 C 
HETATM   14  C7  UNL     1     -12.023 -10.309   1.998  1.00  0.00     0.025 C 
HETATM   15  C8  UNL     1     -10.816 -10.064   2.816  1.00  0.00     0.015 C 
HETATM   16  C12 UNL     1     -13.204 -10.453   2.923  1.00  0.00     0.110 C 
HETATM   17  C9  UNL     1     -10.607 -11.158   3.856  1.00  0.00     0.001 C 
HETATM   18  C10 UNL     1     -11.796 -11.438   4.691  1.00  0.00     0.003 C 
HETATM   19  C11 UNL     1     -13.075 -11.535   3.941  1.00  0.00     0.044 C 
HETATM   20  C13 UNL     1     -13.550  -9.171   3.646  1.00  0.00     0.053 C 
HETATM   21  F1  UNL     1     -14.326 -10.766   2.145  1.00  0.00    -0.242 F 
BRANCH  10  22
HETATM   22  C3  UNL     1     -13.308 -10.502  -1.236  1.00  0.00     0.122 C 
BRANCH  22  23
HETATM   23  C2  UNL     1     -14.651 -11.057  -1.134  1.00  0.00     0.021 A 
HETATM   24  C1  UNL     1     -15.635 -10.087  -0.404  1.00  0.00     0.024 C 
HETATM   25  C30 UNL     1     -14.667 -12.459  -0.506  1.00  0.00     0.018 A 
HETATM   26  C31 UNL     1     -15.278 -12.139  -1.851  1.00  0.00     0.018 A 
ENDBRANCH  22  23
BRANCH  22  27
HETATM   27  O1  UNL     1     -12.973 -10.344  -2.497  1.00  0.00    -0.349 OA
ATOM     28  H1  UNL     1     -13.681  -9.931  -2.978  1.00  0.00     0.219 HD
ENDBRANCH  22  27
ENDBRANCH  10  22
ENDBRANCH   1   9
BRANCH   8  29
HETATM   29  C20 UNL     1     -10.009  -5.850   2.587  1.00  0.00     0.246 C 
HETATM   30  O3  UNL     1     -10.365  -6.775   3.427  1.00  0.00    -0.271 OA
HETATM   31  N3  UNL     1      -8.798  -5.242   2.864  1.00  0.00    -0.337 N 
HETATM   32  C21 UNL     1      -7.942  -5.664   4.026  1.00  0.00     0.127 C 
HETATM   33  C24 UNL     1      -8.008  -4.155   2.341  1.00  0.00     0.179 C 
HETATM   34  C22 UNL     1      -7.763  -4.305   4.703  1.00  0.00     0.022 C 
HETATM   35  C23 UNL     1      -7.872  -3.277   3.605  1.00  0.00     0.037 C 
BRANCH  33  36
HETATM   36  C25 UNL     1      -6.673  -4.496   1.845  1.00  0.00     0.240 C 
HETATM   37  O4  UNL     1      -6.560  -5.689   1.371  1.00  0.00    -0.271 OA
HETATM   38  N4  UNL     1      -5.530  -3.677   1.838  1.00  0.00    -0.359 N 
ATOM     39  H4  UNL     1      -5.586  -2.734   2.222  1.00  0.00     0.162 HD
BRANCH  38  40
HETATM   40  C26 UNL     1      -4.255  -4.160   1.285  1.00  0.00     0.127 C 
BRANCH  40  41
HETATM   41  C27 UNL     1      -3.998  -3.664  -0.105  1.00  0.00     0.003 A 
HETATM   42  C28 UNL     1      -5.003  -2.890  -0.849  1.00  0.00     0.007 A 
HETATM   43  C29 UNL     1      -4.659  -4.290  -1.294  1.00  0.00     0.007 A 
ENDBRANCH  40  41
ENDBRANCH  38  40
ENDBRANCH  33  36
ENDBRANCH   8  29
TORSDOF 8
ENDMDL
