MODEL 1
REMARK VINA RESULT: -8.161345765      0.000      0.000
REMARK  7 active torsions:
REMARK  status: ('A' for Active; 'I' for Inactive)
REMARK       I    between atoms: C1_4  and  N3_6 
REMARK    1  A    between atoms: N3_6  and  C2_8 
REMARK    2  A    between atoms: C3_11  and  N5_12 
REMARK    3  A    between atoms: N5_12  and  N6_14 
REMARK    4  A    between atoms: N6_14  and  C4_16 
REMARK    5  A    between atoms: C5_20  and  S1_21 
REMARK    6  A    between atoms: S1_21  and  N8_22 
REMARK    7  A    between atoms: C6_28  and  N9_29 
ROOT
HETATM    1  C2  UNL     1      71.053   3.997   2.676  1.00  0.00     0.689 A 
HETATM    2  N4  UNL     1      69.973   4.764   2.461  1.00  0.00    -0.172 N 
ATOM      3  H4  UNL     1      69.977   5.373   1.642  1.00  0.00     0.186 HD
HETATM    4  C3  UNL     1      68.889   4.786   3.251  1.00  0.00     0.174 A 
HETATM    5  C6  UNL     1      68.867   3.973   4.361  1.00  0.00     0.216 A 
HETATM    6  C7  UNL     1      69.962   3.171   4.610  1.00  0.00     0.296 A 
HETATM    7  O6  UNL     1      69.922   2.434   5.631  1.00  0.00    -0.265 OA
HETATM    8  N10 UNL     1      71.012   3.203   3.775  1.00  0.00    -0.154 N 
ATOM      9  H10 UNL     1      71.813   2.604   3.976  1.00  0.00     0.187 HD
ENDROOT
BRANCH   4  10
HETATM   10  N5  UNL     1      67.774   5.635   2.949  1.00  0.00    -0.281 N 
ATOM     11  H5  UNL     1      67.596   6.489   3.479  1.00  0.00     0.188 HD
BRANCH  10  12
HETATM   12  N6  UNL     1      66.939   5.244   1.898  1.00  0.00    -0.271 N 
ATOM     13  H6  UNL     1      66.256   4.494   2.007  1.00  0.00     0.189 HD
BRANCH  12  14
HETATM   14  C4  UNL     1      67.080   5.889   0.767  1.00  0.00     0.230 A 
HETATM   15  O1  UNL     1      68.195   6.151   0.164  1.00  0.00    -0.209 OA
HETATM   16  N7  UNL     1      68.211   6.771  -0.907  1.00  0.00    -0.239 N 
HETATM   17  C5  UNL     1      67.079   7.184  -1.465  1.00  0.00     0.215 A 
ATOM     18  H7  UNL     1      69.101   6.966  -1.364  1.00  0.00     0.196 HD
HETATM   19  S2  UNL     1      65.948   6.599  -0.303  1.00  0.00    -0.010 SA
BRANCH  17  20
HETATM   20  S1  UNL     1      66.844   8.072  -2.966  1.00  0.00     0.281 S 
HETATM   21  O2  UNL     1      66.166   9.377  -2.687  1.00  0.00    -0.199 OA
HETATM   22  O3  UNL     1      65.957   7.247  -3.849  1.00  0.00    -0.199 OA
BRANCH  20  23
HETATM   23  N8  UNL     1      68.361   8.259  -3.722  1.00  0.00    -0.323 N 
ATOM     24  H82 UNL     1      68.507   8.344  -4.727  1.00  0.00     0.169 HD
ATOM     25  H81 UNL     1      69.080   8.271  -2.998  1.00  0.00     0.169 HD
ENDBRANCH  20  23
ENDBRANCH  17  20
ENDBRANCH  12  14
ENDBRANCH  10  12
ENDBRANCH   4  10
BRANCH   5  26
HETATM   26  N9  UNL     1      67.724   3.993   5.191  1.00  0.00    -0.106 N 
HETATM   27  O4  UNL     1      67.645   4.799   6.122  1.00  0.00    -0.531 OA
HETATM   28  O5  UNL     1      66.712   3.108   4.948  1.00  0.00    -0.531 OA
ENDBRANCH   5  26
BRANCH   1  29
HETATM   29  N3  UNL     1      72.086   3.991   1.893  1.00  0.00    -0.163 N 
HETATM   30  C1  UNL     1      72.881   5.183   1.867  1.00  0.00     0.200 C 
HETATM   31  N1  UNL     1      72.505   6.210   1.171  1.00  0.00    -0.373 N 
HETATM   32  N2  UNL     1      74.070   5.162   2.624  1.00  0.00    -0.063 NA
ATOM     33  H12 UNL     1      73.072   7.058   1.152  1.00  0.00     0.158 HD
ATOM     34  H11 UNL     1      71.645   6.225   0.624  1.00  0.00     0.158 HD
ATOM     35  H3  UNL     1      72.321   3.178   1.323  1.00  0.00     0.187 HD
ENDBRANCH   1  29
TORSDOF 7
ENDMDL
MODEL 2
REMARK VINA RESULT: -8.126230614      2.129      4.244
REMARK  7 active torsions:
REMARK  status: ('A' for Active; 'I' for Inactive)
REMARK       I    between atoms: C1_4  and  N3_6 
REMARK    1  A    between atoms: N3_6  and  C2_8 
REMARK    2  A    between atoms: C3_11  and  N5_12 
REMARK    3  A    between atoms: N5_12  and  N6_14 
REMARK    4  A    between atoms: N6_14  and  C4_16 
REMARK    5  A    between atoms: C5_20  and  S1_21 
REMARK    6  A    between atoms: S1_21  and  N8_22 
REMARK    7  A    between atoms: C6_28  and  N9_29 
ROOT
HETATM    1  C2  UNL     1      67.505   3.344   3.719  1.00  0.00     0.689 A 
HETATM    2  N4  UNL     1      68.013   3.774   2.554  1.00  0.00    -0.172 N 
ATOM      3  H4  UNL     1      67.360   4.018   1.811  1.00  0.00     0.186 HD
HETATM    4  C3  UNL     1      69.325   3.902   2.302  1.00  0.00     0.174 A 
HETATM    5  C6  UNL     1      70.221   3.576   3.293  1.00  0.00     0.216 A 
HETATM    6  C7  UNL     1      69.730   3.131   4.504  1.00  0.00     0.296 A 
HETATM    7  O6  UNL     1      70.567   2.837   5.397  1.00  0.00    -0.265 OA
HETATM    8  N10 UNL     1      68.405   3.027   4.684  1.00  0.00    -0.154 N 
ATOM      9  H10 UNL     1      68.059   2.696   5.584  1.00  0.00     0.187 HD
ENDROOT
BRANCH   4  10
HETATM   10  N5  UNL     1      69.788   4.371   1.028  1.00  0.00    -0.281 N 
ATOM     11  H5  UNL     1      69.893   3.739   0.234  1.00  0.00     0.188 HD
BRANCH  10  12
HETATM   12  N6  UNL     1      70.089   5.732   0.919  1.00  0.00    -0.271 N 
ATOM     13  H6  UNL     1      70.760   6.184   1.541  1.00  0.00     0.189 HD
BRANCH  12  14
HETATM   14  C4  UNL     1      69.466   6.397  -0.022  1.00  0.00     0.230 A 
HETATM   15  O1  UNL     1      70.004   7.210  -0.874  1.00  0.00    -0.209 OA
HETATM   16  N7  UNL     1      69.317   7.787  -1.726  1.00  0.00    -0.239 N 
HETATM   17  C5  UNL     1      68.006   7.584  -1.786  1.00  0.00     0.215 A 
ATOM     18  H7  UNL     1      69.761   8.424  -2.387  1.00  0.00     0.196 HD
HETATM   19  S2  UNL     1      67.821   6.467  -0.488  1.00  0.00    -0.010 SA
BRANCH  17  20
HETATM   20  S1  UNL     1      66.828   8.280  -2.895  1.00  0.00     0.281 S 
HETATM   21  O2  UNL     1      65.972   9.273  -2.172  1.00  0.00    -0.199 OA
HETATM   22  O3  UNL     1      65.958   7.164  -3.392  1.00  0.00    -0.199 OA
BRANCH  20  23
HETATM   23  N8  UNL     1      67.668   8.960  -4.213  1.00  0.00    -0.323 N 
ATOM     24  H82 UNL     1      68.529   8.588  -4.612  1.00  0.00     0.169 HD
ATOM     25  H81 UNL     1      67.160   9.788  -4.523  1.00  0.00     0.169 HD
ENDBRANCH  20  23
ENDBRANCH  17  20
ENDBRANCH  12  14
ENDBRANCH  10  12
ENDBRANCH   4  10
BRANCH   5  26
HETATM   26  N9  UNL     1      71.602   3.714   3.028  1.00  0.00    -0.106 N 
HETATM   27  O4  UNL     1      72.088   3.248   1.995  1.00  0.00    -0.531 OA
HETATM   28  O5  UNL     1      72.388   4.370   3.933  1.00  0.00    -0.531 OA
ENDBRANCH   5  26
BRANCH   1  29
HETATM   29  N3  UNL     1      66.232   3.235   3.939  1.00  0.00    -0.163 N 
HETATM   30  C1  UNL     1      65.789   2.030   4.576  1.00  0.00     0.200 C 
HETATM   31  N1  UNL     1      65.647   0.937   3.892  1.00  0.00    -0.373 N 
HETATM   32  N2  UNL     1      65.523   2.110   5.958  1.00  0.00    -0.063 NA
ATOM     33  H12 UNL     1      65.332   0.080   4.345  1.00  0.00     0.158 HD
ATOM     34  H11 UNL     1      65.841   0.880   2.892  1.00  0.00     0.158 HD
ATOM     35  H3  UNL     1      65.577   3.970   3.672  1.00  0.00     0.187 HD
ENDBRANCH   1  29
TORSDOF 7
ENDMDL
MODEL 3
REMARK VINA RESULT: -8.072139595      1.029      1.127
REMARK  7 active torsions:
REMARK  status: ('A' for Active; 'I' for Inactive)
REMARK       I    between atoms: C1_4  and  N3_6 
REMARK    1  A    between atoms: N3_6  and  C2_8 
REMARK    2  A    between atoms: C3_11  and  N5_12 
REMARK    3  A    between atoms: N5_12  and  N6_14 
REMARK    4  A    between atoms: N6_14  and  C4_16 
REMARK    5  A    between atoms: C5_20  and  S1_21 
REMARK    6  A    between atoms: S1_21  and  N8_22 
REMARK    7  A    between atoms: C6_28  and  N9_29 
ROOT
HETATM    1  C2  UNL     1      71.189   3.498   2.586  1.00  0.00     0.689 A 
HETATM    2  N4  UNL     1      69.976   3.411   2.020  1.00  0.00    -0.172 N 
ATOM      3  H4  UNL     1      69.904   3.590   1.018  1.00  0.00     0.186 HD
HETATM    4  C3  UNL     1      68.850   3.105   2.683  1.00  0.00     0.174 A 
HETATM    5  C6  UNL     1      68.927   2.862   4.034  1.00  0.00     0.216 A 
HETATM    6  C7  UNL     1      70.161   2.943   4.647  1.00  0.00     0.296 A 
HETATM    7  O6  UNL     1      70.210   2.717   5.885  1.00  0.00    -0.265 OA
HETATM    8  N10 UNL     1      71.244   3.254   3.920  1.00  0.00    -0.154 N 
ATOM      9  H10 UNL     1      72.148   3.311   4.390  1.00  0.00     0.187 HD
ENDROOT
BRANCH   4  10
HETATM   10  N5  UNL     1      67.590   3.031   2.001  1.00  0.00    -0.281 N 
ATOM     11  H5  UNL     1      67.293   2.180   1.522  1.00  0.00     0.188 HD
BRANCH  10  12
HETATM   12  N6  UNL     1      66.786   4.174   2.019  1.00  0.00    -0.271 N 
ATOM     13  H6  UNL     1      66.111   4.343   2.766  1.00  0.00     0.189 HD
BRANCH  12  14
HETATM   14  C4  UNL     1      66.943   5.018   1.029  1.00  0.00     0.230 A 
HETATM   15  O1  UNL     1      68.068   5.472   0.578  1.00  0.00    -0.209 OA
HETATM   16  N7  UNL     1      68.100   6.270  -0.368  1.00  0.00    -0.239 N 
HETATM   17  C5  UNL     1      66.976   6.679  -0.944  1.00  0.00     0.215 A 
ATOM     18  H7  UNL     1      68.998   6.615  -0.707  1.00  0.00     0.196 HD
HETATM   19  S2  UNL     1      65.827   5.809   0.001  1.00  0.00    -0.010 SA
BRANCH  17  20
HETATM   20  S1  UNL     1      66.764   7.796  -2.289  1.00  0.00     0.281 S 
HETATM   21  O2  UNL     1      65.995   8.998  -1.838  1.00  0.00    -0.199 OA
HETATM   22  O3  UNL     1      65.974   7.086  -3.347  1.00  0.00    -0.199 OA
BRANCH  20  23
HETATM   23  N8  UNL     1      68.302   8.185  -2.911  1.00  0.00    -0.323 N 
ATOM     24  H82 UNL     1      68.742   7.730  -3.710  1.00  0.00     0.169 HD
ATOM     25  H81 UNL     1      68.694   8.940  -2.348  1.00  0.00     0.169 HD
ENDBRANCH  20  23
ENDBRANCH  17  20
ENDBRANCH  12  14
ENDBRANCH  10  12
ENDBRANCH   4  10
BRANCH   5  26
HETATM   26  N9  UNL     1      67.742   2.537   4.732  1.00  0.00    -0.106 N 
HETATM   27  O4  UNL     1      67.025   3.430   5.189  1.00  0.00    -0.531 OA
HETATM   28  O5  UNL     1      67.406   1.223   4.891  1.00  0.00    -0.531 OA
ENDBRANCH   5  26
BRANCH   1  29
HETATM   29  N3  UNL     1      72.263   3.789   1.921  1.00  0.00    -0.163 N 
HETATM   30  C1  UNL     1      72.788   5.111   2.093  1.00  0.00     0.200 C 
HETATM   31  N1  UNL     1      72.263   6.115   1.461  1.00  0.00    -0.373 N 
HETATM   32  N2  UNL     1      73.885   5.244   2.968  1.00  0.00    -0.063 NA
ATOM     33  H12 UNL     1      72.638   7.056   1.583  1.00  0.00     0.158 HD
ATOM     34  H11 UNL     1      71.470   6.019   0.828  1.00  0.00     0.158 HD
ATOM     35  H3  UNL     1      72.712   3.111   1.306  1.00  0.00     0.187 HD
ENDBRANCH   1  29
TORSDOF 7
ENDMDL
MODEL 4
REMARK VINA RESULT: -8.004875491      2.145      4.274
REMARK  7 active torsions:
REMARK  status: ('A' for Active; 'I' for Inactive)
REMARK       I    between atoms: C1_4  and  N3_6 
REMARK    1  A    between atoms: N3_6  and  C2_8 
REMARK    2  A    between atoms: C3_11  and  N5_12 
REMARK    3  A    between atoms: N5_12  and  N6_14 
REMARK    4  A    between atoms: N6_14  and  C4_16 
REMARK    5  A    between atoms: C5_20  and  S1_21 
REMARK    6  A    between atoms: S1_21  and  N8_22 
REMARK    7  A    between atoms: C6_28  and  N9_29 
ROOT
HETATM    1  C2  UNL     1      66.159   3.290   1.684  1.00  0.00     0.689 A 
HETATM    2  N4  UNL     1      67.297   3.660   1.076  1.00  0.00    -0.172 N 
ATOM      3  H4  UNL     1      67.279   3.776   0.062  1.00  0.00     0.186 HD
HETATM    4  C3  UNL     1      68.457   3.886   1.712  1.00  0.00     0.174 A 
HETATM    5  C6  UNL     1      68.499   3.733   3.078  1.00  0.00     0.216 A 
HETATM    6  C7  UNL     1      67.345   3.354   3.733  1.00  0.00     0.296 A 
HETATM    7  O6  UNL     1      67.405   3.220   4.984  1.00  0.00    -0.265 OA
HETATM    8  N10 UNL     1      66.222   3.145   3.031  1.00  0.00    -0.154 N 
ATOM      9  H10 UNL     1      65.378   2.864   3.532  1.00  0.00     0.187 HD
ENDROOT
BRANCH   4  10
HETATM   10  N5  UNL     1      69.630   4.281   0.987  1.00  0.00    -0.281 N 
ATOM     11  H5  UNL     1      70.230   3.593   0.531  1.00  0.00     0.188 HD
BRANCH  10  12
HETATM   12  N6  UNL     1      69.915   5.648   0.930  1.00  0.00    -0.271 N 
ATOM     13  H6  UNL     1      70.534   6.095   1.608  1.00  0.00     0.189 HD
BRANCH  12  14
HETATM   14  C4  UNL     1      69.349   6.326  -0.037  1.00  0.00     0.230 A 
HETATM   15  O1  UNL     1      69.952   7.051  -0.923  1.00  0.00    -0.209 OA
HETATM   16  N7  UNL     1      69.314   7.652  -1.798  1.00  0.00    -0.239 N 
HETATM   17  C5  UNL     1      67.989   7.564  -1.847  1.00  0.00     0.215 A 
ATOM     18  H7  UNL     1      69.809   8.218  -2.486  1.00  0.00     0.196 HD
HETATM   19  S2  UNL     1      67.713   6.523  -0.502  1.00  0.00    -0.010 SA
BRANCH  17  20
HETATM   20  S1  UNL     1      66.872   8.314  -2.981  1.00  0.00     0.281 S 
HETATM   21  O2  UNL     1      66.070   9.369  -2.286  1.00  0.00    -0.199 OA
HETATM   22  O3  UNL     1      65.940   7.247  -3.474  1.00  0.00    -0.199 OA
BRANCH  20  23
HETATM   23  N8  UNL     1      67.769   8.920  -4.297  1.00  0.00    -0.323 N 
ATOM     24  H82 UNL     1      68.582   8.463  -4.711  1.00  0.00     0.169 HD
ATOM     25  H81 UNL     1      67.354   9.805  -4.589  1.00  0.00     0.169 HD
ENDBRANCH  20  23
ENDBRANCH  17  20
ENDBRANCH  12  14
ENDBRANCH  10  12
ENDBRANCH   4  10
BRANCH   5  26
HETATM   26  N9  UNL     1      69.720   3.974   3.748  1.00  0.00    -0.106 N 
HETATM   27  O4  UNL     1      70.005   5.111   4.131  1.00  0.00    -0.531 OA
HETATM   28  O5  UNL     1      70.575   2.931   3.962  1.00  0.00    -0.531 OA
ENDBRANCH   5  26
BRANCH   1  29
HETATM   29  N3  UNL     1      65.050   3.083   1.046  1.00  0.00    -0.163 N 
HETATM   30  C1  UNL     1      64.418   4.230   0.463  1.00  0.00     0.200 C 
HETATM   31  N1  UNL     1      63.712   5.036   1.195  1.00  0.00    -0.373 N 
HETATM   32  N2  UNL     1      64.607   4.417  -0.921  1.00  0.00    -0.063 NA
ATOM     33  H12 UNL     1      63.263   5.851   0.780  1.00  0.00     0.158 HD
ATOM     34  H11 UNL     1      63.576   4.900   2.196  1.00  0.00     0.158 HD
ATOM     35  H3  UNL     1      64.646   2.150   0.962  1.00  0.00     0.187 HD
ENDBRANCH   1  29
TORSDOF 7
ENDMDL
MODEL 5
REMARK VINA RESULT: -7.967305195      2.161      3.931
REMARK  7 active torsions:
REMARK  status: ('A' for Active; 'I' for Inactive)
REMARK       I    between atoms: C1_4  and  N3_6 
REMARK    1  A    between atoms: N3_6  and  C2_8 
REMARK    2  A    between atoms: C3_11  and  N5_12 
REMARK    3  A    between atoms: N5_12  and  N6_14 
REMARK    4  A    between atoms: N6_14  and  C4_16 
REMARK    5  A    between atoms: C5_20  and  S1_21 
REMARK    6  A    between atoms: S1_21  and  N8_22 
REMARK    7  A    between atoms: C6_28  and  N9_29 
ROOT
HETATM    1  C2  UNL     1      67.605   2.462   2.138  1.00  0.00     0.689 A 
HETATM    2  N4  UNL     1      68.103   3.678   1.866  1.00  0.00    -0.172 N 
ATOM      3  H4  UNL     1      67.657   4.221   1.126  1.00  0.00     0.186 HD
HETATM    4  C3  UNL     1      69.150   4.228   2.501  1.00  0.00     0.174 A 
HETATM    5  C6  UNL     1      69.765   3.510   3.500  1.00  0.00     0.216 A 
HETATM    6  C7  UNL     1      69.276   2.255   3.804  1.00  0.00     0.296 A 
HETATM    7  O6  UNL     1      69.854   1.615   4.722  1.00  0.00    -0.265 OA
HETATM    8  N10 UNL     1      68.226   1.770   3.126  1.00  0.00    -0.154 N 
ATOM      9  H10 UNL     1      67.879   0.841   3.363  1.00  0.00     0.187 HD
ENDROOT
BRANCH   4  10
HETATM   10  N5  UNL     1      69.620   5.537   2.150  1.00  0.00    -0.281 N 
ATOM     11  H5  UNL     1      69.503   6.331   2.780  1.00  0.00     0.188 HD
BRANCH  10  12
HETATM   12  N6  UNL     1      70.246   5.679   0.908  1.00  0.00    -0.271 N 
ATOM     13  H6  UNL     1      71.168   5.284   0.724  1.00  0.00     0.189 HD
BRANCH  12  14
HETATM   14  C4  UNL     1      69.586   6.345  -0.008  1.00  0.00     0.230 A 
HETATM   15  O1  UNL     1      70.087   7.176  -0.864  1.00  0.00    -0.209 OA
HETATM   16  N7  UNL     1      69.367   7.753  -1.689  1.00  0.00    -0.239 N 
HETATM   17  C5  UNL     1      68.058   7.529  -1.715  1.00  0.00     0.215 A 
ATOM     18  H7  UNL     1      69.782   8.405  -2.354  1.00  0.00     0.196 HD
HETATM   19  S2  UNL     1      67.927   6.394  -0.426  1.00  0.00    -0.010 SA
BRANCH  17  20
HETATM   20  S1  UNL     1      66.838   8.219  -2.782  1.00  0.00     0.281 S 
HETATM   21  O2  UNL     1      65.990   9.192  -2.024  1.00  0.00    -0.199 OA
HETATM   22  O3  UNL     1      65.970   7.096  -3.265  1.00  0.00    -0.199 OA
BRANCH  20  23
HETATM   23  N8  UNL     1      67.629   8.925  -4.116  1.00  0.00    -0.323 N 
ATOM     24  H82 UNL     1      68.475   8.561  -4.554  1.00  0.00     0.169 HD
ATOM     25  H81 UNL     1      67.112   9.760  -4.391  1.00  0.00     0.169 HD
ENDBRANCH  20  23
ENDBRANCH  17  20
ENDBRANCH  12  14
ENDBRANCH  10  12
ENDBRANCH   4  10
BRANCH   5  26
HETATM   26  N9  UNL     1      70.865   4.090   4.170  1.00  0.00    -0.106 N 
HETATM   27  O4  UNL     1      70.687   4.781   5.176  1.00  0.00    -0.531 OA
HETATM   28  O5  UNL     1      72.125   3.874   3.686  1.00  0.00    -0.531 OA
ENDBRANCH   5  26
BRANCH   1  29
HETATM   29  N3  UNL     1      66.589   1.957   1.512  1.00  0.00    -0.163 N 
HETATM   30  C1  UNL     1      65.416   2.776   1.421  1.00  0.00     0.200 C 
HETATM   31  N1  UNL     1      64.602   2.874   2.426  1.00  0.00    -0.373 N 
HETATM   32  N2  UNL     1      65.210   3.446   0.199  1.00  0.00    -0.063 NA
ATOM     33  H12 UNL     1      63.768   3.456   2.361  1.00  0.00     0.158 HD
ATOM     34  H11 UNL     1      64.752   2.389   3.311  1.00  0.00     0.158 HD
ATOM     35  H3  UNL     1      66.621   1.022   1.105  1.00  0.00     0.187 HD
ENDBRANCH   1  29
TORSDOF 7
ENDMDL
