MODEL 1
REMARK VINA RESULT: -7.649135445      0.000      0.000
REMARK  9 active torsions:
REMARK  status: ('A' for Active; 'I' for Inactive)
REMARK    1  A    between atoms: C2_2  and  C3_3 
REMARK    2  A    between atoms: C2_2  and  N8_31 
REMARK    3  A    between atoms: N1_6  and  C6_7 
REMARK    4  A    between atoms: C6_7  and  C7_8 
REMARK    5  A    between atoms: C7_8  and  C8_9 
REMARK    6  A    between atoms: C8_9  and  N2_10 
REMARK    7  A    between atoms: C10_12  and  N3_13 
REMARK    8  A    between atoms: C21_34  and  O2_35 
REMARK    9  A    between atoms: O2_35  and  C22_36 
ROOT
HETATM    1  C3  UNL     1       6.462  17.131  21.910  1.00  0.00     0.065 C 
HETATM    2  C4  UNL     1       5.828  15.913  22.531  1.00  0.00     0.058 C 
HETATM    3  C5  UNL     1       6.419  15.443  23.807  1.00  0.00     0.069 C 
HETATM    4  N1  UNL     1       7.560  14.626  23.729  1.00  0.00    -0.348 N 
HETATM    5  C15 UNL     1       8.752  15.193  23.237  1.00  0.00     0.126 C 
HETATM    6  C16 UNL     1       8.699  15.853  21.931  1.00  0.00     0.072 A 
HETATM    7  N6  UNL     1       9.698  15.724  21.043  1.00  0.00    -0.350 N 
ATOM      8  H6  UNL     1      10.550  15.180  21.173  1.00  0.00     0.166 HD
HETATM    9  C17 UNL     1       9.378  16.435  19.960  1.00  0.00     0.181 A 
HETATM   10  N7  UNL     1       8.199  17.011  20.142  1.00  0.00    -0.353 N 
ATOM     11  H7  UNL     1       7.713  17.611  19.476  1.00  0.00     0.166 HD
HETATM   12  C18 UNL     1       7.764  16.665  21.351  1.00  0.00     0.045 A 
ENDROOT
BRANCH   1  13
HETATM   13  C2  UNL     1       6.714  18.260  22.837  1.00  0.00     0.085 C 
HETATM   14  C1  UNL     1       5.752  18.323  24.000  1.00  0.00     0.033 C 
BRANCH  13  15
HETATM   15  N8  UNL     1       6.753  19.537  22.213  1.00  0.00    -0.408 N 
HETATM   16  C19 UNL     1       5.897  19.698  21.078  1.00  0.00     0.119 C 
HETATM   17  C20 UNL     1       6.083  21.164  20.617  1.00  0.00     0.052 C 
HETATM   18  C21 UNL     1       7.463  21.287  19.987  1.00  0.00     0.132 C 
HETATM   19  C27 UNL     1       8.419  20.335  20.710  1.00  0.00     0.052 C 
HETATM   20  C28 UNL     1       7.965  20.247  22.178  1.00  0.00     0.119 C 
BRANCH  18  21
HETATM   21  O2  UNL     1       8.014  22.542  19.977  1.00  0.00    -0.344 OA
BRANCH  21  22
HETATM   22  C22 UNL     1       8.015  23.470  18.958  1.00  0.00     0.084 A 
HETATM   23  C23 UNL     1       9.149  23.915  18.332  1.00  0.00     0.039 A 
HETATM   24  C24 UNL     1       9.105  24.859  17.305  1.00  0.00     0.020 A 
HETATM   25  C25 UNL     1       7.896  25.372  16.892  1.00  0.00     0.088 A 
HETATM   26  N9  UNL     1       6.770  24.935  17.507  1.00  0.00    -0.373 N 
HETATM   27  C26 UNL     1       6.816  24.025  18.497  1.00  0.00     0.124 A 
ATOM     28  H9  UNL     1       5.866  25.306  17.212  1.00  0.00     0.164 HD
ENDBRANCH  21  22
ENDBRANCH  18  21
ENDBRANCH  13  15
ENDBRANCH   1  13
BRANCH   4  29
HETATM   29  C6  UNL     1       7.431  13.229  23.786  1.00  0.00     0.070 C 
BRANCH  29  30
HETATM   30  C7  UNL     1       7.727  12.614  22.440  1.00  0.00     0.067 C 
BRANCH  30  31
HETATM   31  C8  UNL     1       6.568  12.563  21.504  1.00  0.00     0.155 C 
BRANCH  31  32
HETATM   32  N2  UNL     1       6.759  13.204  20.232  1.00  0.00    -0.285 N 
HETATM   33  C9  UNL     1       7.800  13.118  19.394  1.00  0.00     0.161 A 
HETATM   34  C10 UNL     1       7.562  13.923  18.290  1.00  0.00     0.136 A 
HETATM   35  N4  UNL     1       6.341  14.483  18.514  1.00  0.00    -0.270 N 
HETATM   36  N5  UNL     1       5.879  14.048  19.669  1.00  0.00    -0.239 N 
ATOM     37  H4  UNL     1       5.862  15.133  17.890  1.00  0.00     0.190 HD
ATOM     38  H5  UNL     1       4.983  14.313  20.076  1.00  0.00     0.208 HD
BRANCH  34  39
HETATM   39  N3  UNL     1       8.414  14.107  17.193  1.00  0.00    -0.361 N 
HETATM   40  C11 UNL     1       8.112  15.001  16.102  1.00  0.00     0.150 C 
HETATM   41  C12 UNL     1       9.343  15.621  15.482  1.00  0.00     0.187 C 
HETATM   42  O1  UNL     1      10.323  14.695  15.249  1.00  0.00    -0.388 OA
HETATM   43  C13 UNL     1      10.029  13.402  15.610  1.00  0.00     0.187 C 
HETATM   44  C14 UNL     1       9.674  13.378  17.096  1.00  0.00     0.150 C 
ENDBRANCH  34  39
ENDBRANCH  31  32
ENDBRANCH  30  31
ENDBRANCH  29  30
ENDBRANCH   4  29
TORSDOF 9
ENDMDL
MODEL 2
REMARK VINA RESULT: -7.473269987      1.335      1.765
REMARK  9 active torsions:
REMARK  status: ('A' for Active; 'I' for Inactive)
REMARK    1  A    between atoms: C2_2  and  C3_3 
REMARK    2  A    between atoms: C2_2  and  N8_31 
REMARK    3  A    between atoms: N1_6  and  C6_7 
REMARK    4  A    between atoms: C6_7  and  C7_8 
REMARK    5  A    between atoms: C7_8  and  C8_9 
REMARK    6  A    between atoms: C8_9  and  N2_10 
REMARK    7  A    between atoms: C10_12  and  N3_13 
REMARK    8  A    between atoms: C21_34  and  O2_35 
REMARK    9  A    between atoms: O2_35  and  C22_36 
ROOT
HETATM    1  C3  UNL     1       4.968  17.222  22.332  1.00  0.00     0.065 C 
HETATM    2  C4  UNL     1       4.750  15.887  22.997  1.00  0.00     0.058 C 
HETATM    3  C5  UNL     1       5.632  15.574  24.146  1.00  0.00     0.069 C 
HETATM    4  N1  UNL     1       6.908  15.057  23.860  1.00  0.00    -0.348 N 
HETATM    5  C15 UNL     1       7.836  15.894  23.211  1.00  0.00     0.126 C 
HETATM    6  C16 UNL     1       7.419  16.521  21.955  1.00  0.00     0.072 A 
HETATM    7  N6  UNL     1       8.264  16.637  20.918  1.00  0.00    -0.350 N 
ATOM      8  H6  UNL     1       9.230  16.314  20.893  1.00  0.00     0.166 HD
HETATM    9  C17 UNL     1       7.614  17.248  19.926  1.00  0.00     0.181 A 
HETATM   10  N7  UNL     1       6.377  17.523  20.311  1.00  0.00    -0.353 N 
ATOM     11  H7  UNL     1       5.661  17.988  19.752  1.00  0.00     0.166 HD
HETATM   12  C18 UNL     1       6.237  17.083  21.560  1.00  0.00     0.045 A 
ENDROOT
BRANCH   1  13
HETATM   13  C2  UNL     1       5.089  18.378  23.250  1.00  0.00     0.085 C 
HETATM   14  C1  UNL     1       3.828  18.677  24.028  1.00  0.00     0.033 C 
BRANCH  13  15
HETATM   15  N8  UNL     1       5.533  19.579  22.631  1.00  0.00    -0.408 N 
HETATM   16  C19 UNL     1       6.734  20.143  23.166  1.00  0.00     0.119 C 
HETATM   17  C20 UNL     1       7.029  21.395  22.306  1.00  0.00     0.052 C 
HETATM   18  C21 UNL     1       6.001  22.460  22.659  1.00  0.00     0.132 C 
HETATM   19  C27 UNL     1       4.679  21.771  23.005  1.00  0.00     0.052 C 
HETATM   20  C28 UNL     1       4.583  20.495  22.149  1.00  0.00     0.119 C 
BRANCH  18  21
HETATM   21  O2  UNL     1       5.765  23.414  21.703  1.00  0.00    -0.344 OA
BRANCH  21  22
HETATM   22  C22 UNL     1       6.247  23.472  20.413  1.00  0.00     0.084 A 
HETATM   23  C23 UNL     1       7.347  24.200  20.043  1.00  0.00     0.039 A 
HETATM   24  C24 UNL     1       7.801  24.235  18.723  1.00  0.00     0.020 A 
HETATM   25  C25 UNL     1       7.138  23.524  17.748  1.00  0.00     0.088 A 
HETATM   26  N9  UNL     1       6.050  22.801  18.108  1.00  0.00    -0.373 N 
HETATM   27  C26 UNL     1       5.615  22.771  19.381  1.00  0.00     0.124 A 
ATOM     28  H9  UNL     1       5.548  22.269  17.397  1.00  0.00     0.164 HD
ENDBRANCH  21  22
ENDBRANCH  18  21
ENDBRANCH  13  15
ENDBRANCH   1  13
BRANCH   4  29
HETATM   29  C6  UNL     1       7.127  13.669  23.884  1.00  0.00     0.070 C 
BRANCH  29  30
HETATM   30  C7  UNL     1       7.675  13.197  22.559  1.00  0.00     0.067 C 
BRANCH  30  31
HETATM   31  C8  UNL     1       6.646  12.798  21.559  1.00  0.00     0.155 C 
BRANCH  31  32
HETATM   32  N2  UNL     1       6.803  13.349  20.241  1.00  0.00    -0.285 N 
HETATM   33  C9  UNL     1       7.867  13.297  19.429  1.00  0.00     0.161 A 
HETATM   34  C10 UNL     1       7.577  13.982  18.258  1.00  0.00     0.136 A 
HETATM   35  N4  UNL     1       6.303  14.435  18.416  1.00  0.00    -0.270 N 
HETATM   36  N5  UNL     1       5.859  14.052  19.596  1.00  0.00    -0.239 N 
ATOM     37  H4  UNL     1       5.778  14.982  17.733  1.00  0.00     0.190 HD
ATOM     38  H5  UNL     1       4.931  14.260  19.966  1.00  0.00     0.208 HD
BRANCH  34  39
HETATM   39  N3  UNL     1       8.433  14.159  17.163  1.00  0.00    -0.361 N 
HETATM   40  C11 UNL     1       8.118  15.019  16.048  1.00  0.00     0.150 C 
HETATM   41  C12 UNL     1       9.338  15.652  15.421  1.00  0.00     0.187 C 
HETATM   42  O1  UNL     1      10.342  14.745  15.218  1.00  0.00    -0.388 OA
HETATM   43  C13 UNL     1      10.076  13.454  15.608  1.00  0.00     0.187 C 
HETATM   44  C14 UNL     1       9.710  13.458  17.092  1.00  0.00     0.150 C 
ENDBRANCH  34  39
ENDBRANCH  31  32
ENDBRANCH  30  31
ENDBRANCH  29  30
ENDBRANCH   4  29
TORSDOF 9
ENDMDL
MODEL 3
REMARK VINA RESULT: -7.423776394      0.829      1.166
REMARK  9 active torsions:
REMARK  status: ('A' for Active; 'I' for Inactive)
REMARK    1  A    between atoms: C2_2  and  C3_3 
REMARK    2  A    between atoms: C2_2  and  N8_31 
REMARK    3  A    between atoms: N1_6  and  C6_7 
REMARK    4  A    between atoms: C6_7  and  C7_8 
REMARK    5  A    between atoms: C7_8  and  C8_9 
REMARK    6  A    between atoms: C8_9  and  N2_10 
REMARK    7  A    between atoms: C10_12  and  N3_13 
REMARK    8  A    between atoms: C21_34  and  O2_35 
REMARK    9  A    between atoms: O2_35  and  C22_36 
ROOT
HETATM    1  C3  UNL     1       6.634  17.364  21.198  1.00  0.00     0.065 C 
HETATM    2  C4  UNL     1       5.871  16.276  21.911  1.00  0.00     0.058 C 
HETATM    3  C5  UNL     1       6.277  15.998  23.309  1.00  0.00     0.069 C 
HETATM    4  N1  UNL     1       7.379  15.147  23.505  1.00  0.00    -0.348 N 
HETATM    5  C15 UNL     1       8.648  15.597  23.091  1.00  0.00     0.126 C 
HETATM    6  C16 UNL     1       8.788  16.044  21.703  1.00  0.00     0.072 A 
HETATM    7  N6  UNL     1       9.882  15.750  20.982  1.00  0.00    -0.350 N 
ATOM      8  H6  UNL     1      10.685  15.209  21.303  1.00  0.00     0.166 HD
HETATM    9  C17 UNL     1       9.732  16.289  19.771  1.00  0.00     0.181 A 
HETATM   10  N7  UNL     1       8.568  16.919  19.709  1.00  0.00    -0.353 N 
ATOM     11  H7  UNL     1       8.197  17.420  18.902  1.00  0.00     0.166 HD
HETATM   12  C18 UNL     1       7.971  16.780  20.891  1.00  0.00     0.045 A 
ENDROOT
BRANCH   1  13
HETATM   13  C2  UNL     1       6.822  18.617  21.966  1.00  0.00     0.085 C 
HETATM   14  C1  UNL     1       5.538  19.203  22.505  1.00  0.00     0.033 C 
BRANCH  13  15
HETATM   15  N8  UNL     1       7.527  19.636  21.268  1.00  0.00    -0.408 N 
HETATM   16  C19 UNL     1       8.170  20.616  22.089  1.00  0.00     0.119 C 
HETATM   17  C20 UNL     1       8.895  21.571  21.110  1.00  0.00     0.052 C 
HETATM   18  C21 UNL     1       7.840  22.405  20.399  1.00  0.00     0.132 C 
HETATM   19  C27 UNL     1       6.581  21.553  20.218  1.00  0.00     0.052 C 
HETATM   20  C28 UNL     1       7.031  20.092  20.036  1.00  0.00     0.119 C 
BRANCH  18  21
HETATM   21  O2  UNL     1       8.199  22.924  19.182  1.00  0.00    -0.344 OA
BRANCH  21  22
HETATM   22  C22 UNL     1       7.906  24.166  18.659  1.00  0.00     0.084 A 
HETATM   23  C23 UNL     1       8.123  24.514  17.353  1.00  0.00     0.039 A 
HETATM   24  C24 UNL     1       7.814  25.785  16.865  1.00  0.00     0.020 A 
HETATM   25  C25 UNL     1       7.274  26.733  17.705  1.00  0.00     0.088 A 
HETATM   26  N9  UNL     1       7.055  26.394  18.999  1.00  0.00    -0.373 N 
HETATM   27  C26 UNL     1       7.355  25.167  19.466  1.00  0.00     0.124 A 
ATOM     28  H9  UNL     1       6.655  27.085  19.634  1.00  0.00     0.164 HD
ENDBRANCH  21  22
ENDBRANCH  18  21
ENDBRANCH  13  15
ENDBRANCH   1  13
BRANCH   4  29
HETATM   29  C6  UNL     1       7.179  13.780  23.758  1.00  0.00     0.070 C 
BRANCH  29  30
HETATM   30  C7  UNL     1       7.653  12.950  22.590  1.00  0.00     0.067 C 
BRANCH  30  31
HETATM   31  C8  UNL     1       6.604  12.622  21.585  1.00  0.00     0.155 C 
BRANCH  31  32
HETATM   32  N2  UNL     1       6.770  13.214  20.286  1.00  0.00    -0.285 N 
HETATM   33  C9  UNL     1       7.819  13.142  19.457  1.00  0.00     0.161 A 
HETATM   34  C10 UNL     1       7.547  13.884  18.316  1.00  0.00     0.136 A 
HETATM   35  N4  UNL     1       6.299  14.392  18.511  1.00  0.00    -0.270 N 
HETATM   36  N5  UNL     1       5.853  13.987  19.683  1.00  0.00    -0.239 N 
ATOM     37  H4  UNL     1       5.792  14.990  17.857  1.00  0.00     0.190 HD
ATOM     38  H5  UNL     1       4.942  14.226  20.074  1.00  0.00     0.208 HD
BRANCH  34  39
HETATM   39  N3  UNL     1       8.396  14.061  17.216  1.00  0.00    -0.361 N 
HETATM   40  C11 UNL     1       8.108  14.977  16.139  1.00  0.00     0.150 C 
HETATM   41  C12 UNL     1       9.349  15.574  15.517  1.00  0.00     0.187 C 
HETATM   42  O1  UNL     1      10.304  14.628  15.265  1.00  0.00    -0.388 OA
HETATM   43  C13 UNL     1       9.981  13.338  15.611  1.00  0.00     0.187 C 
HETATM   44  C14 UNL     1       9.636  13.303  17.099  1.00  0.00     0.150 C 
ENDBRANCH  34  39
ENDBRANCH  31  32
ENDBRANCH  30  31
ENDBRANCH  29  30
ENDBRANCH   4  29
TORSDOF 9
ENDMDL
MODEL 4
REMARK VINA RESULT: -7.370685621      2.136      2.492
REMARK  9 active torsions:
REMARK  status: ('A' for Active; 'I' for Inactive)
REMARK    1  A    between atoms: C2_2  and  C3_3 
REMARK    2  A    between atoms: C2_2  and  N8_31 
REMARK    3  A    between atoms: N1_6  and  C6_7 
REMARK    4  A    between atoms: C6_7  and  C7_8 
REMARK    5  A    between atoms: C7_8  and  C8_9 
REMARK    6  A    between atoms: C8_9  and  N2_10 
REMARK    7  A    between atoms: C10_12  and  N3_13 
REMARK    8  A    between atoms: C21_34  and  O2_35 
REMARK    9  A    between atoms: O2_35  and  C22_36 
ROOT
HETATM    1  C3  UNL     1       7.606  17.181  21.930  1.00  0.00     0.065 C 
HETATM    2  C4  UNL     1       6.659  16.178  22.538  1.00  0.00     0.058 C 
HETATM    3  C5  UNL     1       7.084  15.565  23.818  1.00  0.00     0.069 C 
HETATM    4  N1  UNL     1       7.965  14.471  23.750  1.00  0.00    -0.348 N 
HETATM    5  C15 UNL     1       9.271  14.697  23.275  1.00  0.00     0.126 C 
HETATM    6  C16 UNL     1       9.415  15.348  21.972  1.00  0.00     0.072 A 
HETATM    7  N6  UNL     1      10.354  14.956  21.096  1.00  0.00    -0.350 N 
ATOM      8  H6  UNL     1      11.026  14.202  21.234  1.00  0.00     0.166 HD
HETATM    9  C17 UNL     1      10.252  15.728  20.012  1.00  0.00     0.181 A 
HETATM   10  N7  UNL     1       9.269  16.600  20.182  1.00  0.00    -0.353 N 
ATOM     11  H7  UNL     1       8.971  17.310  19.514  1.00  0.00     0.166 HD
HETATM   12  C18 UNL     1       8.741  16.383  21.385  1.00  0.00     0.045 A 
ENDROOT
BRANCH   1  13
HETATM   13  C2  UNL     1       8.140  18.199  22.865  1.00  0.00     0.085 C 
HETATM   14  C1  UNL     1       7.169  18.603  23.950  1.00  0.00     0.033 C 
BRANCH  13  15
HETATM   15  N8  UNL     1       8.632  19.377  22.237  1.00  0.00    -0.408 N 
HETATM   16  C19 UNL     1       7.954  19.768  21.040  1.00  0.00     0.119 C 
HETATM   17  C20 UNL     1       8.633  21.082  20.584  1.00  0.00     0.052 C 
HETATM   18  C21 UNL     1      10.019  20.736  20.058  1.00  0.00     0.132 C 
HETATM   19  C27 UNL     1      10.566  19.551  20.858  1.00  0.00     0.052 C 
HETATM   20  C28 UNL     1      10.007  19.659  22.289  1.00  0.00     0.119 C 
BRANCH  18  21
HETATM   21  O2  UNL     1      10.944  21.747  20.081  1.00  0.00    -0.344 OA
BRANCH  21  22
HETATM   22  C22 UNL     1      11.940  22.019  19.167  1.00  0.00     0.084 A 
HETATM   23  C23 UNL     1      12.706  21.056  18.565  1.00  0.00     0.039 A 
HETATM   24  C24 UNL     1      13.707  21.376  17.647  1.00  0.00     0.020 A 
HETATM   25  C25 UNL     1      13.949  22.691  17.320  1.00  0.00     0.088 A 
HETATM   26  N9  UNL     1      13.194  23.649  17.912  1.00  0.00    -0.373 N 
HETATM   27  C26 UNL     1      12.229  23.337  18.797  1.00  0.00     0.124 A 
ATOM     28  H9  UNL     1      13.360  24.628  17.680  1.00  0.00     0.164 HD
ENDBRANCH  21  22
ENDBRANCH  18  21
ENDBRANCH  13  15
ENDBRANCH   1  13
BRANCH   4  29
HETATM   29  C6  UNL     1       7.463  13.160  23.799  1.00  0.00     0.070 C 
BRANCH  29  30
HETATM   30  C7  UNL     1       7.618  12.483  22.459  1.00  0.00     0.067 C 
BRANCH  30  31
HETATM   31  C8  UNL     1       6.456  12.636  21.539  1.00  0.00     0.155 C 
BRANCH  31  32
HETATM   32  N2  UNL     1       6.716  13.324  20.305  1.00  0.00    -0.285 N 
HETATM   33  C9  UNL     1       7.696  13.115  19.417  1.00  0.00     0.161 A 
HETATM   34  C10 UNL     1       7.569  14.029  18.380  1.00  0.00     0.136 A 
HETATM   35  N4  UNL     1       6.478  14.779  18.697  1.00  0.00    -0.270 N 
HETATM   36  N5  UNL     1       5.984  14.349  19.841  1.00  0.00    -0.239 N 
ATOM     37  H4  UNL     1       6.103  15.548  18.140  1.00  0.00     0.190 HD
ATOM     38  H5  UNL     1       5.164  14.739  20.306  1.00  0.00     0.208 HD
BRANCH  34  39
HETATM   39  N3  UNL     1       8.404  14.139  17.260  1.00  0.00    -0.361 N 
HETATM   40  C11 UNL     1       8.150  15.056  16.175  1.00  0.00     0.150 C 
HETATM   41  C12 UNL     1       9.411  15.567  15.520  1.00  0.00     0.187 C 
HETATM   42  O1  UNL     1      10.301  14.560  15.262  1.00  0.00    -0.388 OA
HETATM   43  C13 UNL     1       9.908  13.297  15.634  1.00  0.00     0.187 C 
HETATM   44  C14 UNL     1       9.592  13.304  17.129  1.00  0.00     0.150 C 
ENDBRANCH  34  39
ENDBRANCH  31  32
ENDBRANCH  30  31
ENDBRANCH  29  30
ENDBRANCH   4  29
TORSDOF 9
ENDMDL
MODEL 5
REMARK VINA RESULT: -7.217505310      2.329      2.834
REMARK  9 active torsions:
REMARK  status: ('A' for Active; 'I' for Inactive)
REMARK    1  A    between atoms: C2_2  and  C3_3 
REMARK    2  A    between atoms: C2_2  and  N8_31 
REMARK    3  A    between atoms: N1_6  and  C6_7 
REMARK    4  A    between atoms: C6_7  and  C7_8 
REMARK    5  A    between atoms: C7_8  and  C8_9 
REMARK    6  A    between atoms: C8_9  and  N2_10 
REMARK    7  A    between atoms: C10_12  and  N3_13 
REMARK    8  A    between atoms: C21_34  and  O2_35 
REMARK    9  A    between atoms: O2_35  and  C22_36 
ROOT
HETATM    1  C3  UNL     1       7.407  17.326  21.196  1.00  0.00     0.065 C 
HETATM    2  C4  UNL     1       6.460  16.377  21.886  1.00  0.00     0.058 C 
HETATM    3  C5  UNL     1       6.792  16.021  23.285  1.00  0.00     0.069 C 
HETATM    4  N1  UNL     1       7.732  14.994  23.485  1.00  0.00    -0.348 N 
HETATM    5  C15 UNL     1       9.064  15.226  23.092  1.00  0.00     0.126 C 
HETATM    6  C16 UNL     1       9.299  15.656  21.712  1.00  0.00     0.072 A 
HETATM    7  N6  UNL     1      10.337  15.187  21.002  1.00  0.00    -0.350 N 
ATOM      8  H6  UNL     1      11.032  14.516  21.326  1.00  0.00     0.166 HD
HETATM    9  C17 UNL     1      10.298  15.756  19.796  1.00  0.00     0.181 A 
HETATM   10  N7  UNL     1       9.259  16.575  19.726  1.00  0.00    -0.353 N 
ATOM     11  H7  UNL     1       8.990  17.139  18.920  1.00  0.00     0.166 HD
HETATM   12  C18 UNL     1       8.630  16.528  20.898  1.00  0.00     0.045 A 
ENDROOT
BRANCH   1  13
HETATM   13  C2  UNL     1       7.793  18.522  21.981  1.00  0.00     0.085 C 
HETATM   14  C1  UNL     1       6.637  19.436  22.314  1.00  0.00     0.033 C 
BRANCH  13  15
HETATM   15  N8  UNL     1       8.831  19.301  21.398  1.00  0.00    -0.408 N 
HETATM   16  C19 UNL     1       9.881  19.695  22.287  1.00  0.00     0.119 C 
HETATM   17  C20 UNL     1      10.894  20.477  21.416  1.00  0.00     0.052 C 
HETATM   18  C21 UNL     1      10.270  21.817  21.057  1.00  0.00     0.132 C 
HETATM   19  C27 UNL     1       8.758  21.630  20.910  1.00  0.00     0.052 C 
HETATM   20  C28 UNL     1       8.515  20.208  20.374  1.00  0.00     0.119 C 
BRANCH  18  21
HETATM   21  O2  UNL     1      10.750  22.426  19.927  1.00  0.00    -0.344 OA
BRANCH  21  22
HETATM   22  C22 UNL     1      11.995  22.300  19.349  1.00  0.00     0.084 A 
HETATM   23  C23 UNL     1      12.249  21.530  18.245  1.00  0.00     0.039 A 
HETATM   24  C24 UNL     1      13.528  21.427  17.693  1.00  0.00     0.020 A 
HETATM   25  C25 UNL     1      14.580  22.112  18.259  1.00  0.00     0.088 A 
HETATM   26  N9  UNL     1      14.335  22.875  19.352  1.00  0.00    -0.373 N 
HETATM   27  C26 UNL     1      13.101  22.972  19.881  1.00  0.00     0.124 A 
ATOM     28  H9  UNL     1      15.104  23.389  19.783  1.00  0.00     0.164 HD
ENDBRANCH  21  22
ENDBRANCH  18  21
ENDBRANCH  13  15
ENDBRANCH   1  13
BRANCH   4  29
HETATM   29  C6  UNL     1       7.299  13.678  23.719  1.00  0.00     0.070 C 
BRANCH  29  30
HETATM   30  C7  UNL     1       7.625  12.796  22.539  1.00  0.00     0.067 C 
BRANCH  30  31
HETATM   31  C8  UNL     1       6.516  12.620  21.560  1.00  0.00     0.155 C 
BRANCH  31  32
HETATM   32  N2  UNL     1       6.714  13.222  20.270  1.00  0.00    -0.285 N 
HETATM   33  C9  UNL     1       7.756  13.104  19.438  1.00  0.00     0.161 A 
HETATM   34  C10 UNL     1       7.526  13.878  18.310  1.00  0.00     0.136 A 
HETATM   35  N4  UNL     1       6.308  14.453  18.515  1.00  0.00    -0.270 N 
HETATM   36  N5  UNL     1       5.841  14.055  19.681  1.00  0.00    -0.239 N 
ATOM     37  H4  UNL     1       5.835  15.088  17.872  1.00  0.00     0.190 HD
ATOM     38  H5  UNL     1       4.945  14.338  20.078  1.00  0.00     0.208 HD
BRANCH  34  39
HETATM   39  N3  UNL     1       8.382  14.024  17.211  1.00  0.00    -0.361 N 
HETATM   40  C11 UNL     1       8.133  14.956  16.138  1.00  0.00     0.150 C 
HETATM   41  C12 UNL     1       9.399  15.503  15.519  1.00  0.00     0.187 C 
HETATM   42  O1  UNL     1      10.314  14.519  15.264  1.00  0.00    -0.388 OA
HETATM   43  C13 UNL     1       9.937  13.242  15.604  1.00  0.00     0.187 C 
HETATM   44  C14 UNL     1       9.589  13.215  17.092  1.00  0.00     0.150 C 
ENDBRANCH  34  39
ENDBRANCH  31  32
ENDBRANCH  30  31
ENDBRANCH  29  30
ENDBRANCH   4  29
TORSDOF 9
ENDMDL
