MODEL 1
REMARK VINA RESULT: -7.362473375      0.000      0.000
REMARK  11 active torsions:
REMARK  status: ('A' for Active; 'I' for Inactive)
REMARK    1  A    between atoms: C2_2  and  C4_4 
REMARK    2  A    between atoms: C7_7  and  N1_8 
REMARK    3  A    between atoms: N1_8  and  C9_10 
REMARK    4  A    between atoms: C9_10  and  S2_12 
REMARK    5  A    between atoms: S2_12  and  C10_13 
REMARK    6  A    between atoms: C11_14  and  C12_15 
REMARK    7  A    between atoms: C12_15  and  O1_16 
REMARK    8  A    between atoms: O1_16  and  C13_17 
REMARK    9  A    between atoms: C13_17  and  C14_19 
REMARK   10  A    between atoms: C14_19  and  N2_20 
REMARK   11  A    between atoms: N2_20  and  S3_22 
ROOT
HETATM    1  C10 UNL     1       9.114  13.863  22.145  1.00  0.00     0.119 C 
HETATM    2  C11 UNL     1       8.094  13.365  23.200  1.00  0.00     0.166 C 
HETATM    3  O4  UNL     1       7.171  12.691  22.453  1.00  0.00    -0.350 OA
HETATM    4  C16 UNL     1       7.072  13.208  21.198  1.00  0.00     0.294 C 
HETATM    5  O5  UNL     1       7.002  12.275  20.165  1.00  0.00    -0.324 OA
HETATM    6  C17 UNL     1       7.785  12.843  19.150  1.00  0.00     0.160 C 
HETATM    7  C18 UNL     1       7.255  14.132  18.617  1.00  0.00     0.078 C 
HETATM    8  C19 UNL     1       8.183  11.875  18.082  1.00  0.00     0.078 C 
HETATM    9  O6  UNL     1       8.926  13.182  19.918  1.00  0.00    -0.344 OA
HETATM   10  C20 UNL     1       8.316  13.962  20.898  1.00  0.00     0.197 C 
ENDROOT
BRANCH   1  11
HETATM   11  S2  UNL     1       9.812  15.408  22.574  1.00  0.00    -0.090 SA
BRANCH  11  12
HETATM   12  C9  UNL     1      11.353  15.864  21.947  1.00  0.00     0.141 C 
HETATM   13  S1  UNL     1      12.714  15.177  22.723  1.00  0.00    -0.052 SA
BRANCH  12  14
HETATM   14  N1  UNL     1      11.720  16.706  20.886  1.00  0.00    -0.337 N 
HETATM   15  C8  UNL     1      12.599  17.822  21.033  1.00  0.00     0.158 C 
BRANCH  14  16
HETATM   16  C7  UNL     1      11.196  16.387  19.588  1.00  0.00     0.035 A 
HETATM   17  C6  UNL     1       9.964  16.743  19.162  1.00  0.00     0.030 A 
HETATM   18  C5  UNL     1       9.518  16.373  17.878  1.00  0.00     0.010 A 
HETATM   19  C4  UNL     1      10.348  15.646  17.066  1.00  0.00    -0.055 A 
HETATM   20  C22 UNL     1      11.616  15.274  17.489  1.00  0.00     0.010 A 
HETATM   21  C21 UNL     1      12.016  15.650  18.739  1.00  0.00     0.030 A 
BRANCH  19  22
HETATM   22  C2  UNL     1       9.925  15.226  15.720  1.00  0.00     0.010 C 
HETATM   23  C1  UNL     1      10.024  13.730  15.527  1.00  0.00     0.015 C 
HETATM   24  C3  UNL     1       8.498  15.681  15.494  1.00  0.00     0.015 C 
ENDBRANCH  19  22
ENDBRANCH  14  16
ENDBRANCH  12  14
ENDBRANCH  11  12
ENDBRANCH   1  11
BRANCH   2  25
HETATM   25  C12 UNL     1       7.636  14.527  24.007  1.00  0.00     0.212 C 
BRANCH  25  26
HETATM   26  O1  UNL     1       6.320  14.879  23.957  1.00  0.00    -0.318 OA
BRANCH  26  27
HETATM   27  C13 UNL     1       5.652  15.806  23.257  1.00  0.00     0.277 C 
HETATM   28  O2  UNL     1       4.436  15.705  23.080  1.00  0.00    -0.263 OA
BRANCH  27  29
HETATM   29  C14 UNL     1       6.333  17.014  22.639  1.00  0.00     0.240 C 
BRANCH  29  30
HETATM   30  N2  UNL     1       5.982  17.114  21.255  1.00  0.00    -0.332 N 
ATOM     31  H2  UNL     1       5.471  16.410  20.723  1.00  0.00     0.170 HD
BRANCH  30  32
HETATM   32  S3  UNL     1       6.566  18.635  20.618  1.00  0.00     0.106 S 
HETATM   33  C15 UNL     1       5.678  20.015  21.359  1.00  0.00     0.152 C 
HETATM   34  O3  UNL     1       6.408  18.627  19.123  1.00  0.00    -0.236 OA
ENDBRANCH  30  32
ENDBRANCH  29  30
ENDBRANCH  27  29
ENDBRANCH  26  27
ENDBRANCH  25  26
ENDBRANCH   2  25
TORSDOF 11
ENDMDL
MODEL 2
REMARK VINA RESULT: -7.257236320      1.006      1.090
REMARK  11 active torsions:
REMARK  status: ('A' for Active; 'I' for Inactive)
REMARK    1  A    between atoms: C2_2  and  C4_4 
REMARK    2  A    between atoms: C7_7  and  N1_8 
REMARK    3  A    between atoms: N1_8  and  C9_10 
REMARK    4  A    between atoms: C9_10  and  S2_12 
REMARK    5  A    between atoms: S2_12  and  C10_13 
REMARK    6  A    between atoms: C11_14  and  C12_15 
REMARK    7  A    between atoms: C12_15  and  O1_16 
REMARK    8  A    between atoms: O1_16  and  C13_17 
REMARK    9  A    between atoms: C13_17  and  C14_19 
REMARK   10  A    between atoms: C14_19  and  N2_20 
REMARK   11  A    between atoms: N2_20  and  S3_22 
ROOT
HETATM    1  C10 UNL     1       8.585  14.668  22.461  1.00  0.00     0.119 C 
HETATM    2  C11 UNL     1       7.740  14.007  23.581  1.00  0.00     0.166 C 
HETATM    3  O4  UNL     1       7.002  13.075  22.909  1.00  0.00    -0.350 OA
HETATM    4  C16 UNL     1       6.755  13.463  21.628  1.00  0.00     0.294 C 
HETATM    5  O5  UNL     1       6.901  12.472  20.660  1.00  0.00    -0.324 OA
HETATM    6  C17 UNL     1       7.499  13.143  19.585  1.00  0.00     0.160 C 
HETATM    7  C18 UNL     1       6.655  14.220  18.990  1.00  0.00     0.078 C 
HETATM    8  C19 UNL     1       8.107  12.233  18.566  1.00  0.00     0.078 C 
HETATM    9  O6  UNL     1       8.533  13.807  20.289  1.00  0.00    -0.344 OA
HETATM   10  C20 UNL     1       7.765  14.479  21.239  1.00  0.00     0.197 C 
ENDROOT
BRANCH   1  11
HETATM   11  S2  UNL     1       8.883  16.363  22.767  1.00  0.00    -0.090 SA
BRANCH  11  12
HETATM   12  C9  UNL     1      10.125  17.192  21.903  1.00  0.00     0.141 C 
HETATM   13  S1  UNL     1      10.207  18.884  22.144  1.00  0.00    -0.052 SA
BRANCH  12  14
HETATM   14  N1  UNL     1      11.116  16.736  21.021  1.00  0.00    -0.337 N 
HETATM   15  C8  UNL     1      12.485  16.567  21.391  1.00  0.00     0.158 C 
BRANCH  14  16
HETATM   16  C7  UNL     1      10.699  16.397  19.689  1.00  0.00     0.035 A 
HETATM   17  C6  UNL     1       9.502  16.739  19.162  1.00  0.00     0.030 A 
HETATM   18  C5  UNL     1       9.162  16.349  17.852  1.00  0.00     0.010 A 
HETATM   19  C4  UNL     1      10.058  15.617  17.118  1.00  0.00    -0.055 A 
HETATM   20  C22 UNL     1      11.290  15.259  17.645  1.00  0.00     0.010 A 
HETATM   21  C21 UNL     1      11.587  15.654  18.919  1.00  0.00     0.030 A 
BRANCH  19  22
HETATM   22  C2  UNL     1       9.745  15.177  15.749  1.00  0.00     0.010 C 
HETATM   23  C1  UNL     1      10.120  13.732  15.510  1.00  0.00     0.015 C 
HETATM   24  C3  UNL     1       8.263  15.372  15.500  1.00  0.00     0.015 C 
ENDBRANCH  19  22
ENDBRANCH  14  16
ENDBRANCH  12  14
ENDBRANCH  11  12
ENDBRANCH   1  11
BRANCH   2  25
HETATM   25  C12 UNL     1       7.022  15.073  24.328  1.00  0.00     0.212 C 
BRANCH  25  26
HETATM   26  O1  UNL     1       5.667  15.156  24.206  1.00  0.00    -0.318 OA
BRANCH  26  27
HETATM   27  C13 UNL     1       4.858  16.058  23.630  1.00  0.00     0.277 C 
HETATM   28  O2  UNL     1       3.643  15.861  23.569  1.00  0.00    -0.263 OA
BRANCH  27  29
HETATM   29  C14 UNL     1       5.373  17.348  23.021  1.00  0.00     0.240 C 
BRANCH  29  30
HETATM   30  N2  UNL     1       5.454  17.215  21.598  1.00  0.00    -0.332 N 
ATOM     31  H2  UNL     1       5.097  16.427  21.057  1.00  0.00     0.170 HD
BRANCH  30  32
HETATM   32  S3  UNL     1       6.260  18.617  20.929  1.00  0.00     0.106 S 
HETATM   33  C15 UNL     1       5.499  20.133  21.533  1.00  0.00     0.152 C 
HETATM   34  O3  UNL     1       6.203  18.539  19.430  1.00  0.00    -0.236 OA
ENDBRANCH  30  32
ENDBRANCH  29  30
ENDBRANCH  27  29
ENDBRANCH  26  27
ENDBRANCH  25  26
ENDBRANCH   2  25
TORSDOF 11
ENDMDL
MODEL 3
REMARK VINA RESULT: -6.994597568      2.375      4.036
REMARK  11 active torsions:
REMARK  status: ('A' for Active; 'I' for Inactive)
REMARK    1  A    between atoms: C2_2  and  C4_4 
REMARK    2  A    between atoms: C7_7  and  N1_8 
REMARK    3  A    between atoms: N1_8  and  C9_10 
REMARK    4  A    between atoms: C9_10  and  S2_12 
REMARK    5  A    between atoms: S2_12  and  C10_13 
REMARK    6  A    between atoms: C11_14  and  C12_15 
REMARK    7  A    between atoms: C12_15  and  O1_16 
REMARK    8  A    between atoms: O1_16  and  C13_17 
REMARK    9  A    between atoms: C13_17  and  C14_19 
REMARK   10  A    between atoms: C14_19  and  N2_20 
REMARK   11  A    between atoms: N2_20  and  S3_22 
ROOT
HETATM    1  C10 UNL     1       9.023  13.852  22.211  1.00  0.00     0.119 C 
HETATM    2  C11 UNL     1       8.016  13.307  23.254  1.00  0.00     0.166 C 
HETATM    3  O4  UNL     1       7.103  12.637  22.491  1.00  0.00    -0.350 OA
HETATM    4  C16 UNL     1       6.992  13.187  21.251  1.00  0.00     0.294 C 
HETATM    5  O5  UNL     1       6.935  12.281  20.193  1.00  0.00    -0.324 OA
HETATM    6  C17 UNL     1       7.704  12.891  19.192  1.00  0.00     0.160 C 
HETATM    7  C18 UNL     1       7.150  14.184  18.696  1.00  0.00     0.078 C 
HETATM    8  C19 UNL     1       8.117  11.960  18.096  1.00  0.00     0.078 C 
HETATM    9  O6  UNL     1       8.841  13.229  19.966  1.00  0.00    -0.344 OA
HETATM   10  C20 UNL     1       8.220  13.971  20.969  1.00  0.00     0.197 C 
ENDROOT
BRANCH   1  11
HETATM   11  S2  UNL     1       9.695  15.397  22.680  1.00  0.00    -0.090 SA
BRANCH  11  12
HETATM   12  C9  UNL     1      11.213  15.910  22.040  1.00  0.00     0.141 C 
HETATM   13  S1  UNL     1      12.604  15.257  22.792  1.00  0.00    -0.052 SA
BRANCH  12  14
HETATM   14  N1  UNL     1      11.540  16.777  20.987  1.00  0.00    -0.337 N 
HETATM   15  C8  UNL     1      12.188  18.037  21.174  1.00  0.00     0.158 C 
BRANCH  14  16
HETATM   16  C7  UNL     1      11.227  16.336  19.657  1.00  0.00     0.035 A 
HETATM   17  C6  UNL     1      12.092  15.670  18.859  1.00  0.00     0.030 A 
HETATM   18  C5  UNL     1      11.712  15.289  17.558  1.00  0.00     0.010 A 
HETATM   19  C4  UNL     1      10.456  15.601  17.109  1.00  0.00    -0.055 A 
HETATM   20  C22 UNL     1       9.557  16.283  17.917  1.00  0.00     0.010 A 
HETATM   21  C21 UNL     1       9.959  16.637  19.173  1.00  0.00     0.030 A 
BRANCH  19  22
HETATM   22  C2  UNL     1      10.015  15.234  15.753  1.00  0.00     0.010 C 
HETATM   23  C1  UNL     1      10.091  13.744  15.508  1.00  0.00     0.015 C 
HETATM   24  C3  UNL     1       8.591  15.714  15.557  1.00  0.00     0.015 C 
ENDBRANCH  19  22
ENDBRANCH  14  16
ENDBRANCH  12  14
ENDBRANCH  11  12
ENDBRANCH   1  11
BRANCH   2  25
HETATM   25  C12 UNL     1       7.539  14.438  24.094  1.00  0.00     0.212 C 
BRANCH  25  26
HETATM   26  O1  UNL     1       7.204  14.192  25.391  1.00  0.00    -0.318 OA
BRANCH  26  27
HETATM   27  C13 UNL     1       7.883  14.294  26.542  1.00  0.00     0.277 C 
HETATM   28  O2  UNL     1       7.291  14.494  27.605  1.00  0.00    -0.263 OA
BRANCH  27  29
HETATM   29  C14 UNL     1       9.395  14.182  26.614  1.00  0.00     0.240 C 
BRANCH  29  30
HETATM   30  N2  UNL     1       9.788  12.813  26.465  1.00  0.00    -0.332 N 
ATOM     31  H2  UNL     1       9.245  12.091  25.992  1.00  0.00     0.170 HD
BRANCH  30  32
HETATM   32  S3  UNL     1      11.346  12.573  27.223  1.00  0.00     0.106 S 
HETATM   33  C15 UNL     1      12.629  13.465  26.329  1.00  0.00     0.152 C 
HETATM   34  O3  UNL     1      11.640  11.100  27.270  1.00  0.00    -0.236 OA
ENDBRANCH  30  32
ENDBRANCH  29  30
ENDBRANCH  27  29
ENDBRANCH  26  27
ENDBRANCH  25  26
ENDBRANCH   2  25
TORSDOF 11
ENDMDL
MODEL 4
REMARK VINA RESULT: -6.990884807      1.560      1.612
REMARK  11 active torsions:
REMARK  status: ('A' for Active; 'I' for Inactive)
REMARK    1  A    between atoms: C2_2  and  C4_4 
REMARK    2  A    between atoms: C7_7  and  N1_8 
REMARK    3  A    between atoms: N1_8  and  C9_10 
REMARK    4  A    between atoms: C9_10  and  S2_12 
REMARK    5  A    between atoms: S2_12  and  C10_13 
REMARK    6  A    between atoms: C11_14  and  C12_15 
REMARK    7  A    between atoms: C12_15  and  O1_16 
REMARK    8  A    between atoms: O1_16  and  C13_17 
REMARK    9  A    between atoms: C13_17  and  C14_19 
REMARK   10  A    between atoms: C14_19  and  N2_20 
REMARK   11  A    between atoms: N2_20  and  S3_22 
ROOT
HETATM    1  C10 UNL     1       9.084  13.824  22.119  1.00  0.00     0.119 C 
HETATM    2  C11 UNL     1       8.084  13.267  23.164  1.00  0.00     0.166 C 
HETATM    3  O4  UNL     1       7.190  12.569  22.403  1.00  0.00    -0.350 OA
HETATM    4  C16 UNL     1       7.073  13.103  21.156  1.00  0.00     0.294 C 
HETATM    5  O5  UNL     1       7.041  12.185  20.108  1.00  0.00    -0.324 OA
HETATM    6  C17 UNL     1       7.802  12.801  19.105  1.00  0.00     0.160 C 
HETATM    7  C18 UNL     1       7.221  14.076  18.592  1.00  0.00     0.078 C 
HETATM    8  C19 UNL     1       8.241  11.869  18.021  1.00  0.00     0.078 C 
HETATM    9  O6  UNL     1       8.927  13.173  19.880  1.00  0.00    -0.344 OA
HETATM   10  C20 UNL     1       8.285  13.911  20.872  1.00  0.00     0.197 C 
ENDROOT
BRANCH   1  11
HETATM   11  S2  UNL     1       9.719  15.388  22.575  1.00  0.00    -0.090 SA
BRANCH  11  12
HETATM   12  C9  UNL     1      11.261  15.899  21.993  1.00  0.00     0.141 C 
HETATM   13  S1  UNL     1      12.621  15.261  22.811  1.00  0.00    -0.052 SA
BRANCH  12  14
HETATM   14  N1  UNL     1      11.629  16.753  20.943  1.00  0.00    -0.337 N 
HETATM   15  C8  UNL     1      12.476  17.891  21.111  1.00  0.00     0.158 C 
BRANCH  14  16
HETATM   16  C7  UNL     1      11.142  16.424  19.633  1.00  0.00     0.035 A 
HETATM   17  C6  UNL     1       9.902  16.731  19.188  1.00  0.00     0.030 A 
HETATM   18  C5  UNL     1       9.496  16.354  17.894  1.00  0.00     0.010 A 
HETATM   19  C4  UNL     1      10.369  15.671  17.090  1.00  0.00    -0.055 A 
HETATM   20  C22 UNL     1      11.645  15.350  17.532  1.00  0.00     0.010 A 
HETATM   21  C21 UNL     1      12.006  15.731  18.792  1.00  0.00     0.030 A 
BRANCH  19  22
HETATM   22  C2  UNL     1       9.988  15.246  15.733  1.00  0.00     0.010 C 
HETATM   23  C1  UNL     1      10.156  13.758  15.528  1.00  0.00     0.015 C 
HETATM   24  C3  UNL     1       8.546  15.639  15.487  1.00  0.00     0.015 C 
ENDBRANCH  19  22
ENDBRANCH  14  16
ENDBRANCH  12  14
ENDBRANCH  11  12
ENDBRANCH   1  11
BRANCH   2  25
HETATM   25  C12 UNL     1       7.578  14.396  23.989  1.00  0.00     0.212 C 
BRANCH  25  26
HETATM   26  O1  UNL     1       6.238  14.645  24.004  1.00  0.00    -0.318 OA
BRANCH  26  27
HETATM   27  C13 UNL     1       5.489  15.623  23.476  1.00  0.00     0.277 C 
HETATM   28  O2  UNL     1       5.709  16.038  22.336  1.00  0.00    -0.263 OA
BRANCH  27  29
HETATM   29  C14 UNL     1       4.348  16.279  24.232  1.00  0.00     0.240 C 
BRANCH  29  30
HETATM   30  N2  UNL     1       3.257  16.533  23.340  1.00  0.00    -0.332 N 
ATOM     31  H2  UNL     1       2.767  15.826  22.790  1.00  0.00     0.170 HD
BRANCH  30  32
HETATM   32  S3  UNL     1       2.893  18.244  23.342  1.00  0.00     0.106 S 
HETATM   33  C15 UNL     1       1.144  18.520  23.021  1.00  0.00     0.152 C 
HETATM   34  O3  UNL     1       3.749  18.922  22.309  1.00  0.00    -0.236 OA
ENDBRANCH  30  32
ENDBRANCH  29  30
ENDBRANCH  27  29
ENDBRANCH  26  27
ENDBRANCH  25  26
ENDBRANCH   2  25
TORSDOF 11
ENDMDL
MODEL 5
REMARK VINA RESULT: -6.912980955      2.502      4.039
REMARK  11 active torsions:
REMARK  status: ('A' for Active; 'I' for Inactive)
REMARK    1  A    between atoms: C2_2  and  C4_4 
REMARK    2  A    between atoms: C7_7  and  N1_8 
REMARK    3  A    between atoms: N1_8  and  C9_10 
REMARK    4  A    between atoms: C9_10  and  S2_12 
REMARK    5  A    between atoms: S2_12  and  C10_13 
REMARK    6  A    between atoms: C11_14  and  C12_15 
REMARK    7  A    between atoms: C12_15  and  O1_16 
REMARK    8  A    between atoms: O1_16  and  C13_17 
REMARK    9  A    between atoms: C13_17  and  C14_19 
REMARK   10  A    between atoms: C14_19  and  N2_20 
REMARK   11  A    between atoms: N2_20  and  S3_22 
ROOT
HETATM    1  C10 UNL     1       8.625  14.184  22.279  1.00  0.00     0.119 C 
HETATM    2  C11 UNL     1       7.935  13.230  23.288  1.00  0.00     0.166 C 
HETATM    3  O4  UNL     1       7.361  12.286  22.486  1.00  0.00    -0.350 OA
HETATM    4  C16 UNL     1       7.022  12.801  21.273  1.00  0.00     0.294 C 
HETATM    5  O5  UNL     1       7.322  12.001  20.172  1.00  0.00    -0.324 OA
HETATM    6  C17 UNL     1       7.768  12.915  19.208  1.00  0.00     0.160 C 
HETATM    7  C18 UNL     1       6.733  13.897  18.770  1.00  0.00     0.078 C 
HETATM    8  C19 UNL     1       8.507  12.283  18.072  1.00  0.00     0.078 C 
HETATM    9  O6  UNL     1       8.682  13.647  20.006  1.00  0.00    -0.344 OA
HETATM   10  C20 UNL     1       7.827  14.027  21.038  1.00  0.00     0.197 C 
ENDROOT
BRANCH   1  11
HETATM   11  S2  UNL     1       8.622  15.844  22.828  1.00  0.00    -0.090 SA
BRANCH  11  12
HETATM   12  C9  UNL     1       9.645  17.007  22.068  1.00  0.00     0.141 C 
HETATM   13  S1  UNL     1       9.347  18.644  22.466  1.00  0.00    -0.052 SA
BRANCH  12  14
HETATM   14  N1  UNL     1      10.712  16.869  21.167  1.00  0.00    -0.337 N 
HETATM   15  C8  UNL     1      12.084  16.999  21.543  1.00  0.00     0.158 C 
BRANCH  14  16
HETATM   16  C7  UNL     1      10.380  16.547  19.808  1.00  0.00     0.035 A 
HETATM   17  C6  UNL     1       9.179  16.802  19.242  1.00  0.00     0.030 A 
HETATM   18  C5  UNL     1       8.929  16.436  17.905  1.00  0.00     0.010 A 
HETATM   19  C4  UNL     1       9.915  15.816  17.185  1.00  0.00    -0.055 A 
HETATM   20  C22 UNL     1      11.153  15.549  17.751  1.00  0.00     0.010 A 
HETATM   21  C21 UNL     1      11.362  15.918  19.050  1.00  0.00     0.030 A 
BRANCH  19  22
HETATM   22  C2  UNL     1       9.699  15.405  15.788  1.00  0.00     0.010 C 
HETATM   23  C1  UNL     1      10.458  14.146  15.436  1.00  0.00     0.015 C 
HETATM   24  C3  UNL     1       8.215  15.189  15.568  1.00  0.00     0.015 C 
ENDBRANCH  19  22
ENDBRANCH  14  16
ENDBRANCH  12  14
ENDBRANCH  11  12
ENDBRANCH   1  11
BRANCH   2  25
HETATM   25  C12 UNL     1       7.054  14.032  24.177  1.00  0.00     0.212 C 
BRANCH  25  26
HETATM   26  O1  UNL     1       7.061  13.769  25.514  1.00  0.00    -0.318 OA
BRANCH  26  27
HETATM   27  C13 UNL     1       7.719  14.316  26.546  1.00  0.00     0.277 C 
HETATM   28  O2  UNL     1       7.107  14.914  27.434  1.00  0.00    -0.263 OA
BRANCH  27  29
HETATM   29  C14 UNL     1       9.228  14.248  26.684  1.00  0.00     0.240 C 
BRANCH  29  30
HETATM   30  N2  UNL     1       9.678  12.909  26.450  1.00  0.00    -0.332 N 
ATOM     31  H2  UNL     1       9.169  12.200  25.922  1.00  0.00     0.170 HD
BRANCH  30  32
HETATM   32  S3  UNL     1      11.237  12.680  27.208  1.00  0.00     0.106 S 
HETATM   33  C15 UNL     1      12.519  13.559  26.300  1.00  0.00     0.152 C 
HETATM   34  O3  UNL     1      11.531  11.208  27.276  1.00  0.00    -0.236 OA
ENDBRANCH  30  32
ENDBRANCH  29  30
ENDBRANCH  27  29
ENDBRANCH  26  27
ENDBRANCH  25  26
ENDBRANCH   2  25
TORSDOF 11
ENDMDL
