MODEL 1
REMARK VINA RESULT: -6.721529665      0.000      0.000
REMARK  3 active torsions:
REMARK  status: ('A' for Active; 'I' for Inactive)
REMARK    1  A    between atoms: O1_2  and  N1_3 
REMARK    2  A    between atoms: N1_3  and  S1_5 
REMARK    3  A    between atoms: S1_5  and  N2_8 
ROOT
HETATM    1  N2  UNL     1      47.814  49.781  35.110  1.00  0.00    -0.187 NA
HETATM    2  C2  UNL     1      47.611  51.155  34.849  1.00  0.00     0.110 C 
HETATM    3  C3  UNL     1      46.936  51.478  33.553  1.00  0.00     0.026 C 
HETATM    4  C4  UNL     1      46.033  50.395  33.036  1.00  0.00    -0.019 C 
HETATM    5  C5  UNL     1      46.477  49.918  31.697  1.00  0.00     0.028 C 
HETATM    6  C6  UNL     1      45.520  50.901  31.022  1.00  0.00     0.073 C 
HETATM    7 BR1  UNL     1      44.456  50.149  29.622  1.00  0.00    -0.090 Br
HETATM    8  C7  UNL     1      44.820  51.023  32.355  1.00  0.00     0.081 C 
HETATM    9 BR2  UNL     1      43.215  49.968  32.515  1.00  0.00    -0.089 Br
HETATM   10  C8  UNL     1      45.612  49.417  34.050  1.00  0.00     0.014 C 
HETATM   11  C9  UNL     1      45.408  47.994  33.665  1.00  0.00     0.009 C 
HETATM   12  C10 UNL     1      46.868  47.761  33.991  1.00  0.00     0.022 C 
HETATM   13  C11 UNL     1      46.708  48.921  34.950  1.00  0.00     0.080 C 
ENDROOT
BRANCH   1  14
HETATM   14  S1  UNL     1      48.428  49.596  36.714  1.00  0.00     0.321 S 
HETATM   15  O2  UNL     1      48.330  50.891  37.459  1.00  0.00    -0.186 OA
HETATM   16  O3  UNL     1      49.900  49.218  36.665  1.00  0.00    -0.186 OA
BRANCH  14  17
HETATM   17  N1  UNL     1      47.629  48.316  37.560  1.00  0.00    -0.179 N 
ATOM     18  H1  UNL     1      46.700  47.949  37.355  1.00  0.00     0.208 HD
BRANCH  17  19
HETATM   19  O1  UNL     1      48.456  47.890  38.540  1.00  0.00    -0.275 OA
HETATM   20  C1  UNL     1      47.838  48.093  39.777  1.00  0.00     0.238 C 
ENDBRANCH  17  19
ENDBRANCH  14  17
ENDBRANCH   1  14
TORSDOF 3
ENDMDL
MODEL 2
REMARK VINA RESULT: -6.692198777      1.528      1.945
REMARK  3 active torsions:
REMARK  status: ('A' for Active; 'I' for Inactive)
REMARK    1  A    between atoms: O1_2  and  N1_3 
REMARK    2  A    between atoms: N1_3  and  S1_5 
REMARK    3  A    between atoms: S1_5  and  N2_8 
ROOT
HETATM    1  N2  UNL     1      48.352  50.727  35.620  1.00  0.00    -0.187 NA
HETATM    2  C2  UNL     1      47.007  50.731  36.052  1.00  0.00     0.110 C 
HETATM    3  C3  UNL     1      45.981  50.947  34.985  1.00  0.00     0.026 C 
HETATM    4  C4  UNL     1      46.409  50.507  33.614  1.00  0.00    -0.019 C 
HETATM    5  C5  UNL     1      46.398  51.646  32.655  1.00  0.00     0.028 C 
HETATM    6  C6  UNL     1      44.978  51.278  32.222  1.00  0.00     0.073 C 
HETATM    7 BR1  UNL     1      44.705  51.228  30.330  1.00  0.00    -0.090 Br
HETATM    8  C7  UNL     1      45.210  49.930  32.865  1.00  0.00     0.081 C 
HETATM    9 BR2  UNL     1      45.677  48.526  31.631  1.00  0.00    -0.089 Br
HETATM   10  C8  UNL     1      47.535  49.561  33.601  1.00  0.00     0.014 C 
HETATM   11  C9  UNL     1      48.526  49.607  32.492  1.00  0.00     0.009 C 
HETATM   12  C10 UNL     1      49.317  50.596  33.321  1.00  0.00     0.022 C 
HETATM   13  C11 UNL     1      48.675  49.916  34.513  1.00  0.00     0.080 C 
ENDROOT
BRANCH   1  14
HETATM   14  S1  UNL     1      49.370  50.283  36.943  1.00  0.00     0.321 S 
HETATM   15  O2  UNL     1      50.272  51.422  37.307  1.00  0.00    -0.186 OA
HETATM   16  O3  UNL     1      50.260  49.117  36.545  1.00  0.00    -0.186 OA
BRANCH  14  17
HETATM   17  N1  UNL     1      48.449  49.745  38.305  1.00  0.00    -0.179 N 
ATOM     18  H1  UNL     1      47.944  50.340  38.961  1.00  0.00     0.208 HD
BRANCH  17  19
HETATM   19  O1  UNL     1      48.519  48.397  38.343  1.00  0.00    -0.275 OA
HETATM   20  C1  UNL     1      47.645  47.923  39.325  1.00  0.00     0.238 C 
ENDBRANCH  17  19
ENDBRANCH  14  17
ENDBRANCH   1  14
TORSDOF 3
ENDMDL
MODEL 3
REMARK VINA RESULT: -6.683676596      1.633      2.258
REMARK  3 active torsions:
REMARK  status: ('A' for Active; 'I' for Inactive)
REMARK    1  A    between atoms: O1_2  and  N1_3 
REMARK    2  A    between atoms: N1_3  and  S1_5 
REMARK    3  A    between atoms: S1_5  and  N2_8 
ROOT
HETATM    1  N2  UNL     1      48.283  50.047  35.665  1.00  0.00    -0.187 NA
HETATM    2  C2  UNL     1      49.294  49.643  34.765  1.00  0.00     0.110 C 
HETATM    3  C3  UNL     1      48.821  49.156  33.431  1.00  0.00     0.026 C 
HETATM    4  C4  UNL     1      47.504  49.727  32.993  1.00  0.00    -0.019 C 
HETATM    5  C5  UNL     1      46.494  48.653  32.782  1.00  0.00     0.028 C 
HETATM    6  C6  UNL     1      46.852  48.599  31.296  1.00  0.00     0.073 C 
HETATM    7 BR1  UNL     1      45.352  48.602  30.110  1.00  0.00    -0.090 Br
HETATM    8  C7  UNL     1      47.517  49.943  31.482  1.00  0.00     0.081 C 
HETATM    9 BR2  UNL     1      46.455  51.445  30.909  1.00  0.00    -0.089 Br
HETATM   10  C8  UNL     1      47.112  50.961  33.691  1.00  0.00     0.014 C 
HETATM   11  C9  UNL     1      45.675  51.228  33.970  1.00  0.00     0.009 C 
HETATM   12  C10 UNL     1      45.857  50.498  35.283  1.00  0.00     0.022 C 
HETATM   13  C11 UNL     1      47.303  50.938  35.181  1.00  0.00     0.080 C 
ENDROOT
BRANCH   1  14
HETATM   14  S1  UNL     1      49.018  50.745  37.064  1.00  0.00     0.321 S 
HETATM   15  O2  UNL     1      48.680  52.201  37.155  1.00  0.00    -0.186 OA
HETATM   16  O3  UNL     1      50.531  50.642  36.961  1.00  0.00    -0.186 OA
BRANCH  14  17
HETATM   17  N1  UNL     1      48.573  49.900  38.507  1.00  0.00    -0.179 N 
ATOM     18  H1  UNL     1      48.303  50.326  39.394  1.00  0.00     0.208 HD
BRANCH  17  19
HETATM   19  O1  UNL     1      48.646  48.576  38.248  1.00  0.00    -0.275 OA
HETATM   20  C1  UNL     1      47.736  47.902  39.067  1.00  0.00     0.238 C 
ENDBRANCH  17  19
ENDBRANCH  14  17
ENDBRANCH   1  14
TORSDOF 3
ENDMDL
MODEL 4
REMARK VINA RESULT: -6.424061507      2.229      2.705
REMARK  3 active torsions:
REMARK  status: ('A' for Active; 'I' for Inactive)
REMARK    1  A    between atoms: O1_2  and  N1_3 
REMARK    2  A    between atoms: N1_3  and  S1_5 
REMARK    3  A    between atoms: S1_5  and  N2_8 
ROOT
HETATM    1  N2  UNL     1      48.381  49.249  36.010  1.00  0.00    -0.187 NA
HETATM    2  C2  UNL     1      49.547  50.014  35.783  1.00  0.00     0.110 C 
HETATM    3  C3  UNL     1      49.946  50.183  34.350  1.00  0.00     0.026 C 
HETATM    4  C4  UNL     1      48.808  50.099  33.375  1.00  0.00    -0.019 C 
HETATM    5  C5  UNL     1      49.009  48.986  32.406  1.00  0.00     0.028 C 
HETATM    6  C6  UNL     1      49.656  49.956  31.416  1.00  0.00     0.073 C 
HETATM    7 BR1  UNL     1      49.010  49.819  29.621  1.00  0.00    -0.090 Br
HETATM    8  C7  UNL     1      49.046  51.076  32.226  1.00  0.00     0.081 C 
HETATM    9 BR2  UNL     1      47.423  51.805  31.486  1.00  0.00    -0.089 Br
HETATM   10  C8  UNL     1      47.479  50.309  33.969  1.00  0.00     0.014 C 
HETATM   11  C9  UNL     1      46.304  49.572  33.431  1.00  0.00     0.009 C 
HETATM   12  C10 UNL     1      46.617  48.473  34.425  1.00  0.00     0.022 C 
HETATM   13  C11 UNL     1      47.235  49.577  35.257  1.00  0.00     0.080 C 
ENDROOT
BRANCH   1  14
HETATM   14  S1  UNL     1      47.977  49.320  37.688  1.00  0.00     0.321 S 
HETATM   15  O2  UNL     1      46.516  49.599  37.857  1.00  0.00    -0.186 OA
HETATM   16  O3  UNL     1      48.731  50.459  38.356  1.00  0.00    -0.186 OA
BRANCH  14  17
HETATM   17  N1  UNL     1      48.448  47.878  38.519  1.00  0.00    -0.179 N 
ATOM     18  H1  UNL     1      48.479  46.939  38.122  1.00  0.00     0.208 HD
BRANCH  17  19
HETATM   19  O1  UNL     1      48.766  48.217  39.787  1.00  0.00    -0.275 OA
HETATM   20  C1  UNL     1      47.687  47.917  40.623  1.00  0.00     0.238 C 
ENDBRANCH  17  19
ENDBRANCH  14  17
ENDBRANCH   1  14
TORSDOF 3
ENDMDL
MODEL 5
REMARK VINA RESULT: -6.400164732      1.965      2.544
REMARK  3 active torsions:
REMARK  status: ('A' for Active; 'I' for Inactive)
REMARK    1  A    between atoms: O1_2  and  N1_3 
REMARK    2  A    between atoms: N1_3  and  S1_5 
REMARK    3  A    between atoms: S1_5  and  N2_8 
ROOT
HETATM    1  N2  UNL     1      48.202  50.497  35.424  1.00  0.00    -0.187 NA
HETATM    2  C2  UNL     1      46.972  49.871  35.729  1.00  0.00     0.110 C 
HETATM    3  C3  UNL     1      46.161  49.425  34.553  1.00  0.00     0.026 C 
HETATM    4  C4  UNL     1      46.966  49.115  33.325  1.00  0.00    -0.019 C 
HETATM    5  C5  UNL     1      46.564  49.982  32.183  1.00  0.00     0.028 C 
HETATM    6  C6  UNL     1      45.592  48.906  31.698  1.00  0.00     0.073 C 
HETATM    7 BR1  UNL     1      45.692  48.521  29.826  1.00  0.00    -0.090 Br
HETATM    8  C7  UNL     1      46.337  47.936  32.585  1.00  0.00     0.081 C 
HETATM    9 BR2  UNL     1      47.619  46.832  31.664  1.00  0.00    -0.089 Br
HETATM   10  C8  UNL     1      48.394  48.867  33.578  1.00  0.00     0.014 C 
HETATM   11  C9  UNL     1      49.406  49.284  32.570  1.00  0.00     0.009 C 
HETATM   12  C10 UNL     1      49.472  50.620  33.279  1.00  0.00     0.022 C 
HETATM   13  C11 UNL     1      49.053  49.843  34.510  1.00  0.00     0.080 C 
ENDROOT
BRANCH   1  14
HETATM   14  S1  UNL     1      49.074  50.771  36.890  1.00  0.00     0.321 S 
HETATM   15  O2  UNL     1      49.188  52.240  37.158  1.00  0.00    -0.186 OA
HETATM   16  O3  UNL     1      50.489  50.229  36.761  1.00  0.00    -0.186 OA
BRANCH  14  17
HETATM   17  N1  UNL     1      48.357  49.937  38.225  1.00  0.00    -0.179 N 
ATOM     18  H1  UNL     1      47.712  50.336  38.907  1.00  0.00     0.208 HD
BRANCH  17  19
HETATM   19  O1  UNL     1      48.805  48.662  38.204  1.00  0.00    -0.275 OA
HETATM   20  C1  UNL     1      47.909  47.853  38.907  1.00  0.00     0.238 C 
ENDBRANCH  17  19
ENDBRANCH  14  17
ENDBRANCH   1  14
TORSDOF 3
ENDMDL
