MODEL 1
REMARK VINA RESULT: -7.694832983      0.000      0.000
REMARK  4 active torsions:
REMARK  status: ('A' for Active; 'I' for Inactive)
REMARK       I    between atoms: C1_2  and  N1_3 
REMARK    1  A    between atoms: C1_2  and  C11_15 
REMARK    2  A    between atoms: N1_3  and  C2_5 
REMARK    3  A    between atoms: N2_8  and  C5_9 
REMARK    4  A    between atoms: C5_9  and  C6_10 
REMARK       I    between atoms: N3_16  and  C12_17 
REMARK       I    between atoms: C12_17  and  N4_19 
ROOT
HETATM    1  C11 UNL     1      45.931  50.032  30.644  1.00  0.00     0.253 C 
HETATM    2  N3  UNL     1      46.457  48.743  30.141  1.00  0.00    -0.314 N 
HETATM    3  C12 UNL     1      47.379  47.857  30.690  1.00  0.00     0.321 C 
HETATM    4  O2  UNL     1      47.832  48.104  31.881  1.00  0.00    -0.247 OA
HETATM    5  N4  UNL     1      47.902  46.683  30.092  1.00  0.00    -0.329 N 
HETATM    6  C13 UNL     1      47.635  46.106  28.801  1.00  0.00     0.132 C 
HETATM    7  C14 UNL     1      48.685  45.024  28.654  1.00  0.00     0.006 C 
HETATM    8  C15 UNL     1      48.214  43.880  29.533  1.00  0.00     0.008 C 
HETATM    9  C16 UNL     1      48.265  44.479  30.944  1.00  0.00     0.026 C 
HETATM   10  C17 UNL     1      48.893  45.808  30.747  1.00  0.00     0.089 C 
HETATM   11  C18 UNL     1      49.788  45.570  29.537  1.00  0.00     0.031 C 
HETATM   12  C19 UNL     1      45.625  48.631  28.917  1.00  0.00     0.135 C 
HETATM   13  C20 UNL     1      44.222  48.894  29.527  1.00  0.00     0.101 C 
HETATM   14  C21 UNL     1      44.504  49.673  30.833  1.00  0.00     0.274 C 
HETATM   15  F1  UNL     1      43.636  50.754  30.894  1.00  0.00    -0.203 F 
HETATM   16  F2  UNL     1      44.308  48.879  31.929  1.00  0.00    -0.203 F 
ENDROOT
BRANCH   1  17
HETATM   17  C1  UNL     1      46.662  50.691  31.682  1.00  0.00     0.247 C 
HETATM   18  O1  UNL     1      47.551  51.590  31.503  1.00  0.00    -0.271 OA
HETATM   19  N1  UNL     1      46.442  50.378  33.056  1.00  0.00    -0.354 N 
ATOM     20  H1  UNL     1      45.749  49.668  33.293  1.00  0.00     0.162 HD
BRANCH  19  21
HETATM   21  C2  UNL     1      47.181  51.043  34.146  1.00  0.00     0.087 C 
HETATM   22  C3  UNL     1      46.243  51.068  35.321  1.00  0.00     0.055 C 
HETATM   23  C4  UNL     1      46.696  50.155  36.437  1.00  0.00     0.274 C 
HETATM   24  N2  UNL     1      48.033  50.547  36.788  1.00  0.00     0.088 N 
HETATM   25  C9  UNL     1      48.949  50.229  35.747  1.00  0.00     0.274 C 
HETATM   26  C10 UNL     1      48.436  50.295  34.365  1.00  0.00     0.055 C 
BRANCH  24  27
HETATM   27  C5  UNL     1      48.403  49.814  37.984  1.00  0.00     0.277 C 
BRANCH  27  28
HETATM   28  C6  UNL     1      47.315  48.855  38.414  1.00  0.00     0.014 A 
HETATM   29  C7  UNL     1      47.884  47.518  38.911  1.00  0.00     0.007 A 
HETATM   30  C8  UNL     1      47.153  48.443  39.811  1.00  0.00     0.007 A 
ENDBRANCH  27  28
ENDBRANCH  24  27
ENDBRANCH  19  21
ENDBRANCH   1  17
TORSDOF 4
ENDMDL
MODEL 2
REMARK VINA RESULT: -7.466993676      4.489      6.674
REMARK  4 active torsions:
REMARK  status: ('A' for Active; 'I' for Inactive)
REMARK       I    between atoms: C1_2  and  N1_3 
REMARK    1  A    between atoms: C1_2  and  C11_15 
REMARK    2  A    between atoms: N1_3  and  C2_5 
REMARK    3  A    between atoms: N2_8  and  C5_9 
REMARK    4  A    between atoms: C5_9  and  C6_10 
REMARK       I    between atoms: N3_16  and  C12_17 
REMARK       I    between atoms: C12_17  and  N4_19 
ROOT
HETATM    1  C11 UNL     1      48.411  50.285  36.077  1.00  0.00     0.253 C 
HETATM    2  N3  UNL     1      47.654  50.246  34.805  1.00  0.00    -0.314 N 
HETATM    3  C12 UNL     1      47.886  49.544  33.627  1.00  0.00     0.321 C 
HETATM    4  O2  UNL     1      48.870  48.700  33.600  1.00  0.00    -0.247 OA
HETATM    5  N4  UNL     1      47.158  49.640  32.414  1.00  0.00    -0.329 N 
HETATM    6  C13 UNL     1      46.023  50.459  32.079  1.00  0.00     0.132 C 
HETATM    7  C14 UNL     1      45.880  50.301  30.580  1.00  0.00     0.006 C 
HETATM    8  C15 UNL     1      45.261  48.932  30.373  1.00  0.00     0.008 C 
HETATM    9  C16 UNL     1      46.336  47.977  30.906  1.00  0.00     0.026 C 
HETATM   10  C17 UNL     1      47.487  48.863  31.204  1.00  0.00     0.089 C 
HETATM   11  C18 UNL     1      47.308  49.982  30.185  1.00  0.00     0.031 C 
HETATM   12  C19 UNL     1      46.513  51.109  35.204  1.00  0.00     0.135 C 
HETATM   13  C20 UNL     1      46.125  50.428  36.544  1.00  0.00     0.101 C 
HETATM   14  C21 UNL     1      47.407  49.688  36.993  1.00  0.00     0.274 C 
HETATM   15  F1  UNL     1      47.619  49.955  38.339  1.00  0.00    -0.203 F 
HETATM   16  F2  UNL     1      47.281  48.338  36.819  1.00  0.00    -0.203 F 
ENDROOT
BRANCH   1  17
HETATM   17  C1  UNL     1      49.760  49.810  36.064  1.00  0.00     0.247 C 
HETATM   18  O1  UNL     1      50.225  48.888  36.816  1.00  0.00    -0.271 OA
HETATM   19  N1  UNL     1      50.729  50.355  35.172  1.00  0.00    -0.354 N 
ATOM     20  H1  UNL     1      50.446  51.099  34.533  1.00  0.00     0.162 HD
BRANCH  19  21
HETATM   21  C2  UNL     1      52.126  49.882  35.138  1.00  0.00     0.087 C 
HETATM   22  C3  UNL     1      52.605  50.119  33.732  1.00  0.00     0.055 C 
HETATM   23  C4  UNL     1      53.649  51.210  33.658  1.00  0.00     0.274 C 
HETATM   24  N2  UNL     1      54.713  50.840  34.550  1.00  0.00     0.088 N 
HETATM   25  C9  UNL     1      54.292  50.916  35.906  1.00  0.00     0.274 C 
HETATM   26  C10 UNL     1      52.876  50.607  36.184  1.00  0.00     0.055 C 
BRANCH  24  27
HETATM   27  C5  UNL     1      55.803  51.773  34.339  1.00  0.00     0.277 C 
BRANCH  27  28
HETATM   28  C6  UNL     1      56.768  51.782  35.504  1.00  0.00     0.014 A 
HETATM   29  C7  UNL     1      58.040  50.973  35.209  1.00  0.00     0.007 A 
HETATM   30  C8  UNL     1      58.074  52.441  35.422  1.00  0.00     0.007 A 
ENDBRANCH  27  28
ENDBRANCH  24  27
ENDBRANCH  19  21
ENDBRANCH   1  17
TORSDOF 4
ENDMDL
MODEL 3
REMARK VINA RESULT: -7.367205931      1.204      1.401
REMARK  4 active torsions:
REMARK  status: ('A' for Active; 'I' for Inactive)
REMARK       I    between atoms: C1_2  and  N1_3 
REMARK    1  A    between atoms: C1_2  and  C11_15 
REMARK    2  A    between atoms: N1_3  and  C2_5 
REMARK    3  A    between atoms: N2_8  and  C5_9 
REMARK    4  A    between atoms: C5_9  and  C6_10 
REMARK       I    between atoms: N3_16  and  C12_17 
REMARK       I    between atoms: C12_17  and  N4_19 
ROOT
HETATM    1  C11 UNL     1      46.237  50.063  31.391  1.00  0.00     0.253 C 
HETATM    2  N3  UNL     1      46.960  48.840  30.973  1.00  0.00    -0.314 N 
HETATM    3  C12 UNL     1      47.401  47.745  31.708  1.00  0.00     0.321 C 
HETATM    4  O2  UNL     1      47.087  47.684  32.965  1.00  0.00    -0.247 OA
HETATM    5  N4  UNL     1      48.176  46.653  31.241  1.00  0.00    -0.329 N 
HETATM    6  C13 UNL     1      48.701  46.389  29.927  1.00  0.00     0.132 C 
HETATM    7  C14 UNL     1      49.647  45.224  30.133  1.00  0.00     0.006 C 
HETATM    8  C15 UNL     1      48.761  44.003  30.291  1.00  0.00     0.008 C 
HETATM    9  C16 UNL     1      47.990  44.295  31.584  1.00  0.00     0.026 C 
HETATM   10  C17 UNL     1      48.613  45.538  32.101  1.00  0.00     0.089 C 
HETATM   11  C18 UNL     1      50.042  45.425  31.582  1.00  0.00     0.031 C 
HETATM   12  C19 UNL     1      46.982  49.091  29.510  1.00  0.00     0.135 C 
HETATM   13  C20 UNL     1      45.483  49.417  29.275  1.00  0.00     0.101 C 
HETATM   14  C21 UNL     1      44.961  49.871  30.658  1.00  0.00     0.274 C 
HETATM   15  F1  UNL     1      44.212  51.028  30.485  1.00  0.00    -0.203 F 
HETATM   16  F2  UNL     1      44.173  48.910  31.226  1.00  0.00    -0.203 F 
ENDROOT
BRANCH   1  17
HETATM   17  C1  UNL     1      46.236  50.393  32.783  1.00  0.00     0.247 C 
HETATM   18  O1  UNL     1      45.195  50.626  33.485  1.00  0.00    -0.271 OA
HETATM   19  N1  UNL     1      47.451  50.491  33.522  1.00  0.00    -0.354 N 
ATOM     20  H1  UNL     1      48.334  50.322  33.041  1.00  0.00     0.162 HD
BRANCH  19  21
HETATM   21  C2  UNL     1      47.478  50.829  34.958  1.00  0.00     0.087 C 
HETATM   22  C3  UNL     1      46.390  50.006  35.592  1.00  0.00     0.055 C 
HETATM   23  C4  UNL     1      46.941  48.925  36.495  1.00  0.00     0.274 C 
HETATM   24  N2  UNL     1      47.783  49.570  37.463  1.00  0.00     0.088 N 
HETATM   25  C9  UNL     1      48.961  50.084  36.854  1.00  0.00     0.274 C 
HETATM   26  C10 UNL     1      48.840  50.559  35.462  1.00  0.00     0.055 C 
BRANCH  24  27
HETATM   27  C5  UNL     1      48.156  48.574  38.449  1.00  0.00     0.277 C 
BRANCH  27  28
HETATM   28  C6  UNL     1      47.844  49.032  39.856  1.00  0.00     0.014 A 
HETATM   29  C7  UNL     1      46.889  48.072  40.581  1.00  0.00     0.007 A 
HETATM   30  C8  UNL     1      48.286  48.277  41.032  1.00  0.00     0.007 A 
ENDBRANCH  27  28
ENDBRANCH  24  27
ENDBRANCH  19  21
ENDBRANCH   1  17
TORSDOF 4
ENDMDL
MODEL 4
REMARK VINA RESULT: -7.268746522      4.439      6.085
REMARK  4 active torsions:
REMARK  status: ('A' for Active; 'I' for Inactive)
REMARK       I    between atoms: C1_2  and  N1_3 
REMARK    1  A    between atoms: C1_2  and  C11_15 
REMARK    2  A    between atoms: N1_3  and  C2_5 
REMARK    3  A    between atoms: N2_8  and  C5_9 
REMARK    4  A    between atoms: C5_9  and  C6_10 
REMARK       I    between atoms: N3_16  and  C12_17 
REMARK       I    between atoms: C12_17  and  N4_19 
ROOT
HETATM    1  C11 UNL     1      48.286  50.182  35.182  1.00  0.00     0.253 C 
HETATM    2  N3  UNL     1      47.916  49.825  33.793  1.00  0.00    -0.314 N 
HETATM    3  C12 UNL     1      48.435  48.866  32.929  1.00  0.00     0.321 C 
HETATM    4  O2  UNL     1      49.345  48.061  33.382  1.00  0.00    -0.247 OA
HETATM    5  N4  UNL     1      48.083  48.654  31.571  1.00  0.00    -0.329 N 
HETATM    6  C13 UNL     1      47.129  49.346  30.745  1.00  0.00     0.132 C 
HETATM    7  C14 UNL     1      47.406  48.832  29.348  1.00  0.00     0.006 C 
HETATM    8  C15 UNL     1      46.804  47.440  29.301  1.00  0.00     0.008 C 
HETATM    9  C16 UNL     1      47.638  46.663  30.326  1.00  0.00     0.026 C 
HETATM   10  C17 UNL     1      48.701  47.618  30.723  1.00  0.00     0.089 C 
HETATM   11  C18 UNL     1      48.870  48.458  29.463  1.00  0.00     0.031 C 
HETATM   12  C19 UNL     1      46.752  50.733  33.637  1.00  0.00     0.135 C 
HETATM   13  C20 UNL     1      45.970  50.385  34.932  1.00  0.00     0.101 C 
HETATM   14  C21 UNL     1      47.037  49.800  35.887  1.00  0.00     0.274 C 
HETATM   15  F1  UNL     1      46.874  50.386  37.136  1.00  0.00    -0.203 F 
HETATM   16  F2  UNL     1      46.899  48.446  36.007  1.00  0.00    -0.203 F 
ENDROOT
BRANCH   1  17
HETATM   17  C1  UNL     1      49.559  49.746  35.665  1.00  0.00     0.247 C 
HETATM   18  O1  UNL     1      49.751  49.070  36.732  1.00  0.00    -0.271 OA
HETATM   19  N1  UNL     1      50.762  50.046  34.961  1.00  0.00    -0.354 N 
ATOM     20  H1  UNL     1      50.703  50.585  34.096  1.00  0.00     0.162 HD
BRANCH  19  21
HETATM   21  C2  UNL     1      52.087  49.608  35.438  1.00  0.00     0.087 C 
HETATM   22  C3  UNL     1      52.777  49.015  34.240  1.00  0.00     0.055 C 
HETATM   23  C4  UNL     1      53.939  49.861  33.771  1.00  0.00     0.274 C 
HETATM   24  N2  UNL     1      54.822  50.028  34.892  1.00  0.00     0.088 N 
HETATM   25  C9  UNL     1      54.231  50.852  35.889  1.00  0.00     0.274 C 
HETATM   26  C10 UNL     1      52.764  50.777  36.034  1.00  0.00     0.055 C 
BRANCH  24  27
HETATM   27  C5  UNL     1      56.030  50.665  34.405  1.00  0.00     0.277 C 
BRANCH  27  28
HETATM   28  C6  UNL     1      56.922  51.119  35.539  1.00  0.00     0.014 A 
HETATM   29  C7  UNL     1      58.403  51.156  35.132  1.00  0.00     0.007 A 
HETATM   30  C8  UNL     1      57.655  52.387  35.488  1.00  0.00     0.007 A 
ENDBRANCH  27  28
ENDBRANCH  24  27
ENDBRANCH  19  21
ENDBRANCH   1  17
TORSDOF 4
ENDMDL
MODEL 5
REMARK VINA RESULT: -7.221554042      2.688      3.112
REMARK  4 active torsions:
REMARK  status: ('A' for Active; 'I' for Inactive)
REMARK       I    between atoms: C1_2  and  N1_3 
REMARK    1  A    between atoms: C1_2  and  C11_15 
REMARK    2  A    between atoms: N1_3  and  C2_5 
REMARK    3  A    between atoms: N2_8  and  C5_9 
REMARK    4  A    between atoms: C5_9  and  C6_10 
REMARK       I    between atoms: N3_16  and  C12_17 
REMARK       I    between atoms: C12_17  and  N4_19 
ROOT
HETATM    1  C11 UNL     1      45.105  50.835  31.443  1.00  0.00     0.253 C 
HETATM    2  N3  UNL     1      45.829  50.712  30.157  1.00  0.00    -0.314 N 
HETATM    3  C12 UNL     1      47.192  50.679  29.877  1.00  0.00     0.321 C 
HETATM    4  O2  UNL     1      48.022  50.668  30.874  1.00  0.00    -0.247 OA
HETATM    5  N4  UNL     1      47.804  50.656  28.599  1.00  0.00    -0.329 N 
HETATM    6  C13 UNL     1      47.209  50.662  27.288  1.00  0.00     0.132 C 
HETATM    7  C14 UNL     1      48.376  50.893  26.351  1.00  0.00     0.006 C 
HETATM    8  C15 UNL     1      49.109  49.567  26.280  1.00  0.00     0.008 C 
HETATM    9  C16 UNL     1      49.613  49.367  27.714  1.00  0.00     0.026 C 
HETATM   10  C17 UNL     1      49.265  50.637  28.396  1.00  0.00     0.089 C 
HETATM   11  C18 UNL     1      49.329  51.647  27.257  1.00  0.00     0.031 C 
HETATM   12  C19 UNL     1      44.657  50.533  29.264  1.00  0.00     0.135 C 
HETATM   13  C20 UNL     1      43.913  49.406  30.029  1.00  0.00     0.101 C 
HETATM   14  C21 UNL     1      44.426  49.516  31.484  1.00  0.00     0.274 C 
HETATM   15  F1  UNL     1      43.335  49.452  32.339  1.00  0.00    -0.203 F 
HETATM   16  F2  UNL     1      45.287  48.496  31.779  1.00  0.00    -0.203 F 
ENDROOT
BRANCH   1  17
HETATM   17  C1  UNL     1      45.835  51.315  32.576  1.00  0.00     0.247 C 
HETATM   18  O1  UNL     1      46.062  52.544  32.840  1.00  0.00    -0.271 OA
HETATM   19  N1  UNL     1      46.388  50.418  33.535  1.00  0.00    -0.354 N 
ATOM     20  H1  UNL     1      46.257  49.415  33.403  1.00  0.00     0.162 HD
BRANCH  19  21
HETATM   21  C2  UNL     1      47.143  50.887  34.712  1.00  0.00     0.087 C 
HETATM   22  C3  UNL     1      46.242  50.662  35.895  1.00  0.00     0.055 C 
HETATM   23  C4  UNL     1      46.752  49.568  36.806  1.00  0.00     0.274 C 
HETATM   24  N2  UNL     1      48.089  49.927  37.190  1.00  0.00     0.088 N 
HETATM   25  C9  UNL     1      48.979  49.840  36.084  1.00  0.00     0.274 C 
HETATM   26  C10 UNL     1      48.423  50.150  34.753  1.00  0.00     0.055 C 
BRANCH  24  27
HETATM   27  C5  UNL     1      48.513  48.993  38.215  1.00  0.00     0.277 C 
BRANCH  27  28
HETATM   28  C6  UNL     1      47.559  48.976  39.389  1.00  0.00     0.014 A 
HETATM   29  C7  UNL     1      47.775  47.754  40.294  1.00  0.00     0.007 A 
HETATM   30  C8  UNL     1      48.025  49.136  40.769  1.00  0.00     0.007 A 
ENDBRANCH  27  28
ENDBRANCH  24  27
ENDBRANCH  19  21
ENDBRANCH   1  17
TORSDOF 4
ENDMDL
