MODEL 1
REMARK VINA RESULT: -7.984739136      0.000      0.000
REMARK  4 active torsions:
REMARK  status: ('A' for Active; 'I' for Inactive)
REMARK       I    between atoms: C1_2  and  N2_4 
REMARK       I    between atoms: N2_4  and  C2_6 
REMARK       I    between atoms: C2_6  and  N3_8 
REMARK    1  A    between atoms: N4_11  and  C5_12 
REMARK    2  A    between atoms: C5_12  and  C6_13 
REMARK    3  A    between atoms: C6_13  and  C7_14 
REMARK       I    between atoms: C7_14  and  N5_16 
REMARK    4  A    between atoms: N5_16  and  C8_18 
ROOT
HETATM    1  C5  UNL     1      15.298 -23.986 -20.249  1.00  0.00     0.168 C 
HETATM    2  C18 UNL     1      15.015 -25.447 -20.001  1.00  0.00     0.042 C 
HETATM    3  C19 UNL     1      14.102 -25.462 -21.217  1.00  0.00     0.005 C 
HETATM    4  C20 UNL     1      14.266 -23.982 -21.310  1.00  0.00     0.042 C 
ENDROOT
BRANCH   1   5
HETATM    5  N4  UNL     1      16.647 -23.851 -20.774  1.00  0.00     0.101 N 
HETATM    6  C4  UNL     1      17.596 -23.436 -19.780  1.00  0.00     0.293 C 
HETATM    7  C3  UNL     1      18.236 -22.093 -20.083  1.00  0.00     0.158 C 
HETATM    8  N3  UNL     1      18.809 -22.116 -21.397  1.00  0.00    -0.331 N 
HETATM    9  C2  UNL     1      19.937 -21.293 -21.733  1.00  0.00     0.326 C 
HETATM   10  C22 UNL     1      18.193 -23.009 -22.374  1.00  0.00     0.158 C 
HETATM   11  N2  UNL     1      20.509 -21.310 -23.023  1.00  0.00    -0.263 N 
HETATM   12  O2  UNL     1      20.406 -20.552 -20.847  1.00  0.00    -0.247 OA
HETATM   13  C1  UNL     1      21.623 -20.469 -23.287  1.00  0.00     0.336 C 
ATOM     14  H2  UNL     1      20.129 -21.914 -23.752  1.00  0.00     0.174 HD
HETATM   15  N1  UNL     1      22.233 -20.462 -24.592  1.00  0.00    -0.040 NA
HETATM   16  O1  UNL     1      22.112 -19.712 -22.412  1.00  0.00    -0.251 OA
HETATM   17  C21 UNL     1      16.717 -23.071 -21.967  1.00  0.00     0.293 C 
ENDBRANCH   1   5
BRANCH   1  18
HETATM   18  C6  UNL     1      15.127 -23.152 -19.046  1.00  0.00     0.144 C 
BRANCH  18  19
HETATM   19  C7  UNL     1      14.285 -21.963 -19.166  1.00  0.00     0.220 C 
HETATM   20  O3  UNL     1      13.122 -21.967 -18.742  1.00  0.00    -0.274 OA
HETATM   21  N5  UNL     1      14.795 -20.788 -19.772  1.00  0.00    -0.352 N 
ATOM     22  H5  UNL     1      15.756 -20.819 -20.114  1.00  0.00     0.163 HD
BRANCH  21  23
HETATM   23  C8  UNL     1      14.077 -19.555 -19.947  1.00  0.00     0.034 C 
HETATM   24  C9  UNL     1      14.989 -18.551 -20.676  1.00  0.00     0.035 C 
HETATM   25  C10 UNL     1      14.357 -17.194 -20.785  1.00  0.00    -0.012 C 
HETATM   26  C11 UNL     1      13.069 -17.329 -21.559  1.00  0.00     0.009 C 
HETATM   27  C15 UNL     1      14.109 -16.722 -19.363  1.00  0.00     0.009 C 
HETATM   28  C12 UNL     1      12.180 -18.310 -20.839  1.00  0.00    -0.012 C 
HETATM   29  C13 UNL     1      11.843 -17.752 -19.483  1.00  0.00     0.009 C 
HETATM   30  C17 UNL     1      12.828 -19.684 -20.743  1.00  0.00     0.035 C 
HETATM   31  C14 UNL     1      13.125 -17.622 -18.696  1.00  0.00    -0.012 C 
HETATM   32  C16 UNL     1      13.731 -19.007 -18.573  1.00  0.00     0.035 C 
ENDBRANCH  21  23
ENDBRANCH  18  19
ENDBRANCH   1  18
TORSDOF 4
ENDMDL
MODEL 2
REMARK VINA RESULT: -7.930821606      0.196      1.278
REMARK  4 active torsions:
REMARK  status: ('A' for Active; 'I' for Inactive)
REMARK       I    between atoms: C1_2  and  N2_4 
REMARK       I    between atoms: N2_4  and  C2_6 
REMARK       I    between atoms: C2_6  and  N3_8 
REMARK    1  A    between atoms: N4_11  and  C5_12 
REMARK    2  A    between atoms: C5_12  and  C6_13 
REMARK    3  A    between atoms: C6_13  and  C7_14 
REMARK       I    between atoms: C7_14  and  N5_16 
REMARK    4  A    between atoms: N5_16  and  C8_18 
ROOT
HETATM    1  C5  UNL     1      15.337 -24.001 -20.231  1.00  0.00     0.168 C 
HETATM    2  C18 UNL     1      15.048 -25.465 -20.001  1.00  0.00     0.042 C 
HETATM    3  C19 UNL     1      14.109 -25.452 -21.197  1.00  0.00     0.005 C 
HETATM    4  C20 UNL     1      14.282 -23.972 -21.269  1.00  0.00     0.042 C 
ENDROOT
BRANCH   1   5
HETATM    5  N4  UNL     1      16.676 -23.868 -20.782  1.00  0.00     0.101 N 
HETATM    6  C4  UNL     1      17.655 -23.511 -19.796  1.00  0.00     0.293 C 
HETATM    7  C3  UNL     1      18.312 -22.167 -20.059  1.00  0.00     0.158 C 
HETATM    8  N3  UNL     1      18.852 -22.145 -21.386  1.00  0.00    -0.331 N 
HETATM    9  C2  UNL     1      19.987 -21.328 -21.716  1.00  0.00     0.326 C 
HETATM   10  C22 UNL     1      18.198 -22.987 -22.384  1.00  0.00     0.158 C 
HETATM   11  N2  UNL     1      20.528 -21.302 -23.020  1.00  0.00    -0.263 N 
HETATM   12  O2  UNL     1      20.490 -20.632 -20.813  1.00  0.00    -0.247 OA
HETATM   13  C1  UNL     1      21.650 -20.470 -23.276  1.00  0.00     0.336 C 
ATOM     14  H2  UNL     1      20.121 -21.869 -23.763  1.00  0.00     0.174 HD
HETATM   15  N1  UNL     1      22.229 -20.419 -24.594  1.00  0.00    -0.040 NA
HETATM   16  O1  UNL     1      22.173 -19.758 -22.383  1.00  0.00    -0.251 OA
HETATM   17  C21 UNL     1      16.731 -23.041 -21.945  1.00  0.00     0.293 C 
ENDBRANCH   1   5
BRANCH   1  18
HETATM   18  C6  UNL     1      15.198 -23.187 -19.011  1.00  0.00     0.144 C 
BRANCH  18  19
HETATM   19  C7  UNL     1      14.358 -21.992 -19.092  1.00  0.00     0.220 C 
HETATM   20  O3  UNL     1      13.204 -22.001 -18.645  1.00  0.00    -0.274 OA
HETATM   21  N5  UNL     1      14.861 -20.808 -19.685  1.00  0.00    -0.352 N 
ATOM     22  H5  UNL     1      15.815 -20.836 -20.046  1.00  0.00     0.163 HD
BRANCH  21  23
HETATM   23  C8  UNL     1      14.144 -19.569 -19.822  1.00  0.00     0.034 C 
HETATM   24  C9  UNL     1      13.019 -19.760 -20.855  1.00  0.00     0.035 C 
HETATM   25  C10 UNL     1      12.302 -18.476 -21.150  1.00  0.00    -0.012 C 
HETATM   26  C11 UNL     1      11.699 -17.961 -19.866  1.00  0.00     0.009 C 
HETATM   27  C15 UNL     1      13.346 -17.520 -21.702  1.00  0.00     0.009 C 
HETATM   28  C12 UNL     1      12.806 -17.772 -18.862  1.00  0.00    -0.012 C 
HETATM   29  C13 UNL     1      13.753 -16.722 -19.376  1.00  0.00     0.009 C 
HETATM   30  C17 UNL     1      13.519 -19.083 -18.564  1.00  0.00     0.035 C 
HETATM   31  C14 UNL     1      14.370 -17.232 -20.657  1.00  0.00    -0.012 C 
HETATM   32  C16 UNL     1      15.112 -18.514 -20.330  1.00  0.00     0.035 C 
ENDBRANCH  21  23
ENDBRANCH  18  19
ENDBRANCH   1  18
TORSDOF 4
ENDMDL
MODEL 3
REMARK VINA RESULT: -7.754200206      3.206      8.389
REMARK  4 active torsions:
REMARK  status: ('A' for Active; 'I' for Inactive)
REMARK       I    between atoms: C1_2  and  N2_4 
REMARK       I    between atoms: N2_4  and  C2_6 
REMARK       I    between atoms: C2_6  and  N3_8 
REMARK    1  A    between atoms: N4_11  and  C5_12 
REMARK    2  A    between atoms: C5_12  and  C6_13 
REMARK    3  A    between atoms: C6_13  and  C7_14 
REMARK       I    between atoms: C7_14  and  N5_16 
REMARK    4  A    between atoms: N5_16  and  C8_18 
ROOT
HETATM    1  C5  UNL     1      15.982 -20.217 -20.217  1.00  0.00     0.168 C 
HETATM    2  C18 UNL     1      16.457 -18.784 -20.229  1.00  0.00     0.042 C 
HETATM    3  C19 UNL     1      17.008 -18.993 -21.631  1.00  0.00     0.005 C 
HETATM    4  C20 UNL     1      16.687 -20.444 -21.499  1.00  0.00     0.042 C 
ENDROOT
BRANCH   1   5
HETATM    5  N4  UNL     1      14.535 -20.233 -20.359  1.00  0.00     0.101 N 
HETATM    6  C4  UNL     1      13.854 -20.474 -19.119  1.00  0.00     0.293 C 
HETATM    7  C3  UNL     1      13.036 -21.754 -19.121  1.00  0.00     0.158 C 
HETATM    8  N3  UNL     1      12.137 -21.752 -20.237  1.00  0.00    -0.331 N 
HETATM    9  C2  UNL     1      10.890 -22.463 -20.192  1.00  0.00     0.326 C 
HETATM   10  C22 UNL     1      12.547 -20.997 -21.418  1.00  0.00     0.158 C 
HETATM   11  N2  UNL     1       9.998 -22.465 -21.285  1.00  0.00    -0.263 N 
HETATM   12  O2  UNL     1      10.610 -23.089 -19.151  1.00  0.00    -0.247 OA
HETATM   13  C1  UNL     1       8.782 -23.190 -21.172  1.00  0.00     0.336 C 
ATOM     14  H2  UNL     1      10.221 -21.954 -22.139  1.00  0.00     0.174 HD
HETATM   15  N1  UNL     1       7.846 -23.213 -22.267  1.00  0.00    -0.040 NA
HETATM   16  O1  UNL     1       8.478 -23.831 -20.135  1.00  0.00    -0.251 OA
HETATM   17  C21 UNL     1      14.077 -21.075 -21.417  1.00  0.00     0.293 C 
ENDBRANCH   1   5
BRANCH   1  18
HETATM   18  C6  UNL     1      16.390 -20.951 -19.007  1.00  0.00     0.144 C 
BRANCH  18  19
HETATM   19  C7  UNL     1      17.071 -22.232 -19.195  1.00  0.00     0.220 C 
HETATM   20  O3  UNL     1      18.299 -22.318 -19.075  1.00  0.00    -0.274 OA
HETATM   21  N5  UNL     1      16.326 -23.393 -19.519  1.00  0.00    -0.352 N 
ATOM     22  H5  UNL     1      15.316 -23.287 -19.614  1.00  0.00     0.163 HD
BRANCH  21  23
HETATM   23  C8  UNL     1      16.869 -24.708 -19.724  1.00  0.00     0.034 C 
HETATM   24  C9  UNL     1      17.881 -24.651 -20.882  1.00  0.00     0.035 C 
HETATM   25  C10 UNL     1      18.400 -26.011 -21.243  1.00  0.00    -0.012 C 
HETATM   26  C11 UNL     1      19.083 -26.597 -20.032  1.00  0.00     0.009 C 
HETATM   27  C15 UNL     1      17.193 -26.833 -21.659  1.00  0.00     0.009 C 
HETATM   28  C12 UNL     1      18.087 -26.655 -18.904  1.00  0.00    -0.012 C 
HETATM   29  C13 UNL     1      16.968 -27.583 -19.293  1.00  0.00     0.009 C 
HETATM   30  C17 UNL     1      17.574 -25.268 -18.541  1.00  0.00     0.035 C 
HETATM   31  C14 UNL     1      16.270 -26.999 -20.499  1.00  0.00    -0.012 C 
HETATM   32  C16 UNL     1      15.730 -25.639 -20.104  1.00  0.00     0.035 C 
ENDBRANCH  21  23
ENDBRANCH  18  19
ENDBRANCH   1  18
TORSDOF 4
ENDMDL
MODEL 4
REMARK VINA RESULT: -7.739707878      3.111      8.362
REMARK  4 active torsions:
REMARK  status: ('A' for Active; 'I' for Inactive)
REMARK       I    between atoms: C1_2  and  N2_4 
REMARK       I    between atoms: N2_4  and  C2_6 
REMARK       I    between atoms: C2_6  and  N3_8 
REMARK    1  A    between atoms: N4_11  and  C5_12 
REMARK    2  A    between atoms: C5_12  and  C6_13 
REMARK    3  A    between atoms: C6_13  and  C7_14 
REMARK       I    between atoms: C7_14  and  N5_16 
REMARK    4  A    between atoms: N5_16  and  C8_18 
ROOT
HETATM    1  C5  UNL     1      15.923 -20.021 -20.169  1.00  0.00     0.168 C 
HETATM    2  C18 UNL     1      16.288 -18.556 -20.168  1.00  0.00     0.042 C 
HETATM    3  C19 UNL     1      16.747 -18.684 -21.612  1.00  0.00     0.005 C 
HETATM    4  C20 UNL     1      16.546 -20.158 -21.506  1.00  0.00     0.042 C 
ENDROOT
BRANCH   1   5
HETATM    5  N4  UNL     1      14.475 -20.143 -20.206  1.00  0.00     0.101 N 
HETATM    6  C4  UNL     1      13.930 -20.702 -19.001  1.00  0.00     0.293 C 
HETATM    7  C3  UNL     1      13.216 -22.024 -19.221  1.00  0.00     0.158 C 
HETATM    8  N3  UNL     1      12.222 -21.874 -20.242  1.00  0.00    -0.331 N 
HETATM    9  C2  UNL     1      11.042 -22.694 -20.261  1.00  0.00     0.326 C 
HETATM   10  C22 UNL     1      12.464 -20.854 -21.258  1.00  0.00     0.158 C 
HETATM   11  N2  UNL     1      10.057 -22.551 -21.261  1.00  0.00    -0.263 N 
HETATM   12  O2  UNL     1      10.907 -23.546 -19.362  1.00  0.00    -0.247 OA
HETATM   13  C1  UNL     1       8.916 -23.396 -21.220  1.00  0.00     0.336 C 
ATOM     14  H2  UNL     1      10.162 -21.855 -21.999  1.00  0.00     0.174 HD
HETATM   15  N1  UNL     1       7.889 -23.277 -22.223  1.00  0.00    -0.040 NA
HETATM   16  O1  UNL     1       8.758 -24.264 -20.326  1.00  0.00    -0.251 OA
HETATM   17  C21 UNL     1      13.989 -20.785 -21.385  1.00  0.00     0.293 C 
ENDBRANCH   1   5
BRANCH   1  18
HETATM   18  C6  UNL     1      16.474 -20.755 -19.017  1.00  0.00     0.144 C 
BRANCH  18  19
HETATM   19  C7  UNL     1      17.254 -21.960 -19.298  1.00  0.00     0.220 C 
HETATM   20  O3  UNL     1      18.486 -21.956 -19.183  1.00  0.00    -0.274 OA
HETATM   21  N5  UNL     1      16.603 -23.150 -19.706  1.00  0.00    -0.352 N 
ATOM     22  H5  UNL     1      15.587 -23.118 -19.795  1.00  0.00     0.163 HD
BRANCH  21  23
HETATM   23  C8  UNL     1      17.248 -24.399 -20.007  1.00  0.00     0.034 C 
HETATM   24  C9  UNL     1      16.250 -25.305 -20.750  1.00  0.00     0.035 C 
HETATM   25  C10 UNL     1      16.807 -26.678 -20.989  1.00  0.00    -0.012 C 
HETATM   26  C11 UNL     1      18.057 -26.547 -21.824  1.00  0.00     0.009 C 
HETATM   27  C15 UNL     1      17.107 -27.262 -19.619  1.00  0.00     0.009 C 
HETATM   28  C12 UNL     1      19.031 -25.662 -21.089  1.00  0.00    -0.012 C 
HETATM   29  C13 UNL     1      19.412 -26.331 -19.796  1.00  0.00     0.009 C 
HETATM   30  C17 UNL     1      18.458 -24.270 -20.862  1.00  0.00     0.035 C 
HETATM   31  C14 UNL     1      18.168 -26.458 -18.948  1.00  0.00    -0.012 C 
HETATM   32  C16 UNL     1      17.639 -25.059 -18.696  1.00  0.00     0.035 C 
ENDBRANCH  21  23
ENDBRANCH  18  19
ENDBRANCH   1  18
TORSDOF 4
ENDMDL
MODEL 5
REMARK VINA RESULT: -7.670412762      3.131      8.361
REMARK  4 active torsions:
REMARK  status: ('A' for Active; 'I' for Inactive)
REMARK       I    between atoms: C1_2  and  N2_4 
REMARK       I    between atoms: N2_4  and  C2_6 
REMARK       I    between atoms: C2_6  and  N3_8 
REMARK    1  A    between atoms: N4_11  and  C5_12 
REMARK    2  A    between atoms: C5_12  and  C6_13 
REMARK    3  A    between atoms: C6_13  and  C7_14 
REMARK       I    between atoms: C7_14  and  N5_16 
REMARK    4  A    between atoms: N5_16  and  C8_18 
ROOT
HETATM    1  C5  UNL     1      15.965 -20.059 -20.230  1.00  0.00     0.168 C 
HETATM    2  C18 UNL     1      16.401 -18.614 -20.187  1.00  0.00     0.042 C 
HETATM    3  C19 UNL     1      16.948 -18.752 -21.599  1.00  0.00     0.005 C 
HETATM    4  C20 UNL     1      16.668 -20.216 -21.524  1.00  0.00     0.042 C 
ENDROOT
BRANCH   1   5
HETATM    5  N4  UNL     1      14.519 -20.110 -20.364  1.00  0.00     0.101 N 
HETATM    6  C4  UNL     1      13.851 -20.378 -19.122  1.00  0.00     0.293 C 
HETATM    7  C3  UNL     1      13.065 -21.678 -19.130  1.00  0.00     0.158 C 
HETATM    8  N3  UNL     1      12.160 -21.688 -20.241  1.00  0.00    -0.331 N 
HETATM    9  C2  UNL     1      10.931 -22.431 -20.195  1.00  0.00     0.326 C 
HETATM   10  C22 UNL     1      12.544 -20.914 -21.418  1.00  0.00     0.158 C 
HETATM   11  N2  UNL     1      10.032 -22.445 -21.283  1.00  0.00    -0.263 N 
HETATM   12  O2  UNL     1      10.673 -23.072 -19.158  1.00  0.00    -0.247 OA
HETATM   13  C1  UNL     1       8.836 -23.202 -21.170  1.00  0.00     0.336 C 
ATOM     14  H2  UNL     1      10.238 -21.922 -22.134  1.00  0.00     0.174 HD
HETATM   15  N1  UNL     1       7.895 -23.238 -22.260  1.00  0.00    -0.040 NA
HETATM   16  O1  UNL     1       8.554 -23.858 -20.136  1.00  0.00    -0.251 OA
HETATM   17  C21 UNL     1      14.076 -20.954 -21.426  1.00  0.00     0.293 C 
ENDBRANCH   1   5
BRANCH   1  18
HETATM   18  C6  UNL     1      16.402 -20.829 -19.052  1.00  0.00     0.144 C 
BRANCH  18  19
HETATM   19  C7  UNL     1      17.092 -22.096 -19.295  1.00  0.00     0.220 C 
HETATM   20  O3  UNL     1      18.314 -22.191 -19.129  1.00  0.00    -0.274 OA
HETATM   21  N5  UNL     1      16.362 -23.232 -19.724  1.00  0.00    -0.352 N 
ATOM     22  H5  UNL     1      15.356 -23.118 -19.854  1.00  0.00     0.163 HD
BRANCH  21  23
HETATM   23  C8  UNL     1      16.914 -24.532 -19.992  1.00  0.00     0.034 C 
HETATM   24  C9  UNL     1      17.458 -25.119 -18.677  1.00  0.00     0.035 C 
HETATM   25  C10 UNL     1      18.166 -26.424 -18.894  1.00  0.00    -0.012 C 
HETATM   26  C11 UNL     1      17.188 -27.403 -19.494  1.00  0.00     0.009 C 
HETATM   27  C15 UNL     1      19.319 -26.132 -19.839  1.00  0.00     0.009 C 
HETATM   28  C12 UNL     1      16.663 -26.825 -20.782  1.00  0.00    -0.012 C 
HETATM   29  C13 UNL     1      17.809 -26.672 -21.746  1.00  0.00     0.009 C 
HETATM   30  C17 UNL     1      15.939 -25.507 -20.548  1.00  0.00     0.035 C 
HETATM   31  C14 UNL     1      18.790 -25.685 -21.159  1.00  0.00    -0.012 C 
HETATM   32  C16 UNL     1      18.061 -24.368 -20.975  1.00  0.00     0.035 C 
ENDBRANCH  21  23
ENDBRANCH  18  19
ENDBRANCH   1  18
TORSDOF 4
ENDMDL
