MODEL 1
REMARK VINA RESULT: -7.377932394      0.000      0.000
REMARK  7 active torsions:
REMARK  status: ('A' for Active; 'I' for Inactive)
REMARK       I    between atoms: C1_2  and  N1_3 
REMARK    1  A    between atoms: C1_2  and  C13_21 
REMARK    2  A    between atoms: N1_3  and  C2_5 
REMARK       I    between atoms: N2_8  and  C5_9 
REMARK    3  A    between atoms: C5_9  and  C6_11 
REMARK    4  A    between atoms: C19_27  and  C20_28 
REMARK    5  A    between atoms: C19_27  and  C21_31 
REMARK    6  A    between atoms: C20_28  and  O3_29 
REMARK    7  A    between atoms: C21_31  and  C22_32 
ROOT
HETATM    1  O1  UNL     1      12.120 -22.492 -18.451  1.00  0.00    -0.273 OA
HETATM    2  C1  UNL     1      12.545 -22.334 -19.670  1.00  0.00     0.223 C 
HETATM    3  N1  UNL     1      11.469 -22.417 -20.565  1.00  0.00    -0.356 N 
ATOM      4  H1  UNL     1      11.676 -22.310 -21.559  1.00  0.00     0.162 HD
ENDROOT
BRANCH   3   5
HETATM    5  C2  UNL     1      10.083 -22.642 -20.192  1.00  0.00     0.087 C 
HETATM    6  C3  UNL     1       9.619 -23.846 -20.984  1.00  0.00     0.045 C 
HETATM    7  C4  UNL     1       8.229 -24.262 -20.650  1.00  0.00     0.127 C 
HETATM    8  N2  UNL     1       7.407 -23.132 -20.254  1.00  0.00    -0.352 N 
HETATM    9  C5  UNL     1       6.304 -23.362 -19.391  1.00  0.00     0.224 C 
HETATM   10  C11 UNL     1       7.768 -21.833 -20.762  1.00  0.00     0.127 C 
HETATM   11  O2  UNL     1       6.057 -24.515 -18.969  1.00  0.00    -0.273 OA
HETATM   12  C12 UNL     1       9.200 -21.456 -20.524  1.00  0.00     0.045 C 
BRANCH   9  13
HETATM   13  C6  UNL     1       5.395 -22.271 -18.945  1.00  0.00     0.081 C 
HETATM   14  C7  UNL     1       5.861 -21.665 -17.643  1.00  0.00     0.041 C 
HETATM   15  C8  UNL     1       4.743 -20.983 -16.878  1.00  0.00     0.233 C 
HETATM   16  N3  UNL     1       3.711 -21.936 -16.502  1.00  0.00    -0.075 N 
HETATM   17  C9  UNL     1       3.870 -23.180 -17.233  1.00  0.00     0.233 C 
ATOM     18  H32 UNL     1       3.690 -22.090 -15.494  1.00  0.00     0.277 HD
ATOM     19  H31 UNL     1       2.776 -21.546 -16.617  1.00  0.00     0.277 HD
HETATM   20  C10 UNL     1       4.016 -22.859 -18.694  1.00  0.00     0.041 C 
ENDBRANCH   9  13
ENDBRANCH   3   5
BRANCH   2  21
HETATM   21  C13 UNL     1      13.939 -22.122 -19.848  1.00  0.00     0.093 C 
HETATM   22  C14 UNL     1      14.286 -21.135 -20.926  1.00  0.00    -0.000 C 
HETATM   23  C15 UNL     1      14.116 -21.558 -22.329  1.00  0.00     0.006 C 
HETATM   24  C18 UNL     1      15.837 -21.279 -20.844  1.00  0.00     0.011 C 
HETATM   25  C16 UNL     1      15.062 -22.757 -22.440  1.00  0.00     0.006 C 
HETATM   26  C17 UNL     1      15.798 -22.797 -21.096  1.00  0.00    -0.003 C 
HETATM   27  C19 UNL     1      14.893 -23.261 -19.993  1.00  0.00    -0.003 C 
BRANCH  27  28
HETATM   28  C20 UNL     1      15.730 -23.399 -18.736  1.00  0.00     0.175 C 
BRANCH  28  29
HETATM   29  O3  UNL     1      15.247 -22.570 -17.704  1.00  0.00    -0.400 OA
ATOM     30  H3  UNL     1      15.177 -23.045 -16.884  1.00  0.00     0.209 HD
ENDBRANCH  28  29
ENDBRANCH  27  28
BRANCH  27  31
HETATM   31  C21 UNL     1      14.296 -24.576 -20.292  1.00  0.00     0.017 C 
BRANCH  31  32
HETATM   32  C22 UNL     1      15.236 -25.718 -20.010  1.00  0.00    -0.014 A 
HETATM   33  C23 UNL     1      14.583 -27.069 -20.381  1.00  0.00     0.005 A 
HETATM   34  C24 UNL     1      15.850 -26.575 -21.005  1.00  0.00     0.005 A 
ENDBRANCH  31  32
ENDBRANCH  27  31
ENDBRANCH   2  21
TORSDOF 7
ENDMDL
MODEL 2
REMARK VINA RESULT: -7.298448091      1.686      2.067
REMARK  7 active torsions:
REMARK  status: ('A' for Active; 'I' for Inactive)
REMARK       I    between atoms: C1_2  and  N1_3 
REMARK    1  A    between atoms: C1_2  and  C13_21 
REMARK    2  A    between atoms: N1_3  and  C2_5 
REMARK       I    between atoms: N2_8  and  C5_9 
REMARK    3  A    between atoms: C5_9  and  C6_11 
REMARK    4  A    between atoms: C19_27  and  C20_28 
REMARK    5  A    between atoms: C19_27  and  C21_31 
REMARK    6  A    between atoms: C20_28  and  O3_29 
REMARK    7  A    between atoms: C21_31  and  C22_32 
ROOT
HETATM    1  O1  UNL     1      12.429 -22.364 -18.506  1.00  0.00    -0.273 OA
HETATM    2  C1  UNL     1      13.250 -22.896 -19.362  1.00  0.00     0.223 C 
HETATM    3  N1  UNL     1      12.564 -23.805 -20.180  1.00  0.00    -0.356 N 
ATOM      4  H1  UNL     1      13.104 -24.292 -20.896  1.00  0.00     0.162 HD
ENDROOT
BRANCH   3   5
HETATM    5  C2  UNL     1      11.146 -24.109 -20.091  1.00  0.00     0.087 C 
HETATM    6  C3  UNL     1      10.984 -25.533 -20.576  1.00  0.00     0.045 C 
HETATM    7  C4  UNL     1       9.585 -26.032 -20.467  1.00  0.00     0.127 C 
HETATM    8  N2  UNL     1       8.617 -24.960 -20.627  1.00  0.00    -0.352 N 
HETATM    9  C5  UNL     1       7.344 -25.098 -20.016  1.00  0.00     0.224 C 
HETATM   10  C11 UNL     1       9.015 -23.810 -21.398  1.00  0.00     0.127 C 
HETATM   11  O2  UNL     1       7.069 -26.117 -19.342  1.00  0.00    -0.273 OA
HETATM   12  C12 UNL     1      10.307 -23.190 -20.955  1.00  0.00     0.045 C 
BRANCH   9  13
HETATM   13  C6  UNL     1       6.281 -24.063 -20.138  1.00  0.00     0.081 C 
HETATM   14  C7  UNL     1       5.448 -23.980 -18.881  1.00  0.00     0.041 C 
HETATM   15  C8  UNL     1       4.072 -23.392 -19.126  1.00  0.00     0.233 C 
HETATM   16  N3  UNL     1       3.301 -24.225 -20.034  1.00  0.00    -0.075 N 
HETATM   17  C9  UNL     1       4.160 -25.187 -20.701  1.00  0.00     0.233 C 
ATOM     18  H32 UNL     1       2.521 -24.680 -19.560  1.00  0.00     0.277 HD
ATOM     19  H31 UNL     1       2.770 -23.667 -20.702  1.00  0.00     0.277 HD
HETATM   20  C10 UNL     1       5.345 -24.457 -21.268  1.00  0.00     0.041 C 
ENDBRANCH   9  13
ENDBRANCH   3   5
BRANCH   2  21
HETATM   21  C13 UNL     1      14.607 -22.477 -19.306  1.00  0.00     0.093 C 
HETATM   22  C14 UNL     1      14.966 -21.393 -20.282  1.00  0.00    -0.000 C 
HETATM   23  C15 UNL     1      15.081 -21.757 -21.706  1.00  0.00     0.006 C 
HETATM   24  C18 UNL     1      16.489 -21.319 -19.954  1.00  0.00     0.011 C 
HETATM   25  C16 UNL     1      16.201 -22.801 -21.701  1.00  0.00     0.006 C 
HETATM   26  C17 UNL     1      16.717 -22.810 -20.258  1.00  0.00    -0.003 C 
HETATM   27  C19 UNL     1      15.731 -23.459 -19.331  1.00  0.00    -0.003 C 
BRANCH  27  28
HETATM   28  C20 UNL     1      16.375 -23.546 -17.961  1.00  0.00     0.175 C 
BRANCH  28  29
HETATM   29  O3  UNL     1      15.642 -22.818 -17.003  1.00  0.00    -0.400 OA
ATOM     30  H3  UNL     1      15.157 -23.396 -16.426  1.00  0.00     0.209 HD
ENDBRANCH  28  29
ENDBRANCH  27  28
BRANCH  27  31
HETATM   31  C21 UNL     1      15.392 -24.827 -19.764  1.00  0.00     0.017 C 
BRANCH  31  32
HETATM   32  C22 UNL     1      16.569 -25.763 -19.707  1.00  0.00    -0.014 A 
HETATM   33  C23 UNL     1      16.153 -27.192 -20.124  1.00  0.00     0.005 A 
HETATM   34  C24 UNL     1      17.200 -26.402 -20.845  1.00  0.00     0.005 A 
ENDBRANCH  31  32
ENDBRANCH  27  31
ENDBRANCH   2  21
TORSDOF 7
ENDMDL
MODEL 3
REMARK VINA RESULT: -7.108533414      2.782      4.279
REMARK  7 active torsions:
REMARK  status: ('A' for Active; 'I' for Inactive)
REMARK       I    between atoms: C1_2  and  N1_3 
REMARK    1  A    between atoms: C1_2  and  C13_21 
REMARK    2  A    between atoms: N1_3  and  C2_5 
REMARK       I    between atoms: N2_8  and  C5_9 
REMARK    3  A    between atoms: C5_9  and  C6_11 
REMARK    4  A    between atoms: C19_27  and  C20_28 
REMARK    5  A    between atoms: C19_27  and  C21_31 
REMARK    6  A    between atoms: C20_28  and  O3_29 
REMARK    7  A    between atoms: C21_31  and  C22_32 
ROOT
HETATM    1  O1  UNL     1      13.720 -24.270 -22.156  1.00  0.00    -0.273 OA
HETATM    2  C1  UNL     1      14.095 -25.229 -21.363  1.00  0.00     0.223 C 
HETATM    3  N1  UNL     1      12.987 -25.739 -20.673  1.00  0.00    -0.356 N 
ATOM      4  H1  UNL     1      13.154 -26.501 -20.015  1.00  0.00     0.162 HD
ENDROOT
BRANCH   3   5
HETATM    5  C2  UNL     1      11.620 -25.270 -20.819  1.00  0.00     0.087 C 
HETATM    6  C3  UNL     1      11.485 -24.062 -19.918  1.00  0.00     0.045 C 
HETATM    7  C4  UNL     1      10.152 -23.406 -20.017  1.00  0.00     0.127 C 
HETATM    8  N2  UNL     1       9.102 -24.362 -20.327  1.00  0.00    -0.352 N 
HETATM    9  C5  UNL     1       7.940 -23.902 -21.000  1.00  0.00     0.224 C 
HETATM   10  C11 UNL     1       9.309 -25.731 -19.932  1.00  0.00     0.127 C 
HETATM   11  O2  UNL     1       7.833 -22.699 -21.332  1.00  0.00    -0.273 OA
HETATM   12  C12 UNL     1      10.607 -26.318 -20.402  1.00  0.00     0.045 C 
BRANCH   9  13
HETATM   13  C6  UNL     1       6.805 -24.801 -21.343  1.00  0.00     0.081 C 
HETATM   14  C7  UNL     1       5.932 -24.197 -22.417  1.00  0.00     0.041 C 
HETATM   15  C8  UNL     1       4.522 -24.756 -22.411  1.00  0.00     0.233 C 
HETATM   16  N3  UNL     1       3.845 -24.453 -21.161  1.00  0.00    -0.075 N 
HETATM   17  C9  UNL     1       4.794 -24.002 -20.160  1.00  0.00     0.233 C 
ATOM     18  H32 UNL     1       3.089 -23.782 -21.295  1.00  0.00     0.277 HD
ATOM     19  H31 UNL     1       3.292 -25.243 -20.829  1.00  0.00     0.277 HD
HETATM   20  C10 UNL     1       5.936 -24.979 -20.110  1.00  0.00     0.041 C 
ENDBRANCH   9  13
ENDBRANCH   3   5
BRANCH   2  21
HETATM   21  C13 UNL     1      15.478 -25.556 -21.351  1.00  0.00     0.093 C 
HETATM   22  C14 UNL     1      15.771 -27.029 -21.381  1.00  0.00    -0.000 C 
HETATM   23  C15 UNL     1      15.520 -27.808 -20.153  1.00  0.00     0.006 C 
HETATM   24  C18 UNL     1      17.323 -26.933 -21.262  1.00  0.00     0.011 C 
HETATM   25  C16 UNL     1      16.451 -27.145 -19.134  1.00  0.00     0.006 C 
HETATM   26  C17 UNL     1      17.261 -26.131 -19.950  1.00  0.00    -0.003 C 
HETATM   27  C19 UNL     1      16.416 -24.959 -20.354  1.00  0.00    -0.003 C 
BRANCH  27  28
HETATM   28  C20 UNL     1      17.322 -23.950 -21.035  1.00  0.00     0.175 C 
BRANCH  28  29
HETATM   29  O3  UNL     1      16.589 -23.083 -21.869  1.00  0.00    -0.400 OA
ATOM     30  H3  UNL     1      17.070 -22.283 -22.044  1.00  0.00     0.209 HD
ENDBRANCH  28  29
ENDBRANCH  27  28
BRANCH  27  31
HETATM   31  C21 UNL     1      15.796 -24.303 -19.188  1.00  0.00     0.017 C 
BRANCH  31  32
HETATM   32  C22 UNL     1      16.798 -23.586 -18.324  1.00  0.00    -0.014 A 
HETATM   33  C23 UNL     1      16.115 -22.991 -17.072  1.00  0.00     0.005 A 
HETATM   34  C24 UNL     1      17.223 -23.995 -17.000  1.00  0.00     0.005 A 
ENDBRANCH  31  32
ENDBRANCH  27  31
ENDBRANCH   2  21
TORSDOF 7
ENDMDL
MODEL 4
REMARK VINA RESULT: -7.083542255      4.682      7.711
REMARK  7 active torsions:
REMARK  status: ('A' for Active; 'I' for Inactive)
REMARK       I    between atoms: C1_2  and  N1_3 
REMARK    1  A    between atoms: C1_2  and  C13_21 
REMARK    2  A    between atoms: N1_3  and  C2_5 
REMARK       I    between atoms: N2_8  and  C5_9 
REMARK    3  A    between atoms: C5_9  and  C6_11 
REMARK    4  A    between atoms: C19_27  and  C20_28 
REMARK    5  A    between atoms: C19_27  and  C21_31 
REMARK    6  A    between atoms: C20_28  and  O3_29 
REMARK    7  A    between atoms: C21_31  and  C22_32 
ROOT
HETATM    1  O1  UNL     1      12.376 -20.858 -18.978  1.00  0.00    -0.273 OA
HETATM    2  C1  UNL     1      12.291 -20.240 -20.118  1.00  0.00     0.223 C 
HETATM    3  N1  UNL     1      12.798 -21.053 -21.142  1.00  0.00    -0.356 N 
ATOM      4  H1  UNL     1      12.787 -20.675 -22.090  1.00  0.00     0.162 HD
ENDROOT
BRANCH   3   5
HETATM    5  C2  UNL     1      13.338 -22.389 -20.962  1.00  0.00     0.087 C 
HETATM    6  C3  UNL     1      14.811 -22.302 -21.301  1.00  0.00     0.045 C 
HETATM    7  C4  UNL     1      15.536 -23.585 -21.084  1.00  0.00     0.127 C 
HETATM    8  N2  UNL     1      14.675 -24.735 -21.302  1.00  0.00    -0.352 N 
HETATM    9  C5  UNL     1      14.974 -25.946 -20.625  1.00  0.00     0.224 C 
HETATM   10  C11 UNL     1      13.557 -24.573 -22.196  1.00  0.00     0.127 C 
HETATM   11  O2  UNL     1      15.951 -26.014 -19.845  1.00  0.00    -0.273 OA
HETATM   12  C12 UNL     1      12.676 -23.402 -21.872  1.00  0.00     0.045 C 
BRANCH   9  13
HETATM   13  C6  UNL     1      14.162 -27.181 -20.798  1.00  0.00     0.081 C 
HETATM   14  C7  UNL     1      13.162 -27.343 -19.678  1.00  0.00     0.041 C 
HETATM   15  C8  UNL     1      12.722 -28.781 -19.486  1.00  0.00     0.233 C 
HETATM   16  N3  UNL     1      13.845 -29.625 -19.112  1.00  0.00    -0.075 N 
HETATM   17  C9  UNL     1      15.103 -28.940 -19.348  1.00  0.00     0.233 C 
ATOM     18  H32 UNL     1      13.767 -29.953 -18.150  1.00  0.00     0.277 HD
ATOM     19  H31 UNL     1      13.812 -30.529 -19.584  1.00  0.00     0.277 HD
HETATM   20  C10 UNL     1      15.089 -28.384 -20.745  1.00  0.00     0.041 C 
ENDBRANCH   9  13
ENDBRANCH   3   5
BRANCH   2  21
HETATM   21  C13 UNL     1      11.731 -18.933 -20.107  1.00  0.00     0.093 C 
HETATM   22  C14 UNL     1      10.736 -18.672 -21.201  1.00  0.00    -0.000 C 
HETATM   23  C15 UNL     1      11.248 -18.498 -22.574  1.00  0.00     0.006 C 
HETATM   24  C18 UNL     1      10.468 -17.169 -20.880  1.00  0.00     0.011 C 
HETATM   25  C16 UNL     1      12.164 -17.278 -22.443  1.00  0.00     0.006 C 
HETATM   26  C17 UNL     1      11.953 -16.786 -21.007  1.00  0.00    -0.003 C 
HETATM   27  C19 UNL     1      12.589 -17.715 -20.014  1.00  0.00    -0.003 C 
BRANCH  27  28
HETATM   28  C20 UNL     1      12.449 -17.086 -18.641  1.00  0.00     0.175 C 
BRANCH  28  29
HETATM   29  O3  UNL     1      11.643 -17.874 -17.796  1.00  0.00    -0.400 OA
ATOM     30  H3  UNL     1      11.995 -18.751 -17.700  1.00  0.00     0.209 HD
ENDBRANCH  28  29
ENDBRANCH  27  28
BRANCH  27  31
HETATM   31  C21 UNL     1      14.025 -17.906 -20.286  1.00  0.00     0.017 C 
BRANCH  31  32
HETATM   32  C22 UNL     1      14.852 -17.957 -19.029  1.00  0.00    -0.014 A 
HETATM   33  C23 UNL     1      15.765 -19.204 -19.024  1.00  0.00     0.005 A 
HETATM   34  C24 UNL     1      16.292 -17.805 -18.955  1.00  0.00     0.005 A 
ENDBRANCH  31  32
ENDBRANCH  27  31
ENDBRANCH   2  21
TORSDOF 7
ENDMDL
MODEL 5
REMARK VINA RESULT: -6.925935976      2.768      4.256
REMARK  7 active torsions:
REMARK  status: ('A' for Active; 'I' for Inactive)
REMARK       I    between atoms: C1_2  and  N1_3 
REMARK    1  A    between atoms: C1_2  and  C13_21 
REMARK    2  A    between atoms: N1_3  and  C2_5 
REMARK       I    between atoms: N2_8  and  C5_9 
REMARK    3  A    between atoms: C5_9  and  C6_11 
REMARK    4  A    between atoms: C19_27  and  C20_28 
REMARK    5  A    between atoms: C19_27  and  C21_31 
REMARK    6  A    between atoms: C20_28  and  O3_29 
REMARK    7  A    between atoms: C21_31  and  C22_32 
ROOT
HETATM    1  O1  UNL     1      14.984 -20.516 -21.023  1.00  0.00    -0.273 OA
HETATM    2  C1  UNL     1      15.755 -21.559 -21.110  1.00  0.00     0.223 C 
HETATM    3  N1  UNL     1      14.984 -22.729 -21.063  1.00  0.00    -0.356 N 
ATOM      4  H1  UNL     1      15.479 -23.620 -21.122  1.00  0.00     0.162 HD
ENDROOT
BRANCH   3   5
HETATM    5  C2  UNL     1      13.538 -22.775 -20.938  1.00  0.00     0.087 C 
HETATM    6  C3  UNL     1      13.235 -22.663 -19.459  1.00  0.00     0.045 C 
HETATM    7  C4  UNL     1      11.776 -22.610 -19.166  1.00  0.00     0.127 C 
HETATM    8  N2  UNL     1      11.001 -23.357 -20.142  1.00  0.00    -0.352 N 
HETATM    9  C5  UNL     1       9.654 -22.978 -20.376  1.00  0.00     0.224 C 
HETATM   10  C11 UNL     1      11.656 -24.445 -20.823  1.00  0.00     0.127 C 
HETATM   11  O2  UNL     1       9.151 -22.009 -19.763  1.00  0.00    -0.273 OA
HETATM   12  C12 UNL     1      12.958 -24.071 -21.468  1.00  0.00     0.045 C 
BRANCH   9  13
HETATM   13  C6  UNL     1       8.777 -23.694 -21.342  1.00  0.00     0.081 C 
HETATM   14  C7  UNL     1       7.663 -22.802 -21.838  1.00  0.00     0.041 C 
HETATM   15  C8  UNL     1       6.468 -23.583 -22.349  1.00  0.00     0.233 C 
HETATM   16  N3  UNL     1       5.871 -24.377 -21.288  1.00  0.00    -0.075 N 
HETATM   17  C9  UNL     1       6.762 -24.460 -20.145  1.00  0.00     0.233 C 
ATOM     18  H32 UNL     1       4.951 -24.025 -21.025  1.00  0.00     0.277 HD
ATOM     19  H31 UNL     1       5.592 -25.301 -21.617  1.00  0.00     0.277 HD
HETATM   20  C10 UNL     1       8.125 -24.867 -20.631  1.00  0.00     0.041 C 
ENDBRANCH   9  13
ENDBRANCH   3   5
BRANCH   2  21
HETATM   21  C13 UNL     1      17.152 -21.324 -21.229  1.00  0.00     0.093 C 
HETATM   22  C14 UNL     1      17.684 -21.424 -22.631  1.00  0.00    -0.000 C 
HETATM   23  C15 UNL     1      17.804 -22.767 -23.229  1.00  0.00     0.006 C 
HETATM   24  C18 UNL     1      19.191 -21.202 -22.294  1.00  0.00     0.011 C 
HETATM   25  C16 UNL     1      18.780 -23.474 -22.284  1.00  0.00     0.006 C 
HETATM   26  C17 UNL     1      19.236 -22.383 -21.309  1.00  0.00    -0.003 C 
HETATM   27  C19 UNL     1      18.141 -22.016 -20.351  1.00  0.00    -0.003 C 
BRANCH  27  28
HETATM   28  C20 UNL     1      18.716 -21.037 -19.346  1.00  0.00     0.175 C 
BRANCH  28  29
HETATM   29  O3  UNL     1      18.012 -19.816 -19.358  1.00  0.00    -0.400 OA
ATOM     30  H3  UNL     1      18.336 -19.224 -18.689  1.00  0.00     0.209 HD
ENDBRANCH  28  29
ENDBRANCH  27  28
BRANCH  27  31
HETATM   31  C21 UNL     1      17.645 -23.191 -19.611  1.00  0.00     0.017 C 
BRANCH  31  32
HETATM   32  C22 UNL     1      17.620 -22.973 -18.122  1.00  0.00    -0.014 A 
HETATM   33  C23 UNL     1      16.174 -23.042 -17.582  1.00  0.00     0.005 A 
HETATM   34  C24 UNL     1      17.262 -23.963 -17.126  1.00  0.00     0.005 A 
ENDBRANCH  31  32
ENDBRANCH  27  31
ENDBRANCH   2  21
TORSDOF 7
ENDMDL
